# DDEC6 charges by PACMAN v1.1 (https://github.com/mtap-research/PACMAN-charge/)
data_KOGTEI_ASR_pacman
_symmetry_space_group_name_H-M   'P 1'
_cell_length_a   32.95040000
_cell_length_b   32.95040000
_cell_length_c   32.95040000
_cell_angle_alpha   109.47100000
_cell_angle_beta   109.47100000
_cell_angle_gamma   109.47100000
_symmetry_Int_Tables_number   1
_chemical_formula_structural   In3H26C42(N2O5)3
_chemical_formula_sum   'In36 H312 C504 N72 O180'
_cell_volume   27539.98694428
_cell_formula_units_Z   12
loop_
 _symmetry_equiv_pos_site_id
 _symmetry_equiv_pos_as_xyz
  1  'x, y, z'
loop_
 _atom_site_type_symbol
 _atom_site_label
 _atom_site_symmetry_multiplicity
 _atom_site_fract_x
 _atom_site_fract_y
 _atom_site_fract_z
 _atom_site_occupancy
 _atom_site_charge
In  In1  1  0.62213000  0.81795000  0.71538000  1.0 1.3995909673
In  In2  1  0.60257000  0.90675000  0.78462000  1.0 1.3995909673
In  In3  1  0.87787000  0.59325000  0.19582000  1.0 1.3995909673
In  In4  1  0.89743000  0.68205000  0.30418000  1.0 1.3995909673
In  In5  1  0.68205000  0.30418000  0.89743000  1.0 1.3995909673
In  In6  1  0.59325000  0.19582000  0.87787000  1.0 1.3995909673
In  In7  1  0.90675000  0.78462000  0.60257000  1.0 1.3995909673
In  In8  1  0.81795000  0.71538000  0.62213000  1.0 1.3995909673
In  In9  1  0.19582000  0.87787000  0.59325000  1.0 1.3995909673
In  In10  1  0.30418000  0.89743000  0.68205000  1.0 1.3995909673
In  In11  1  0.71538000  0.62213000  0.81795000  1.0 1.3995909673
In  In12  1  0.78462000  0.60257000  0.90675000  1.0 1.3995909673
In  In13  1  0.31795000  0.12213000  0.21538000  1.0 1.3995909673
In  In14  1  0.40675000  0.10257000  0.28462000  1.0 1.3995909673
In  In15  1  0.09325000  0.37787000  0.69582000  1.0 1.3995909673
In  In16  1  0.18205000  0.39743000  0.80418000  1.0 1.3995909673
In  In17  1  0.80418000  0.18205000  0.39743000  1.0 1.3995909673
In  In18  1  0.69582000  0.09325000  0.37787000  1.0 1.3995909673
In  In19  1  0.28462000  0.40675000  0.10257000  1.0 1.3995909673
In  In20  1  0.21538000  0.31795000  0.12213000  1.0 1.3995909673
In  In21  1  0.37787000  0.69582000  0.09325000  1.0 1.3995909673
In  In22  1  0.39743000  0.80418000  0.18205000  1.0 1.3995909673
In  In23  1  0.12213000  0.21538000  0.31795000  1.0 1.3995909673
In  In24  1  0.10257000  0.28462000  0.40675000  1.0 1.3995909673
In  In25  1  0.53091000  0.78091000  0.75000000  1.0 1.4498885435
In  In26  1  0.96909000  0.71909000  0.25000000  1.0 1.4498885435
In  In27  1  0.71909000  0.25000000  0.96909000  1.0 1.4654829187
In  In28  1  0.78091000  0.75000000  0.53091000  1.0 1.4498885435
In  In29  1  0.25000000  0.96909000  0.71909000  1.0 1.4498885435
In  In30  1  0.75000000  0.53091000  0.78091000  1.0 1.4498885435
In  In31  1  0.28091000  0.03091000  0.25000000  1.0 1.4498885435
In  In32  1  0.21909000  0.46909000  0.75000000  1.0 1.4498885435
In  In33  1  0.75000000  0.21909000  0.46909000  1.0 1.4498885435
In  In34  1  0.25000000  0.28091000  0.03091000  1.0 1.4654829187
In  In35  1  0.46909000  0.75000000  0.21909000  1.0 1.4498885435
In  In36  1  0.03091000  0.25000000  0.28091000  1.0 1.4498885435
H  H1  1  0.63260000  0.77000000  0.54620000  1.0 0.3047860247
H  H2  1  0.67460000  0.76060000  0.54480000  1.0 0.3132423374
H  H3  1  0.42910000  0.59570000  0.43120000  1.0 0.2318998502
H  H4  1  0.42190000  0.65690000  0.60000000  1.0 0.1482020028
H  H5  1  0.53430000  0.69850000  0.57060000  1.0 0.129376923
H  H6  1  0.48120000  0.63370000  0.48810000  1.0 0.1117934188
H  H7  1  0.37750000  0.51740000  0.26030000  1.0 0.1202002884
H  H8  1  0.41440000  0.57500000  0.34440000  1.0 0.1202002884
H  H9  1  0.33180000  0.46810000  0.36330000  1.0 0.129376923
H  H10  1  0.29480000  0.41040000  0.27920000  1.0 0.1117934188
H  H11  1  0.62180000  0.79020000  0.61420000  1.0 0.1117934188
H  H12  1  0.71770000  0.80910000  0.74020000  1.0 0.1117934188
H  H13  1  0.75960000  0.78520000  0.70240000  1.0 0.129376923
H  H14  1  0.72380000  0.08640000  0.95380000  1.0 0.3047860247
H  H15  1  0.71580000  0.12980000  0.95520000  1.0 0.3132423374
H  H16  1  0.66450000  0.99790000  0.06880000  1.0 0.2318998502
H  H17  1  0.55690000  0.82190000  0.90000000  1.0 0.1482020028
H  H18  1  0.62790000  0.96370000  0.92940000  1.0 0.129376923
H  H19  1  0.64560000  0.99310000  0.01190000  1.0 0.1117934188
H  H20  1  0.75710000  0.11720000  0.23970000  1.0 0.1202002884
H  H21  1  0.73060000  0.07000000  0.15560000  1.0 0.1202002884
H  H22  1  0.60480000  0.96850000  0.13670000  1.0 0.135509817
H  H23  1  0.63120000  0.01560000  0.22080000  1.0 0.1117934188
H  H24  1  0.67600000  0.00760000  0.88580000  1.0 0.1117934188
H  H25  1  0.56890000  0.97750000  0.75980000  1.0 0.1117934188
H  H26  1  0.58280000  0.05720000  0.79760000  1.0 0.129376923
H  H27  1  0.86740000  0.41360000  0.13740000  1.0 0.3047860247
H  H28  1  0.82540000  0.37020000  0.08600000  1.0 0.3132423374
H  H29  1  0.07090000  0.50210000  0.16660000  1.0 0.2318998502
H  H30  1  0.07810000  0.67810000  0.23500000  1.0 0.1482020028
H  H31  1  0.96570000  0.53630000  0.16420000  1.0 0.129376923
H  H32  1  0.01880000  0.50690000  0.15250000  1.0 0.1117934188
H  H33  1  0.12250000  0.38280000  0.13990000  1.0 0.1202002884
H  H34  1  0.08560000  0.43000000  0.16060000  1.0 0.1202002884
H  H35  1  0.16820000  0.53150000  0.13630000  1.0 0.129376923
H  H36  1  0.20520000  0.48440000  0.11560000  1.0 0.1202002884
H  H37  1  0.87820000  0.49240000  0.16840000  1.0 0.1117934188
H  H38  1  0.78230000  0.52250000  0.09140000  1.0 0.1117934188
H  H39  1  0.74040000  0.44280000  0.02560000  1.0 0.129376923
H  H40  1  0.77620000  0.73000000  0.36260000  1.0 0.3047860247
H  H41  1  0.78420000  0.73940000  0.41400000  1.0 0.3132423374
H  H42  1  0.83550000  0.90430000  0.33340000  1.0 0.2318998502
H  H43  1  0.94310000  0.84310000  0.26500000  1.0 0.1482020028
H  H44  1  0.87210000  0.80150000  0.33580000  1.0 0.129376923
H  H45  1  0.85440000  0.86630000  0.34750000  1.0 0.1117934188
H  H46  1  0.74290000  0.98260000  0.36010000  1.0 0.1202002884
H  H47  1  0.76940000  0.92500000  0.33940000  1.0 0.1202002884
H  H48  1  0.89520000  0.03190000  0.36370000  1.0 0.129376923
H  H49  1  0.86880000  0.08960000  0.38440000  1.0 0.1202002884
H  H50  1  0.82400000  0.70980000  0.33160000  1.0 0.1117934188
H  H51  1  0.93110000  0.69090000  0.40860000  1.0 0.1117934188
H  H52  1  0.91720000  0.71480000  0.47440000  1.0 0.129376923
H  H53  1  0.73000000  0.36260000  0.77620000  1.0 0.3047860247
H  H54  1  0.73940000  0.41400000  0.78420000  1.0 0.3132423374
H  H55  1  0.90430000  0.33340000  0.83550000  1.0 0.2318998502
H  H56  1  0.84310000  0.26500000  0.94310000  1.0 0.1482020028
H  H57  1  0.80150000  0.33580000  0.87210000  1.0 0.129376923
H  H58  1  0.86630000  0.34750000  0.85440000  1.0 0.1117934188
H  H59  1  0.98260000  0.36010000  0.74290000  1.0 0.1202002884
H  H60  1  0.92500000  0.33940000  0.76940000  1.0 0.1202002884
H  H61  1  0.03190000  0.36370000  0.89520000  1.0 0.129376923
H  H62  1  0.08960000  0.38440000  0.86880000  1.0 0.1117934188
H  H63  1  0.70980000  0.33160000  0.82400000  1.0 0.1117934188
H  H64  1  0.69090000  0.40860000  0.93110000  1.0 0.1117934188
H  H65  1  0.71480000  0.47440000  0.91720000  1.0 0.129376923
H  H66  1  0.41360000  0.13740000  0.86740000  1.0 0.3047860247
H  H67  1  0.37020000  0.08600000  0.82540000  1.0 0.3132423374
H  H68  1  0.50210000  0.16660000  0.07090000  1.0 0.2318998502
H  H69  1  0.67810000  0.23500000  0.07810000  1.0 0.1482020028
H  H70  1  0.53630000  0.16420000  0.96570000  1.0 0.129376923
H  H71  1  0.50690000  0.15250000  0.01880000  1.0 0.1117934188
H  H72  1  0.38280000  0.13990000  0.12250000  1.0 0.1202002884
H  H73  1  0.43000000  0.16060000  0.08560000  1.0 0.129376923
H  H74  1  0.53150000  0.13630000  0.16820000  1.0 0.129376923
H  H75  1  0.48440000  0.11560000  0.20520000  1.0 0.1117934188
H  H76  1  0.49240000  0.16840000  0.87820000  1.0 0.1117934188
H  H77  1  0.52250000  0.09140000  0.78230000  1.0 0.1117934188
H  H78  1  0.44280000  0.02560000  0.74040000  1.0 0.129376923
H  H79  1  0.08640000  0.95380000  0.72380000  1.0 0.3047860247
H  H80  1  0.12980000  0.95520000  0.71580000  1.0 0.3132423374
H  H81  1  0.99790000  0.06880000  0.66450000  1.0 0.2318998502
H  H82  1  0.82190000  0.90000000  0.55690000  1.0 0.1482020028
H  H83  1  0.96370000  0.92940000  0.62790000  1.0 0.129376923
H  H84  1  0.99310000  0.01190000  0.64560000  1.0 0.1117934188
H  H85  1  0.11720000  0.23970000  0.75710000  1.0 0.1202002884
H  H86  1  0.07000000  0.15560000  0.73060000  1.0 0.1202002884
H  H87  1  0.96850000  0.13670000  0.60480000  1.0 0.129376923
H  H88  1  0.01560000  0.22080000  0.63120000  1.0 0.1117934188
H  H89  1  0.00760000  0.88580000  0.67600000  1.0 0.1117934188
H  H90  1  0.97750000  0.75980000  0.56890000  1.0 0.1117934188
H  H91  1  0.05720000  0.79760000  0.58280000  1.0 0.129376923
H  H92  1  0.77000000  0.54620000  0.63260000  1.0 0.3047860247
H  H93  1  0.76060000  0.54480000  0.67460000  1.0 0.3132423374
H  H94  1  0.59570000  0.43120000  0.42910000  1.0 0.2318998502
H  H95  1  0.65690000  0.60000000  0.42190000  1.0 0.1482020028
H  H96  1  0.69850000  0.57060000  0.53430000  1.0 0.129376923
H  H97  1  0.63370000  0.48810000  0.48120000  1.0 0.1117934188
H  H98  1  0.51740000  0.26030000  0.37750000  1.0 0.1202002884
H  H99  1  0.57500000  0.34440000  0.41440000  1.0 0.1202002884
H  H100  1  0.46810000  0.36330000  0.33180000  1.0 0.129376923
H  H101  1  0.41040000  0.27920000  0.29480000  1.0 0.1202002884
H  H102  1  0.79020000  0.61420000  0.62180000  1.0 0.1117934188
H  H103  1  0.80910000  0.74020000  0.71770000  1.0 0.1117934188
H  H104  1  0.78520000  0.70240000  0.75960000  1.0 0.129376923
H  H105  1  0.13740000  0.86740000  0.41360000  1.0 0.3132423374
H  H106  1  0.08600000  0.82540000  0.37020000  1.0 0.315474568
H  H107  1  0.16660000  0.07090000  0.50210000  1.0 0.2318998502
H  H108  1  0.23500000  0.07810000  0.67810000  1.0 0.1482020028
H  H109  1  0.16420000  0.96570000  0.53630000  1.0 0.129376923
H  H110  1  0.15250000  0.01880000  0.50690000  1.0 0.1117934188
H  H111  1  0.13990000  0.12250000  0.38280000  1.0 0.1202002884
H  H112  1  0.16060000  0.08560000  0.43000000  1.0 0.1202002884
H  H113  1  0.13630000  0.16820000  0.53150000  1.0 0.129376923
H  H114  1  0.11560000  0.20520000  0.48440000  1.0 0.1117934188
H  H115  1  0.16840000  0.87820000  0.49240000  1.0 0.1117934188
H  H116  1  0.09140000  0.78230000  0.52250000  1.0 0.1117934188
H  H117  1  0.02560000  0.74040000  0.44280000  1.0 0.129376923
H  H118  1  0.36260000  0.77620000  0.73000000  1.0 0.3047860247
H  H119  1  0.41400000  0.78420000  0.73940000  1.0 0.3132423374
H  H120  1  0.33340000  0.83550000  0.90430000  1.0 0.2318998502
H  H121  1  0.26500000  0.94310000  0.84310000  1.0 0.1482020028
H  H122  1  0.33580000  0.87210000  0.80150000  1.0 0.129376923
H  H123  1  0.34750000  0.85440000  0.86630000  1.0 0.1117934188
H  H124  1  0.36010000  0.74290000  0.98260000  1.0 0.1202002884
H  H125  1  0.33940000  0.76940000  0.92500000  1.0 0.1202002884
H  H126  1  0.36370000  0.89520000  0.03190000  1.0 0.129376923
H  H127  1  0.38440000  0.86880000  0.08960000  1.0 0.1202002884
H  H128  1  0.33160000  0.82400000  0.70980000  1.0 0.1117934188
H  H129  1  0.40860000  0.93110000  0.69090000  1.0 0.1117934188
H  H130  1  0.47440000  0.91720000  0.71480000  1.0 0.129376923
H  H131  1  0.54620000  0.63260000  0.77000000  1.0 0.3047860247
H  H132  1  0.54480000  0.67460000  0.76060000  1.0 0.3132423374
H  H133  1  0.43120000  0.42910000  0.59570000  1.0 0.2318998502
H  H134  1  0.60000000  0.42190000  0.65690000  1.0 0.1482020028
H  H135  1  0.57060000  0.53430000  0.69850000  1.0 0.129376923
H  H136  1  0.48810000  0.48120000  0.63370000  1.0 0.1117934188
H  H137  1  0.26030000  0.37750000  0.51740000  1.0 0.1202002884
H  H138  1  0.34440000  0.41440000  0.57500000  1.0 0.1202002884
H  H139  1  0.36330000  0.33180000  0.46810000  1.0 0.129376923
H  H140  1  0.27920000  0.29480000  0.41040000  1.0 0.1117934188
H  H141  1  0.61420000  0.62180000  0.79020000  1.0 0.1117934188
H  H142  1  0.74020000  0.71770000  0.80910000  1.0 0.1117934188
H  H143  1  0.70240000  0.75960000  0.78520000  1.0 0.129376923
H  H144  1  0.95380000  0.72380000  0.08640000  1.0 0.3047860247
H  H145  1  0.95520000  0.71580000  0.12980000  1.0 0.3132423374
H  H146  1  0.06880000  0.66450000  0.99790000  1.0 0.2318998502
H  H147  1  0.90000000  0.55690000  0.82190000  1.0 0.1482020028
H  H148  1  0.92940000  0.62790000  0.96370000  1.0 0.129376923
H  H149  1  0.01190000  0.64560000  0.99310000  1.0 0.1117934188
H  H150  1  0.23970000  0.75710000  0.11720000  1.0 0.1202002884
H  H151  1  0.15560000  0.73060000  0.07000000  1.0 0.1202002884
H  H152  1  0.13670000  0.60480000  0.96850000  1.0 0.129376923
H  H153  1  0.22080000  0.63120000  0.01560000  1.0 0.1202002884
H  H154  1  0.88580000  0.67600000  0.00760000  1.0 0.1117934188
H  H155  1  0.75980000  0.56890000  0.97750000  1.0 0.1117934188
H  H156  1  0.79760000  0.58280000  0.05720000  1.0 0.129376923
H  H157  1  0.27000000  0.13260000  0.04620000  1.0 0.3132423374
H  H158  1  0.26060000  0.17460000  0.04480000  1.0 0.3132423374
H  H159  1  0.09570000  0.92910000  0.93120000  1.0 0.2318998502
H  H160  1  0.15690000  0.92190000  0.10000000  1.0 0.1482020028
H  H161  1  0.19850000  0.03430000  0.07060000  1.0 0.129376923
H  H162  1  0.13370000  0.98120000  0.98810000  1.0 0.1117934188
H  H163  1  0.01740000  0.87750000  0.76030000  1.0 0.1202002884
H  H164  1  0.07500000  0.91440000  0.84440000  1.0 0.1202002884
H  H165  1  0.96810000  0.83180000  0.86330000  1.0 0.129376923
H  H166  1  0.91040000  0.79480000  0.77920000  1.0 0.1117934188
H  H167  1  0.29020000  0.12180000  0.11420000  1.0 0.1117934188
H  H168  1  0.30910000  0.21770000  0.24020000  1.0 0.1117934188
H  H169  1  0.28520000  0.25960000  0.20240000  1.0 0.129376923
H  H170  1  0.58640000  0.22380000  0.45380000  1.0 0.3047860247
H  H171  1  0.62980000  0.21580000  0.45520000  1.0 0.3132423374
H  H172  1  0.49790000  0.16450000  0.56880000  1.0 0.2318998502
H  H173  1  0.32190000  0.05690000  0.40000000  1.0 0.1482020028
H  H174  1  0.46370000  0.12790000  0.42940000  1.0 0.129376923
H  H175  1  0.49310000  0.14560000  0.51190000  1.0 0.1117934188
H  H176  1  0.61720000  0.25710000  0.73970000  1.0 0.1202002884
H  H177  1  0.57000000  0.23060000  0.65560000  1.0 0.1202002884
H  H178  1  0.46850000  0.10480000  0.63670000  1.0 0.129376923
H  H179  1  0.51560000  0.13120000  0.72080000  1.0 0.1117934188
H  H180  1  0.50760000  0.17600000  0.38580000  1.0 0.1117934188
H  H181  1  0.47750000  0.06890000  0.25980000  1.0 0.1117934188
H  H182  1  0.55720000  0.08280000  0.29760000  1.0 0.129376923
H  H183  1  0.91360000  0.36740000  0.63740000  1.0 0.3047860247
H  H184  1  0.87020000  0.32540000  0.58600000  1.0 0.3132423374
H  H185  1  0.00210000  0.57090000  0.66666667  1.0 0.2318998502
H  H186  1  0.17810000  0.57810000  0.73500000  1.0 0.1482020028
H  H187  1  0.03630000  0.46570000  0.66420000  1.0 0.129376923
H  H188  1  0.00690000  0.51880000  0.65250000  1.0 0.1117934188
H  H189  1  0.88280000  0.62250000  0.63990000  1.0 0.1202002884
H  H190  1  0.93000000  0.58560000  0.66060000  1.0 0.1202002884
H  H191  1  0.03150000  0.66820000  0.63630000  1.0 0.129376923
H  H192  1  0.98440000  0.70520000  0.61560000  1.0 0.1202002884
H  H193  1  0.99240000  0.37820000  0.66840000  1.0 0.1117934188
H  H194  1  0.02250000  0.28230000  0.59140000  1.0 0.1117934188
H  H195  1  0.94280000  0.24040000  0.52560000  1.0 0.129376923
H  H196  1  0.23000000  0.27620000  0.86260000  1.0 0.3047860247
H  H197  1  0.23940000  0.28420000  0.91400000  1.0 0.3132423374
H  H198  1  0.40430000  0.33550000  0.83340000  1.0 0.2318998502
H  H199  1  0.34310000  0.44310000  0.76500000  1.0 0.1482020028
H  H200  1  0.30150000  0.37210000  0.83580000  1.0 0.129376923
H  H201  1  0.36630000  0.35440000  0.84750000  1.0 0.1117934188
H  H202  1  0.48260000  0.24290000  0.86010000  1.0 0.1202002884
H  H203  1  0.42500000  0.26940000  0.83940000  1.0 0.1202002884
H  H204  1  0.53190000  0.39520000  0.86370000  1.0 0.129376923
H  H205  1  0.58960000  0.36880000  0.88440000  1.0 0.1117934188
H  H206  1  0.20980000  0.32400000  0.83160000  1.0 0.1117934188
H  H207  1  0.19090000  0.43110000  0.90860000  1.0 0.1117934188
H  H208  1  0.21480000  0.41720000  0.97440000  1.0 0.129376923
H  H209  1  0.86260000  0.23000000  0.27620000  1.0 0.3047860247
H  H210  1  0.91400000  0.23940000  0.28420000  1.0 0.3132423374
H  H211  1  0.83340000  0.40430000  0.33550000  1.0 0.2318998502
H  H212  1  0.76500000  0.34310000  0.44310000  1.0 0.1482020028
H  H213  1  0.83580000  0.30150000  0.37210000  1.0 0.129376923
H  H214  1  0.84750000  0.36630000  0.35440000  1.0 0.1117934188
H  H215  1  0.86010000  0.48260000  0.24290000  1.0 0.1202002884
H  H216  1  0.83940000  0.42500000  0.26940000  1.0 0.1202002884
H  H217  1  0.86370000  0.53190000  0.39520000  1.0 0.129376923
H  H218  1  0.88440000  0.58960000  0.36880000  1.0 0.1202002884
H  H219  1  0.83160000  0.20980000  0.32400000  1.0 0.1117934188
H  H220  1  0.90860000  0.19090000  0.43110000  1.0 0.1117934188
H  H221  1  0.97440000  0.21480000  0.41720000  1.0 0.129376923
H  H222  1  0.63740000  0.91360000  0.36740000  1.0 0.3047860247
H  H223  1  0.58600000  0.87020000  0.32540000  1.0 0.3132423374
H  H224  1  0.66666667  0.00210000  0.57090000  1.0 0.2318998502
H  H225  1  0.73500000  0.17810000  0.57810000  1.0 0.1482020028
H  H226  1  0.66420000  0.03630000  0.46570000  1.0 0.129376923
H  H227  1  0.65250000  0.00690000  0.51880000  1.0 0.1117934188
H  H228  1  0.63990000  0.88280000  0.62250000  1.0 0.1202002884
H  H229  1  0.66060000  0.93000000  0.58560000  1.0 0.129376923
H  H230  1  0.63630000  0.03150000  0.66820000  1.0 0.129376923
H  H231  1  0.61560000  0.98440000  0.70520000  1.0 0.1117934188
H  H232  1  0.66840000  0.99240000  0.37820000  1.0 0.1117934188
H  H233  1  0.59140000  0.02250000  0.28230000  1.0 0.1117934188
H  H234  1  0.52560000  0.94280000  0.24040000  1.0 0.129376923
H  H235  1  0.45380000  0.58640000  0.22380000  1.0 0.3047860247
H  H236  1  0.45520000  0.62980000  0.21580000  1.0 0.3132423374
H  H237  1  0.56880000  0.49790000  0.16450000  1.0 0.2318998502
H  H238  1  0.40000000  0.32190000  0.05690000  1.0 0.1482020028
H  H239  1  0.42940000  0.46370000  0.12790000  1.0 0.129376923
H  H240  1  0.51190000  0.49310000  0.14560000  1.0 0.1117934188
H  H241  1  0.73970000  0.61720000  0.25710000  1.0 0.1202002884
H  H242  1  0.65560000  0.57000000  0.23060000  1.0 0.1202002884
H  H243  1  0.63670000  0.46850000  0.10480000  1.0 0.129376923
H  H244  1  0.72080000  0.51560000  0.13120000  1.0 0.1202002884
H  H245  1  0.38580000  0.50760000  0.17600000  1.0 0.1117934188
H  H246  1  0.25980000  0.47750000  0.06890000  1.0 0.1117934188
H  H247  1  0.29760000  0.55720000  0.08280000  1.0 0.129376923
H  H248  1  0.04620000  0.27000000  0.13260000  1.0 0.3047860247
H  H249  1  0.04480000  0.26060000  0.17460000  1.0 0.3132423374
H  H250  1  0.93120000  0.09570000  0.92910000  1.0 0.2318998502
H  H251  1  0.10000000  0.15690000  0.92190000  1.0 0.1482020028
H  H252  1  0.07060000  0.19850000  0.03430000  1.0 0.129376923
H  H253  1  0.98810000  0.13370000  0.98120000  1.0 0.1117934188
H  H254  1  0.76030000  0.01740000  0.87750000  1.0 0.1202002884
H  H255  1  0.84440000  0.07500000  0.91440000  1.0 0.129376923
H  H256  1  0.86330000  0.96810000  0.83180000  1.0 0.129376923
H  H257  1  0.77920000  0.91040000  0.79480000  1.0 0.1117934188
H  H258  1  0.11420000  0.29020000  0.12180000  1.0 0.1117934188
H  H259  1  0.24020000  0.30910000  0.21770000  1.0 0.1117934188
H  H260  1  0.20240000  0.28520000  0.25960000  1.0 0.129376923
H  H261  1  0.36740000  0.63740000  0.91360000  1.0 0.3132423374
H  H262  1  0.32540000  0.58600000  0.87020000  1.0 0.3132423374
H  H263  1  0.57090000  0.66666667  0.00210000  1.0 0.2318998502
H  H264  1  0.57810000  0.73500000  0.17810000  1.0 0.1482020028
H  H265  1  0.46570000  0.66420000  0.03630000  1.0 0.129376923
H  H266  1  0.51880000  0.65250000  0.00690000  1.0 0.1117934188
H  H267  1  0.62250000  0.63990000  0.88280000  1.0 0.1202002884
H  H268  1  0.58560000  0.66060000  0.93000000  1.0 0.1202002884
H  H269  1  0.66820000  0.63630000  0.03150000  1.0 0.129376923
H  H270  1  0.70520000  0.61560000  0.98440000  1.0 0.1117934188
H  H271  1  0.37820000  0.66840000  0.99240000  1.0 0.1117934188
H  H272  1  0.28230000  0.59140000  0.02250000  1.0 0.1117934188
H  H273  1  0.24040000  0.52560000  0.94280000  1.0 0.129376923
H  H274  1  0.27620000  0.86260000  0.23000000  1.0 0.3047860247
H  H275  1  0.28420000  0.91400000  0.23940000  1.0 0.3132423374
H  H276  1  0.33550000  0.83340000  0.40430000  1.0 0.2318998502
H  H277  1  0.44310000  0.76500000  0.34310000  1.0 0.1482020028
H  H278  1  0.37210000  0.83580000  0.30150000  1.0 0.129376923
H  H279  1  0.35440000  0.84750000  0.36630000  1.0 0.1117934188
H  H280  1  0.24290000  0.86010000  0.48260000  1.0 0.1202002884
H  H281  1  0.26940000  0.83940000  0.42500000  1.0 0.1202002884
H  H282  1  0.39520000  0.86370000  0.53190000  1.0 0.129376923
H  H283  1  0.36880000  0.88440000  0.58960000  1.0 0.1117934188
H  H284  1  0.32400000  0.83160000  0.20980000  1.0 0.1117934188
H  H285  1  0.43110000  0.90860000  0.19090000  1.0 0.1117934188
H  H286  1  0.41720000  0.97440000  0.21480000  1.0 0.129376923
H  H287  1  0.13260000  0.04620000  0.27000000  1.0 0.3047860247
H  H288  1  0.17460000  0.04480000  0.26060000  1.0 0.3132423374
H  H289  1  0.92910000  0.93120000  0.09570000  1.0 0.2318998502
H  H290  1  0.92190000  0.10000000  0.15690000  1.0 0.1482020028
H  H291  1  0.03430000  0.07060000  0.19850000  1.0 0.129376923
H  H292  1  0.98120000  0.98810000  0.13370000  1.0 0.1117934188
H  H293  1  0.87750000  0.76030000  0.01740000  1.0 0.1202002884
H  H294  1  0.91440000  0.84440000  0.07500000  1.0 0.1202002884
H  H295  1  0.83180000  0.86330000  0.96810000  1.0 0.129376923
H  H296  1  0.79480000  0.77920000  0.91040000  1.0 0.1117934188
H  H297  1  0.12180000  0.11420000  0.29020000  1.0 0.1117934188
H  H298  1  0.21770000  0.24020000  0.30910000  1.0 0.1117934188
H  H299  1  0.25960000  0.20240000  0.28520000  1.0 0.129376923
H  H300  1  0.22380000  0.45380000  0.58640000  1.0 0.3047860247
H  H301  1  0.21580000  0.45520000  0.62980000  1.0 0.3132423374
H  H302  1  0.16450000  0.56880000  0.49790000  1.0 0.2318998502
H  H303  1  0.05690000  0.40000000  0.32190000  1.0 0.1482020028
H  H304  1  0.12790000  0.42940000  0.46370000  1.0 0.129376923
H  H305  1  0.14560000  0.51190000  0.49310000  1.0 0.1117934188
H  H306  1  0.25710000  0.73970000  0.61720000  1.0 0.1202002884
H  H307  1  0.23060000  0.65560000  0.57000000  1.0 0.1202002884
H  H308  1  0.10480000  0.63670000  0.46850000  1.0 0.129376923
H  H309  1  0.13120000  0.72080000  0.51560000  1.0 0.1117934188
H  H310  1  0.17600000  0.38580000  0.50760000  1.0 0.1117934188
H  H311  1  0.06890000  0.25980000  0.47750000  1.0 0.1117934188
H  H312  1  0.08280000  0.29760000  0.55720000  1.0 0.129376923
C  C1  1  0.51440000  0.72600000  0.64240000  1.0 0.5896810971
C  C2  1  0.43390000  0.65220000  0.57730000  1.0 -0.1096024512
C  C3  1  0.48310000  0.68380000  0.59310000  1.0 -0.0588515342
C  C4  1  0.50070000  0.67690000  0.55980000  1.0 -0.0990763796
C  C5  1  0.46920000  0.63850000  0.51090000  1.0 -0.1483392236
C  C6  1  0.42010000  0.60690000  0.49520000  1.0 -0.0924969446
C  C7  1  0.40240000  0.61370000  0.52830000  1.0 -0.0473673908
C  C8  1  0.38780000  0.56360000  0.44580000  1.0 0.4112941152
C  C9  1  0.33270000  0.45850000  0.26180000  1.0 -0.0735697876
C  C10  1  0.36820000  0.50740000  0.28120000  1.0 -0.0990763796
C  C11  1  0.39010000  0.54160000  0.33110000  1.0 -0.2080644225
C  C12  1  0.37660000  0.52700000  0.36180000  1.0 0.1987054163
C  C13  1  0.34110000  0.47810000  0.34240000  1.0 -0.1635683718
C  C14  1  0.31900000  0.44380000  0.29240000  1.0 -0.0924969446
C  C15  1  0.74770000  0.76150000  0.61340000  1.0 0.6076673078
C  C16  1  0.30790000  0.42360000  0.20870000  1.0 0.5986713799
C  C17  1  0.71910000  0.77540000  0.63530000  1.0 -0.1258565868
C  C18  1  0.67650000  0.77740000  0.60790000  1.0 0.256260818
C  C19  1  0.65060000  0.78950000  0.63210000  1.0 -0.0473673908
C  C20  1  0.70640000  0.80010000  0.70630000  1.0 0.0048390405
C  C21  1  0.73170000  0.78670000  0.68360000  1.0 -0.1258565868
C  C22  1  0.58360000  0.87200000  0.85760000  1.0 0.5896810971
C  C23  1  0.57490000  0.85660000  0.92270000  1.0 -0.1096024512
C  C24  1  0.59070000  0.89000000  0.90690000  1.0 -0.0588515342
C  C25  1  0.61710000  0.94090000  0.94020000  1.0 -0.0990763796
C  C26  1  0.62760000  0.95830000  0.98910000  1.0 -0.1483392236
C  C27  1  0.61170000  0.92490000  0.00480000  1.0 -0.0924969446
C  C28  1  0.58540000  0.87410000  0.97170000  1.0 -0.0473673908
C  C29  1  0.61780000  0.94200000  0.05420000  1.0 0.4112941152
C  C30  1  0.69670000  0.07090000  0.23820000  1.0 -0.0735697876
C  C31  1  0.72620000  0.08700000  0.21880000  1.0 -0.0990763796
C  C32  1  0.71050000  0.05900000  0.16890000  1.0 -0.2080644225
C  C33  1  0.66520000  0.01480000  0.13820000  1.0 0.1987054163
C  C34  1  0.63570000  0.99870000  0.15760000  1.0 -0.1635683718
C  C35  1  0.65140000  0.02660000  0.20760000  1.0 -0.0924969446
C  C36  1  0.64810000  0.13430000  0.88660000  1.0 0.6076673078
C  C37  1  0.71490000  0.09920000  0.29130000  1.0 0.5986713799
C  C38  1  0.64010000  0.08380000  0.86470000  1.0 -0.1258565868
C  C39  1  0.66950000  0.06860000  0.89210000  1.0 0.256260818
C  C40  1  0.65740000  0.01850000  0.86790000  1.0 -0.0473673908
C  C41  1  0.59380000  0.00010000  0.79370000  1.0 0.005487891
C  C42  1  0.60310000  0.04810000  0.81640000  1.0 -0.1258565868
C  C43  1  0.98560000  0.62800000  0.21160000  1.0 0.5896810971
C  C44  1  0.06610000  0.64340000  0.21830000  1.0 -0.1096024512
C  C45  1  0.01690000  0.61000000  0.20070000  1.0 -0.0588515342
C  C46  1  0.99930000  0.55910000  0.17620000  1.0 -0.0990763796
C  C47  1  0.03080000  0.54170000  0.16930000  1.0 -0.1483392236
C  C48  1  0.07990000  0.57510000  0.18680000  1.0 -0.0924969446
C  C49  1  0.09760000  0.62590000  0.21130000  1.0 -0.0473673908
C  C50  1  0.11220000  0.55800000  0.17580000  1.0 0.4112941152
C  C51  1  0.16730000  0.42910000  0.12580000  1.0 -0.0735697876
C  C52  1  0.13180000  0.41300000  0.13920000  1.0 -0.0990763796
C  C53  1  0.10990000  0.44100000  0.15150000  1.0 -0.2080644225
C  C54  1  0.12340000  0.48520000  0.15040000  1.0 0.1987054163
C  C55  1  0.15890000  0.50130000  0.13700000  1.0 -0.1635683718
C  C56  1  0.18100000  0.47340000  0.12480000  1.0 -0.0924969446
C  C57  1  0.75230000  0.36570000  0.01380000  1.0 0.6076673078
C  C58  1  0.19210000  0.40080000  0.11570000  1.0 0.5986713799
C  C59  1  0.78090000  0.41620000  0.05630000  1.0 -0.1258565868
C  C60  1  0.82350000  0.43140000  0.10090000  1.0 0.256260818
C  C61  1  0.84940000  0.48150000  0.13890000  1.0 -0.0473673908
C  C62  1  0.79360000  0.49990000  0.09370000  1.0 0.005487891
C  C63  1  0.76830000  0.45190000  0.05500000  1.0 -0.1258565868
C  C64  1  0.91640000  0.77400000  0.28840000  1.0 0.5896810971
C  C65  1  0.92510000  0.84780000  0.28170000  1.0 -0.1096024512
C  C66  1  0.90930000  0.81620000  0.29930000  1.0 -0.0588515342
C  C67  1  0.88290000  0.82310000  0.32380000  1.0 -0.0990763796
C  C68  1  0.87240000  0.86150000  0.33070000  1.0 -0.1483392236
C  C69  1  0.88830000  0.89310000  0.31320000  1.0 -0.0924969446
C  C70  1  0.91460000  0.88630000  0.28870000  1.0 -0.0473673908
C  C71  1  0.88220000  0.93640000  0.32420000  1.0 0.4112941152
C  C72  1  0.80330000  0.04150000  0.37420000  1.0 -0.0735697876
C  C73  1  0.77380000  0.99260000  0.36080000  1.0 -0.0990763796
C  C74  1  0.78950000  0.95840000  0.34850000  1.0 -0.2080644225
C  C75  1  0.83480000  0.97300000  0.34960000  1.0 0.1987054163
C  C76  1  0.86430000  0.02190000  0.36300000  1.0 -0.1635683718
C  C77  1  0.84860000  0.05620000  0.37520000  1.0 -0.0924969446
C  C78  1  0.85190000  0.73850000  0.48620000  1.0 0.6076673078
C  C79  1  0.78510000  0.07640000  0.38430000  1.0 0.5986713799
C  C80  1  0.85990000  0.72460000  0.44370000  1.0 -0.1258565868
C  C81  1  0.83050000  0.72260000  0.39910000  1.0 0.256260818
C  C82  1  0.84260000  0.71050000  0.36110000  1.0 -0.0473673908
C  C83  1  0.90620000  0.69990000  0.40630000  1.0 0.0048390405
C  C84  1  0.89690000  0.71330000  0.44500000  1.0 -0.1258565868
C  C85  1  0.77400000  0.28840000  0.91640000  1.0 0.5896810971
C  C86  1  0.84780000  0.28170000  0.92510000  1.0 -0.1096024512
C  C87  1  0.81620000  0.29930000  0.90930000  1.0 -0.0588515342
C  C88  1  0.82310000  0.32380000  0.88290000  1.0 -0.0990763796
C  C89  1  0.86150000  0.33070000  0.87240000  1.0 -0.1483392236
C  C90  1  0.89310000  0.31320000  0.88830000  1.0 -0.0924969446
C  C91  1  0.88630000  0.28870000  0.91460000  1.0 -0.0431226957
C  C92  1  0.93640000  0.32420000  0.88220000  1.0 0.4112941152
C  C93  1  0.04150000  0.37420000  0.80330000  1.0 -0.0735697876
C  C94  1  0.99260000  0.36080000  0.77380000  1.0 -0.0990763796
C  C95  1  0.95840000  0.34850000  0.78950000  1.0 -0.2080644225
C  C96  1  0.97300000  0.34960000  0.83480000  1.0 0.1987054163
C  C97  1  0.02190000  0.36300000  0.86430000  1.0 -0.1635683718
C  C98  1  0.05620000  0.37520000  0.84860000  1.0 -0.0924969446
C  C99  1  0.73850000  0.48620000  0.85190000  1.0 0.6076673078
C  C100  1  0.07640000  0.38430000  0.78510000  1.0 0.5986713799
C  C101  1  0.72460000  0.44370000  0.85990000  1.0 -0.1258565868
C  C102  1  0.72260000  0.39910000  0.83050000  1.0 0.256260818
C  C103  1  0.71050000  0.36110000  0.84260000  1.0 -0.0473673908
C  C104  1  0.69990000  0.40630000  0.90620000  1.0 0.005487891
C  C105  1  0.71330000  0.44500000  0.89690000  1.0 -0.1258565868
C  C106  1  0.62800000  0.21160000  0.98560000  1.0 0.5896810971
C  C107  1  0.64340000  0.21830000  0.06610000  1.0 -0.1096024512
C  C108  1  0.61000000  0.20070000  0.01690000  1.0 -0.0588515342
C  C109  1  0.55910000  0.17620000  0.99930000  1.0 -0.0990763796
C  C110  1  0.54170000  0.16930000  0.03080000  1.0 -0.1483392236
C  C111  1  0.57510000  0.18680000  0.07990000  1.0 -0.0924969446
C  C112  1  0.62590000  0.21130000  0.09760000  1.0 -0.0473673908
C  C113  1  0.55800000  0.17580000  0.11220000  1.0 0.4175468964
C  C114  1  0.42910000  0.12580000  0.16730000  1.0 -0.0735697876
C  C115  1  0.41300000  0.13920000  0.13180000  1.0 -0.0990763796
C  C116  1  0.44100000  0.15150000  0.10990000  1.0 -0.2080644225
C  C117  1  0.48520000  0.15040000  0.12340000  1.0 0.1987054163
C  C118  1  0.50130000  0.13700000  0.15890000  1.0 -0.1635683718
C  C119  1  0.47340000  0.12480000  0.18100000  1.0 -0.0924969446
C  C120  1  0.36570000  0.01380000  0.75230000  1.0 0.6076673078
C  C121  1  0.40080000  0.11570000  0.19210000  1.0 0.5986713799
C  C122  1  0.41620000  0.05630000  0.78090000  1.0 -0.1258565868
C  C123  1  0.43140000  0.10090000  0.82350000  1.0 0.256260818
C  C124  1  0.48150000  0.13890000  0.84940000  1.0 -0.0473673908
C  C125  1  0.49990000  0.09370000  0.79360000  1.0 0.0048390405
C  C126  1  0.45190000  0.05500000  0.76830000  1.0 -0.1258565868
C  C127  1  0.87200000  0.85760000  0.58360000  1.0 0.5896810971
C  C128  1  0.85660000  0.92270000  0.57490000  1.0 -0.1096024512
C  C129  1  0.89000000  0.90690000  0.59070000  1.0 -0.0588515342
C  C130  1  0.94090000  0.94020000  0.61710000  1.0 -0.0990763796
C  C131  1  0.95830000  0.98910000  0.62760000  1.0 -0.1483392236
C  C132  1  0.92490000  0.00480000  0.61170000  1.0 -0.0924969446
C  C133  1  0.87410000  0.97170000  0.58540000  1.0 -0.0431226957
C  C134  1  0.94200000  0.05420000  0.61780000  1.0 0.4112941152
C  C135  1  0.07090000  0.23820000  0.69670000  1.0 -0.0735697876
C  C136  1  0.08700000  0.21880000  0.72620000  1.0 -0.0990763796
C  C137  1  0.05900000  0.16890000  0.71050000  1.0 -0.2080644225
C  C138  1  0.01480000  0.13820000  0.66520000  1.0 0.1987054163
C  C139  1  0.99870000  0.15760000  0.63570000  1.0 -0.1635683718
C  C140  1  0.02660000  0.20760000  0.65140000  1.0 -0.0924969446
C  C141  1  0.13430000  0.88660000  0.64810000  1.0 0.6076673078
C  C142  1  0.09920000  0.29130000  0.71490000  1.0 0.5986713799
C  C143  1  0.08380000  0.86470000  0.64010000  1.0 -0.1258565868
C  C144  1  0.06860000  0.89210000  0.66950000  1.0 0.256260818
C  C145  1  0.01850000  0.86790000  0.65740000  1.0 -0.0473673908
C  C146  1  0.00010000  0.79370000  0.59380000  1.0 0.0048390405
C  C147  1  0.04810000  0.81640000  0.60310000  1.0 -0.1258565868
C  C148  1  0.72600000  0.64240000  0.51440000  1.0 0.5896810971
C  C149  1  0.65220000  0.57730000  0.43390000  1.0 -0.1096024512
C  C150  1  0.68380000  0.59310000  0.48310000  1.0 -0.0588515342
C  C151  1  0.67690000  0.55980000  0.50070000  1.0 -0.0990763796
C  C152  1  0.63850000  0.51090000  0.46920000  1.0 -0.1483392236
C  C153  1  0.60690000  0.49520000  0.42010000  1.0 -0.0924969446
C  C154  1  0.61370000  0.52830000  0.40240000  1.0 -0.0431226957
C  C155  1  0.56360000  0.44580000  0.38780000  1.0 0.4112941152
C  C156  1  0.45850000  0.26180000  0.33270000  1.0 -0.0735697876
C  C157  1  0.50740000  0.28120000  0.36820000  1.0 -0.0990763796
C  C158  1  0.54160000  0.33110000  0.39010000  1.0 -0.2080644225
C  C159  1  0.52700000  0.36180000  0.37660000  1.0 0.1987054163
C  C160  1  0.47810000  0.34240000  0.34110000  1.0 -0.1635683718
C  C161  1  0.44380000  0.29240000  0.31900000  1.0 -0.0924969446
C  C162  1  0.76150000  0.61340000  0.74770000  1.0 0.6076673078
C  C163  1  0.42360000  0.20870000  0.30790000  1.0 0.5986713799
C  C164  1  0.77540000  0.63530000  0.71910000  1.0 -0.1258565868
C  C165  1  0.77740000  0.60790000  0.67650000  1.0 0.256260818
C  C166  1  0.78950000  0.63210000  0.65060000  1.0 -0.0473673908
C  C167  1  0.80010000  0.70630000  0.70640000  1.0 0.005487891
C  C168  1  0.78670000  0.68360000  0.73170000  1.0 -0.1258565868
C  C169  1  0.21160000  0.98560000  0.62800000  1.0 0.5896810971
C  C170  1  0.21830000  0.06610000  0.64340000  1.0 -0.1096024512
C  C171  1  0.20070000  0.01690000  0.61000000  1.0 -0.0588515342
C  C172  1  0.17620000  0.99930000  0.55910000  1.0 -0.0990763796
C  C173  1  0.16930000  0.03080000  0.54170000  1.0 -0.1483392236
C  C174  1  0.18680000  0.07990000  0.57510000  1.0 -0.0924969446
C  C175  1  0.21130000  0.09760000  0.62590000  1.0 -0.0473673908
C  C176  1  0.17580000  0.11220000  0.55800000  1.0 0.4112941152
C  C177  1  0.12580000  0.16730000  0.42910000  1.0 -0.0735697876
C  C178  1  0.13920000  0.13180000  0.41300000  1.0 -0.0990763796
C  C179  1  0.15150000  0.10990000  0.44100000  1.0 -0.2080644225
C  C180  1  0.15040000  0.12340000  0.48520000  1.0 0.1987054163
C  C181  1  0.13700000  0.15890000  0.50130000  1.0 -0.1635683718
C  C182  1  0.12480000  0.18100000  0.47340000  1.0 -0.0924969446
C  C183  1  0.01380000  0.75230000  0.36570000  1.0 0.6076673078
C  C184  1  0.11570000  0.19210000  0.40080000  1.0 0.5986713799
C  C185  1  0.05630000  0.78090000  0.41620000  1.0 -0.1258565868
C  C186  1  0.10090000  0.82350000  0.43140000  1.0 0.256260818
C  C187  1  0.13890000  0.84940000  0.48150000  1.0 -0.0473673908
C  C188  1  0.09370000  0.79360000  0.49990000  1.0 0.005487891
C  C189  1  0.05500000  0.76830000  0.45190000  1.0 -0.1258565868
C  C190  1  0.28840000  0.91640000  0.77400000  1.0 0.5896810971
C  C191  1  0.28170000  0.92510000  0.84780000  1.0 -0.1096024512
C  C192  1  0.29930000  0.90930000  0.81620000  1.0 -0.0588515342
C  C193  1  0.32380000  0.88290000  0.82310000  1.0 -0.0990763796
C  C194  1  0.33070000  0.87240000  0.86150000  1.0 -0.1483392236
C  C195  1  0.31320000  0.88830000  0.89310000  1.0 -0.0924969446
C  C196  1  0.28870000  0.91460000  0.88630000  1.0 -0.0473673908
C  C197  1  0.32420000  0.88220000  0.93640000  1.0 0.4112941152
C  C198  1  0.37420000  0.80330000  0.04150000  1.0 -0.0735697876
C  C199  1  0.36080000  0.77380000  0.99260000  1.0 -0.0990763796
C  C200  1  0.34850000  0.78950000  0.95840000  1.0 -0.2080644225
C  C201  1  0.34960000  0.83480000  0.97300000  1.0 0.1987054163
C  C202  1  0.36300000  0.86430000  0.02190000  1.0 -0.1635683718
C  C203  1  0.37520000  0.84860000  0.05620000  1.0 -0.0924969446
C  C204  1  0.48620000  0.85190000  0.73850000  1.0 0.6076673078
C  C205  1  0.38430000  0.78510000  0.07640000  1.0 0.5986713799
C  C206  1  0.44370000  0.85990000  0.72460000  1.0 -0.1258565868
C  C207  1  0.39910000  0.83050000  0.72260000  1.0 0.256260818
C  C208  1  0.36110000  0.84260000  0.71050000  1.0 -0.0473673908
C  C209  1  0.40630000  0.90620000  0.69990000  1.0 0.005487891
C  C210  1  0.44500000  0.89690000  0.71330000  1.0 -0.1258565868
C  C211  1  0.64240000  0.51440000  0.72600000  1.0 0.5896810971
C  C212  1  0.57730000  0.43390000  0.65220000  1.0 -0.1096024512
C  C213  1  0.59310000  0.48310000  0.68380000  1.0 -0.0588515342
C  C214  1  0.55980000  0.50070000  0.67690000  1.0 -0.0990763796
C  C215  1  0.51090000  0.46920000  0.63850000  1.0 -0.1483392236
C  C216  1  0.49520000  0.42010000  0.60690000  1.0 -0.0924969446
C  C217  1  0.52830000  0.40240000  0.61370000  1.0 -0.0473673908
C  C218  1  0.44580000  0.38780000  0.56360000  1.0 0.4112941152
C  C219  1  0.26180000  0.33270000  0.45850000  1.0 -0.0735697876
C  C220  1  0.28120000  0.36820000  0.50740000  1.0 -0.0990763796
C  C221  1  0.33110000  0.39010000  0.54160000  1.0 -0.2080644225
C  C222  1  0.36180000  0.37660000  0.52700000  1.0 0.1987054163
C  C223  1  0.34240000  0.34110000  0.47810000  1.0 -0.1635683718
C  C224  1  0.29240000  0.31900000  0.44380000  1.0 -0.0924969446
C  C225  1  0.61340000  0.74770000  0.76150000  1.0 0.6076673078
C  C226  1  0.20870000  0.30790000  0.42360000  1.0 0.5986713799
C  C227  1  0.63530000  0.71910000  0.77540000  1.0 -0.1258565868
C  C228  1  0.60790000  0.67650000  0.77740000  1.0 0.256260818
C  C229  1  0.63210000  0.65060000  0.78950000  1.0 -0.0473673908
C  C230  1  0.70630000  0.70640000  0.80010000  1.0 0.005487891
C  C231  1  0.68360000  0.73170000  0.78670000  1.0 -0.1258565868
C  C232  1  0.85760000  0.58360000  0.87200000  1.0 0.5896810971
C  C233  1  0.92270000  0.57490000  0.85660000  1.0 -0.1096024512
C  C234  1  0.90690000  0.59070000  0.89000000  1.0 -0.0588515342
C  C235  1  0.94020000  0.61710000  0.94090000  1.0 -0.0990763796
C  C236  1  0.98910000  0.62760000  0.95830000  1.0 -0.1483392236
C  C237  1  0.00480000  0.61170000  0.92490000  1.0 -0.0924969446
C  C238  1  0.97170000  0.58540000  0.87410000  1.0 -0.0431226957
C  C239  1  0.05420000  0.61780000  0.94200000  1.0 0.4112941152
C  C240  1  0.23820000  0.69670000  0.07090000  1.0 -0.0735697876
C  C241  1  0.21880000  0.72620000  0.08700000  1.0 -0.0990763796
C  C242  1  0.16890000  0.71050000  0.05900000  1.0 -0.2080644225
C  C243  1  0.13820000  0.66520000  0.01480000  1.0 0.1987054163
C  C244  1  0.15760000  0.63570000  0.99870000  1.0 -0.1635683718
C  C245  1  0.20760000  0.65140000  0.02660000  1.0 -0.0924969446
C  C246  1  0.88660000  0.64810000  0.13430000  1.0 0.6076673078
C  C247  1  0.29130000  0.71490000  0.09920000  1.0 0.5986713799
C  C248  1  0.86470000  0.64010000  0.08380000  1.0 -0.1258565868
C  C249  1  0.89210000  0.66950000  0.06860000  1.0 0.256260818
C  C250  1  0.86790000  0.65740000  0.01850000  1.0 -0.0473673908
C  C251  1  0.79370000  0.59380000  0.00010000  1.0 0.005487891
C  C252  1  0.81640000  0.60310000  0.04810000  1.0 -0.1258565868
C  C253  1  0.22600000  0.01440000  0.14240000  1.0 0.5896810971
C  C254  1  0.15220000  0.93390000  0.07730000  1.0 -0.1096024512
C  C255  1  0.18380000  0.98310000  0.09310000  1.0 -0.0588515342
C  C256  1  0.17690000  0.00070000  0.05980000  1.0 -0.0990763796
C  C257  1  0.13850000  0.96920000  0.01090000  1.0 -0.1483392236
C  C258  1  0.10690000  0.92010000  0.99520000  1.0 -0.0924969446
C  C259  1  0.11370000  0.90240000  0.02830000  1.0 -0.0431226957
C  C260  1  0.06360000  0.88780000  0.94580000  1.0 0.4112941152
C  C261  1  0.95850000  0.83270000  0.76180000  1.0 -0.0735697876
C  C262  1  0.00740000  0.86820000  0.78120000  1.0 -0.0990763796
C  C263  1  0.04160000  0.89010000  0.83110000  1.0 -0.2080644225
C  C264  1  0.02700000  0.87660000  0.86180000  1.0 0.1987054163
C  C265  1  0.97810000  0.84110000  0.84240000  1.0 -0.1635683718
C  C266  1  0.94380000  0.81900000  0.79240000  1.0 -0.0924969446
C  C267  1  0.26150000  0.24770000  0.11340000  1.0 0.6076673078
C  C268  1  0.92360000  0.80790000  0.70870000  1.0 0.5986713799
C  C269  1  0.27540000  0.21910000  0.13530000  1.0 -0.1258565868
C  C270  1  0.27740000  0.17650000  0.10790000  1.0 0.256260818
C  C271  1  0.28950000  0.15060000  0.13210000  1.0 -0.0473673908
C  C272  1  0.30010000  0.20640000  0.20630000  1.0 0.0048390405
C  C273  1  0.28670000  0.23170000  0.18360000  1.0 -0.1258565868
C  C274  1  0.37200000  0.08360000  0.35760000  1.0 0.5896810971
C  C275  1  0.35660000  0.07490000  0.42270000  1.0 -0.1096024512
C  C276  1  0.39000000  0.09070000  0.40690000  1.0 -0.0588515342
C  C277  1  0.44090000  0.11710000  0.44020000  1.0 -0.0990763796
C  C278  1  0.45830000  0.12760000  0.48910000  1.0 -0.1483392236
C  C279  1  0.42490000  0.11170000  0.50480000  1.0 -0.0924969446
C  C280  1  0.37410000  0.08540000  0.47170000  1.0 -0.0473673908
C  C281  1  0.44200000  0.11780000  0.55420000  1.0 0.4112941152
C  C282  1  0.57090000  0.19670000  0.73820000  1.0 -0.0735697876
C  C283  1  0.58700000  0.22620000  0.71880000  1.0 -0.0990763796
C  C284  1  0.55900000  0.21050000  0.66890000  1.0 -0.2080644225
C  C285  1  0.51480000  0.16520000  0.63820000  1.0 0.1987054163
C  C286  1  0.49870000  0.13570000  0.65760000  1.0 -0.1635683718
C  C287  1  0.52660000  0.15140000  0.70760000  1.0 -0.0924969446
C  C288  1  0.63430000  0.14810000  0.38660000  1.0 0.6076673078
C  C289  1  0.59920000  0.21490000  0.79130000  1.0 0.5986713799
C  C290  1  0.58380000  0.14010000  0.36470000  1.0 -0.1258565868
C  C291  1  0.56860000  0.16950000  0.39210000  1.0 0.256260818
C  C292  1  0.51850000  0.15740000  0.36790000  1.0 -0.0473673908
C  C293  1  0.50010000  0.09380000  0.29370000  1.0 0.005487891
C  C294  1  0.54810000  0.10310000  0.31640000  1.0 -0.1258565868
C  C295  1  0.12800000  0.48560000  0.71160000  1.0 0.5896810971
C  C296  1  0.14340000  0.56610000  0.71830000  1.0 -0.1096024512
C  C297  1  0.11000000  0.51690000  0.70070000  1.0 -0.0588515342
C  C298  1  0.05910000  0.49930000  0.67620000  1.0 -0.0990763796
C  C299  1  0.04170000  0.53080000  0.66930000  1.0 -0.1483392236
C  C300  1  0.07510000  0.57990000  0.68680000  1.0 -0.0924969446
C  C301  1  0.12590000  0.59760000  0.71130000  1.0 -0.0473673908
C  C302  1  0.05800000  0.61220000  0.67580000  1.0 0.4112941152
C  C303  1  0.92910000  0.66730000  0.62580000  1.0 -0.0735697876
C  C304  1  0.91300000  0.63180000  0.63920000  1.0 -0.0990763796
C  C305  1  0.94100000  0.60990000  0.65150000  1.0 -0.2080644225
C  C306  1  0.98520000  0.62340000  0.65040000  1.0 0.1987054163
C  C307  1  0.00130000  0.65890000  0.63700000  1.0 -0.1635683718
C  C308  1  0.97340000  0.68100000  0.62480000  1.0 -0.0924969446
C  C309  1  0.86570000  0.25230000  0.51380000  1.0 0.6076673078
C  C310  1  0.90080000  0.69210000  0.61570000  1.0 0.5986713799
C  C311  1  0.91620000  0.28090000  0.55630000  1.0 -0.1258565868
C  C312  1  0.93140000  0.32350000  0.60090000  1.0 0.256260818
C  C313  1  0.98150000  0.34940000  0.63890000  1.0 -0.0473673908
C  C314  1  0.99990000  0.29360000  0.59370000  1.0 0.005487891
C  C315  1  0.95190000  0.26830000  0.55500000  1.0 -0.1258565868
C  C316  1  0.27400000  0.41640000  0.78840000  1.0 0.5896810971
C  C317  1  0.34780000  0.42510000  0.78170000  1.0 -0.1096024512
C  C318  1  0.31620000  0.40930000  0.79930000  1.0 -0.0588515342
C  C319  1  0.32310000  0.38290000  0.82380000  1.0 -0.0990763796
C  C320  1  0.36150000  0.37240000  0.83070000  1.0 -0.1483392236
C  C321  1  0.39310000  0.38830000  0.81320000  1.0 -0.0924969446
C  C322  1  0.38630000  0.41460000  0.78870000  1.0 -0.0473673908
C  C323  1  0.43640000  0.38220000  0.82420000  1.0 0.4112941152
C  C324  1  0.54150000  0.30330000  0.87420000  1.0 -0.0735697876
C  C325  1  0.49260000  0.27380000  0.86080000  1.0 -0.0990763796
C  C326  1  0.45840000  0.28950000  0.84850000  1.0 -0.2080644225
C  C327  1  0.47300000  0.33480000  0.84960000  1.0 0.1987054163
C  C328  1  0.52190000  0.36430000  0.86300000  1.0 -0.1635683718
C  C329  1  0.55620000  0.34860000  0.87520000  1.0 -0.0924969446
C  C330  1  0.23850000  0.35190000  0.98620000  1.0 0.6076673078
C  C331  1  0.57640000  0.28510000  0.88430000  1.0 0.5986713799
C  C332  1  0.22460000  0.35990000  0.94370000  1.0 -0.1247006598
C  C333  1  0.22260000  0.33050000  0.89910000  1.0 0.256260818
C  C334  1  0.21050000  0.34260000  0.86110000  1.0 -0.0473673908
C  C335  1  0.19990000  0.40620000  0.90630000  1.0 0.005487891
C  C336  1  0.21330000  0.39690000  0.94500000  1.0 -0.1258565868
C  C337  1  0.78840000  0.27400000  0.41640000  1.0 0.5896810971
C  C338  1  0.78170000  0.34780000  0.42510000  1.0 -0.1096024512
C  C339  1  0.79930000  0.31620000  0.40930000  1.0 -0.0588515342
C  C340  1  0.82380000  0.32310000  0.38290000  1.0 -0.0990763796
C  C341  1  0.83070000  0.36150000  0.37240000  1.0 -0.1483392236
C  C342  1  0.81320000  0.39310000  0.38830000  1.0 -0.0924969446
C  C343  1  0.78870000  0.38630000  0.41460000  1.0 -0.0473673908
C  C344  1  0.82420000  0.43640000  0.38220000  1.0 0.4112941152
C  C345  1  0.87420000  0.54150000  0.30330000  1.0 -0.0735697876
C  C346  1  0.86080000  0.49260000  0.27380000  1.0 -0.0990763796
C  C347  1  0.84850000  0.45840000  0.28950000  1.0 -0.2080644225
C  C348  1  0.84960000  0.47300000  0.33480000  1.0 0.1987054163
C  C349  1  0.86300000  0.52190000  0.36430000  1.0 -0.1635683718
C  C350  1  0.87520000  0.55620000  0.34860000  1.0 -0.0924969446
C  C351  1  0.98620000  0.23850000  0.35190000  1.0 0.6076673078
C  C352  1  0.88430000  0.57640000  0.28510000  1.0 0.5986713799
C  C353  1  0.94370000  0.22460000  0.35990000  1.0 -0.1258565868
C  C354  1  0.89910000  0.22260000  0.33050000  1.0 0.256260818
C  C355  1  0.86110000  0.21050000  0.34260000  1.0 -0.0473673908
C  C356  1  0.90630000  0.19990000  0.40620000  1.0 0.0048390405
C  C357  1  0.94500000  0.21330000  0.39690000  1.0 -0.1258565868
C  C358  1  0.71160000  0.12800000  0.48560000  1.0 0.5896810971
C  C359  1  0.71830000  0.14340000  0.56610000  1.0 -0.1096024512
C  C360  1  0.70070000  0.11000000  0.51690000  1.0 -0.0588515342
C  C361  1  0.67620000  0.05910000  0.49930000  1.0 -0.0990763796
C  C362  1  0.66930000  0.04170000  0.53080000  1.0 -0.1483392236
C  C363  1  0.68680000  0.07510000  0.57990000  1.0 -0.0924969446
C  C364  1  0.71130000  0.12590000  0.59760000  1.0 -0.0473673908
C  C365  1  0.67580000  0.05800000  0.61220000  1.0 0.4112941152
C  C366  1  0.62580000  0.92910000  0.66730000  1.0 -0.0735697876
C  C367  1  0.63920000  0.91300000  0.63180000  1.0 -0.0924969446
C  C368  1  0.65150000  0.94100000  0.60990000  1.0 -0.2080644225
C  C369  1  0.65040000  0.98520000  0.62340000  1.0 0.1987054163
C  C370  1  0.63700000  0.00130000  0.65890000  1.0 -0.1635683718
C  C371  1  0.62480000  0.97340000  0.68100000  1.0 -0.0924969446
C  C372  1  0.51380000  0.86570000  0.25230000  1.0 0.6076673078
C  C373  1  0.61570000  0.90080000  0.69210000  1.0 0.5986713799
C  C374  1  0.55630000  0.91620000  0.28090000  1.0 -0.1258565868
C  C375  1  0.60090000  0.93140000  0.32350000  1.0 0.256260818
C  C376  1  0.63890000  0.98150000  0.34940000  1.0 -0.0473673908
C  C377  1  0.59370000  0.99990000  0.29360000  1.0 0.0048390405
C  C378  1  0.55500000  0.95190000  0.26830000  1.0 -0.1258565868
C  C379  1  0.35760000  0.37200000  0.08360000  1.0 0.5896810971
C  C380  1  0.42270000  0.35660000  0.07490000  1.0 -0.1096024512
C  C381  1  0.40690000  0.39000000  0.09070000  1.0 -0.0588515342
C  C382  1  0.44020000  0.44090000  0.11710000  1.0 -0.0990763796
C  C383  1  0.48910000  0.45830000  0.12760000  1.0 -0.1483392236
C  C384  1  0.50480000  0.42490000  0.11170000  1.0 -0.0924969446
C  C385  1  0.47170000  0.37410000  0.08540000  1.0 -0.0473673908
C  C386  1  0.55420000  0.44200000  0.11780000  1.0 0.4112941152
C  C387  1  0.73820000  0.57090000  0.19670000  1.0 -0.0735697876
C  C388  1  0.71880000  0.58700000  0.22620000  1.0 -0.0990763796
C  C389  1  0.66890000  0.55900000  0.21050000  1.0 -0.2080644225
C  C390  1  0.63820000  0.51480000  0.16520000  1.0 0.1987054163
C  C391  1  0.65760000  0.49870000  0.13570000  1.0 -0.1635683718
C  C392  1  0.70760000  0.52660000  0.15140000  1.0 -0.0924969446
C  C393  1  0.38660000  0.63430000  0.14810000  1.0 0.6076673078
C  C394  1  0.79130000  0.59920000  0.21490000  1.0 0.5986713799
C  C395  1  0.36470000  0.58380000  0.14010000  1.0 -0.1247006598
C  C396  1  0.39210000  0.56860000  0.16950000  1.0 0.256260818
C  C397  1  0.36790000  0.51850000  0.15740000  1.0 -0.0473673908
C  C398  1  0.29370000  0.50010000  0.09380000  1.0 0.0048390405
C  C399  1  0.31640000  0.54810000  0.10310000  1.0 -0.1258565868
C  C400  1  0.14240000  0.22600000  0.01440000  1.0 0.5896810971
C  C401  1  0.07730000  0.15220000  0.93390000  1.0 -0.1096024512
C  C402  1  0.09310000  0.18380000  0.98310000  1.0 -0.0588515342
C  C403  1  0.05980000  0.17690000  0.00070000  1.0 -0.0990763796
C  C404  1  0.01090000  0.13850000  0.96920000  1.0 -0.1483392236
C  C405  1  0.99520000  0.10690000  0.92010000  1.0 -0.0924969446
C  C406  1  0.02830000  0.11370000  0.90240000  1.0 -0.0473673908
C  C407  1  0.94580000  0.06360000  0.88780000  1.0 0.4112941152
C  C408  1  0.76180000  0.95850000  0.83270000  1.0 -0.0735697876
C  C409  1  0.78120000  0.00740000  0.86820000  1.0 -0.0924969446
C  C410  1  0.83110000  0.04160000  0.89010000  1.0 -0.2080644225
C  C411  1  0.86180000  0.02700000  0.87660000  1.0 0.1987054163
C  C412  1  0.84240000  0.97810000  0.84110000  1.0 -0.1635683718
C  C413  1  0.79240000  0.94380000  0.81900000  1.0 -0.0924969446
C  C414  1  0.11340000  0.26150000  0.24770000  1.0 0.6076673078
C  C415  1  0.70870000  0.92360000  0.80790000  1.0 0.5986713799
C  C416  1  0.13530000  0.27540000  0.21910000  1.0 -0.1247006598
C  C417  1  0.10790000  0.27740000  0.17650000  1.0 0.256260818
C  C418  1  0.13210000  0.28950000  0.15060000  1.0 -0.0473673908
C  C419  1  0.20630000  0.30010000  0.20640000  1.0 0.0048390405
C  C420  1  0.18360000  0.28670000  0.23170000  1.0 -0.1258565868
C  C421  1  0.48560000  0.71160000  0.12800000  1.0 0.5896810971
C  C422  1  0.56610000  0.71830000  0.14340000  1.0 -0.1096024512
C  C423  1  0.51690000  0.70070000  0.11000000  1.0 -0.0588515342
C  C424  1  0.49930000  0.67620000  0.05910000  1.0 -0.0990763796
C  C425  1  0.53080000  0.66930000  0.04170000  1.0 -0.1483392236
C  C426  1  0.57990000  0.68680000  0.07510000  1.0 -0.0924969446
C  C427  1  0.59760000  0.71130000  0.12590000  1.0 -0.0473673908
C  C428  1  0.61220000  0.67580000  0.05800000  1.0 0.4112941152
C  C429  1  0.66730000  0.62580000  0.92910000  1.0 -0.0735697876
C  C430  1  0.63180000  0.63920000  0.91300000  1.0 -0.0924969446
C  C431  1  0.60990000  0.65150000  0.94100000  1.0 -0.2080644225
C  C432  1  0.62340000  0.65040000  0.98520000  1.0 0.1987054163
C  C433  1  0.65890000  0.63700000  0.00130000  1.0 -0.1635683718
C  C434  1  0.68100000  0.62480000  0.97340000  1.0 -0.0924969446
C  C435  1  0.25230000  0.51380000  0.86570000  1.0 0.6076673078
C  C436  1  0.69210000  0.61570000  0.90080000  1.0 0.5986713799
C  C437  1  0.28090000  0.55630000  0.91620000  1.0 -0.1258565868
C  C438  1  0.32350000  0.60090000  0.93140000  1.0 0.256260818
C  C439  1  0.34940000  0.63890000  0.98150000  1.0 -0.0473673908
C  C440  1  0.29360000  0.59370000  0.99990000  1.0 0.0048390405
C  C441  1  0.26830000  0.55500000  0.95190000  1.0 -0.1258565868
C  C442  1  0.41640000  0.78840000  0.27400000  1.0 0.5896810971
C  C443  1  0.42510000  0.78170000  0.34780000  1.0 -0.1096024512
C  C444  1  0.40930000  0.79930000  0.31620000  1.0 -0.0588515342
C  C445  1  0.38290000  0.82380000  0.32310000  1.0 -0.0990763796
C  C446  1  0.37240000  0.83070000  0.36150000  1.0 -0.1483392236
C  C447  1  0.38830000  0.81320000  0.39310000  1.0 -0.0924969446
C  C448  1  0.41460000  0.78870000  0.38630000  1.0 -0.0473673908
C  C449  1  0.38220000  0.82420000  0.43640000  1.0 0.4112941152
C  C450  1  0.30330000  0.87420000  0.54150000  1.0 -0.0735697876
C  C451  1  0.27380000  0.86080000  0.49260000  1.0 -0.0990763796
C  C452  1  0.28950000  0.84850000  0.45840000  1.0 -0.2080644225
C  C453  1  0.33480000  0.84960000  0.47300000  1.0 0.1987054163
C  C454  1  0.36430000  0.86300000  0.52190000  1.0 -0.1635683718
C  C455  1  0.34860000  0.87520000  0.55620000  1.0 -0.0924969446
C  C456  1  0.35190000  0.98620000  0.23850000  1.0 0.6076673078
C  C457  1  0.28510000  0.88430000  0.57640000  1.0 0.5986713799
C  C458  1  0.35990000  0.94370000  0.22460000  1.0 -0.1258565868
C  C459  1  0.33050000  0.89910000  0.22260000  1.0 0.256260818
C  C460  1  0.34260000  0.86110000  0.21050000  1.0 -0.0473673908
C  C461  1  0.40620000  0.90630000  0.19990000  1.0 0.005487891
C  C462  1  0.39690000  0.94500000  0.21330000  1.0 -0.1258565868
C  C463  1  0.01440000  0.14240000  0.22600000  1.0 0.5896810971
C  C464  1  0.93390000  0.07730000  0.15220000  1.0 -0.1096024512
C  C465  1  0.98310000  0.09310000  0.18380000  1.0 -0.0588515342
C  C466  1  0.00070000  0.05980000  0.17690000  1.0 -0.0990763796
C  C467  1  0.96920000  0.01090000  0.13850000  1.0 -0.1483392236
C  C468  1  0.92010000  0.99520000  0.10690000  1.0 -0.0924969446
C  C469  1  0.90240000  0.02830000  0.11370000  1.0 -0.0431226957
C  C470  1  0.88780000  0.94580000  0.06360000  1.0 0.4112941152
C  C471  1  0.83270000  0.76180000  0.95850000  1.0 -0.0735697876
C  C472  1  0.86820000  0.78120000  0.00740000  1.0 -0.0990763796
C  C473  1  0.89010000  0.83110000  0.04160000  1.0 -0.2080644225
C  C474  1  0.87660000  0.86180000  0.02700000  1.0 0.1987054163
C  C475  1  0.84110000  0.84240000  0.97810000  1.0 -0.1635683718
C  C476  1  0.81900000  0.79240000  0.94380000  1.0 -0.0924969446
C  C477  1  0.24770000  0.11340000  0.26150000  1.0 0.6076673078
C  C478  1  0.80790000  0.70870000  0.92360000  1.0 0.5986713799
C  C479  1  0.21910000  0.13530000  0.27540000  1.0 -0.1247006598
C  C480  1  0.17650000  0.10790000  0.27740000  1.0 0.256260818
C  C481  1  0.15060000  0.13210000  0.28950000  1.0 -0.0473673908
C  C482  1  0.20640000  0.20630000  0.30010000  1.0 0.005487891
C  C483  1  0.23170000  0.18360000  0.28670000  1.0 -0.1258565868
C  C484  1  0.08360000  0.35760000  0.37200000  1.0 0.5896810971
C  C485  1  0.07490000  0.42270000  0.35660000  1.0 -0.1096024512
C  C486  1  0.09070000  0.40690000  0.39000000  1.0 -0.0588515342
C  C487  1  0.11710000  0.44020000  0.44090000  1.0 -0.0990763796
C  C488  1  0.12760000  0.48910000  0.45830000  1.0 -0.1483392236
C  C489  1  0.11170000  0.50480000  0.42490000  1.0 -0.0924969446
C  C490  1  0.08540000  0.47170000  0.37410000  1.0 -0.0473673908
C  C491  1  0.11780000  0.55420000  0.44200000  1.0 0.4112941152
C  C492  1  0.19670000  0.73820000  0.57090000  1.0 -0.0735697876
C  C493  1  0.22620000  0.71880000  0.58700000  1.0 -0.0990763796
C  C494  1  0.21050000  0.66890000  0.55900000  1.0 -0.2080644225
C  C495  1  0.16520000  0.63820000  0.51480000  1.0 0.1987054163
C  C496  1  0.13570000  0.65760000  0.49870000  1.0 -0.1635683718
C  C497  1  0.15140000  0.70760000  0.52660000  1.0 -0.0924969446
C  C498  1  0.14810000  0.38660000  0.63430000  1.0 0.6076673078
C  C499  1  0.21490000  0.79130000  0.59920000  1.0 0.5986713799
C  C500  1  0.14010000  0.36470000  0.58380000  1.0 -0.1258565868
C  C501  1  0.16950000  0.39210000  0.56860000  1.0 0.256260818
C  C502  1  0.15740000  0.36790000  0.51850000  1.0 -0.0473673908
C  C503  1  0.09380000  0.29370000  0.50010000  1.0 0.005487891
C  C504  1  0.10310000  0.31640000  0.54810000  1.0 -0.1258565868
N  N1  1  0.66460000  0.80010000  0.67930000  1.0 -0.2386194125
N  N2  1  0.65920000  0.76830000  0.56090000  1.0 -0.5364594788
N  N3  1  0.40200000  0.56780000  0.41920000  1.0 -0.3094346321
N  N4  1  0.62080000  0.98530000  0.82070000  1.0 -0.2386194125
N  N5  1  0.70740000  0.09830000  0.93910000  1.0 -0.5364594788
N  N6  1  0.64860000  0.98280000  0.08080000  1.0 -0.3094346321
N  N7  1  0.83540000  0.51470000  0.13550000  1.0 -0.2386194125
N  N8  1  0.84080000  0.40170000  0.10910000  1.0 -0.5364594788
N  N9  1  0.09800000  0.51720000  0.16580000  1.0 -0.3094346321
N  N10  1  0.87920000  0.69990000  0.36450000  1.0 -0.2386194125
N  N11  1  0.79260000  0.73170000  0.39090000  1.0 -0.5364594788
N  N12  1  0.85140000  0.93220000  0.33420000  1.0 -0.3094346321
N  N13  1  0.69990000  0.36450000  0.87920000  1.0 -0.2386194125
N  N14  1  0.73170000  0.39090000  0.79260000  1.0 -0.5364594788
N  N15  1  0.93220000  0.33420000  0.85140000  1.0 -0.3094346321
N  N16  1  0.51470000  0.13550000  0.83540000  1.0 -0.2386194125
N  N17  1  0.40170000  0.10910000  0.84080000  1.0 -0.5364594788
N  N18  1  0.51720000  0.16580000  0.09800000  1.0 -0.3176276403
N  N19  1  0.98530000  0.82070000  0.62080000  1.0 -0.2386194125
N  N20  1  0.09830000  0.93910000  0.70740000  1.0 -0.5364594788
N  N21  1  0.98280000  0.08080000  0.64860000  1.0 -0.3094346321
N  N22  1  0.80010000  0.67930000  0.66460000  1.0 -0.2386194125
N  N23  1  0.76830000  0.56090000  0.65920000  1.0 -0.5364594788
N  N24  1  0.56780000  0.41920000  0.40200000  1.0 -0.3094346321
N  N25  1  0.13550000  0.83540000  0.51470000  1.0 -0.2386194125
N  N26  1  0.10910000  0.84080000  0.40170000  1.0 -0.5364594788
N  N27  1  0.16580000  0.09800000  0.51720000  1.0 -0.3094346321
N  N28  1  0.36450000  0.87920000  0.69990000  1.0 -0.2386194125
N  N29  1  0.39090000  0.79260000  0.73170000  1.0 -0.5364594788
N  N30  1  0.33420000  0.85140000  0.93220000  1.0 -0.3094346321
N  N31  1  0.67930000  0.66460000  0.80010000  1.0 -0.2386194125
N  N32  1  0.56090000  0.65920000  0.76830000  1.0 -0.5364594788
N  N33  1  0.41920000  0.40200000  0.56780000  1.0 -0.3094346321
N  N34  1  0.82070000  0.62080000  0.98530000  1.0 -0.2386194125
N  N35  1  0.93910000  0.70740000  0.09830000  1.0 -0.5364594788
N  N36  1  0.08080000  0.64860000  0.98280000  1.0 -0.3094346321
N  N37  1  0.30010000  0.16460000  0.17930000  1.0 -0.2386194125
N  N38  1  0.26830000  0.15920000  0.06090000  1.0 -0.5364594788
N  N39  1  0.06780000  0.90200000  0.91920000  1.0 -0.3094346321
N  N40  1  0.48530000  0.12080000  0.32070000  1.0 -0.2386194125
N  N41  1  0.59830000  0.20740000  0.43910000  1.0 -0.5364594788
N  N42  1  0.48280000  0.14860000  0.58080000  1.0 -0.3094346321
N  N43  1  0.01470000  0.33540000  0.63550000  1.0 -0.2386194125
N  N44  1  0.90170000  0.34080000  0.60910000  1.0 -0.5364594788
N  N45  1  0.01720000  0.59800000  0.66580000  1.0 -0.3094346321
N  N46  1  0.19990000  0.37920000  0.86450000  1.0 -0.2386194125
N  N47  1  0.23170000  0.29260000  0.89090000  1.0 -0.5364594788
N  N48  1  0.43220000  0.35140000  0.83420000  1.0 -0.3094346321
N  N49  1  0.86450000  0.19990000  0.37920000  1.0 -0.2386194125
N  N50  1  0.89090000  0.23170000  0.29260000  1.0 -0.5364594788
N  N51  1  0.83420000  0.43220000  0.35140000  1.0 -0.3094346321
N  N52  1  0.63550000  0.01470000  0.33540000  1.0 -0.2386194125
N  N53  1  0.60910000  0.90170000  0.34080000  1.0 -0.5364594788
N  N54  1  0.66580000  0.01720000  0.59800000  1.0 -0.3094346321
N  N55  1  0.32070000  0.48530000  0.12080000  1.0 -0.2386194125
N  N56  1  0.43910000  0.59830000  0.20740000  1.0 -0.5364594788
N  N57  1  0.58080000  0.48280000  0.14860000  1.0 -0.3094346321
N  N58  1  0.17930000  0.30010000  0.16460000  1.0 -0.2386194125
N  N59  1  0.06090000  0.26830000  0.15920000  1.0 -0.5364594788
N  N60  1  0.91920000  0.06780000  0.90200000  1.0 -0.3094346321
N  N61  1  0.33540000  0.63550000  0.01470000  1.0 -0.2386194125
N  N62  1  0.34080000  0.60910000  0.90170000  1.0 -0.5364594788
N  N63  1  0.59800000  0.66580000  0.01720000  1.0 -0.3094346321
N  N64  1  0.37920000  0.86450000  0.19990000  1.0 -0.2386194125
N  N65  1  0.29260000  0.89090000  0.23170000  1.0 -0.5364594788
N  N66  1  0.35140000  0.83420000  0.43220000  1.0 -0.3094346321
N  N67  1  0.16460000  0.17930000  0.30010000  1.0 -0.2386194125
N  N68  1  0.15920000  0.06090000  0.26830000  1.0 -0.5364594788
N  N69  1  0.90200000  0.91920000  0.06780000  1.0 -0.3094346321
N  N70  1  0.12080000  0.32070000  0.48530000  1.0 -0.2386194125
N  N71  1  0.20740000  0.43910000  0.59830000  1.0 -0.5364594788
N  N72  1  0.14860000  0.58080000  0.48280000  1.0 -0.3094346321
O  O1  1  0.49480000  0.73150000  0.67030000  1.0 -0.57933891
O  O2  1  0.55820000  0.75100000  0.65380000  1.0 -0.5364594788
O  O3  1  0.74310000  0.76150000  0.57420000  1.0 -0.5614106573
O  O4  1  0.77650000  0.75110000  0.63840000  1.0 -0.5506563949
O  O5  1  0.27400000  0.38170000  0.19370000  1.0 -0.5506563949
O  O6  1  0.32320000  0.43740000  0.18300000  1.0 -0.5614106573
O  O7  1  0.34520000  0.52800000  0.42720000  1.0 -0.4429814988
O  O8  1  0.56120000  0.82450000  0.82970000  1.0 -0.57933891
O  O9  1  0.59720000  0.90440000  0.84620000  1.0 -0.5364594788
O  O10  1  0.68730000  0.16890000  0.92580000  1.0 -0.5614106573
O  O11  1  0.61270000  0.13810000  0.86160000  1.0 -0.5506563949
O  O12  1  0.68800000  0.08030000  0.30630000  1.0 -0.5506563949
O  O13  1  0.75440000  0.14020000  0.31700000  1.0 -0.5614106573
O  O14  1  0.60080000  0.91800000  0.07280000  1.0 -0.4429814988
O  O15  1  0.00520000  0.67550000  0.23670000  1.0 -0.57933891
O  O16  1  0.94180000  0.59560000  0.19280000  1.0 -0.5364594788
O  O17  1  0.75690000  0.33110000  0.01840000  1.0 -0.5614106573
O  O18  1  0.72350000  0.36190000  0.97460000  1.0 -0.5506563949
O  O19  1  0.22600000  0.41970000  0.10770000  1.0 -0.5506563949
O  O20  1  0.17680000  0.35980000  0.11420000  1.0 -0.5614106573
O  O21  1  0.15480000  0.58200000  0.18280000  1.0 -0.4429814988
O  O22  1  0.93880000  0.76850000  0.26330000  1.0 -0.57933891
O  O23  1  0.90280000  0.74900000  0.30720000  1.0 -0.5364594788
O  O24  1  0.81270000  0.73850000  0.48160000  1.0 -0.5614106573
O  O25  1  0.88730000  0.74890000  0.52540000  1.0 -0.5506563949
O  O26  1  0.81200000  0.11830000  0.39230000  1.0 -0.5506563949
O  O27  1  0.74560000  0.06260000  0.38580000  1.0 -0.5614106573
O  O28  1  0.89920000  0.97200000  0.31720000  1.0 -0.4429814988
O  O29  1  0.76850000  0.26330000  0.93880000  1.0 -0.57933891
O  O30  1  0.74900000  0.30720000  0.90280000  1.0 -0.5364594788
O  O31  1  0.73850000  0.48160000  0.81270000  1.0 -0.5614106573
O  O32  1  0.74890000  0.52540000  0.88730000  1.0 -0.5506563949
O  O33  1  0.11830000  0.39230000  0.81200000  1.0 -0.5506563949
O  O34  1  0.06260000  0.38580000  0.74560000  1.0 -0.5614106573
O  O35  1  0.97200000  0.31720000  0.89920000  1.0 -0.4429814988
O  O36  1  0.67550000  0.23670000  0.00520000  1.0 -0.57933891
O  O37  1  0.59560000  0.19280000  0.94180000  1.0 -0.5364594788
O  O38  1  0.33110000  0.01840000  0.75690000  1.0 -0.5614106573
O  O39  1  0.36190000  0.97460000  0.72350000  1.0 -0.5506563949
O  O40  1  0.41970000  0.10770000  0.22600000  1.0 -0.5506563949
O  O41  1  0.35980000  0.11420000  0.17680000  1.0 -0.5614106573
O  O42  1  0.58200000  0.18280000  0.15480000  1.0 -0.4471500831
O  O43  1  0.82450000  0.82970000  0.56120000  1.0 -0.57933891
O  O44  1  0.90440000  0.84620000  0.59720000  1.0 -0.5364594788
O  O45  1  0.16890000  0.92580000  0.68730000  1.0 -0.5614106573
O  O46  1  0.13810000  0.86160000  0.61270000  1.0 -0.5506563949
O  O47  1  0.08030000  0.30630000  0.68800000  1.0 -0.5506563949
O  O48  1  0.14020000  0.31700000  0.75440000  1.0 -0.5614106573
O  O49  1  0.91800000  0.07280000  0.60080000  1.0 -0.4429814988
O  O50  1  0.73150000  0.67030000  0.49480000  1.0 -0.57933891
O  O51  1  0.75100000  0.65380000  0.55820000  1.0 -0.5364594788
O  O52  1  0.76150000  0.57420000  0.74310000  1.0 -0.5614106573
O  O53  1  0.75110000  0.63840000  0.77650000  1.0 -0.5506563949
O  O54  1  0.38170000  0.19370000  0.27400000  1.0 -0.5506563949
O  O55  1  0.43740000  0.18300000  0.32320000  1.0 -0.5614106573
O  O56  1  0.52800000  0.42720000  0.34520000  1.0 -0.4429814988
O  O57  1  0.23670000  0.00520000  0.67550000  1.0 -0.57933891
O  O58  1  0.19280000  0.94180000  0.59560000  1.0 -0.5364594788
O  O59  1  0.01840000  0.75690000  0.33110000  1.0 -0.5614106573
O  O60  1  0.97460000  0.72350000  0.36190000  1.0 -0.5506563949
O  O61  1  0.10770000  0.22600000  0.41970000  1.0 -0.5506563949
O  O62  1  0.11420000  0.17680000  0.35980000  1.0 -0.5614106573
O  O63  1  0.18280000  0.15480000  0.58200000  1.0 -0.4429814988
O  O64  1  0.26330000  0.93880000  0.76850000  1.0 -0.57933891
O  O65  1  0.30720000  0.90280000  0.74900000  1.0 -0.5364594788
O  O66  1  0.48160000  0.81270000  0.73850000  1.0 -0.5614106573
O  O67  1  0.52540000  0.88730000  0.74890000  1.0 -0.5506563949
O  O68  1  0.39230000  0.81200000  0.11830000  1.0 -0.5506563949
O  O69  1  0.38580000  0.74560000  0.06260000  1.0 -0.5614106573
O  O70  1  0.31720000  0.89920000  0.97200000  1.0 -0.4429814988
O  O71  1  0.67030000  0.49480000  0.73150000  1.0 -0.57933891
O  O72  1  0.65380000  0.55820000  0.75100000  1.0 -0.5364594788
O  O73  1  0.57420000  0.74310000  0.76150000  1.0 -0.5614106573
O  O74  1  0.63840000  0.77650000  0.75110000  1.0 -0.5506563949
O  O75  1  0.19370000  0.27400000  0.38170000  1.0 -0.5506563949
O  O76  1  0.18300000  0.32320000  0.43740000  1.0 -0.5614106573
O  O77  1  0.42720000  0.34520000  0.52800000  1.0 -0.4429814988
O  O78  1  0.82970000  0.56120000  0.82450000  1.0 -0.57933891
O  O79  1  0.84620000  0.59720000  0.90440000  1.0 -0.5364594788
O  O80  1  0.92580000  0.68730000  0.16890000  1.0 -0.5614106573
O  O81  1  0.86160000  0.61270000  0.13810000  1.0 -0.5506563949
O  O82  1  0.30630000  0.68800000  0.08030000  1.0 -0.5506563949
O  O83  1  0.31700000  0.75440000  0.14020000  1.0 -0.5614106573
O  O84  1  0.07280000  0.60080000  0.91800000  1.0 -0.4429814988
O  O85  1  0.23150000  0.99480000  0.17030000  1.0 -0.57933891
O  O86  1  0.25100000  0.05820000  0.15380000  1.0 -0.5364594788
O  O87  1  0.26150000  0.24310000  0.07420000  1.0 -0.5614106573
O  O88  1  0.25110000  0.27650000  0.13840000  1.0 -0.5506563949
O  O89  1  0.88170000  0.77400000  0.69370000  1.0 -0.5506563949
O  O90  1  0.93740000  0.82320000  0.68300000  1.0 -0.5614106573
O  O91  1  0.02800000  0.84520000  0.92720000  1.0 -0.4429814988
O  O92  1  0.32450000  0.06120000  0.32970000  1.0 -0.57933891
O  O93  1  0.40440000  0.09720000  0.34620000  1.0 -0.5364594788
O  O94  1  0.66890000  0.18730000  0.42580000  1.0 -0.5614106573
O  O95  1  0.63810000  0.11270000  0.36160000  1.0 -0.5506563949
O  O96  1  0.58030000  0.18800000  0.80630000  1.0 -0.5506563949
O  O97  1  0.64020000  0.25440000  0.81700000  1.0 -0.5614106573
O  O98  1  0.41800000  0.10080000  0.57280000  1.0 -0.4429814988
O  O99  1  0.17550000  0.50520000  0.73670000  1.0 -0.57933891
O  O100  1  0.09560000  0.44180000  0.69280000  1.0 -0.5364594788
O  O101  1  0.83110000  0.25690000  0.51840000  1.0 -0.5614106573
O  O102  1  0.86190000  0.22350000  0.47460000  1.0 -0.5506563949
O  O103  1  0.91970000  0.72600000  0.60770000  1.0 -0.5506563949
O  O104  1  0.85980000  0.67680000  0.61420000  1.0 -0.5614106573
O  O105  1  0.08200000  0.65480000  0.68280000  1.0 -0.4429814988
O  O106  1  0.26850000  0.43880000  0.76330000  1.0 -0.57933891
O  O107  1  0.24900000  0.40280000  0.80720000  1.0 -0.5364594788
O  O108  1  0.23850000  0.31270000  0.98160000  1.0 -0.5614106573
O  O109  1  0.24890000  0.38730000  0.02540000  1.0 -0.5506563949
O  O110  1  0.61830000  0.31200000  0.89230000  1.0 -0.5506563949
O  O111  1  0.56260000  0.24560000  0.88580000  1.0 -0.5614106573
O  O112  1  0.47200000  0.39920000  0.81720000  1.0 -0.4429814988
O  O113  1  0.76330000  0.26850000  0.43880000  1.0 -0.57933891
O  O114  1  0.80720000  0.24900000  0.40280000  1.0 -0.5364594788
O  O115  1  0.98160000  0.23850000  0.31270000  1.0 -0.5614106573
O  O116  1  0.02540000  0.24890000  0.38730000  1.0 -0.5506563949
O  O117  1  0.89230000  0.61830000  0.31200000  1.0 -0.5506563949
O  O118  1  0.88580000  0.56260000  0.24560000  1.0 -0.5614106573
O  O119  1  0.81720000  0.47200000  0.39920000  1.0 -0.4429814988
O  O120  1  0.73670000  0.17550000  0.50520000  1.0 -0.57933891
O  O121  1  0.69280000  0.09560000  0.44180000  1.0 -0.5364594788
O  O122  1  0.51840000  0.83110000  0.25690000  1.0 -0.5614106573
O  O123  1  0.47460000  0.86190000  0.22350000  1.0 -0.5506563949
O  O124  1  0.60770000  0.91970000  0.72600000  1.0 -0.5506563949
O  O125  1  0.61420000  0.85980000  0.67680000  1.0 -0.5614106573
O  O126  1  0.68280000  0.08200000  0.65480000  1.0 -0.4429814988
O  O127  1  0.32970000  0.32450000  0.06120000  1.0 -0.57933891
O  O128  1  0.34620000  0.40440000  0.09720000  1.0 -0.5364594788
O  O129  1  0.42580000  0.66890000  0.18730000  1.0 -0.5614106573
O  O130  1  0.36160000  0.63810000  0.11270000  1.0 -0.5506563949
O  O131  1  0.80630000  0.58030000  0.18800000  1.0 -0.5506563949
O  O132  1  0.81700000  0.64020000  0.25440000  1.0 -0.5614106573
O  O133  1  0.57280000  0.41800000  0.10080000  1.0 -0.4429814988
O  O134  1  0.17030000  0.23150000  0.99480000  1.0 -0.57933891
O  O135  1  0.15380000  0.25100000  0.05820000  1.0 -0.5364594788
O  O136  1  0.07420000  0.26150000  0.24310000  1.0 -0.5614106573
O  O137  1  0.13840000  0.25110000  0.27650000  1.0 -0.5506563949
O  O138  1  0.69370000  0.88170000  0.77400000  1.0 -0.5506563949
O  O139  1  0.68300000  0.93740000  0.82320000  1.0 -0.5614106573
O  O140  1  0.92720000  0.02800000  0.84520000  1.0 -0.4429814988
O  O141  1  0.50520000  0.73670000  0.17550000  1.0 -0.57933891
O  O142  1  0.44180000  0.69280000  0.09560000  1.0 -0.5364594788
O  O143  1  0.25690000  0.51840000  0.83110000  1.0 -0.5614106573
O  O144  1  0.22350000  0.47460000  0.86190000  1.0 -0.5506563949
O  O145  1  0.72600000  0.60770000  0.91970000  1.0 -0.5506563949
O  O146  1  0.67680000  0.61420000  0.85980000  1.0 -0.5614106573
O  O147  1  0.65480000  0.68280000  0.08200000  1.0 -0.4429814988
O  O148  1  0.43880000  0.76330000  0.26850000  1.0 -0.57933891
O  O149  1  0.40280000  0.80720000  0.24900000  1.0 -0.5364594788
O  O150  1  0.31270000  0.98160000  0.23850000  1.0 -0.5614106573
O  O151  1  0.38730000  0.02540000  0.24890000  1.0 -0.5506563949
O  O152  1  0.31200000  0.89230000  0.61830000  1.0 -0.5506563949
O  O153  1  0.24560000  0.88580000  0.56260000  1.0 -0.5614106573
O  O154  1  0.39920000  0.81720000  0.47200000  1.0 -0.4429814988
O  O155  1  0.99480000  0.17030000  0.23150000  1.0 -0.57933891
O  O156  1  0.05820000  0.15380000  0.25100000  1.0 -0.5364594788
O  O157  1  0.24310000  0.07420000  0.26150000  1.0 -0.5614106573
O  O158  1  0.27650000  0.13840000  0.25110000  1.0 -0.5506563949
O  O159  1  0.77400000  0.69370000  0.88170000  1.0 -0.5506563949
O  O160  1  0.82320000  0.68300000  0.93740000  1.0 -0.5614106573
O  O161  1  0.84520000  0.92720000  0.02800000  1.0 -0.4429814988
O  O162  1  0.06120000  0.32970000  0.32450000  1.0 -0.57933891
O  O163  1  0.09720000  0.34620000  0.40440000  1.0 -0.5364594788
O  O164  1  0.18730000  0.42580000  0.66890000  1.0 -0.5614106573
O  O165  1  0.11270000  0.36160000  0.63810000  1.0 -0.5506563949
O  O166  1  0.18800000  0.80630000  0.58030000  1.0 -0.5506563949
O  O167  1  0.25440000  0.81700000  0.64020000  1.0 -0.5614106573
O  O168  1  0.10080000  0.57280000  0.41800000  1.0 -0.4429814988
O  O169  1  0.58430000  0.83430000  0.75000000  1.0 -1.0306528923
O  O170  1  0.91570000  0.66570000  0.25000000  1.0 -1.0306528923
O  O171  1  0.66570000  0.25000000  0.91570000  1.0 -1.0306528923
O  O172  1  0.83430000  0.75000000  0.58430000  1.0 -1.0306528923
O  O173  1  0.25000000  0.91570000  0.66570000  1.0 -1.0306528923
O  O174  1  0.75000000  0.58430000  0.83430000  1.0 -1.0306528923
O  O175  1  0.33430000  0.08430000  0.25000000  1.0 -1.0306528923
O  O176  1  0.16570000  0.41570000  0.75000000  1.0 -1.0306528923
O  O177  1  0.75000000  0.16570000  0.41570000  1.0 -1.0306528923
O  O178  1  0.25000000  0.33430000  0.08430000  1.0 -1.0306528923
O  O179  1  0.41570000  0.75000000  0.16570000  1.0 -1.0306528923
O  O180  1  0.08430000  0.25000000  0.33430000  1.0 -1.0306528923
