# DDEC6 charges by PACMAN v1.1 (https://github.com/mtap-research/PACMAN-charge/)
data_KOHKIC_ASR_pacman
_symmetry_space_group_name_H-M   'P 1'
_cell_length_a   33.09400000
_cell_length_b   33.09400000
_cell_length_c   33.09400000
_cell_angle_alpha   121.23800000
_cell_angle_beta   121.23800000
_cell_angle_gamma   87.86910000
_symmetry_Int_Tables_number   1
_chemical_formula_structural   Na2Zn19H192(C81O20)4
_chemical_formula_sum   'Na4 Zn38 H384 C648 O160'
_cell_volume   25130.53475451
_cell_formula_units_Z   2
loop_
 _symmetry_equiv_pos_site_id
 _symmetry_equiv_pos_as_xyz
  1  'x, y, z'
loop_
 _atom_site_type_symbol
 _atom_site_label
 _atom_site_symmetry_multiplicity
 _atom_site_fract_x
 _atom_site_fract_y
 _atom_site_fract_z
 _atom_site_occupancy
 _atom_site_charge
Na  Na1  1  0.37500000  0.13444000  0.25944000  1.0 0.8816227657
Na  Na2  1  0.88444000  0.12500000  0.25944000  1.0 0.8816227657
Na  Na3  1  0.87500000  0.11556000  0.74056000  1.0 0.8816227657
Na  Na4  1  0.86556000  0.62500000  0.74056000  1.0 0.8816227657
Zn  Zn1  1  0.21867000  0.08762000  0.10157000  1.0 0.9343258483
Zn  Zn2  1  0.83762000  0.23605000  0.36895000  1.0 0.9343258483
Zn  Zn3  1  0.98605000  0.11710000  0.89843000  1.0 0.9343258483
Zn  Zn4  1  0.86710000  0.46867000  0.63105000  1.0 0.9343258483
Zn  Zn5  1  0.53133000  0.13290000  0.36895000  1.0 0.9343258483
Zn  Zn6  1  0.88290000  0.01395000  0.10157000  1.0 0.9343258483
Zn  Zn7  1  0.76395000  0.16238000  0.63105000  1.0 0.9343258483
Zn  Zn8  1  0.91238000  0.78133000  0.89843000  1.0 0.9343258483
Zn  Zn9  1  0.21431000  0.13235000  0.21590000  1.0 0.9395342213
Zn  Zn10  1  0.88235000  0.16645000  0.41804000  1.0 0.9395342213
Zn  Zn11  1  0.91645000  0.99841000  0.78410000  1.0 0.9395342213
Zn  Zn12  1  0.74841000  0.46431000  0.58196000  1.0 0.9395342213
Zn  Zn13  1  0.53569000  0.25159000  0.41804000  1.0 0.9395342213
Zn  Zn14  1  0.00159000  0.08355000  0.21590000  1.0 0.9395342213
Zn  Zn15  1  0.83355000  0.11765000  0.58196000  1.0 0.9395342213
Zn  Zn16  1  0.86765000  0.78569000  0.78410000  1.0 0.9395342213
Zn  Zn17  1  0.21586000  0.01739000  0.14255000  1.0 0.9184695971
Zn  Zn18  1  0.76739000  0.12484000  0.30153000  1.0 0.9184695971
Zn  Zn19  1  0.87484000  0.07331000  0.85745000  1.0 0.9184695971
Zn  Zn20  1  0.82331000  0.46586000  0.69847000  1.0 0.9184695971
Zn  Zn21  1  0.53414000  0.17669000  0.30153000  1.0 0.9184695971
Zn  Zn22  1  0.92669000  0.12516000  0.14255000  1.0 0.9184695971
Zn  Zn23  1  0.87516000  0.23261000  0.69847000  1.0 0.9184695971
Zn  Zn24  1  0.98261000  0.78414000  0.85745000  1.0 0.9184695971
Zn  Zn25  1  0.43468000  0.43468000  0.00000000  1.0 1.0251565916
Zn  Zn26  1  0.18468000  0.68468000  0.50000000  1.0 1.0235466701
Zn  Zn27  1  0.31532000  0.81532000  0.50000000  1.0 1.0235466701
Zn  Zn28  1  0.56532000  0.56532000  0.00000000  1.0 1.0251565916
Zn  Zn29  1  0.47220000  0.36547000  0.92741000  1.0 0.9184695971
Zn  Zn30  1  0.11547000  0.68806000  0.39327000  1.0 0.9184695971
Zn  Zn31  1  0.43806000  0.54479000  0.07259000  1.0 0.9184695971
Zn  Zn32  1  0.29479000  0.72220000  0.60673000  1.0 0.9184695971
Zn  Zn33  1  0.27780000  0.70521000  0.39327000  1.0 0.9184695971
Zn  Zn34  1  0.45521000  0.56194000  0.92741000  1.0 0.9184695971
Zn  Zn35  1  0.31194000  0.88453000  0.60673000  1.0 0.9184695971
Zn  Zn36  1  0.63453000  0.52780000  0.07259000  1.0 0.9184695971
Zn  Zn37  1  0.50000000  0.50000000  0.00000000  1.0 0.9723798973
Zn  Zn38  1  0.25000000  0.75000000  0.50000000  1.0 0.9723798973
H  H1  1  0.50730000  0.41460000  0.91310000  1.0 0.3135880572
H  H2  1  0.16460000  0.75150000  0.40730000  1.0 0.3135880572
H  H3  1  0.50150000  0.59420000  0.08690000  1.0 0.3135880572
H  H4  1  0.34420000  0.75730000  0.59270000  1.0 0.3135880572
H  H5  1  0.24270000  0.65580000  0.40730000  1.0 0.3135880572
H  H6  1  0.40580000  0.49850000  0.91310000  1.0 0.3135880572
H  H7  1  0.24850000  0.83540000  0.59270000  1.0 0.3135880572
H  H8  1  0.58540000  0.49270000  0.08690000  1.0 0.3135880572
H  H9  1  0.26500000  0.09590000  0.18910000  1.0 0.3649567706
H  H10  1  0.84590000  0.15680000  0.33090000  1.0 0.3649567706
H  H11  1  0.90680000  0.07590000  0.81090000  1.0 0.3649567706
H  H12  1  0.82590000  0.51500000  0.66910000  1.0 0.3649567706
H  H13  1  0.48500000  0.17410000  0.33090000  1.0 0.3649567706
H  H14  1  0.92410000  0.09320000  0.18910000  1.0 0.3649567706
H  H15  1  0.84320000  0.15410000  0.66910000  1.0 0.3649567706
H  H16  1  0.90410000  0.73500000  0.81090000  1.0 0.3649567706
H  H17  1  0.41530000  0.49560000  0.97550000  1.0 0.354044613
H  H18  1  0.24560000  0.77010000  0.58030000  1.0 0.354044613
H  H19  1  0.52010000  0.43980000  0.02450000  1.0 0.354044613
H  H20  1  0.18980000  0.66530000  0.41970000  1.0 0.354044613
H  H21  1  0.33470000  0.81020000  0.58030000  1.0 0.354044613
H  H22  1  0.56020000  0.47990000  0.97550000  1.0 0.354044613
H  H23  1  0.22990000  0.75440000  0.41970000  1.0 0.354044613
H  H24  1  0.50440000  0.58470000  0.02450000  1.0 0.354044613
H  H25  1  0.39600000  0.20230000  0.22950000  1.0 0.1275710496
H  H26  1  0.95230000  0.22280000  0.30630000  1.0 0.1275710496
H  H27  1  0.97280000  0.16650000  0.77050000  1.0 0.1275710496
H  H28  1  0.91650000  0.64600000  0.69370000  1.0 0.1275710496
H  H29  1  0.35400000  0.08350000  0.30630000  1.0 0.1275710496
H  H30  1  0.83350000  0.02720000  0.22950000  1.0 0.1275710496
H  H31  1  0.77720000  0.04770000  0.69370000  1.0 0.1275710496
H  H32  1  0.79770000  0.60400000  0.77050000  1.0 0.1275710496
H  H33  1  0.45490000  0.23780000  0.23250000  1.0 0.1275710496
H  H34  1  0.98780000  0.25530000  0.28290000  1.0 0.1275710496
H  H35  1  0.00530000  0.22240000  0.76750000  1.0 0.1275710496
H  H36  1  0.97240000  0.70490000  0.71710000  1.0 0.1275710496
H  H37  1  0.29510000  0.02760000  0.28290000  1.0 0.1275710496
H  H38  1  0.77760000  0.99470000  0.23250000  1.0 0.1275710496
H  H39  1  0.74470000  0.01220000  0.71710000  1.0 0.1275710496
H  H40  1  0.76220000  0.54510000  0.76750000  1.0 0.1275710496
H  H41  1  0.36010000  0.17210000  0.06000000  1.0 0.12066243
H  H42  1  0.92210000  0.36210000  0.31200000  1.0 0.12066243
H  H43  1  0.11210000  0.30010000  0.94000000  1.0 0.12066243
H  H44  1  0.05010000  0.61010000  0.68800000  1.0 0.12066243
H  H45  1  0.38990000  0.94990000  0.31200000  1.0 0.12066243
H  H46  1  0.69990000  0.88790000  0.06000000  1.0 0.12066243
H  H47  1  0.63790000  0.07790000  0.68800000  1.0 0.12066243
H  H48  1  0.82790000  0.63990000  0.94000000  1.0 0.12066243
H  H49  1  0.30160000  0.14020000  0.06060000  1.0 0.12066243
H  H50  1  0.89020000  0.32960000  0.33860000  1.0 0.12066243
H  H51  1  0.07960000  0.24100000  0.93940000  1.0 0.12066243
H  H52  1  0.99100000  0.55160000  0.66140000  1.0 0.12066243
H  H53  1  0.44840000  0.00900000  0.33860000  1.0 0.12066243
H  H54  1  0.75900000  0.92040000  0.06060000  1.0 0.12066243
H  H55  1  0.67040000  0.10980000  0.66140000  1.0 0.12066243
H  H56  1  0.85980000  0.69840000  0.93940000  1.0 0.12066243
H  H57  1  0.50650000  0.20040000  0.19410000  1.0 0.1275710496
H  H58  1  0.95040000  0.25630000  0.19390000  1.0 0.1275710496
H  H59  1  0.00630000  0.31240000  0.80590000  1.0 0.1275710496
H  H60  1  0.06240000  0.75650000  0.80610000  1.0 0.1275710496
H  H61  1  0.24350000  0.93760000  0.19390000  1.0 0.1275710496
H  H62  1  0.68760000  0.99370000  0.19410000  1.0 0.1275710496
H  H63  1  0.74370000  0.04960000  0.80610000  1.0 0.1275710496
H  H64  1  0.79960000  0.49350000  0.80590000  1.0 0.1275710496
H  H65  1  0.56260000  0.26200000  0.14880000  1.0 0.12066243
H  H66  1  0.01200000  0.36320000  0.19940000  1.0 0.12066243
H  H67  1  0.11320000  0.41380000  0.85120000  1.0 0.12066243
H  H68  1  0.16380000  0.81260000  0.80060000  1.0 0.12066243
H  H69  1  0.18740000  0.83620000  0.19940000  1.0 0.12066243
H  H70  1  0.58620000  0.88680000  0.14880000  1.0 0.12066243
H  H71  1  0.63680000  0.98800000  0.80060000  1.0 0.12066243
H  H72  1  0.73800000  0.43740000  0.85120000  1.0 0.12066243
H  H73  1  0.42280000  0.25030000  0.10030000  1.0 0.12066243
H  H74  1  0.00030000  0.40000000  0.32750000  1.0 0.12066243
H  H75  1  0.15000000  0.32250000  0.89970000  1.0 0.12066243
H  H76  1  0.07250000  0.67280000  0.67250000  1.0 0.12066243
H  H77  1  0.32720000  0.92750000  0.32750000  1.0 0.12066243
H  H78  1  0.67750000  0.85000000  0.10030000  1.0 0.12066243
H  H79  1  0.60000000  0.99970000  0.67250000  1.0 0.12066243
H  H80  1  0.74970000  0.57720000  0.89970000  1.0 0.12066243
H  H81  1  0.51870000  0.24300000  0.04930000  1.0 0.1275710496
H  H82  1  0.99300000  0.44370000  0.22430000  1.0 0.1275710496
H  H83  1  0.19370000  0.46940000  0.95070000  1.0 0.1275710496
H  H84  1  0.21940000  0.76870000  0.77570000  1.0 0.1275710496
H  H85  1  0.23130000  0.78060000  0.22430000  1.0 0.1275710496
H  H86  1  0.53060000  0.80630000  0.04930000  1.0 0.1275710496
H  H87  1  0.55630000  0.00700000  0.77570000  1.0 0.1275710496
H  H88  1  0.75700000  0.48130000  0.95070000  1.0 0.1275710496
H  H89  1  0.50740000  0.27690000  0.00150000  1.0 0.1275710496
H  H90  1  0.02690000  0.52540000  0.26950000  1.0 0.12066243
H  H91  1  0.27540000  0.50590000  0.99850000  1.0 0.12066243
H  H92  1  0.25590000  0.75740000  0.73050000  1.0 0.12066243
H  H93  1  0.24260000  0.74410000  0.26950000  1.0 0.12066243
H  H94  1  0.49410000  0.72460000  0.00150000  1.0 0.12066243
H  H95  1  0.47460000  0.97310000  0.73050000  1.0 0.12066243
H  H96  1  0.72310000  0.49260000  0.99850000  1.0 0.12066243
H  H97  1  0.43690000  0.35980000  0.06290000  1.0 0.1275710496
H  H98  1  0.10980000  0.54690000  0.42290000  1.0 0.1275710496
H  H99  1  0.29690000  0.37400000  0.93710000  1.0 0.1275710496
H  H100  1  0.12400000  0.68690000  0.57710000  1.0 0.1275710496
H  H101  1  0.31310000  0.87600000  0.42290000  1.0 0.1275710496
H  H102  1  0.62600000  0.70310000  0.06290000  1.0 0.1275710496
H  H103  1  0.45310000  0.89020000  0.57710000  1.0 0.1275710496
H  H104  1  0.64020000  0.56310000  0.93710000  1.0 0.1275710496
H  H105  1  0.45600000  0.33340000  0.12040000  1.0 0.12066243
H  H106  1  0.08340000  0.46300000  0.37740000  1.0 0.12066243
H  H107  1  0.21300000  0.33560000  0.87960000  1.0 0.12066243
H  H108  1  0.08560000  0.70600000  0.62260000  1.0 0.12066243
H  H109  1  0.29400000  0.91440000  0.37740000  1.0 0.12066243
H  H110  1  0.66440000  0.78700000  0.12040000  1.0 0.12066243
H  H111  1  0.53700000  0.91660000  0.62260000  1.0 0.12066243
H  H112  1  0.66666667  0.54400000  0.87960000  1.0 0.12066243
H  H113  1  0.56350000  0.16430000  0.19660000  1.0 0.12066243
H  H114  1  0.91430000  0.21770000  0.10080000  1.0 0.12066243
H  H115  1  0.96770000  0.36690000  0.80340000  1.0 0.12066243
H  H116  1  0.11690000  0.81350000  0.89920000  1.0 0.12066243
H  H117  1  0.18650000  0.88310000  0.10080000  1.0 0.12066243
H  H118  1  0.63310000  0.03230000  0.19660000  1.0 0.12066243
H  H119  1  0.78230000  0.08570000  0.89920000  1.0 0.12066243
H  H120  1  0.83570000  0.43650000  0.80340000  1.0 0.12066243
H  H121  1  0.63740000  0.15300000  0.24820000  1.0 0.12066243
H  H122  1  0.90300000  0.15480000  0.01560000  1.0 0.12066243
H  H123  1  0.90480000  0.38920000  0.75180000  1.0 0.12066243
H  H124  1  0.13920000  0.88740000  0.98440000  1.0 0.12066243
H  H125  1  0.11260000  0.86080000  0.01560000  1.0 0.12066243
H  H126  1  0.61080000  0.09520000  0.24820000  1.0 0.12066243
H  H127  1  0.84520000  0.09700000  0.98440000  1.0 0.12066243
H  H128  1  0.84700000  0.36260000  0.75180000  1.0 0.12066243
H  H129  1  0.71110000  0.27360000  0.28790000  1.0 0.1117126271
H  H130  1  0.02360000  0.23570000  0.06250000  1.0 0.1117126271
H  H131  1  0.98570000  0.42320000  0.71210000  1.0 0.1117126271
H  H132  1  0.17320000  0.96110000  0.93750000  1.0 0.1117126271
H  H133  1  0.03890000  0.82680000  0.06250000  1.0 0.1117126271
H  H134  1  0.57680000  0.01430000  0.28790000  1.0 0.1117126271
H  H135  1  0.76430000  0.97640000  0.93750000  1.0 0.1117126271
H  H136  1  0.72640000  0.28890000  0.71210000  1.0 0.1117126271
H  H137  1  0.63700000  0.28770000  0.24090000  1.0 0.1117126271
H  H138  1  0.03770000  0.29680000  0.15070000  1.0 0.1117126271
H  H139  1  0.04680000  0.39610000  0.75910000  1.0 0.1117126271
H  H140  1  0.14610000  0.88700000  0.84930000  1.0 0.1117126271
H  H141  1  0.11300000  0.85390000  0.15070000  1.0 0.1117126271
H  H142  1  0.60390000  0.95320000  0.24090000  1.0 0.1117126271
H  H143  1  0.70320000  0.96230000  0.84930000  1.0 0.1117126271
H  H144  1  0.71230000  0.36300000  0.75910000  1.0 0.1117126271
H  H145  1  0.30010000  0.25580000  0.40090000  1.0 0.1117126271
H  H146  1  0.00580000  0.10490000  0.45570000  1.0 0.1117126271
H  H147  1  0.85490000  0.89920000  0.59910000  1.0 0.1117126271
H  H148  1  0.64920000  0.55010000  0.54430000  1.0 0.1117126271
H  H149  1  0.44990000  0.35080000  0.45570000  1.0 0.1117126271
H  H150  1  0.10080000  0.14510000  0.40090000  1.0 0.1117126271
H  H151  1  0.89510000  0.99420000  0.54430000  1.0 0.1117126271
H  H152  1  0.74420000  0.69990000  0.59910000  1.0 0.1117126271
H  H153  1  0.36240000  0.31460000  0.49900000  1.0 0.12066243
H  H154  1  0.06460000  0.06560000  0.45220000  1.0 0.12066243
H  H155  1  0.81560000  0.86340000  0.50100000  1.0 0.12066243
H  H156  1  0.61340000  0.61240000  0.54780000  1.0 0.12066243
H  H157  1  0.38760000  0.38660000  0.45220000  1.0 0.12066243
H  H158  1  0.13660000  0.18440000  0.49900000  1.0 0.12066243
H  H159  1  0.93440000  0.93540000  0.54780000  1.0 0.12066243
H  H160  1  0.68540000  0.63760000  0.50100000  1.0 0.12066243
H  H161  1  0.45970000  0.24350000  0.48200000  1.0 0.12066243
H  H162  1  0.99350000  0.01150000  0.28380000  1.0 0.12066243
H  H163  1  0.76150000  0.97770000  0.51800000  1.0 0.12066243
H  H164  1  0.72770000  0.70970000  0.71620000  1.0 0.12066243
H  H165  1  0.29030000  0.27230000  0.28380000  1.0 0.12066243
H  H166  1  0.02230000  0.23850000  0.48200000  1.0 0.12066243
H  H167  1  0.98850000  0.00650000  0.71620000  1.0 0.12066243
H  H168  1  0.75650000  0.54030000  0.51800000  1.0 0.12066243
H  H169  1  0.39730000  0.18470000  0.38380000  1.0 0.12066243
H  H170  1  0.93470000  0.05090000  0.28740000  1.0 0.12066243
H  H171  1  0.80090000  0.01350000  0.61620000  1.0 0.12066243
H  H172  1  0.76350000  0.64730000  0.71260000  1.0 0.12066243
H  H173  1  0.35270000  0.23650000  0.28740000  1.0 0.12066243
H  H174  1  0.98650000  0.19910000  0.38380000  1.0 0.12066243
H  H175  1  0.94910000  0.06530000  0.71260000  1.0 0.12066243
H  H176  1  0.81530000  0.60270000  0.61620000  1.0 0.12066243
H  H177  1  0.42820000  0.34130000  0.60130000  1.0 0.12066243
H  H178  1  0.09130000  0.99000000  0.41310000  1.0 0.12066243
H  H179  1  0.74000000  0.82690000  0.39870000  1.0 0.12066243
H  H180  1  0.57690000  0.67820000  0.58690000  1.0 0.12066243
H  H181  1  0.32180000  0.42310000  0.41310000  1.0 0.12066243
H  H182  1  0.17310000  0.26000000  0.60130000  1.0 0.12066243
H  H183  1  0.01000000  0.90870000  0.58690000  1.0 0.12066243
H  H184  1  0.65870000  0.57180000  0.39870000  1.0 0.12066243
H  H185  1  0.56640000  0.43300000  0.70180000  1.0 0.12066243
H  H186  1  0.18300000  0.98120000  0.36660000  1.0 0.12066243
H  H187  1  0.73120000  0.86460000  0.29820000  1.0 0.12066243
H  H188  1  0.61460000  0.81640000  0.63340000  1.0 0.12066243
H  H189  1  0.18360000  0.38540000  0.36660000  1.0 0.12066243
H  H190  1  0.13540000  0.26880000  0.70180000  1.0 0.12066243
H  H191  1  0.01880000  0.81700000  0.63340000  1.0 0.12066243
H  H192  1  0.56700000  0.43360000  0.29820000  1.0 0.12066243
H  H193  1  0.50600000  0.32520000  0.53760000  1.0 0.12066243
H  H194  1  0.07520000  0.03760000  0.31920000  1.0 0.12066243
H  H195  1  0.78760000  0.96840000  0.46240000  1.0 0.12066243
H  H196  1  0.71840000  0.75600000  0.68080000  1.0 0.12066243
H  H197  1  0.24400000  0.28160000  0.31920000  1.0 0.12066243
H  H198  1  0.03160000  0.21240000  0.53760000  1.0 0.12066243
H  H199  1  0.96240000  0.92480000  0.68080000  1.0 0.12066243
H  H200  1  0.67480000  0.49400000  0.46240000  1.0 0.12066243
H  H201  1  0.63950000  0.41800000  0.70630000  1.0 0.12066243
H  H202  1  0.16800000  0.96170000  0.27850000  1.0 0.12066243
H  H203  1  0.71170000  0.93320000  0.29370000  1.0 0.12066243
H  H204  1  0.68320000  0.88950000  0.72150000  1.0 0.12066243
H  H205  1  0.11050000  0.31680000  0.27850000  1.0 0.12066243
H  H206  1  0.06680000  0.28830000  0.70630000  1.0 0.12066243
H  H207  1  0.03830000  0.83200000  0.72150000  1.0 0.12066243
H  H208  1  0.58200000  0.36050000  0.29370000  1.0 0.12066243
H  H209  1  0.70750000  0.43410000  0.71020000  1.0 0.1117126271
H  H210  1  0.18410000  0.97390000  0.22660000  1.0 0.1117126271
H  H211  1  0.72390000  0.99730000  0.28980000  1.0 0.1117126271
H  H212  1  0.74730000  0.95750000  0.77340000  1.0 0.1117126271
H  H213  1  0.04250000  0.25270000  0.22660000  1.0 0.1117126271
H  H214  1  0.00270000  0.27610000  0.71020000  1.0 0.1117126271
H  H215  1  0.02610000  0.81590000  0.77340000  1.0 0.1117126271
H  H216  1  0.56590000  0.29250000  0.28980000  1.0 0.1117126271
H  H217  1  0.62000000  0.40220000  0.55020000  1.0 0.1275710496
H  H218  1  0.15220000  0.10200000  0.28220000  1.0 0.1275710496
H  H219  1  0.85200000  0.06980000  0.44980000  1.0 0.1275710496
H  H220  1  0.81980000  0.87000000  0.71780000  1.0 0.1275710496
H  H221  1  0.13000000  0.18020000  0.28220000  1.0 0.1275710496
H  H222  1  0.93020000  0.14800000  0.55020000  1.0 0.1275710496
H  H223  1  0.89800000  0.84780000  0.71780000  1.0 0.1275710496
H  H224  1  0.59780000  0.38000000  0.44980000  1.0 0.1275710496
H  H225  1  0.55060000  0.38020000  0.54600000  1.0 0.12066243
H  H226  1  0.13020000  0.08420000  0.32960000  1.0 0.12066243
H  H227  1  0.83420000  0.00460000  0.45400000  1.0 0.12066243
H  H228  1  0.75460000  0.80060000  0.67040000  1.0 0.12066243
H  H229  1  0.19940000  0.24540000  0.32960000  1.0 0.12066243
H  H230  1  0.99540000  0.16580000  0.54600000  1.0 0.12066243
H  H231  1  0.91580000  0.86980000  0.67040000  1.0 0.12066243
H  H232  1  0.61980000  0.44940000  0.45400000  1.0 0.12066243
H  H233  1  0.42930000  0.42920000  0.67450000  1.0 0.12066243
H  H234  1  0.17920000  0.00470000  0.49990000  1.0 0.12066243
H  H235  1  0.75470000  0.75480000  0.32550000  1.0 0.12066243
H  H236  1  0.50480000  0.67930000  0.50010000  1.0 0.12066243
H  H237  1  0.32070000  0.49520000  0.49990000  1.0 0.12066243
H  H238  1  0.24520000  0.24530000  0.67450000  1.0 0.12066243
H  H239  1  0.99530000  0.82080000  0.50010000  1.0 0.12066243
H  H240  1  0.57080000  0.57070000  0.32550000  1.0 0.12066243
H  H241  1  0.42760000  0.47160000  0.75480000  1.0 0.12066243
H  H242  1  0.22160000  0.96680000  0.54400000  1.0 0.12066243
H  H243  1  0.71680000  0.67280000  0.24520000  1.0 0.12066243
H  H244  1  0.42280000  0.67760000  0.45600000  1.0 0.12066243
H  H245  1  0.32240000  0.57720000  0.54400000  1.0 0.1275710496
H  H246  1  0.32720000  0.28320000  0.75480000  1.0 0.12066243
H  H247  1  0.03320000  0.77840000  0.45600000  1.0 0.1275710496
H  H248  1  0.52840000  0.57240000  0.24520000  1.0 0.12066243
H  H249  1  0.55930000  0.46640000  0.84990000  1.0 0.12066243
H  H250  1  0.21640000  0.86650000  0.40710000  1.0 0.12066243
H  H251  1  0.61650000  0.70940000  0.15010000  1.0 0.12066243
H  H252  1  0.45940000  0.80930000  0.59290000  1.0 0.12066243
H  H253  1  0.19070000  0.54060000  0.40710000  1.0 0.12066243
H  H254  1  0.29060000  0.38350000  0.84990000  1.0 0.12066243
H  H255  1  0.13350000  0.78360000  0.59290000  1.0 0.12066243
H  H256  1  0.53360000  0.44070000  0.15010000  1.0 0.12066243
H  H257  1  0.56490000  0.42650000  0.77400000  1.0 0.12066243
H  H258  1  0.17650000  0.90250000  0.36160000  1.0 0.12066243
H  H259  1  0.65250000  0.79090000  0.22600000  1.0 0.12066243
H  H260  1  0.54090000  0.81490000  0.63840000  1.0 0.12066243
H  H261  1  0.18510000  0.45910000  0.36160000  1.0 0.12066243
H  H262  1  0.20910000  0.34750000  0.77400000  1.0 0.12066243
H  H263  1  0.09750000  0.82350000  0.63840000  1.0 0.12066243
H  H264  1  0.57350000  0.43510000  0.22600000  1.0 0.12066243
H  H265  1  0.39540000  0.03290000  0.20090000  1.0 0.12066243
H  H266  1  0.78290000  0.08200000  0.13750000  1.0 0.12066243
H  H267  1  0.83200000  0.19450000  0.79910000  1.0 0.12066243
H  H268  1  0.94450000  0.64540000  0.86250000  1.0 0.12066243
H  H269  1  0.35460000  0.05550000  0.13750000  1.0 0.12066243
H  H270  1  0.80550000  0.16800000  0.20090000  1.0 0.12066243
H  H271  1  0.91800000  0.21710000  0.86250000  1.0 0.12066243
H  H272  1  0.96710000  0.60460000  0.79910000  1.0 0.12066243
H  H273  1  0.45600000  0.99390000  0.21750000  1.0 0.12066243
H  H274  1  0.74390000  0.02640000  0.03790000  1.0 0.12066243
H  H275  1  0.77640000  0.23850000  0.78250000  1.0 0.12066243
H  H276  1  0.98850000  0.70600000  0.96210000  1.0 0.12066243
H  H277  1  0.29400000  0.01150000  0.03790000  1.0 0.12066243
H  H278  1  0.76150000  0.22360000  0.21750000  1.0 0.12066243
H  H279  1  0.97360000  0.25610000  0.96210000  1.0 0.12066243
H  H280  1  0.00610000  0.54400000  0.78250000  1.0 0.12066243
H  H281  1  0.36290000  0.87740000  0.16370000  1.0 0.12066243
H  H282  1  0.62740000  0.96370000  0.01450000  1.0 0.12066243
H  H283  1  0.71370000  0.19920000  0.83630000  1.0 0.12066243
H  H284  1  0.94920000  0.61290000  0.98550000  1.0 0.12066243
H  H285  1  0.38710000  0.05080000  0.01450000  1.0 0.12066243
H  H286  1  0.80080000  0.28630000  0.16370000  1.0 0.12066243
H  H287  1  0.03630000  0.37260000  0.98550000  1.0 0.12066243
H  H288  1  0.12260000  0.63710000  0.83630000  1.0 0.12066243
H  H289  1  0.30260000  0.91420000  0.14940000  1.0 0.12066243
H  H290  1  0.66420000  0.01480000  0.11160000  1.0 0.12066243
H  H291  1  0.76480000  0.15320000  0.85060000  1.0 0.12066243
H  H292  1  0.90320000  0.55260000  0.88840000  1.0 0.12066243
H  H293  1  0.44740000  0.09680000  0.11160000  1.0 0.12066243
H  H294  1  0.84680000  0.23520000  0.14940000  1.0 0.12066243
H  H295  1  0.98520000  0.33580000  0.88840000  1.0 0.12066243
H  H296  1  0.08580000  0.69740000  0.85060000  1.0 0.12066243
H  H297  1  0.51100000  0.98220000  0.28840000  1.0 0.1275710496
H  H298  1  0.73220000  0.94380000  0.97120000  1.0 0.1275710496
H  H299  1  0.69380000  0.22260000  0.71160000  1.0 0.1275710496
H  H300  1  0.97260000  0.76100000  0.02880000  1.0 0.1275710496
H  H301  1  0.23900000  0.02740000  0.97120000  1.0 0.1275710496
H  H302  1  0.77740000  0.30620000  0.28840000  1.0 0.1275710496
H  H303  1  0.05620000  0.26780000  0.02880000  1.0 0.1275710496
H  H304  1  0.01780000  0.48900000  0.71160000  1.0 0.1275710496
H  H305  1  0.56980000  0.87240000  0.27720000  1.0 0.1275710496
H  H306  1  0.62240000  0.84520000  0.80260000  1.0 0.1275710496
H  H307  1  0.59520000  0.29260000  0.72280000  1.0 0.1275710496
H  H308  1  0.04260000  0.81980000  0.19740000  1.0 0.1275710496
H  H309  1  0.18020000  0.95740000  0.80260000  1.0 0.1275710496
H  H310  1  0.70740000  0.40480000  0.27720000  1.0 0.1275710496
H  H311  1  0.15480000  0.37760000  0.19740000  1.0 0.1275710496
H  H312  1  0.12760000  0.43020000  0.72280000  1.0 0.1275710496
H  H313  1  0.42640000  0.84260000  0.15300000  1.0 0.12066243
H  H314  1  0.59260000  0.93960000  0.91620000  1.0 0.12066243
H  H315  1  0.68960000  0.27340000  0.84700000  1.0 0.12066243
H  H316  1  0.02340000  0.67640000  0.08380000  1.0 0.12066243
H  H317  1  0.32360000  0.97660000  0.91620000  1.0 0.12066243
H  H318  1  0.72660000  0.31040000  0.15300000  1.0 0.12066243
H  H319  1  0.06040000  0.40740000  0.08380000  1.0 0.12066243
H  H320  1  0.15740000  0.57360000  0.84700000  1.0 0.12066243
H  H321  1  0.53760000  0.79000000  0.15900000  1.0 0.12066243
H  H322  1  0.54000000  0.88100000  0.75240000  1.0 0.12066243
H  H323  1  0.63100000  0.37860000  0.84100000  1.0 0.12066243
H  H324  1  0.12860000  0.78760000  0.24760000  1.0 0.12066243
H  H325  1  0.21240000  0.87140000  0.75240000  1.0 0.12066243
H  H326  1  0.62140000  0.36900000  0.15900000  1.0 0.12066243
H  H327  1  0.11900000  0.46000000  0.24760000  1.0 0.12066243
H  H328  1  0.21000000  0.46240000  0.84100000  1.0 0.12066243
H  H329  1  0.52590000  0.70670000  0.11880000  1.0 0.1117126271
H  H330  1  0.45670000  0.83790000  0.68080000  1.0 0.1117126271
H  H331  1  0.58790000  0.40710000  0.88120000  1.0 0.1117126271
H  H332  1  0.15710000  0.77590000  0.31920000  1.0 0.1117126271
H  H333  1  0.22410000  0.84290000  0.68080000  1.0 0.1117126271
H  H334  1  0.59290000  0.41210000  0.11880000  1.0 0.1117126271
H  H335  1  0.16210000  0.54330000  0.31920000  1.0 0.1117126271
H  H336  1  0.29330000  0.47410000  0.88120000  1.0 0.1117126271
H  H337  1  0.42800000  0.69360000  0.14700000  1.0 0.1117126271
H  H338  1  0.44360000  0.79660000  0.76560000  1.0 0.1117126271
H  H339  1  0.54660000  0.28100000  0.85300000  1.0 0.1117126271
H  H340  1  0.03100000  0.67800000  0.23440000  1.0 0.1117126271
H  H341  1  0.32200000  0.96900000  0.76560000  1.0 0.1117126271
H  H342  1  0.71900000  0.45340000  0.14700000  1.0 0.1117126271
H  H343  1  0.20340000  0.55640000  0.23440000  1.0 0.1117126271
H  H344  1  0.30640000  0.57200000  0.85300000  1.0 0.1117126271
H  H345  1  0.43920000  0.77820000  0.19260000  1.0 0.12066243
H  H346  1  0.52820000  0.83560000  0.83900000  1.0 0.12066243
H  H347  1  0.58560000  0.24660000  0.80740000  1.0 0.12066243
H  H348  1  0.99660000  0.68920000  0.16100000  1.0 0.12066243
H  H349  1  0.31080000  0.00340000  0.83900000  1.0 0.12066243
H  H350  1  0.75340000  0.41440000  0.19260000  1.0 0.12066243
H  H351  1  0.16440000  0.47180000  0.16100000  1.0 0.12066243
H  H352  1  0.22180000  0.56080000  0.80740000  1.0 0.12066243
H  H353  1  0.56050000  0.01840000  0.38050000  1.0 0.1275710496
H  H354  1  0.76840000  0.88790000  0.95790000  1.0 0.1275710496
H  H355  1  0.63790000  0.18000000  0.61950000  1.0 0.1275710496
H  H356  1  0.93000000  0.81050000  0.04210000  1.0 0.1275710496
H  H357  1  0.18950000  0.07000000  0.95790000  1.0 0.1275710496
H  H358  1  0.82000000  0.36210000  0.38050000  1.0 0.1275710496
H  H359  1  0.11210000  0.23160000  0.04210000  1.0 0.1275710496
H  H360  1  0.98160000  0.43950000  0.61950000  1.0 0.1275710496
H  H361  1  0.63390000  0.07940000  0.47210000  1.0 0.12066243
H  H362  1  0.82940000  0.85730000  0.94550000  1.0 0.12066243
H  H363  1  0.60730000  0.16180000  0.52790000  1.0 0.12066243
H  H364  1  0.91180000  0.88390000  0.05450000  1.0 0.12066243
H  H365  1  0.11610000  0.08820000  0.94550000  1.0 0.12066243
H  H366  1  0.83820000  0.39270000  0.47210000  1.0 0.12066243
H  H367  1  0.14270000  0.17060000  0.05450000  1.0 0.12066243
H  H368  1  0.92060000  0.36610000  0.52790000  1.0 0.12066243
H  H369  1  0.71560000  0.00110000  0.42450000  1.0 0.1117126271
H  H370  1  0.75110000  0.82660000  0.78550000  1.0 0.1117126271
H  H371  1  0.57660000  0.29110000  0.57550000  1.0 0.1117126271
H  H372  1  0.04110000  0.96560000  0.21450000  1.0 0.1117126271
H  H373  1  0.03440000  0.95890000  0.78550000  1.0 0.1117126271
H  H374  1  0.70890000  0.42340000  0.42450000  1.0 0.1117126271
H  H375  1  0.17340000  0.24890000  0.21450000  1.0 0.1117126271
H  H376  1  0.99890000  0.28440000  0.57550000  1.0 0.1117126271
H  H377  1  0.64000000  0.94050000  0.33290000  1.0 0.1117126271
H  H378  1  0.69050000  0.85760000  0.80050000  1.0 0.1117126271
H  H379  1  0.60760000  0.30710000  0.66710000  1.0 0.1117126271
H  H380  1  0.05710000  0.89000000  0.19950000  1.0 0.1117126271
H  H381  1  0.11000000  0.94290000  0.80050000  1.0 0.1117126271
H  H382  1  0.69290000  0.39240000  0.33290000  1.0 0.1117126271
H  H383  1  0.14240000  0.30950000  0.19950000  1.0 0.1117126271
H  H384  1  0.05950000  0.36000000  0.66710000  1.0 0.1117126271
C  C1  1  0.30339000  0.14369000  0.14390000  1.0 0.5510107843
C  C2  1  0.89369000  0.24979000  0.34030000  1.0 0.5510107843
C  C3  1  0.99979000  0.15949000  0.85610000  1.0 0.5510107843
C  C4  1  0.90949000  0.55339000  0.65970000  1.0 0.5510107843
C  C5  1  0.44661000  0.09051000  0.34030000  1.0 0.5510107843
C  C6  1  0.84051000  0.00021000  0.14390000  1.0 0.5510107843
C  C7  1  0.75021000  0.10631000  0.65970000  1.0 0.5510107843
C  C8  1  0.85631000  0.69661000  0.85610000  1.0 0.5510107843
C  C9  1  0.34274000  0.16894000  0.14594000  1.0 -0.019300363
C  C10  1  0.91894000  0.27300000  0.32620000  1.0 -0.019300363
C  C11  1  0.02300000  0.19680000  0.85406000  1.0 -0.019300363
C  C12  1  0.94680000  0.59274000  0.67380000  1.0 -0.019300363
C  C13  1  0.40726000  0.05320000  0.32620000  1.0 -0.019300363
C  C14  1  0.80320000  0.97700000  0.14594000  1.0 -0.019300363
C  C15  1  0.72700000  0.08106000  0.67380000  1.0 -0.019300363
C  C16  1  0.83106000  0.65726000  0.85406000  1.0 -0.019300363
C  C17  1  0.38874000  0.19681000  0.19553000  1.0 -0.0908890896
C  C18  1  0.94681000  0.25128000  0.30807000  1.0 -0.0908890896
C  C19  1  0.00128000  0.19321000  0.80447000  1.0 -0.0908890896
C  C20  1  0.94321000  0.63874000  0.69193000  1.0 -0.0908890896
C  C21  1  0.36126000  0.05679000  0.30807000  1.0 -0.0908890896
C  C22  1  0.80679000  0.99872000  0.19553000  1.0 -0.0908890896
C  C23  1  0.74872000  0.05319000  0.69193000  1.0 -0.0908890896
C  C24  1  0.80319000  0.61126000  0.80447000  1.0 -0.0908890896
C  C25  1  0.42424000  0.21667000  0.19677000  1.0 -0.133616176
C  C26  1  0.96667000  0.26990000  0.29243000  1.0 -0.133616176
C  C27  1  0.01990000  0.22747000  0.80323000  1.0 -0.133616176
C  C28  1  0.97747000  0.67424000  0.70757000  1.0 -0.133616176
C  C29  1  0.32576000  0.02253000  0.29243000  1.0 -0.133616176
C  C30  1  0.77253000  0.98010000  0.19677000  1.0 -0.133616176
C  C31  1  0.73010000  0.03333000  0.70757000  1.0 -0.133616176
C  C32  1  0.78333000  0.57576000  0.80323000  1.0 -0.133616176
C  C33  1  0.41727000  0.20734000  0.14713000  1.0 0.0813134641
C  C34  1  0.95734000  0.31021000  0.29007000  1.0 0.0813134641
C  C35  1  0.06021000  0.27014000  0.85287000  1.0 0.0813134641
C  C36  1  0.02014000  0.66727000  0.70993000  1.0 0.0813134641
C  C37  1  0.33273000  0.97986000  0.29007000  1.0 0.0813134641
C  C38  1  0.72986000  0.93979000  0.14713000  1.0 0.0813134641
C  C39  1  0.68979000  0.04266000  0.70993000  1.0 0.0813134641
C  C40  1  0.79266000  0.58273000  0.85287000  1.0 0.0813134641
C  C41  1  0.36785000  0.17815000  0.09430000  1.0 -0.1489273031
C  C42  1  0.92815000  0.33385000  0.31030000  1.0 -0.1489273031
C  C43  1  0.08385000  0.27355000  0.90570000  1.0 -0.1489273031
C  C44  1  0.02355000  0.61785000  0.68970000  1.0 -0.1489273031
C  C45  1  0.38215000  0.97645000  0.31030000  1.0 -0.1489273031
C  C46  1  0.72645000  0.91615000  0.09430000  1.0 -0.1489273031
C  C47  1  0.66615000  0.07185000  0.68970000  1.0 -0.1489273031
C  C48  1  0.82185000  0.63215000  0.90570000  1.0 -0.1489273031
C  C49  1  0.33322000  0.15982000  0.09520000  1.0 -0.0908890896
C  C50  1  0.90982000  0.31462000  0.32660000  1.0 -0.0908890896
C  C51  1  0.06462000  0.23802000  0.90480000  1.0 -0.0908890896
C  C52  1  0.98802000  0.58322000  0.67340000  1.0 -0.0908890896
C  C53  1  0.41678000  0.01198000  0.32660000  1.0 -0.0908890896
C  C54  1  0.76198000  0.93538000  0.09520000  1.0 -0.0908890896
C  C55  1  0.68538000  0.09018000  0.67340000  1.0 -0.0908890896
C  C56  1  0.84018000  0.66678000  0.90480000  1.0 -0.0908890896
C  C57  1  0.45857000  0.22275000  0.14598000  1.0 0.0813134641
C  C58  1  0.97275000  0.32677000  0.26418000  1.0 0.0813134641
C  C59  1  0.07677000  0.31259000  0.85402000  1.0 0.0813134641
C  C60  1  0.06259000  0.70857000  0.73582000  1.0 0.0813134641
C  C61  1  0.29143000  0.93741000  0.26418000  1.0 0.0813134641
C  C62  1  0.68741000  0.92323000  0.14598000  1.0 0.0813134641
C  C63  1  0.67323000  0.02725000  0.73582000  1.0 0.0813134641
C  C64  1  0.77725000  0.54143000  0.85402000  1.0 0.0813134641
C  C65  1  0.50342000  0.21572000  0.17610000  1.0 -0.1973363985
C  C66  1  0.96572000  0.28962000  0.21230000  1.0 -0.1973363985
C  C67  1  0.03962000  0.32732000  0.82390000  1.0 -0.1973363985
C  C68  1  0.07732000  0.75342000  0.78770000  1.0 -0.1973363985
C  C69  1  0.24658000  0.92268000  0.21230000  1.0 -0.1973363985
C  C70  1  0.67268000  0.96038000  0.17610000  1.0 -0.1973363985
C  C71  1  0.71038000  0.03428000  0.78770000  1.0 -0.1973363985
C  C72  1  0.78428000  0.49658000  0.82390000  1.0 -0.1973363985
C  C73  1  0.54345000  0.23192000  0.17913000  1.0 0.0813134641
C  C74  1  0.98192000  0.30279000  0.18847000  1.0 0.0813134641
C  C75  1  0.05279000  0.36432000  0.82087000  1.0 0.0813134641
C  C76  1  0.11432000  0.79345000  0.81153000  1.0 0.0813134641
C  C77  1  0.20655000  0.88568000  0.18847000  1.0 0.0813134641
C  C78  1  0.63568000  0.94721000  0.17913000  1.0 0.0813134641
C  C79  1  0.69721000  0.01808000  0.81153000  1.0 0.0813134641
C  C80  1  0.76808000  0.45655000  0.82087000  1.0 0.0813134641
C  C81  1  0.53633000  0.25323000  0.14890000  1.0 -0.2107161688
C  C82  1  0.00323000  0.35433000  0.21690000  1.0 -0.2107161688
C  C83  1  0.10433000  0.38743000  0.85110000  1.0 -0.2107161688
C  C84  1  0.13743000  0.78633000  0.78310000  1.0 -0.2107161688
C  C85  1  0.21367000  0.86257000  0.21690000  1.0 -0.2107161688
C  C86  1  0.61257000  0.89567000  0.14890000  1.0 -0.2107161688
C  C87  1  0.64567000  0.99677000  0.78310000  1.0 -0.2107161688
C  C88  1  0.74677000  0.46367000  0.85110000  1.0 -0.2107161688
C  C89  1  0.49215000  0.26115000  0.11960000  1.0 0.0813134641
C  C90  1  0.01115000  0.39155000  0.26900000  1.0 0.0813134641
C  C91  1  0.14155000  0.37255000  0.88040000  1.0 0.0813134641
C  C92  1  0.12255000  0.74215000  0.73100000  1.0 0.0813134641
C  C93  1  0.25785000  0.87745000  0.26900000  1.0 0.0813134641
C  C94  1  0.62745000  0.85845000  0.11960000  1.0 0.0813134641
C  C95  1  0.60845000  0.98885000  0.73100000  1.0 0.0813134641
C  C96  1  0.73885000  0.50785000  0.88040000  1.0 0.0813134641
C  C97  1  0.45324000  0.24582000  0.11962000  1.0 -0.2107161688
C  C98  1  0.99582000  0.37620000  0.29258000  1.0 -0.2107161688
C  C99  1  0.12620000  0.33362000  0.88038000  1.0 -0.2107161688
C  C100  1  0.08362000  0.70324000  0.70742000  1.0 -0.2107161688
C  C101  1  0.29676000  0.91638000  0.29258000  1.0 -0.2107161688
C  C102  1  0.66638000  0.87380000  0.11962000  1.0 -0.2107161688
C  C103  1  0.62380000  0.00418000  0.70742000  1.0 -0.2107161688
C  C104  1  0.75418000  0.54676000  0.88038000  1.0 -0.2107161688
C  C105  1  0.48586000  0.28216000  0.08670000  1.0 0.0703011423
C  C106  1  0.03216000  0.44546000  0.29630000  1.0 0.0703011423
C  C107  1  0.19546000  0.39916000  0.91330000  1.0 0.0703011423
C  C108  1  0.14916000  0.73586000  0.70370000  1.0 0.0703011423
C  C109  1  0.26414000  0.85084000  0.29630000  1.0 0.0703011423
C  C110  1  0.60084000  0.80454000  0.08670000  1.0 0.0703011423
C  C111  1  0.55454000  0.96784000  0.70370000  1.0 0.0703011423
C  C112  1  0.71784000  0.51414000  0.91330000  1.0 0.0703011423
C  C113  1  0.50288000  0.26718000  0.05330000  1.0 -0.1419583893
C  C114  1  0.01718000  0.46388000  0.26430000  1.0 -0.1419583893
C  C115  1  0.21388000  0.44958000  0.94670000  1.0 -0.1419583893
C  C116  1  0.19958000  0.75288000  0.73570000  1.0 -0.1419583893
C  C117  1  0.24712000  0.80042000  0.26430000  1.0 -0.1419583893
C  C118  1  0.55042000  0.78612000  0.05330000  1.0 -0.1419583893
C  C119  1  0.53612000  0.98282000  0.73570000  1.0 -0.1419583893
C  C120  1  0.73282000  0.49712000  0.94670000  1.0 -0.1419583893
C  C121  1  0.49459000  0.28649000  0.02310000  1.0 -0.0999487238
C  C122  1  0.03649000  0.51339000  0.29190000  1.0 -0.0999487238
C  C123  1  0.26339000  0.47149000  0.97690000  1.0 -0.0999487238
C  C124  1  0.22149000  0.74459000  0.70810000  1.0 -0.0999487238
C  C125  1  0.25541000  0.77851000  0.29190000  1.0 -0.0999487238
C  C126  1  0.52851000  0.73661000  0.02310000  1.0 -0.0999487238
C  C127  1  0.48661000  0.96351000  0.70810000  1.0 -0.0999487238
C  C128  1  0.71351000  0.50541000  0.97690000  1.0 -0.0999487238
C  C129  1  0.46900000  0.32220000  0.02580000  1.0 -0.036597162
C  C130  1  0.07220000  0.54640000  0.35320000  1.0 -0.036597162
C  C131  1  0.29640000  0.44320000  0.97420000  1.0 -0.036597162
C  C132  1  0.19320000  0.71900000  0.64680000  1.0 -0.036597162
C  C133  1  0.28100000  0.80680000  0.35320000  1.0 -0.036597162
C  C134  1  0.55680000  0.70360000  0.02580000  1.0 -0.036597162
C  C135  1  0.45360000  0.92780000  0.64680000  1.0 -0.036597162
C  C136  1  0.67780000  0.53100000  0.97420000  1.0 -0.036597162
C  C137  1  0.45472000  0.33732000  0.06140000  1.0 -0.0908890896
C  C138  1  0.08732000  0.52592000  0.38260000  1.0 -0.0908890896
C  C139  1  0.27592000  0.39332000  0.93860000  1.0 -0.0908890896
C  C140  1  0.14332000  0.70472000  0.61740000  1.0 -0.0908890896
C  C141  1  0.29528000  0.85668000  0.38260000  1.0 -0.0908890896
C  C142  1  0.60668000  0.72408000  0.06140000  1.0 -0.0908890896
C  C143  1  0.47408000  0.91268000  0.61740000  1.0 -0.0908890896
C  C144  1  0.66268000  0.54528000  0.93860000  1.0 -0.0908890896
C  C145  1  0.46409000  0.32029000  0.09400000  1.0 -0.1489273031
C  C146  1  0.07029000  0.47629000  0.35620000  1.0 -0.1489273031
C  C147  1  0.22629000  0.37009000  0.90600000  1.0 -0.1489273031
C  C148  1  0.12009000  0.71409000  0.64380000  1.0 -0.1489273031
C  C149  1  0.28591000  0.87991000  0.35620000  1.0 -0.1489273031
C  C150  1  0.62991000  0.77371000  0.09400000  1.0 -0.1489273031
C  C151  1  0.52371000  0.92971000  0.64380000  1.0 -0.1489273031
C  C152  1  0.67971000  0.53591000  0.90600000  1.0 -0.1489273031
C  C153  1  0.45916000  0.34176000  0.99060000  1.0 0.587636488
C  C154  1  0.09176000  0.60116000  0.38260000  1.0 0.587636488
C  C155  1  0.35116000  0.46856000  0.00940000  1.0 0.587636488
C  C156  1  0.21856000  0.70916000  0.61740000  1.0 0.587636488
C  C157  1  0.29084000  0.78144000  0.38260000  1.0 0.587636488
C  C158  1  0.53144000  0.64884000  0.99060000  1.0 0.587636488
C  C159  1  0.39884000  0.90824000  0.61740000  1.0 0.587636488
C  C160  1  0.65824000  0.54084000  0.00940000  1.0 0.587636488
C  C161  1  0.59046000  0.22646000  0.21080000  1.0 0.0703011423
C  C162  1  0.97646000  0.26566000  0.13600000  1.0 0.0703011423
C  C163  1  0.01566000  0.37966000  0.78920000  1.0 0.0703011423
C  C164  1  0.12966000  0.84046000  0.86400000  1.0 0.0703011423
C  C165  1  0.15954000  0.87034000  0.13600000  1.0 0.0703011423
C  C166  1  0.62034000  0.98434000  0.21080000  1.0 0.0703011423
C  C167  1  0.73434000  0.02354000  0.86400000  1.0 0.0703011423
C  C168  1  0.77354000  0.40954000  0.78920000  1.0 0.0703011423
C  C169  1  0.59336000  0.18716000  0.21540000  1.0 -0.1419583893
C  C170  1  0.93716000  0.22176000  0.09380000  1.0 -0.1419583893
C  C171  1  0.97176000  0.37796000  0.78460000  1.0 -0.1419583893
C  C172  1  0.12796000  0.84336000  0.90620000  1.0 -0.1419583893
C  C173  1  0.15664000  0.87204000  0.09380000  1.0 -0.1419583893
C  C174  1  0.62204000  0.02824000  0.21540000  1.0 -0.1419583893
C  C175  1  0.77824000  0.06284000  0.90620000  1.0 -0.1489273031
C  C176  1  0.81284000  0.40664000  0.78460000  1.0 -0.1419583893
C  C177  1  0.63807000  0.18057000  0.24750000  1.0 -0.0722369535
C  C178  1  0.93057000  0.18307000  0.04250000  1.0 -0.0722369535
C  C179  1  0.93307000  0.39057000  0.75250000  1.0 -0.0722369535
C  C180  1  0.14057000  0.88807000  0.95750000  1.0 -0.0722369535
C  C181  1  0.11193000  0.85943000  0.04250000  1.0 -0.0722369535
C  C182  1  0.60943000  0.06693000  0.24750000  1.0 -0.0722369535
C  C183  1  0.81693000  0.06943000  0.95750000  1.0 -0.0722369535
C  C184  1  0.81943000  0.36193000  0.75250000  1.0 -0.0722369535
C  C185  1  0.68407000  0.21247000  0.27580000  1.0 -0.0722369535
C  C186  1  0.96247000  0.18667000  0.02840000  1.0 -0.0722369535
C  C187  1  0.93667000  0.40827000  0.72420000  1.0 -0.0722369535
C  C188  1  0.15827000  0.93407000  0.97160000  1.0 -0.0722369535
C  C189  1  0.06593000  0.84173000  0.02840000  1.0 -0.0722369535
C  C190  1  0.59173000  0.06333000  0.27580000  1.0 -0.0722369535
C  C191  1  0.81333000  0.03753000  0.97160000  1.0 -0.0722369535
C  C192  1  0.78753000  0.31593000  0.72420000  1.0 -0.0722369535
C  C193  1  0.68110000  0.25200000  0.27070000  1.0 -0.0908890896
C  C194  1  0.00200000  0.23130000  0.07090000  1.0 -0.0908890896
C  C195  1  0.98130000  0.41040000  0.72930000  1.0 -0.0908890896
C  C196  1  0.16040000  0.93110000  0.92910000  1.0 -0.0908890896
C  C197  1  0.06890000  0.83960000  0.07090000  1.0 -0.0908890896
C  C198  1  0.58960000  0.01870000  0.27070000  1.0 -0.0908890896
C  C199  1  0.76870000  0.99800000  0.92910000  1.0 -0.0908890896
C  C200  1  0.74800000  0.31890000  0.72930000  1.0 -0.0908890896
C  C201  1  0.63638000  0.25968000  0.24110000  1.0 -0.1667704242
C  C202  1  0.00968000  0.26858000  0.12330000  1.0 -0.1667704242
C  C203  1  0.01858000  0.39528000  0.75890000  1.0 -0.1667704242
C  C204  1  0.14528000  0.88638000  0.87670000  1.0 -0.1667704242
C  C205  1  0.11362000  0.85472000  0.12330000  1.0 -0.1667704242
C  C206  1  0.60472000  0.98142000  0.24110000  1.0 -0.1667704242
C  C207  1  0.73142000  0.99032000  0.87670000  1.0 -0.1667704242
C  C208  1  0.74032000  0.36362000  0.75890000  1.0 -0.1667704242
C  C209  1  0.17336000  0.98096000  0.02480000  1.0 0.587636488
C  C210  1  0.73096000  0.20616000  0.30760000  1.0 0.587636488
C  C211  1  0.95616000  0.14856000  0.97520000  1.0 0.587636488
C  C212  1  0.89856000  0.42336000  0.69240000  1.0 0.587636488
C  C213  1  0.57664000  0.10144000  0.30760000  1.0 0.587636488
C  C214  1  0.85144000  0.04384000  0.02480000  1.0 0.5849438054
C  C215  1  0.79384000  0.26904000  0.69240000  1.0 0.587636488
C  C216  1  0.01904000  0.82664000  0.97520000  1.0 0.587636488
C  C217  1  0.30403000  0.17903000  0.31820000  1.0 0.5631625992
C  C218  1  0.92903000  0.11083000  0.37500000  1.0 0.5631625992
C  C219  1  0.86083000  0.98583000  0.68180000  1.0 0.5631625992
C  C220  1  0.73583000  0.55403000  0.62500000  1.0 0.5631625992
C  C221  1  0.44597000  0.26417000  0.37500000  1.0 0.5631625992
C  C222  1  0.01417000  0.13917000  0.31820000  1.0 0.5631625992
C  C223  1  0.88917000  0.07097000  0.62500000  1.0 0.5631625992
C  C224  1  0.82097000  0.69597000  0.68180000  1.0 0.5631625992
C  C225  1  0.34250000  0.21438000  0.38262000  1.0 -0.03047369
C  C226  1  0.96438000  0.08176000  0.37188000  1.0 -0.03047369
C  C227  1  0.83176000  0.95988000  0.61738000  1.0 -0.03047369
C  C228  1  0.70988000  0.59250000  0.62812000  1.0 -0.03047369
C  C229  1  0.40750000  0.29012000  0.37188000  1.0 -0.03047369
C  C230  1  0.04012000  0.16824000  0.38262000  1.0 -0.03047369
C  C231  1  0.91824000  0.03562000  0.62812000  1.0 -0.03047369
C  C232  1  0.78562000  0.65750000  0.61738000  1.0 -0.03047369
C  C233  1  0.33203000  0.25328000  0.41709000  1.0 -0.0999487238
C  C234  1  0.00328000  0.08619000  0.42125000  1.0 -0.0999487238
C  C235  1  0.83619000  0.91494000  0.58291000  1.0 -0.0999487238
C  C236  1  0.66494000  0.58203000  0.57875000  1.0 -0.0999487238
C  C237  1  0.41797000  0.33506000  0.42125000  1.0 -0.0999487238
C  C238  1  0.08506000  0.16381000  0.41709000  1.0 -0.0999487238
C  C239  1  0.91381000  0.99672000  0.57875000  1.0 -0.0999487238
C  C240  1  0.74672000  0.66797000  0.58291000  1.0 -0.0999487238
C  C241  1  0.36938000  0.28853000  0.47587000  1.0 -0.1591565753
C  C242  1  0.03853000  0.06266000  0.41915000  1.0 -0.1591565753
C  C243  1  0.81266000  0.89351000  0.52413000  1.0 -0.1591565753
C  C244  1  0.64351000  0.61938000  0.58085000  1.0 -0.1591565753
C  C245  1  0.38062000  0.35649000  0.41915000  1.0 -0.1591565753
C  C246  1  0.10649000  0.18734000  0.47587000  1.0 -0.1591565753
C  C247  1  0.93734000  0.96147000  0.58085000  1.0 -0.1591565753
C  C248  1  0.71147000  0.63062000  0.52413000  1.0 -0.1591565753
C  C249  1  0.41719000  0.28487000  0.50018000  1.0 0.0703011423
C  C250  1  0.03487000  0.03469000  0.36768000  1.0 0.0703011423
C  C251  1  0.78469000  0.91701000  0.49982000  1.0 0.0703011423
C  C252  1  0.66701000  0.66719000  0.63232000  1.0 0.0703011423
C  C253  1  0.33281000  0.33299000  0.36768000  1.0 0.0703011423
C  C254  1  0.08299000  0.21531000  0.50018000  1.0 0.0703011423
C  C255  1  0.96531000  0.96513000  0.63232000  1.0 0.0703011423
C  C256  1  0.71513000  0.58281000  0.49982000  1.0 0.0703011423
C  C257  1  0.42766000  0.24597000  0.46571000  1.0 -0.133616176
C  C258  1  0.99597000  0.03026000  0.31831000  1.0 -0.133616176
C  C259  1  0.78026000  0.96195000  0.53429000  1.0 -0.133616176
C  C260  1  0.71195000  0.67766000  0.68169000  1.0 -0.133616176
C  C261  1  0.32234000  0.28805000  0.31831000  1.0 -0.133616176
C  C262  1  0.03805000  0.21974000  0.46571000  1.0 -0.133616176
C  C263  1  0.96974000  0.00403000  0.68169000  1.0 -0.133616176
C  C264  1  0.75403000  0.57234000  0.53429000  1.0 -0.133616176
C  C265  1  0.39031000  0.21072000  0.40693000  1.0 -0.0908890896
C  C266  1  0.96072000  0.05379000  0.32041000  1.0 -0.0908890896
C  C267  1  0.80379000  0.98338000  0.59307000  1.0 -0.0908890896
C  C268  1  0.73338000  0.64031000  0.67959000  1.0 -0.0908890896
C  C269  1  0.35969000  0.26662000  0.32041000  1.0 -0.0908890896
C  C270  1  0.01662000  0.19621000  0.40693000  1.0 -0.0908890896
C  C271  1  0.94621000  0.03928000  0.67959000  1.0 -0.0908890896
C  C272  1  0.78928000  0.60969000  0.59307000  1.0 -0.0908890896
C  C273  1  0.46037000  0.32745000  0.56094000  1.0 0.0881177422
C  C274  1  0.07745000  0.01651000  0.36708000  1.0 0.0881177422
C  C275  1  0.76651000  0.89943000  0.43906000  1.0 0.0881177422
C  C276  1  0.64943000  0.71037000  0.63292000  1.0 0.0881177422
C  C277  1  0.28963000  0.35057000  0.36708000  1.0 0.0881177422
C  C278  1  0.10057000  0.23349000  0.56094000  1.0 0.0881177422
C  C279  1  0.98349000  0.92255000  0.63292000  1.0 0.0881177422
C  C280  1  0.67255000  0.53963000  0.43906000  1.0 0.0881177422
C  C281  1  0.45720000  0.35198000  0.60642000  1.0 -0.1973363985
C  C282  1  0.10198000  0.99556000  0.39478000  1.0 -0.1973363985
C  C283  1  0.74556000  0.85078000  0.39358000  1.0 -0.1973363985
C  C284  1  0.60078000  0.70720000  0.60522000  1.0 -0.1973363985
C  C285  1  0.29280000  0.39922000  0.39478000  1.0 -0.1973363985
C  C286  1  0.14922000  0.25444000  0.60642000  1.0 -0.1973363985
C  C287  1  0.00444000  0.89802000  0.60522000  1.0 -0.1973363985
C  C288  1  0.64802000  0.54280000  0.39358000  1.0 -0.1973363985
C  C289  1  0.49742000  0.39262000  0.66160000  1.0 0.0881177422
C  C290  1  0.14262000  0.98102000  0.39520000  1.0 0.0881177422
C  C291  1  0.73102000  0.83582000  0.33840000  1.0 0.0881177422
C  C292  1  0.58582000  0.74742000  0.60480000  1.0 0.0881177422
C  C293  1  0.25258000  0.41418000  0.39520000  1.0 0.0881177422
C  C294  1  0.16418000  0.26898000  0.66160000  1.0 0.0881177422
C  C295  1  0.01898000  0.85738000  0.60480000  1.0 0.0881177422
C  C296  1  0.60738000  0.50258000  0.33840000  1.0 0.0881177422
C  C297  1  0.53947000  0.40627000  0.66560000  1.0 -0.2107161688
C  C298  1  0.15627000  0.99067000  0.36680000  1.0 -0.2107161688
C  C299  1  0.74067000  0.87387000  0.33440000  1.0 -0.2107161688
C  C300  1  0.62387000  0.78947000  0.63320000  1.0 -0.2107161688
C  C301  1  0.21053000  0.37613000  0.36680000  1.0 -0.2107161688
C  C302  1  0.12613000  0.25933000  0.66560000  1.0 -0.2107161688
C  C303  1  0.00933000  0.84373000  0.63320000  1.0 -0.2107161688
C  C304  1  0.59373000  0.46053000  0.33440000  1.0 -0.2107161688
C  C305  1  0.54419000  0.38281000  0.62058000  1.0 0.0813134641
C  C306  1  0.13281000  0.01223000  0.33862000  1.0 0.0813134641
C  C307  1  0.76223000  0.92361000  0.37942000  1.0 0.0813134641
C  C308  1  0.67361000  0.79419000  0.66138000  1.0 0.0813134641
C  C309  1  0.20581000  0.32639000  0.33862000  1.0 0.0813134641
C  C310  1  0.07639000  0.23777000  0.62058000  1.0 0.0813134641
C  C311  1  0.98777000  0.86719000  0.66138000  1.0 0.0813134641
C  C312  1  0.61719000  0.45581000  0.37942000  1.0 0.0813134641
C  C313  1  0.50398000  0.34359000  0.56899000  1.0 -0.2107161688
C  C314  1  0.09359000  0.02460000  0.33961000  1.0 -0.2107161688
C  C315  1  0.77460000  0.93499000  0.43101000  1.0 -0.2107161688
C  C316  1  0.68499000  0.75398000  0.66039000  1.0 -0.2107161688
C  C317  1  0.24602000  0.31501000  0.33961000  1.0 -0.2107161688
C  C318  1  0.06501000  0.22540000  0.56899000  1.0 -0.2107161688
C  C319  1  0.97540000  0.90641000  0.66039000  1.0 -0.2107161688
C  C320  1  0.65641000  0.49602000  0.43101000  1.0 -0.2107161688
C  C321  1  0.58834000  0.39673000  0.62679000  1.0 0.0703011423
C  C322  1  0.14673000  0.01994000  0.30839000  1.0 0.0703011423
C  C323  1  0.76994000  0.96155000  0.37321000  1.0 0.0703011423
C  C324  1  0.71155000  0.83834000  0.69161000  1.0 0.0703011423
C  C325  1  0.16166000  0.28845000  0.30839000  1.0 0.0703011423
C  C326  1  0.03845000  0.23006000  0.62679000  1.0 0.0703011423
C  C327  1  0.98006000  0.85327000  0.69161000  1.0 0.0703011423
C  C328  1  0.60327000  0.41166000  0.37321000  1.0 0.0703011423
C  C329  1  0.63494000  0.41334000  0.67380000  1.0 -0.1419583893
C  C330  1  0.16334000  0.98954000  0.27840000  1.0 -0.1419583893
C  C331  1  0.73954000  0.96114000  0.32620000  1.0 -0.1419583893
C  C332  1  0.71114000  0.88494000  0.72160000  1.0 -0.1419583893
C  C333  1  0.11506000  0.28886000  0.27840000  1.0 -0.1419583893
C  C334  1  0.03886000  0.26046000  0.67380000  1.0 -0.1419583893
C  C335  1  0.01046000  0.83666000  0.72160000  1.0 -0.1419583893
C  C336  1  0.58666000  0.36506000  0.32620000  1.0 -0.1419583893
C  C337  1  0.67616000  0.42456000  0.67700000  1.0 -0.0908890896
C  C338  1  0.17456000  0.99756000  0.24840000  1.0 -0.0908890896
C  C339  1  0.74756000  0.99916000  0.32300000  1.0 -0.0908890896
C  C340  1  0.74916000  0.92616000  0.75160000  1.0 -0.0908890896
C  C341  1  0.07384000  0.25084000  0.24840000  1.0 -0.0908890896
C  C342  1  0.00084000  0.25244000  0.67700000  1.0 -0.0908890896
C  C343  1  0.00244000  0.82544000  0.75160000  1.0 -0.0908890896
C  C344  1  0.57544000  0.32384000  0.32300000  1.0 -0.0908890896
C  C345  1  0.67251000  0.42181000  0.63150000  1.0 -0.0533425133
C  C346  1  0.17181000  0.04031000  0.24930000  1.0 -0.0533425133
C  C347  1  0.79031000  0.04101000  0.36850000  1.0 -0.0533425133
C  C348  1  0.79101000  0.92251000  0.75070000  1.0 -0.0533425133
C  C349  1  0.07749000  0.20899000  0.24930000  1.0 -0.0533425133
C  C350  1  0.95899000  0.20969000  0.63150000  1.0 -0.0533425133
C  C351  1  0.95969000  0.82819000  0.75070000  1.0 -0.0533425133
C  C352  1  0.57819000  0.32749000  0.36850000  1.0 -0.0533425133
C  C353  1  0.62474000  0.40504000  0.58190000  1.0 -0.081558465
C  C354  1  0.15504000  0.07314000  0.28030000  1.0 -0.081558465
C  C355  1  0.82314000  0.04284000  0.41810000  1.0 -0.081558465
C  C356  1  0.79284000  0.87474000  0.71970000  1.0 -0.081558465
C  C357  1  0.12526000  0.20716000  0.28030000  1.0 -0.081558465
C  C358  1  0.95716000  0.17686000  0.58190000  1.0 -0.081558465
C  C359  1  0.92686000  0.84496000  0.71970000  1.0 -0.081558465
C  C360  1  0.59496000  0.37526000  0.41810000  1.0 -0.081558465
C  C361  1  0.58262000  0.39132000  0.57930000  1.0 -0.1489273031
C  C362  1  0.14132000  0.06202000  0.30870000  1.0 -0.1489273031
C  C363  1  0.81202000  0.00332000  0.42070000  1.0 -0.1489273031
C  C364  1  0.75332000  0.83262000  0.69130000  1.0 -0.1489273031
C  C365  1  0.16738000  0.24668000  0.30870000  1.0 -0.1489273031
C  C366  1  0.99668000  0.18798000  0.57930000  1.0 -0.1489273031
C  C367  1  0.93798000  0.85868000  0.69130000  1.0 -0.1489273031
C  C368  1  0.60868000  0.41738000  0.42070000  1.0 -0.1489273031
C  C369  1  0.49547000  0.42067000  0.71300000  1.0 0.0703011423
C  C370  1  0.17067000  0.95767000  0.42520000  1.0 0.0703011423
C  C371  1  0.70767000  0.78247000  0.28700000  1.0 0.0703011423
C  C372  1  0.53247000  0.74547000  0.57480000  1.0 0.0703011423
C  C373  1  0.25453000  0.46753000  0.42520000  1.0 0.0703011423
C  C374  1  0.21753000  0.29233000  0.71300000  1.0 0.0703011423
C  C375  1  0.04233000  0.82933000  0.57480000  1.0 0.0703011423
C  C376  1  0.57933000  0.50453000  0.28700000  1.0 0.0703011423
C  C377  1  0.45588000  0.43528000  0.70940000  1.0 -0.1419583893
C  C378  1  0.18528000  0.97588000  0.47940000  1.0 -0.1419583893
C  C379  1  0.72588000  0.74648000  0.29060000  1.0 -0.1419583893
C  C380  1  0.49648000  0.70588000  0.52060000  1.0 -0.1419583893
C  C381  1  0.29412000  0.50352000  0.47940000  1.0 -0.1419583893
C  C382  1  0.25352000  0.27412000  0.70940000  1.0 -0.1419583893
C  C383  1  0.02412000  0.81472000  0.52060000  1.0 -0.1419583893
C  C384  1  0.56472000  0.54412000  0.29060000  1.0 -0.1419583893
C  C385  1  0.45556000  0.46246000  0.75870000  1.0 -0.0999487238
C  C386  1  0.21246000  0.95376000  0.50690000  1.0 -0.0999487238
C  C387  1  0.70376000  0.69686000  0.24130000  1.0 -0.0999487238
C  C388  1  0.44686000  0.70556000  0.49310000  1.0 -0.0999487238
C  C389  1  0.29444000  0.55314000  0.50690000  1.0 -0.0999487238
C  C390  1  0.30314000  0.29624000  0.75870000  1.0 -0.0999487238
C  C391  1  0.04624000  0.78754000  0.49310000  1.0 -0.0999487238
C  C392  1  0.53754000  0.54444000  0.24130000  1.0 -0.0999487238
C  C393  1  0.49299000  0.47504000  0.81119000  1.0 -0.036597162
C  C394  1  0.22504000  0.91385000  0.48205000  1.0 -0.036597162
C  C395  1  0.66385000  0.68180000  0.18881000  1.0 -0.036597162
C  C396  1  0.43180000  0.74299000  0.51795000  1.0 -0.036597162
C  C397  1  0.25701000  0.56820000  0.48205000  1.0 -0.036597162
C  C398  1  0.31820000  0.33615000  0.81119000  1.0 -0.036597162
C  C399  1  0.08615000  0.77496000  0.51795000  1.0 -0.036597162
C  C400  1  0.52496000  0.50701000  0.18881000  1.0 -0.036597162
C  C401  1  0.53326000  0.45941000  0.81419000  1.0 -0.0999487238
C  C402  1  0.20941000  0.89522000  0.42615000  1.0 -0.0999487238
C  C403  1  0.64522000  0.71907000  0.18581000  1.0 -0.0999487238
C  C404  1  0.46907000  0.78326000  0.57385000  1.0 -0.0999487238
C  C405  1  0.21674000  0.53093000  0.42615000  1.0 -0.0999487238
C  C406  1  0.28093000  0.35478000  0.81419000  1.0 -0.0999487238
C  C407  1  0.10478000  0.79059000  0.57385000  1.0 -0.0999487238
C  C408  1  0.54059000  0.46674000  0.18581000  1.0 -0.0999487238
C  C409  1  0.53602000  0.43442000  0.76840000  1.0 -0.1489273031
C  C410  1  0.18442000  0.91602000  0.39840000  1.0 -0.1489273031
C  C411  1  0.66602000  0.76762000  0.23160000  1.0 -0.1489273031
C  C412  1  0.51762000  0.78602000  0.60160000  1.0 -0.1489273031
C  C413  1  0.21398000  0.48238000  0.39840000  1.0 -0.1489273031
C  C414  1  0.23238000  0.33398000  0.76840000  1.0 -0.1489273031
C  C415  1  0.08398000  0.81558000  0.60160000  1.0 -0.1489273031
C  C416  1  0.56558000  0.46398000  0.23160000  1.0 -0.1489273031
C  C417  1  0.37089000  0.35779000  0.86210000  1.0 0.587636488
C  C418  1  0.10779000  0.74569000  0.48690000  1.0 0.587636488
C  C419  1  0.49569000  0.50879000  0.13790000  1.0 0.587636488
C  C420  1  0.25879000  0.62089000  0.51310000  1.0 0.587636488
C  C421  1  0.37911000  0.74121000  0.48690000  1.0 0.587636488
C  C422  1  0.49121000  0.50431000  0.86210000  1.0 0.587636488
C  C423  1  0.25431000  0.89221000  0.51310000  1.0 0.587636488
C  C424  1  0.64221000  0.62911000  0.13790000  1.0 0.587636488
C  C425  1  0.30344000  0.00381000  0.16623000  1.0 0.5631625992
C  C426  1  0.75381000  0.08758000  0.20037000  1.0 0.5631625992
C  C427  1  0.83758000  0.13721000  0.83377000  1.0 0.5631625992
C  C428  1  0.88721000  0.55344000  0.79963000  1.0 0.5631625992
C  C429  1  0.44656000  0.11279000  0.20037000  1.0 0.5631625992
C  C430  1  0.86279000  0.16242000  0.16623000  1.0 0.5631625992
C  C431  1  0.91242000  0.24619000  0.79963000  1.0 0.5631625992
C  C432  1  0.99619000  0.69656000  0.83377000  1.0 0.5631625992
C  C433  1  0.34355000  0.97840000  0.17469000  1.0 -0.019300363
C  C434  1  0.72840000  0.05371000  0.13485000  1.0 -0.019300363
C  C435  1  0.80371000  0.16886000  0.82531000  1.0 -0.019300363
C  C436  1  0.91886000  0.59355000  0.86515000  1.0 -0.019300363
C  C437  1  0.40645000  0.08114000  0.13485000  1.0 -0.019300363
C  C438  1  0.83114000  0.19629000  0.17469000  1.0 -0.019300363
C  C439  1  0.94629000  0.27160000  0.86515000  1.0 -0.019300363
C  C440  1  0.02160000  0.65645000  0.82531000  1.0 -0.019300363
C  C441  1  0.38902000  0.00239000  0.19481000  1.0 -0.0999487238
C  C442  1  0.75239000  0.05758000  0.11337000  1.0 -0.0999487238
C  C443  1  0.80758000  0.19421000  0.80519000  1.0 -0.0999487238
C  C444  1  0.94421000  0.63902000  0.88663000  1.0 -0.0999487238
C  C445  1  0.36098000  0.05579000  0.11337000  1.0 -0.0999487238
C  C446  1  0.80579000  0.19242000  0.19481000  1.0 -0.0999487238
C  C447  1  0.94242000  0.24761000  0.88663000  1.0 -0.0999487238
C  C448  1  0.99761000  0.61098000  0.80519000  1.0 -0.0999487238
C  C449  1  0.42477000  0.97825000  0.20448000  1.0 -0.1419583893
C  C450  1  0.72825000  0.02377000  0.05348000  1.0 -0.1419583893
C  C451  1  0.77377000  0.22029000  0.79552000  1.0 -0.1419583893
C  C452  1  0.97029000  0.67477000  0.94652000  1.0 -0.1419583893
C  C453  1  0.32523000  0.02971000  0.05348000  1.0 -0.1419583893
C  C454  1  0.77971000  0.22623000  0.20448000  1.0 -0.1419583893
C  C455  1  0.97623000  0.27175000  0.94652000  1.0 -0.1419583893
C  C456  1  0.02175000  0.57523000  0.79552000  1.0 -0.1419583893
C  C457  1  0.41724000  0.93239000  0.19655000  1.0 0.0641901367
C  C458  1  0.68239000  0.98584000  0.01515000  1.0 0.0641901367
C  C459  1  0.73584000  0.22069000  0.80345000  1.0 0.0641901367
C  C460  1  0.97069000  0.66724000  0.98485000  1.0 0.0641901367
C  C461  1  0.33276000  0.02931000  0.01515000  1.0 0.0641901367
C  C462  1  0.77931000  0.26416000  0.19655000  1.0 0.0641901367
C  C463  1  0.01416000  0.31761000  0.98485000  1.0 0.0641901367
C  C464  1  0.06761000  0.58276000  0.80345000  1.0 0.0641901367
C  C465  1  0.37067000  0.90957000  0.17410000  1.0 -0.1489273031
C  C466  1  0.65957000  0.98547000  0.03890000  1.0 -0.1419583893
C  C467  1  0.73547000  0.19657000  0.82590000  1.0 -0.1419583893
C  C468  1  0.94657000  0.62067000  0.96110000  1.0 -0.1419583893
C  C469  1  0.37933000  0.05343000  0.03890000  1.0 -0.1419583893
C  C470  1  0.80343000  0.26453000  0.17410000  1.0 -0.1419583893
C  C471  1  0.01453000  0.34043000  0.96110000  1.0 -0.1419583893
C  C472  1  0.09043000  0.62933000  0.82590000  1.0 -0.1419583893
C  C473  1  0.33374000  0.93044000  0.16310000  1.0 -0.0999487238
C  C474  1  0.68044000  0.01734000  0.09670000  1.0 -0.0999487238
C  C475  1  0.76734000  0.17064000  0.83690000  1.0 -0.0999487238
C  C476  1  0.92064000  0.58374000  0.90330000  1.0 -0.0999487238
C  C477  1  0.41626000  0.07936000  0.09670000  1.0 -0.0999487238
C  C478  1  0.82936000  0.23266000  0.16310000  1.0 -0.0999487238
C  C479  1  0.98266000  0.31956000  0.90330000  1.0 -0.0999487238
C  C480  1  0.06956000  0.66626000  0.83690000  1.0 -0.0999487238
C  C481  1  0.46079000  0.91539000  0.21820000  1.0 0.0813134641
C  C482  1  0.66539000  0.94719000  0.95460000  1.0 0.0813134641
C  C483  1  0.69719000  0.24259000  0.78180000  1.0 0.0813134641
C  C484  1  0.99259000  0.71079000  0.04540000  1.0 0.0813134641
C  C485  1  0.28921000  0.00741000  0.95460000  1.0 0.0813134641
C  C486  1  0.75741000  0.30281000  0.21820000  1.0 0.0813134641
C  C487  1  0.05281000  0.33461000  0.04540000  1.0 0.0813134641
C  C488  1  0.08461000  0.53921000  0.78180000  1.0 0.0813134641
C  C489  1  0.50660000  0.94810000  0.26930000  1.0 -0.1973363985
C  C490  1  0.69810000  0.92880000  0.94150000  1.0 -0.1973363985
C  C491  1  0.67880000  0.23730000  0.73070000  1.0 -0.1973363985
C  C492  1  0.98730000  0.75660000  0.05850000  1.0 -0.1973363985
C  C493  1  0.24340000  0.01270000  0.94150000  1.0 -0.1973363985
C  C494  1  0.76270000  0.32120000  0.26930000  1.0 -0.1973363985
C  C495  1  0.07120000  0.30190000  0.05850000  1.0 -0.1973363985
C  C496  1  0.05190000  0.49340000  0.73070000  1.0 -0.1973363985
C  C497  1  0.54523000  0.93243000  0.29160000  1.0 0.0881177422
C  C498  1  0.68243000  0.89083000  0.88720000  1.0 0.0881177422
C  C499  1  0.64083000  0.25363000  0.70840000  1.0 0.0881177422
C  C500  1  0.00363000  0.79523000  0.11280000  1.0 0.0881177422
C  C501  1  0.20477000  0.99637000  0.88720000  1.0 0.0881177422
C  C502  1  0.74637000  0.35917000  0.29160000  1.0 0.0881177422
C  C503  1  0.10917000  0.31757000  0.11280000  1.0 0.0881177422
C  C504  1  0.06757000  0.45477000  0.70840000  1.0 0.0881177422
C  C505  1  0.54207000  0.88247000  0.26300000  1.0 -0.1973363985
C  C506  1  0.63247000  0.86947000  0.84040000  1.0 -0.1973363985
C  C507  1  0.61947000  0.27907000  0.73700000  1.0 -0.1973363985
C  C508  1  0.02907000  0.79207000  0.15960000  1.0 -0.1973363985
C  C509  1  0.20793000  0.97093000  0.84040000  1.0 -0.1973363985
C  C510  1  0.72093000  0.38053000  0.26300000  1.0 -0.1973363985
C  C511  1  0.13053000  0.36753000  0.15960000  1.0 -0.1973363985
C  C512  1  0.11753000  0.45793000  0.73700000  1.0 -0.1973363985
C  C513  1  0.49675000  0.84875000  0.21240000  1.0 0.0813134641
C  C514  1  0.59875000  0.88635000  0.85200000  1.0 0.0813134641
C  C515  1  0.63635000  0.28435000  0.78760000  1.0 0.0813134641
C  C516  1  0.03435000  0.74675000  0.14800000  1.0 0.0813134641
C  C517  1  0.25325000  0.96565000  0.85200000  1.0 0.0813134641
C  C518  1  0.71565000  0.36365000  0.21240000  1.0 0.0813134641
C  C519  1  0.11365000  0.40125000  0.14800000  1.0 0.0813134641
C  C520  1  0.15125000  0.50325000  0.78760000  1.0 0.0813134641
C  C521  1  0.45630000  0.86549000  0.18879000  1.0 -0.2107161688
C  C522  1  0.61549000  0.92670000  0.90919000  1.0 -0.2107161688
C  C523  1  0.67670000  0.26751000  0.81121000  1.0 -0.2107161688
C  C524  1  0.01751000  0.70630000  0.09081000  1.0 -0.2107161688
C  C525  1  0.29370000  0.98249000  0.90919000  1.0 -0.2107161688
C  C526  1  0.73249000  0.32330000  0.18879000  1.0 -0.2107161688
C  C527  1  0.07330000  0.38451000  0.09081000  1.0 -0.2107161688
C  C528  1  0.13451000  0.54370000  0.81121000  1.0 -0.2107161688
C  C529  1  0.48899000  0.79275000  0.17996000  1.0 0.0703011423
C  C530  1  0.54275000  0.86279000  0.80376000  1.0 0.0703011423
C  C531  1  0.61279000  0.30903000  0.82004000  1.0 0.0703011423
C  C532  1  0.05903000  0.73899000  0.19624000  1.0 0.0703011423
C  C533  1  0.26101000  0.94097000  0.80376000  1.0 0.0703011423
C  C534  1  0.69097000  0.38721000  0.17996000  1.0 0.0703011423
C  C535  1  0.13721000  0.45725000  0.19624000  1.0 0.0703011423
C  C536  1  0.20725000  0.51101000  0.82004000  1.0 0.0703011423
C  C537  1  0.51498000  0.77161000  0.15663000  1.0 -0.1591565753
C  C538  1  0.52161000  0.86498000  0.75663000  1.0 -0.1591565753
C  C539  1  0.61498000  0.35835000  0.84337000  1.0 -0.1591565753
C  C540  1  0.10835000  0.76498000  0.24337000  1.0 -0.1591565753
C  C541  1  0.23502000  0.89165000  0.75663000  1.0 -0.1591565753
C  C542  1  0.64165000  0.38502000  0.15663000  1.0 -0.1591565753
C  C543  1  0.13502000  0.47839000  0.24337000  1.0 -0.1591565753
C  C544  1  0.22839000  0.48502000  0.84337000  1.0 -0.1591565753
C  C545  1  0.50938000  0.72178000  0.13560000  1.0 -0.0908890896
C  C546  1  0.47178000  0.83618000  0.71240000  1.0 -0.0908890896
C  C547  1  0.58618000  0.37378000  0.86440000  1.0 -0.0908890896
C  C548  1  0.12378000  0.75938000  0.28760000  1.0 -0.0908890896
C  C549  1  0.24062000  0.87622000  0.71240000  1.0 -0.0908890896
C  C550  1  0.62622000  0.41382000  0.13560000  1.0 -0.0908890896
C  C551  1  0.16382000  0.52822000  0.28760000  1.0 -0.0908890896
C  C552  1  0.27822000  0.49062000  0.86440000  1.0 -0.0908890896
C  C553  1  0.47840000  0.69011000  0.13051000  1.0 -0.081558465
C  C554  1  0.44011000  0.80960000  0.71171000  1.0 -0.081558465
C  C555  1  0.55960000  0.34789000  0.86949000  1.0 -0.081558465
C  C556  1  0.09789000  0.72840000  0.28829000  1.0 -0.081558465
C  C557  1  0.27160000  0.90211000  0.71171000  1.0 -0.081558465
C  C558  1  0.65211000  0.44040000  0.13051000  1.0 -0.081558465
C  C559  1  0.19040000  0.55989000  0.28829000  1.0 -0.081558465
C  C560  1  0.30989000  0.52160000  0.86949000  1.0 -0.081558465
C  C561  1  0.45096000  0.71301000  0.15065000  1.0 -0.081558465
C  C562  1  0.46301000  0.81236000  0.76205000  1.0 -0.081558465
C  C563  1  0.56236000  0.30031000  0.84935000  1.0 -0.081558465
C  C564  1  0.05031000  0.70096000  0.23795000  1.0 -0.081558465
C  C565  1  0.29904000  0.94969000  0.76205000  1.0 -0.081558465
C  C566  1  0.69969000  0.43764000  0.15065000  1.0 -0.081558465
C  C567  1  0.18764000  0.53699000  0.23795000  1.0 -0.081558465
C  C568  1  0.28699000  0.54904000  0.84935000  1.0 -0.081558465
C  C569  1  0.45723000  0.76403000  0.17760000  1.0 -0.1489273031
C  C570  1  0.51403000  0.83643000  0.80680000  1.0 -0.1419583893
C  C571  1  0.58643000  0.27963000  0.82240000  1.0 -0.1419583893
C  C572  1  0.02963000  0.70723000  0.19320000  1.0 -0.1489273031
C  C573  1  0.29277000  0.97037000  0.80680000  1.0 -0.1419583893
C  C574  1  0.72037000  0.41357000  0.17760000  1.0 -0.1489273031
C  C575  1  0.16357000  0.48597000  0.19320000  1.0 -0.1489273031
C  C576  1  0.23597000  0.54277000  0.82240000  1.0 -0.1419583893
C  C577  1  0.53124000  0.36774000  0.89230000  1.0 0.5383590651
C  C578  1  0.11774000  0.72544000  0.33650000  1.0 0.5383590651
C  C579  1  0.47544000  0.63894000  0.10770000  1.0 0.5383590651
C  C580  1  0.38894000  0.78124000  0.66350000  1.0 0.5383590651
C  C581  1  0.21876000  0.61106000  0.33650000  1.0 0.5383590651
C  C582  1  0.36106000  0.52456000  0.89230000  1.0 0.5383590651
C  C583  1  0.27456000  0.88226000  0.66350000  1.0 0.5383590651
C  C584  1  0.63226000  0.46876000  0.10770000  1.0 0.5383590651
C  C585  1  0.59165000  0.97125000  0.34900000  1.0 0.0703011423
C  C586  1  0.72125000  0.87225000  0.87960000  1.0 0.0703011423
C  C587  1  0.62225000  0.24265000  0.65100000  1.0 0.0703011423
C  C588  1  0.99265000  0.84165000  0.12040000  1.0 0.0703011423
C  C589  1  0.15835000  0.00735000  0.87960000  1.0 0.0703011423
C  C590  1  0.75735000  0.37775000  0.34900000  1.0 0.0703011423
C  C591  1  0.12775000  0.27875000  0.12040000  1.0 0.0703011423
C  C592  1  0.02875000  0.40835000  0.65100000  1.0 0.0703011423
C  C593  1  0.59119000  0.01389000  0.38930000  1.0 -0.1489273031
C  C594  1  0.76389000  0.87459000  0.92270000  1.0 -0.1489273031
C  C595  1  0.62459000  0.20189000  0.61070000  1.0 -0.1489273031
C  C596  1  0.95189000  0.84119000  0.07730000  1.0 -0.1489273031
C  C597  1  0.15881000  0.04811000  0.92270000  1.0 -0.1489273031
C  C598  1  0.79811000  0.37541000  0.38930000  1.0 -0.1489273031
C  C599  1  0.12541000  0.23611000  0.07730000  1.0 -0.1489273031
C  C600  1  0.98611000  0.40881000  0.61070000  1.0 -0.1489273031
C  C601  1  0.63595000  0.05135000  0.44500000  1.0 -0.0722369535
C  C602  1  0.80135000  0.85635000  0.91540000  1.0 -0.0722369535
C  C603  1  0.60635000  0.19095000  0.55500000  1.0 -0.0722369535
C  C604  1  0.94095000  0.88595000  0.08460000  1.0 -0.0722369535
C  C605  1  0.11405000  0.05905000  0.91540000  1.0 -0.0722369535
C  C606  1  0.80905000  0.39365000  0.44500000  1.0 -0.0722369535
C  C607  1  0.14365000  0.19865000  0.08460000  1.0 -0.0722369535
C  C608  1  0.94865000  0.36405000  0.55500000  1.0 -0.0722369535
C  C609  1  0.68158000  0.04498000  0.45660000  1.0 -0.0722369535
C  C610  1  0.79498000  0.83838000  0.86340000  1.0 -0.0722369535
C  C611  1  0.58838000  0.22498000  0.54340000  1.0 -0.0722369535
C  C612  1  0.97498000  0.93158000  0.13660000  1.0 -0.0722369535
C  C613  1  0.06842000  0.02502000  0.86340000  1.0 -0.0722369535
C  C614  1  0.77502000  0.41162000  0.45660000  1.0 -0.0722369535
C  C615  1  0.16162000  0.20502000  0.13660000  1.0 -0.0722369535
C  C616  1  0.95502000  0.31842000  0.54340000  1.0 -0.0722369535
C  C617  1  0.68509000  0.00549000  0.41680000  1.0 -0.081558465
C  C618  1  0.75549000  0.83869000  0.82040000  1.0 -0.081558465
C  C619  1  0.58869000  0.26829000  0.58320000  1.0 -0.081558465
C  C620  1  0.01829000  0.93509000  0.17960000  1.0 -0.081558465
C  C621  1  0.06491000  0.98171000  0.82040000  1.0 -0.081558465
C  C622  1  0.73171000  0.41131000  0.41680000  1.0 -0.081558465
C  C623  1  0.16131000  0.24451000  0.17960000  1.0 -0.081558465
C  C624  1  0.99451000  0.31491000  0.58320000  1.0 -0.081558465
C  C625  1  0.63835000  0.96755000  0.36120000  1.0 -0.1591565753
C  C626  1  0.71755000  0.85635000  0.82920000  1.0 -0.1591565753
C  C627  1  0.60635000  0.27715000  0.63880000  1.0 -0.1591565753
C  C628  1  0.02715000  0.88835000  0.17080000  1.0 -0.1591565753
C  C629  1  0.11165000  0.97285000  0.82920000  1.0 -0.1591565753
C  C630  1  0.72285000  0.39365000  0.36120000  1.0 -0.1591565753
C  C631  1  0.14365000  0.28245000  0.17080000  1.0 -0.1591565753
C  C632  1  0.03245000  0.36165000  0.63880000  1.0 -0.1591565753
C  C633  1  0.18120000  0.16810000  0.14330000  1.0 0.5849438054
C  C634  1  0.91810000  0.27480000  0.48690000  1.0 0.5849438054
C  C635  1  0.02480000  0.03790000  0.85670000  1.0 0.587636488
C  C636  1  0.78790000  0.43120000  0.51310000  1.0 0.5849438054
C  C637  1  0.56880000  0.21210000  0.48690000  1.0 0.5849438054
C  C638  1  0.96210000  0.97520000  0.14330000  1.0 0.5849438054
C  C639  1  0.72520000  0.08190000  0.51310000  1.0 0.5849438054
C  C640  1  0.83190000  0.81880000  0.85670000  1.0 0.5849438054
C  C641  1  0.71654000  0.43424000  0.63470000  1.0 0.587636488
C  C642  1  0.18424000  0.04954000  0.21770000  1.0 0.587636488
C  C643  1  0.79954000  0.08184000  0.36530000  1.0 0.587636488
C  C644  1  0.83184000  0.96654000  0.78230000  1.0 0.587636488
C  C645  1  0.03346000  0.16816000  0.21770000  1.0 0.587636488
C  C646  1  0.91816000  0.20046000  0.63470000  1.0 0.587636488
C  C647  1  0.95046000  0.81576000  0.78230000  1.0 0.587636488
C  C648  1  0.56576000  0.28346000  0.36530000  1.0 0.587636488
O  O1  1  0.26026000  0.11603000  0.09185000  1.0 -0.5802868861
O  O2  1  0.86603000  0.27418000  0.35577000  1.0 -0.5802868861
O  O3  1  0.02418000  0.16841000  0.90815000  1.0 -0.5802868861
O  O4  1  0.91841000  0.51026000  0.64423000  1.0 -0.5802868861
O  O5  1  0.48974000  0.08159000  0.35577000  1.0 -0.5802868861
O  O6  1  0.83159000  0.97582000  0.09185000  1.0 -0.5802868861
O  O7  1  0.72582000  0.13397000  0.64423000  1.0 -0.5802868861
O  O8  1  0.88397000  0.73974000  0.90815000  1.0 -0.5802868861
O  O9  1  0.31437000  0.14538000  0.18507000  1.0 -0.5385472844
O  O10  1  0.89538000  0.21031000  0.33101000  1.0 -0.5385472844
O  O11  1  0.96031000  0.12930000  0.81493000  1.0 -0.5385472844
O  O12  1  0.87930000  0.56437000  0.66899000  1.0 -0.5385472844
O  O13  1  0.43563000  0.12070000  0.33101000  1.0 -0.5385472844
O  O14  1  0.87070000  0.03969000  0.18507000  1.0 -0.5385472844
O  O15  1  0.78969000  0.10462000  0.66899000  1.0 -0.5385472844
O  O16  1  0.85462000  0.68563000  0.81493000  1.0 -0.5385472844
O  O17  1  0.43151000  0.36839000  0.99094000  1.0 -0.5321853864
O  O18  1  0.11839000  0.62745000  0.43688000  1.0 -0.5321853864
O  O19  1  0.37745000  0.44057000  0.00906000  1.0 -0.5321853864
O  O20  1  0.19057000  0.68151000  0.56312000  1.0 -0.5321853864
O  O21  1  0.31849000  0.80943000  0.43688000  1.0 -0.5321853864
O  O22  1  0.55943000  0.62255000  0.99094000  1.0 -0.5321853864
O  O23  1  0.37255000  0.88161000  0.56312000  1.0 -0.5321853864
O  O24  1  0.63161000  0.56849000  0.00906000  1.0 -0.5321853864
O  O25  1  0.47898000  0.33053000  0.96375000  1.0 -0.5321853864
O  O26  1  0.08053000  0.61678000  0.35155000  1.0 -0.5321853864
O  O27  1  0.36678000  0.51523000  0.03625000  1.0 -0.5321853864
O  O28  1  0.26523000  0.72898000  0.64845000  1.0 -0.5321853864
O  O29  1  0.27102000  0.73477000  0.35155000  1.0 -0.5321853864
O  O30  1  0.48477000  0.63322000  0.96375000  1.0 -0.5321853864
O  O31  1  0.38322000  0.91947000  0.64845000  1.0 -0.5321853864
O  O32  1  0.66947000  0.52102000  0.03625000  1.0 -0.5321853864
O  O33  1  0.16624000  0.97852000  0.05772000  1.0 -0.5321853864
O  O34  1  0.72852000  0.17080000  0.31228000  1.0 -0.5321853864
O  O35  1  0.92080000  0.10852000  0.94228000  1.0 -0.5321853864
O  O36  1  0.85852000  0.41624000  0.68772000  1.0 -0.5321853864
O  O37  1  0.58376000  0.14148000  0.31228000  1.0 -0.5321853864
O  O38  1  0.89148000  0.07920000  0.05772000  1.0 -0.5321853864
O  O39  1  0.82920000  0.27148000  0.68772000  1.0 -0.5321853864
O  O40  1  0.02148000  0.83376000  0.94228000  1.0 -0.5321853864
O  O41  1  0.19367000  0.01951000  0.03500000  1.0 -0.5321853864
O  O42  1  0.76951000  0.23451000  0.32584000  1.0 -0.5321853864
O  O43  1  0.98451000  0.15867000  0.96500000  1.0 -0.5321853864
O  O44  1  0.90867000  0.44367000  0.67416000  1.0 -0.5321853864
O  O45  1  0.55633000  0.09133000  0.32584000  1.0 -0.5321853864
O  O46  1  0.84133000  0.01549000  0.03500000  1.0 -0.5321853864
O  O47  1  0.76549000  0.23049000  0.67416000  1.0 -0.5321853864
O  O48  1  0.98049000  0.80633000  0.96500000  1.0 -0.5321853864
O  O49  1  0.26129000  0.18295000  0.29852000  1.0 -0.5321853864
O  O50  1  0.93295000  0.13443000  0.42166000  1.0 -0.5321853864
O  O51  1  0.88443000  0.96277000  0.70148000  1.0 -0.5321853864
O  O52  1  0.71277000  0.51129000  0.57834000  1.0 -0.5321853864
O  O53  1  0.48871000  0.28723000  0.42166000  1.0 -0.5321853864
O  O54  1  0.03723000  0.11557000  0.29852000  1.0 -0.5321853864
O  O55  1  0.86557000  0.06705000  0.57834000  1.0 -0.5321853864
O  O56  1  0.81705000  0.73871000  0.70148000  1.0 -0.5321853864
O  O57  1  0.31553000  0.14749000  0.28674000  1.0 -0.6035606223
O  O58  1  0.89749000  0.11075000  0.33196000  1.0 -0.6035606223
O  O59  1  0.86075000  0.02879000  0.71326000  1.0 -0.6035606223
O  O60  1  0.77879000  0.56553000  0.66804000  1.0 -0.6035606223
O  O61  1  0.43447000  0.22121000  0.33196000  1.0 -0.6035606223
O  O62  1  0.97121000  0.13925000  0.28674000  1.0 -0.6035606223
O  O63  1  0.88925000  0.10251000  0.66804000  1.0 -0.6035606223
O  O64  1  0.85251000  0.68447000  0.71326000  1.0 -0.6035606223
O  O65  1  0.40213000  0.33847000  0.85826000  1.0 -0.5095426547
O  O66  1  0.08847000  0.73021000  0.43634000  1.0 -0.5095426547
O  O67  1  0.48021000  0.54387000  0.14174000  1.0 -0.5095426547
O  O68  1  0.29387000  0.65213000  0.56366000  1.0 -0.5095426547
O  O69  1  0.34787000  0.70613000  0.43634000  1.0 -0.5095426547
O  O70  1  0.45613000  0.51979000  0.85826000  1.0 -0.5095426547
O  O71  1  0.26979000  0.91153000  0.56366000  1.0 -0.5095426547
O  O72  1  0.66153000  0.59787000  0.14174000  1.0 -0.5095426547
O  O73  1  0.37980000  0.39643000  0.91021000  1.0 -0.5802868861
O  O74  1  0.14643000  0.73622000  0.51663000  1.0 -0.5802868861
O  O75  1  0.48622000  0.46959000  0.08979000  1.0 -0.5802868861
O  O76  1  0.21959000  0.62980000  0.48337000  1.0 -0.5802868861
O  O77  1  0.37020000  0.78041000  0.51663000  1.0 -0.5802868861
O  O78  1  0.53041000  0.51378000  0.91021000  1.0 -0.5802868861
O  O79  1  0.26378000  0.85357000  0.48337000  1.0 -0.5802868861
O  O80  1  0.60357000  0.62020000  0.08979000  1.0 -0.5802868861
O  O81  1  0.26284000  0.97987000  0.14813000  1.0 -0.5385472844
O  O82  1  0.72987000  0.08174000  0.21703000  1.0 -0.5385472844
O  O83  1  0.83174000  0.11471000  0.85187000  1.0 -0.5385472844
O  O84  1  0.86471000  0.51284000  0.78297000  1.0 -0.5385472844
O  O85  1  0.48716000  0.13529000  0.21703000  1.0 -0.5385472844
O  O86  1  0.88529000  0.16826000  0.14813000  1.0 -0.5385472844
O  O87  1  0.91826000  0.27013000  0.78297000  1.0 -0.5385472844
O  O88  1  0.02013000  0.73716000  0.85187000  1.0 -0.5385472844
O  O89  1  0.43391000  0.11756000  0.23239000  1.0 -0.6188282627
O  O90  1  0.86756000  0.13517000  0.18365000  1.0 -0.6188282627
O  O91  1  0.88517000  0.20152000  0.76761000  1.0 -0.6188282627
O  O92  1  0.95152000  0.68391000  0.81635000  1.0 -0.6188282627
O  O93  1  0.31609000  0.04848000  0.18365000  1.0 -0.6188282627
O  O94  1  0.79848000  0.11483000  0.23239000  1.0 -0.6188282627
O  O95  1  0.86483000  0.13244000  0.81635000  1.0 -0.6188282627
O  O96  1  0.88244000  0.56609000  0.76761000  1.0 -0.6188282627
O  O97  1  0.51001000  0.33929000  0.89602000  1.0 -0.5005541178
O  O98  1  0.08929000  0.69327000  0.32928000  1.0 -0.5005541178
O  O99  1  0.44327000  0.61399000  0.10398000  1.0 -0.5005541178
O  O100  1  0.36399000  0.76001000  0.67072000  1.0 -0.5005541178
O  O101  1  0.23999000  0.63601000  0.32928000  1.0 -0.5005541178
O  O102  1  0.38601000  0.55673000  0.89602000  1.0 -0.5005541178
O  O103  1  0.30673000  0.91071000  0.67072000  1.0 -0.5005541178
O  O104  1  0.66071000  0.48999000  0.10398000  1.0 -0.5005541178
O  O105  1  0.52458000  0.40653000  0.89967000  1.0 -0.3872348065
O  O106  1  0.15653000  0.75686000  0.38195000  1.0 -0.3872348065
O  O107  1  0.50686000  0.62491000  0.10033000  1.0 -0.3872348065
O  O108  1  0.37491000  0.77458000  0.61805000  1.0 -0.3872348065
O  O109  1  0.22542000  0.62509000  0.38195000  1.0 -0.3872348065
O  O110  1  0.37509000  0.49314000  0.89967000  1.0 -0.3872348065
O  O111  1  0.24314000  0.84347000  0.61805000  1.0 -0.3872348065
O  O112  1  0.59347000  0.47542000  0.10033000  1.0 -0.3872348065
O  O113  1  0.19470000  0.17479000  0.19011000  1.0 -0.5321853864
O  O114  1  0.92479000  0.23468000  0.48009000  1.0 -0.5321853864
O  O115  1  0.98468000  0.00459000  0.80989000  1.0 -0.5321853864
O  O116  1  0.75459000  0.44470000  0.51991000  1.0 -0.5321853864
O  O117  1  0.55530000  0.24541000  0.48009000  1.0 -0.5321853864
O  O118  1  0.99541000  0.01532000  0.19011000  1.0 -0.5321853864
O  O119  1  0.76532000  0.07521000  0.51991000  1.0 -0.5321853864
O  O120  1  0.82521000  0.80530000  0.80989000  1.0 -0.5321853864
O  O121  1  0.17435000  0.12823000  0.10002000  1.0 -0.5236228513
O  O122  1  0.87823000  0.27821000  0.45388000  1.0 -0.5236228513
O  O123  1  0.02821000  0.07433000  0.89998000  1.0 -0.5236228513
O  O124  1  0.82433000  0.42435000  0.54612000  1.0 -0.5236228513
O  O125  1  0.57565000  0.17567000  0.45388000  1.0 -0.5236228513
O  O126  1  0.92567000  0.97179000  0.10002000  1.0 -0.5236228513
O  O127  1  0.72179000  0.12177000  0.54612000  1.0 -0.5236228513
O  O128  1  0.87177000  0.82565000  0.89998000  1.0 -0.5236228513
O  O129  1  0.23335000  0.08567000  0.16638000  1.0 -0.8405938106
O  O130  1  0.83567000  0.16929000  0.35232000  1.0 -0.8405938106
O  O131  1  0.91929000  0.06697000  0.83362000  1.0 -0.8405938106
O  O132  1  0.81697000  0.48335000  0.64768000  1.0 -0.8405938106
O  O133  1  0.51665000  0.18303000  0.35232000  1.0 -0.8405938106
O  O134  1  0.93303000  0.08071000  0.16638000  1.0 -0.8405938106
O  O135  1  0.83071000  0.16433000  0.64768000  1.0 -0.8405938106
O  O136  1  0.91433000  0.76665000  0.83362000  1.0 -0.8405938106
O  O137  1  0.44102000  0.50023000  0.00589000  1.0 -0.8803730863
O  O138  1  0.25023000  0.74434000  0.55921000  1.0 -0.8803730863
O  O139  1  0.49434000  0.43513000  0.99411000  1.0 -0.8803730863
O  O140  1  0.18513000  0.69102000  0.44079000  1.0 -0.8803730863
O  O141  1  0.30898000  0.81487000  0.55921000  1.0 -0.8803730863
O  O142  1  0.56487000  0.50566000  0.00589000  1.0 -0.8803730863
O  O143  1  0.25566000  0.74977000  0.44079000  1.0 -0.8803730863
O  O144  1  0.49977000  0.55898000  0.99411000  1.0 -0.8803730863
O  O145  1  0.19515000  0.01733000  0.18810000  1.0 -0.5095426547
O  O146  1  0.76733000  0.07923000  0.32218000  1.0 -0.5095426547
O  O147  1  0.82923000  0.00705000  0.81190000  1.0 -0.5095426547
O  O148  1  0.75705000  0.44515000  0.67782000  1.0 -0.5095426547
O  O149  1  0.55485000  0.24295000  0.32218000  1.0 -0.5095426547
O  O150  1  0.99295000  0.17077000  0.18810000  1.0 -0.5095426547
O  O151  1  0.92077000  0.23267000  0.67782000  1.0 -0.5095426547
O  O152  1  0.98267000  0.80485000  0.81190000  1.0 -0.5095426547
O  O153  1  0.18082000  0.08983000  0.22165000  1.0 -0.5541672366
O  O154  1  0.83983000  0.11818000  0.40901000  1.0 -0.5541672366
O  O155  1  0.86818000  0.95917000  0.77835000  1.0 -0.5541672366
O  O156  1  0.70917000  0.43082000  0.59099000  1.0 -0.5541672366
O  O157  1  0.56918000  0.29083000  0.40901000  1.0 -0.5541672366
O  O158  1  0.04083000  0.13182000  0.22165000  1.0 -0.5541672366
O  O159  1  0.88182000  0.16017000  0.59099000  1.0 -0.5541672366
O  O160  1  0.91017000  0.81918000  0.77835000  1.0 -0.5541672366
