# DDEC6 charges by PACMAN v1.1 (https://github.com/mtap-research/PACMAN-charge/)
data_KOJDIZ_FSR_pacman
_symmetry_space_group_name_H-M   'P 1'
_cell_length_a   18.36000000
_cell_length_b   29.04300000
_cell_length_c   25.21840000
_cell_angle_alpha   90.00000000
_cell_angle_beta   111.49600000
_cell_angle_gamma   90.00000000
_symmetry_Int_Tables_number   1
_chemical_formula_structural   Ca3Cu9H12C60S12N24O53
_chemical_formula_sum   'Ca12 Cu36 H48 C240 S48 N96 O212'
_cell_volume   12511.84987160
_cell_formula_units_Z   4
loop_
 _symmetry_equiv_pos_site_id
 _symmetry_equiv_pos_as_xyz
  1  'x, y, z'
loop_
 _atom_site_type_symbol
 _atom_site_label
 _atom_site_symmetry_multiplicity
 _atom_site_fract_x
 _atom_site_fract_y
 _atom_site_fract_z
 _atom_site_occupancy
 _atom_site_charge
Ca  Ca1  1  0.73800000  0.00026000  0.73190000  1.0 1.2169028706
Ca  Ca2  1  0.06861000  0.83955000  0.80441000  1.0 1.2594711668
Ca  Ca3  1  0.40454000  0.84735000  0.63054000  1.0 1.2382790929
Ca  Ca4  1  0.26200000  0.50026000  0.76810000  1.0 1.2169028706
Ca  Ca5  1  0.93139000  0.33955000  0.69559000  1.0 1.2594711668
Ca  Ca6  1  0.59546000  0.34735000  0.86946000  1.0 1.2382790929
Ca  Ca7  1  0.26200000  0.99974000  0.26810000  1.0 1.2169028706
Ca  Ca8  1  0.93139000  0.16045000  0.19559000  1.0 1.2594711668
Ca  Ca9  1  0.59546000  0.15265000  0.36946000  1.0 1.2382790929
Ca  Ca10  1  0.73800000  0.49974000  0.23190000  1.0 1.2169028706
Ca  Ca11  1  0.06861000  0.66045000  0.30441000  1.0 1.2594711668
Ca  Ca12  1  0.40454000  0.65265000  0.13054000  1.0 1.2382790929
Cu  Cu1  1  0.93306000  0.10700000  0.63208000  1.0 0.8071623332
Cu  Cu2  1  0.08589000  0.04187000  0.61726000  1.0 0.7896762973
Cu  Cu3  1  0.22479000  0.97202000  0.71081000  1.0 0.8013679868
Cu  Cu4  1  0.08933000  0.17152000  0.72281000  1.0 0.7037995494
Cu  Cu5  1  0.23567000  0.10311000  0.70890000  1.0 0.867089603
Cu  Cu6  1  0.38049000  0.03502000  0.80434000  1.0 0.7221511191
Cu  Cu7  1  0.24014000  0.24790000  0.71742000  1.0 0.7519153244
Cu  Cu8  1  0.38429000  0.17658000  0.70585000  1.0 0.8522739993
Cu  Cu9  1  0.53314000  0.11284000  0.80798000  1.0 0.8013679868
Cu  Cu10  1  0.06694000  0.60700000  0.86792000  1.0 0.8071623332
Cu  Cu11  1  0.91411000  0.54187000  0.88274000  1.0 0.7896762973
Cu  Cu12  1  0.77521000  0.47202000  0.78919000  1.0 0.8013679868
Cu  Cu13  1  0.91067000  0.67152000  0.77719000  1.0 0.7037995494
Cu  Cu14  1  0.76433000  0.60311000  0.79110000  1.0 0.867089603
Cu  Cu15  1  0.61951000  0.53502000  0.69566000  1.0 0.7221511191
Cu  Cu16  1  0.75986000  0.74790000  0.78258000  1.0 0.7519153244
Cu  Cu17  1  0.61571000  0.67658000  0.79415000  1.0 0.8522739993
Cu  Cu18  1  0.46686000  0.61284000  0.69202000  1.0 0.8013679868
Cu  Cu19  1  0.06694000  0.89300000  0.36792000  1.0 0.8071623332
Cu  Cu20  1  0.91411000  0.95813000  0.38274000  1.0 0.7896762973
Cu  Cu21  1  0.77521000  0.02798000  0.28919000  1.0 0.8013679868
Cu  Cu22  1  0.91067000  0.82848000  0.27719000  1.0 0.7037995494
Cu  Cu23  1  0.76433000  0.89689000  0.29110000  1.0 0.867089603
Cu  Cu24  1  0.61951000  0.96498000  0.19566000  1.0 0.7221511191
Cu  Cu25  1  0.75986000  0.75210000  0.28258000  1.0 0.7519153244
Cu  Cu26  1  0.61571000  0.82342000  0.29415000  1.0 0.855965156
Cu  Cu27  1  0.46686000  0.88716000  0.19202000  1.0 0.8013679868
Cu  Cu28  1  0.93306000  0.39300000  0.13208000  1.0 0.8071623332
Cu  Cu29  1  0.08589000  0.45813000  0.11726000  1.0 0.7896762973
Cu  Cu30  1  0.22479000  0.52798000  0.21081000  1.0 0.8013679868
Cu  Cu31  1  0.08933000  0.32848000  0.22281000  1.0 0.7037995494
Cu  Cu32  1  0.23567000  0.39689000  0.20890000  1.0 0.867089603
Cu  Cu33  1  0.38049000  0.46498000  0.30434000  1.0 0.7221511191
Cu  Cu34  1  0.24014000  0.25210000  0.21742000  1.0 0.7519153244
Cu  Cu35  1  0.38429000  0.32342000  0.20585000  1.0 0.8522739993
Cu  Cu36  1  0.53314000  0.38716000  0.30798000  1.0 0.8013679868
H  H1  1  0.02001000  0.15414000  0.89360000  1.0 0.160400538
H  H2  1  0.12027000  0.21032000  0.92322000  1.0 0.160400538
H  H3  1  0.01470000  0.06019000  0.41139000  1.0 0.1772236611
H  H4  1  0.12946000  0.00147000  0.44325000  1.0 0.1772236611
H  H5  1  0.19169000  0.13401000  0.50864000  1.0 0.1511282696
H  H6  1  0.30361000  0.07755000  0.53880000  1.0 0.160400538
H  H7  1  0.35660000  0.20950000  0.51020000  1.0 0.1511282696
H  H8  1  0.46950000  0.15431000  0.54261000  1.0 0.160400538
H  H9  1  0.30245000  0.13589000  0.00874000  1.0 0.160400538
H  H10  1  0.39952000  0.19406000  0.00992000  1.0 0.160400538
H  H11  1  0.44461000  0.04240000  0.01465000  1.0 0.1701864068
H  H12  1  0.34785000  0.98924000  0.98219000  1.0 0.1511282696
H  H13  1  0.97999000  0.65414000  0.60640000  1.0 0.160400538
H  H14  1  0.87973000  0.71032000  0.57678000  1.0 0.160400538
H  H15  1  0.98530000  0.56019000  0.08861000  1.0 0.1772236611
H  H16  1  0.87054000  0.50147000  0.05675000  1.0 0.1772236611
H  H17  1  0.80831000  0.63401000  0.99136000  1.0 0.1511282696
H  H18  1  0.69639000  0.57755000  0.96120000  1.0 0.160400538
H  H19  1  0.64340000  0.70950000  0.98980000  1.0 0.1511282696
H  H20  1  0.53050000  0.65431000  0.95739000  1.0 0.160400538
H  H21  1  0.69755000  0.63589000  0.49126000  1.0 0.160400538
H  H22  1  0.60048000  0.69406000  0.49008000  1.0 0.160400538
H  H23  1  0.55539000  0.54240000  0.48535000  1.0 0.1701864068
H  H24  1  0.65215000  0.48924000  0.51781000  1.0 0.1511282696
H  H25  1  0.97999000  0.84586000  0.10640000  1.0 0.160400538
H  H26  1  0.87973000  0.78968000  0.07678000  1.0 0.160400538
H  H27  1  0.98530000  0.93981000  0.58861000  1.0 0.1772236611
H  H28  1  0.87054000  0.99853000  0.55675000  1.0 0.1772236611
H  H29  1  0.80831000  0.86599000  0.49136000  1.0 0.1511282696
H  H30  1  0.69639000  0.92245000  0.46120000  1.0 0.160400538
H  H31  1  0.64340000  0.79050000  0.48980000  1.0 0.1511282696
H  H32  1  0.53050000  0.84569000  0.45739000  1.0 0.160400538
H  H33  1  0.69755000  0.86411000  0.99126000  1.0 0.160400538
H  H34  1  0.60048000  0.80594000  0.99008000  1.0 0.160400538
H  H35  1  0.55539000  0.95760000  0.98535000  1.0 0.1701864068
H  H36  1  0.65215000  0.01076000  0.01781000  1.0 0.1511282696
H  H37  1  0.02001000  0.34586000  0.39360000  1.0 0.160400538
H  H38  1  0.12027000  0.28968000  0.42322000  1.0 0.160400538
H  H39  1  0.01470000  0.43981000  0.91139000  1.0 0.1772236611
H  H40  1  0.12946000  0.49853000  0.94325000  1.0 0.1772236611
H  H41  1  0.19169000  0.36599000  0.00864000  1.0 0.1511282696
H  H42  1  0.30361000  0.42245000  0.03880000  1.0 0.160400538
H  H43  1  0.35660000  0.29050000  0.01020000  1.0 0.1511282696
H  H44  1  0.46950000  0.34569000  0.04261000  1.0 0.160400538
H  H45  1  0.30245000  0.36411000  0.50874000  1.0 0.160400538
H  H46  1  0.39952000  0.30594000  0.50992000  1.0 0.160400538
H  H47  1  0.44461000  0.45760000  0.51465000  1.0 0.1701864068
H  H48  1  0.34785000  0.51076000  0.48219000  1.0 0.1511282696
C  C1  1  0.80830000  0.05040000  0.64390000  1.0 0.4810904608
C  C2  1  0.85660000  0.06950000  0.70370000  1.0 0.3960256166
C  C3  1  0.96150000  0.11680000  0.76170000  1.0 0.2904871403
C  C4  1  0.00910000  0.14470000  0.85540000  1.0 -0.271330502
C  C5  1  0.04840000  0.15910000  0.82430000  1.0 0.1408616732
C  C6  1  0.11070000  0.19260000  0.84160000  1.0 0.2001089773
C  C7  1  0.13870000  0.21530000  0.89310000  1.0 -0.293151832
C  C8  1  0.20230000  0.23850000  0.82730000  1.0 0.3183984904
C  C9  1  0.32230000  0.32100000  0.78490000  1.0 0.4395350999
C  C10  1  0.28600000  0.29590000  0.82270000  1.0 0.3796196283
C  C11  1  0.64620000  0.05370000  0.80050000  1.0 0.4395350999
C  C12  1  0.61580000  0.07410000  0.74470000  1.0 0.3301468267
C  C13  1  0.84480000  0.18050000  0.56720000  1.0 0.4810904608
C  C14  1  0.87530000  0.15580000  0.52670000  1.0 0.3636095709
C  C15  1  0.95930000  0.10060000  0.51990000  1.0 0.2904871403
C  C16  1  0.00490000  0.06820000  0.44470000  1.0 -0.2995232282
C  C17  1  0.04550000  0.05140000  0.49830000  1.0 0.2001089773
C  C18  1  0.11280000  0.01980000  0.51630000  1.0 0.1340780095
C  C19  1  0.14560000  0.99790000  0.48340000  1.0 -0.2557607928
C  C20  1  0.19980000  0.98040000  0.58330000  1.0 0.2817101812
C  C21  1  0.33320000  0.90930000  0.70290000  1.0 0.4810904608
C  C22  1  0.29520000  0.92800000  0.64190000  1.0 0.3694624364
C  C23  1  0.99830000  0.24060000  0.65980000  1.0 0.4810904608
C  C24  1  0.03490000  0.21950000  0.62010000  1.0 0.3694624364
C  C25  1  0.12030000  0.16440000  0.61050000  1.0 0.3122609852
C  C26  1  0.17660000  0.14000000  0.54020000  1.0 -0.271330502
C  C27  1  0.20790000  0.12180000  0.59070000  1.0 0.1340780095
C  C28  1  0.27380000  0.09030000  0.60990000  1.0 0.160400538
C  C29  1  0.31510000  0.07180000  0.57810000  1.0 -0.3083134148
C  C30  1  0.36100000  0.04790000  0.67730000  1.0 0.2817101812
C  C31  1  0.48730000  0.97250000  0.79600000  1.0 0.4745630807
C  C32  1  0.45600000  0.99840000  0.73770000  1.0 0.3694624364
C  C33  1  0.14120000  0.31210000  0.64580000  1.0 0.4605502596
C  C34  1  0.18520000  0.29340000  0.60970000  1.0 0.3694624364
C  C35  1  0.27660000  0.24040000  0.60920000  1.0 0.3395466393
C  C36  1  0.33920000  0.21540000  0.54070000  1.0 -0.2795450633
C  C37  1  0.36800000  0.19700000  0.59070000  1.0 0.160400538
C  C38  1  0.43220000  0.16430000  0.61180000  1.0 0.1701864068
C  C39  1  0.47770000  0.14780000  0.58130000  1.0 -0.3083134148
C  C40  1  0.51990000  0.12190000  0.68100000  1.0 0.2999462596
C  C41  1  0.04120000  0.00650000  0.79580000  1.0 0.4395350999
C  C42  1  0.09390000  0.03230000  0.85060000  1.0 0.3301468267
C  C43  1  0.20000000  0.08540000  0.88750000  1.0 0.261534605
C  C44  1  0.27560000  0.12380000  0.97170000  1.0 -0.3083134148
C  C45  1  0.29380000  0.13550000  0.92620000  1.0 0.1106609206
C  C46  1  0.35370000  0.16630000  0.92460000  1.0 0.1772236611
C  C47  1  0.40140000  0.19530000  0.97280000  1.0 -0.3688603221
C  C48  1  0.42130000  0.21060000  0.88500000  1.0 0.2669385037
C  C49  1  0.48700000  0.25610000  0.84110000  1.0 0.3694624364
C  C50  1  0.50610000  0.26110000  0.78690000  1.0 0.4985808915
C  C51  1  0.63560000  0.17790000  0.88750000  1.0 0.4605502596
C  C52  1  0.59920000  0.15010000  0.92230000  1.0 0.3796196283
C  C53  1  0.50470000  0.09400000  0.91660000  1.0 0.3122609852
C  C54  1  0.45640000  0.05480000  0.98390000  1.0 -0.293151832
C  C55  1  0.41790000  0.04320000  0.92660000  1.0 0.2001089773
C  C56  1  0.35570000  0.01050000  0.90940000  1.0 0.1408616732
C  C57  1  0.32780000  0.98750000  0.94180000  1.0 -0.2795450633
C  C58  1  0.25900000  0.97360000  0.84010000  1.0 0.3183984904
C  C59  1  0.11000000  0.90950000  0.72110000  1.0 0.492140103
C  C60  1  0.15990000  0.92810000  0.78050000  1.0 0.3796196283
C  C61  1  0.19170000  0.55040000  0.85610000  1.0 0.4810904608
C  C62  1  0.14340000  0.56950000  0.79630000  1.0 0.3960256166
C  C63  1  0.03850000  0.61680000  0.73830000  1.0 0.2904871403
C  C64  1  0.99090000  0.64470000  0.64460000  1.0 -0.271330502
C  C65  1  0.95160000  0.65910000  0.67570000  1.0 0.1408616732
C  C66  1  0.88930000  0.69260000  0.65840000  1.0 0.2001089773
C  C67  1  0.86130000  0.71530000  0.60690000  1.0 -0.293151832
C  C68  1  0.79770000  0.73850000  0.67270000  1.0 0.3183984904
C  C69  1  0.67770000  0.82100000  0.71510000  1.0 0.4395350999
C  C70  1  0.71400000  0.79590000  0.67730000  1.0 0.3796196283
C  C71  1  0.35380000  0.55370000  0.69950000  1.0 0.4339839405
C  C72  1  0.38420000  0.57410000  0.75530000  1.0 0.3301468267
C  C73  1  0.15520000  0.68050000  0.93280000  1.0 0.4810904608
C  C74  1  0.12470000  0.65580000  0.97330000  1.0 0.3636095709
C  C75  1  0.04070000  0.60060000  0.98010000  1.0 0.2904871403
C  C76  1  0.99510000  0.56820000  0.05530000  1.0 -0.2995232282
C  C77  1  0.95450000  0.55140000  0.00170000  1.0 0.2001089773
C  C78  1  0.88720000  0.51980000  0.98370000  1.0 0.1340780095
C  C79  1  0.85440000  0.49790000  0.01660000  1.0 -0.2557607928
C  C80  1  0.80020000  0.48040000  0.91670000  1.0 0.2817101812
C  C81  1  0.66680000  0.40930000  0.79710000  1.0 0.4810904608
C  C82  1  0.70480000  0.42800000  0.85810000  1.0 0.3796196283
C  C83  1  0.00170000  0.74060000  0.84020000  1.0 0.4810904608
C  C84  1  0.96510000  0.71950000  0.87990000  1.0 0.3694624364
C  C85  1  0.87970000  0.66440000  0.88950000  1.0 0.3122609852
C  C86  1  0.82340000  0.64000000  0.95980000  1.0 -0.271330502
C  C87  1  0.79210000  0.62180000  0.90930000  1.0 0.1340780095
C  C88  1  0.72620000  0.59030000  0.89010000  1.0 0.160400538
C  C89  1  0.68490000  0.57180000  0.92190000  1.0 -0.3083134148
C  C90  1  0.63900000  0.54790000  0.82270000  1.0 0.2817101812
C  C91  1  0.51270000  0.47250000  0.70400000  1.0 0.4745630807
C  C92  1  0.54400000  0.49840000  0.76230000  1.0 0.3694624364
C  C93  1  0.85880000  0.81210000  0.85420000  1.0 0.4605502596
C  C94  1  0.81480000  0.79340000  0.89030000  1.0 0.3694624364
C  C95  1  0.72340000  0.74040000  0.89080000  1.0 0.3395466393
C  C96  1  0.66080000  0.71540000  0.95930000  1.0 -0.2795450633
C  C97  1  0.63200000  0.69700000  0.90930000  1.0 0.160400538
C  C98  1  0.56780000  0.66430000  0.88820000  1.0 0.1701864068
C  C99  1  0.52230000  0.64780000  0.91870000  1.0 -0.2995232282
C  C100  1  0.48010000  0.62190000  0.81900000  1.0 0.2999462596
C  C101  1  0.95880000  0.50650000  0.70420000  1.0 0.4395350999
C  C102  1  0.90610000  0.53230000  0.64940000  1.0 0.3301468267
C  C103  1  0.80000000  0.58540000  0.61250000  1.0 0.261534605
C  C104  1  0.72440000  0.62380000  0.52830000  1.0 -0.3083134148
C  C105  1  0.70620000  0.63550000  0.57380000  1.0 0.1106609206
C  C106  1  0.64630000  0.66630000  0.57540000  1.0 0.1772236611
C  C107  1  0.59860000  0.69530000  0.52720000  1.0 -0.3688603221
C  C108  1  0.57870000  0.71060000  0.61500000  1.0 0.2669385037
C  C109  1  0.51300000  0.75610000  0.65890000  1.0 0.3694624364
C  C110  1  0.49390000  0.76110000  0.71310000  1.0 0.4985808915
C  C111  1  0.36440000  0.67790000  0.61250000  1.0 0.4605502596
C  C112  1  0.40080000  0.65010000  0.57770000  1.0 0.3796196283
C  C113  1  0.49530000  0.59400000  0.58340000  1.0 0.3122609852
C  C114  1  0.54360000  0.55480000  0.51610000  1.0 -0.293151832
C  C115  1  0.58210000  0.54320000  0.57340000  1.0 0.2001089773
C  C116  1  0.64430000  0.51050000  0.59060000  1.0 0.1408616732
C  C117  1  0.67220000  0.48750000  0.55820000  1.0 -0.2795450633
C  C118  1  0.74100000  0.47360000  0.65990000  1.0 0.3183984904
C  C119  1  0.89000000  0.40950000  0.77890000  1.0 0.492140103
C  C120  1  0.84010000  0.42810000  0.71950000  1.0 0.3796196283
C  C121  1  0.19170000  0.94960000  0.35610000  1.0 0.4810904608
C  C122  1  0.14340000  0.93050000  0.29630000  1.0 0.3960256166
C  C123  1  0.03850000  0.88320000  0.23830000  1.0 0.2904871403
C  C124  1  0.99090000  0.85530000  0.14460000  1.0 -0.271330502
C  C125  1  0.95160000  0.84090000  0.17570000  1.0 0.1408616732
C  C126  1  0.88930000  0.80740000  0.15840000  1.0 0.2001089773
C  C127  1  0.86130000  0.78470000  0.10690000  1.0 -0.293151832
C  C128  1  0.79770000  0.76150000  0.17270000  1.0 0.3183984904
C  C129  1  0.67770000  0.67900000  0.21510000  1.0 0.4395350999
C  C130  1  0.71400000  0.70410000  0.17730000  1.0 0.3796196283
C  C131  1  0.35380000  0.94630000  0.19950000  1.0 0.4395350999
C  C132  1  0.38420000  0.92590000  0.25530000  1.0 0.3301468267
C  C133  1  0.15520000  0.81950000  0.43280000  1.0 0.4810904608
C  C134  1  0.12470000  0.84420000  0.47330000  1.0 0.3636095709
C  C135  1  0.04070000  0.89940000  0.48010000  1.0 0.2904871403
C  C136  1  0.99510000  0.93180000  0.55530000  1.0 -0.2995232282
C  C137  1  0.95450000  0.94860000  0.50170000  1.0 0.2001089773
C  C138  1  0.88720000  0.98020000  0.48370000  1.0 0.1340780095
C  C139  1  0.85440000  0.00210000  0.51660000  1.0 -0.2557607928
C  C140  1  0.80020000  0.01960000  0.41670000  1.0 0.2817101812
C  C141  1  0.66680000  0.09070000  0.29710000  1.0 0.4810904608
C  C142  1  0.70480000  0.07200000  0.35810000  1.0 0.3796196283
C  C143  1  0.00170000  0.75940000  0.34020000  1.0 0.4810904608
C  C144  1  0.96510000  0.78050000  0.37990000  1.0 0.3694624364
C  C145  1  0.87970000  0.83560000  0.38950000  1.0 0.3122609852
C  C146  1  0.82340000  0.86000000  0.45980000  1.0 -0.271330502
C  C147  1  0.79210000  0.87820000  0.40930000  1.0 0.1340780095
C  C148  1  0.72620000  0.90970000  0.39010000  1.0 0.160400538
C  C149  1  0.68490000  0.92820000  0.42190000  1.0 -0.3083134148
C  C150  1  0.63900000  0.95210000  0.32270000  1.0 0.2817101812
C  C151  1  0.51270000  0.02750000  0.20400000  1.0 0.4745630807
C  C152  1  0.54400000  0.00160000  0.26230000  1.0 0.3694624364
C  C153  1  0.85880000  0.68790000  0.35420000  1.0 0.4605502596
C  C154  1  0.81480000  0.70660000  0.39030000  1.0 0.3694624364
C  C155  1  0.72340000  0.75960000  0.39080000  1.0 0.3395466393
C  C156  1  0.66080000  0.78460000  0.45930000  1.0 -0.2795450633
C  C157  1  0.63200000  0.80300000  0.40930000  1.0 0.160400538
C  C158  1  0.56780000  0.83570000  0.38820000  1.0 0.1701864068
C  C159  1  0.52230000  0.85220000  0.41870000  1.0 -0.3083134148
C  C160  1  0.48010000  0.87810000  0.31900000  1.0 0.2999462596
C  C161  1  0.95880000  0.99350000  0.20420000  1.0 0.4395350999
C  C162  1  0.90610000  0.96770000  0.14940000  1.0 0.3301468267
C  C163  1  0.80000000  0.91460000  0.11250000  1.0 0.261534605
C  C164  1  0.72440000  0.87620000  0.02830000  1.0 -0.3083134148
C  C165  1  0.70620000  0.86450000  0.07380000  1.0 0.1106609206
C  C166  1  0.64630000  0.83370000  0.07540000  1.0 0.1772236611
C  C167  1  0.59860000  0.80470000  0.02720000  1.0 -0.3688603221
C  C168  1  0.57870000  0.78940000  0.11500000  1.0 0.2669385037
C  C169  1  0.51300000  0.74390000  0.15890000  1.0 0.3694624364
C  C170  1  0.49390000  0.73890000  0.21310000  1.0 0.4985808915
C  C171  1  0.36440000  0.82210000  0.11250000  1.0 0.4605502596
C  C172  1  0.40080000  0.84990000  0.07770000  1.0 0.3796196283
C  C173  1  0.49530000  0.90600000  0.08340000  1.0 0.3122609852
C  C174  1  0.54360000  0.94520000  0.01610000  1.0 -0.293151832
C  C175  1  0.58210000  0.95680000  0.07340000  1.0 0.2001089773
C  C176  1  0.64430000  0.98950000  0.09060000  1.0 0.1408616732
C  C177  1  0.67220000  0.01250000  0.05820000  1.0 -0.2795450633
C  C178  1  0.74100000  0.02640000  0.15990000  1.0 0.3183984904
C  C179  1  0.89000000  0.09050000  0.27890000  1.0 0.492140103
C  C180  1  0.84010000  0.07190000  0.21950000  1.0 0.3855562693
C  C181  1  0.80830000  0.44960000  0.14390000  1.0 0.4810904608
C  C182  1  0.85660000  0.43050000  0.20370000  1.0 0.3960256166
C  C183  1  0.96150000  0.38320000  0.26170000  1.0 0.2904871403
C  C184  1  0.00910000  0.35530000  0.35540000  1.0 -0.271330502
C  C185  1  0.04840000  0.34090000  0.32430000  1.0 0.1408616732
C  C186  1  0.11070000  0.30740000  0.34160000  1.0 0.2001089773
C  C187  1  0.13870000  0.28470000  0.39310000  1.0 -0.293151832
C  C188  1  0.20230000  0.26150000  0.32730000  1.0 0.3183984904
C  C189  1  0.32230000  0.17900000  0.28490000  1.0 0.4395350999
C  C190  1  0.28600000  0.20410000  0.32270000  1.0 0.3796196283
C  C191  1  0.64620000  0.44630000  0.30050000  1.0 0.4339839405
C  C192  1  0.61580000  0.42590000  0.24470000  1.0 0.3301468267
C  C193  1  0.84480000  0.31950000  0.06720000  1.0 0.4810904608
C  C194  1  0.87530000  0.34420000  0.02670000  1.0 0.3694624364
C  C195  1  0.95930000  0.39940000  0.01990000  1.0 0.2904871403
C  C196  1  0.00490000  0.43180000  0.94470000  1.0 -0.2995232282
C  C197  1  0.04550000  0.44860000  0.99830000  1.0 0.2001089773
C  C198  1  0.11280000  0.48020000  0.01630000  1.0 0.1340780095
C  C199  1  0.14560000  0.50210000  0.98340000  1.0 -0.2557607928
C  C200  1  0.19980000  0.51960000  0.08330000  1.0 0.2817101812
C  C201  1  0.33320000  0.59070000  0.20290000  1.0 0.4810904608
C  C202  1  0.29520000  0.57200000  0.14190000  1.0 0.3694624364
C  C203  1  0.99830000  0.25940000  0.15980000  1.0 0.4745630807
C  C204  1  0.03490000  0.28050000  0.12010000  1.0 0.3694624364
C  C205  1  0.12030000  0.33560000  0.11050000  1.0 0.3122609852
C  C206  1  0.17660000  0.36000000  0.04020000  1.0 -0.271330502
C  C207  1  0.20790000  0.37820000  0.09070000  1.0 0.1340780095
C  C208  1  0.27380000  0.40970000  0.10990000  1.0 0.160400538
C  C209  1  0.31510000  0.42820000  0.07810000  1.0 -0.3083134148
C  C210  1  0.36100000  0.45210000  0.17730000  1.0 0.2817101812
C  C211  1  0.48730000  0.52750000  0.29600000  1.0 0.4745630807
C  C212  1  0.45600000  0.50160000  0.23770000  1.0 0.3694624364
C  C213  1  0.14120000  0.18790000  0.14580000  1.0 0.4605502596
C  C214  1  0.18520000  0.20660000  0.10970000  1.0 0.3694624364
C  C215  1  0.27660000  0.25960000  0.10920000  1.0 0.3395466393
C  C216  1  0.33920000  0.28460000  0.04070000  1.0 -0.2795450633
C  C217  1  0.36800000  0.30300000  0.09070000  1.0 0.160400538
C  C218  1  0.43220000  0.33570000  0.11180000  1.0 0.1701864068
C  C219  1  0.47770000  0.35220000  0.08130000  1.0 -0.3083134148
C  C220  1  0.51990000  0.37810000  0.18100000  1.0 0.2999462596
C  C221  1  0.04120000  0.49350000  0.29580000  1.0 0.4395350999
C  C222  1  0.09390000  0.46770000  0.35060000  1.0 0.3301468267
C  C223  1  0.20000000  0.41460000  0.38750000  1.0 0.261534605
C  C224  1  0.27560000  0.37620000  0.47170000  1.0 -0.3083134148
C  C225  1  0.29380000  0.36450000  0.42620000  1.0 0.1106609206
C  C226  1  0.35370000  0.33370000  0.42460000  1.0 0.1772236611
C  C227  1  0.40140000  0.30470000  0.47280000  1.0 -0.3688603221
C  C228  1  0.42130000  0.28940000  0.38500000  1.0 0.2669385037
C  C229  1  0.48700000  0.24390000  0.34110000  1.0 0.3694624364
C  C230  1  0.50610000  0.23890000  0.28690000  1.0 0.4985808915
C  C231  1  0.63560000  0.32210000  0.38750000  1.0 0.4605502596
C  C232  1  0.59920000  0.34990000  0.42230000  1.0 0.3796196283
C  C233  1  0.50470000  0.40600000  0.41660000  1.0 0.3122609852
C  C234  1  0.45640000  0.44520000  0.48390000  1.0 -0.2995232282
C  C235  1  0.41790000  0.45680000  0.42660000  1.0 0.2001089773
C  C236  1  0.35570000  0.48950000  0.40940000  1.0 0.1408616732
C  C237  1  0.32780000  0.51250000  0.44180000  1.0 -0.2795450633
C  C238  1  0.25900000  0.52640000  0.34010000  1.0 0.3183984904
C  C239  1  0.11000000  0.59050000  0.22110000  1.0 0.492140103
C  C240  1  0.15990000  0.57190000  0.28050000  1.0 0.3796196283
S  S1  1  0.93550000  0.10711000  0.81900000  1.0 0.2174337518
S  S2  1  0.21002000  0.25324000  0.89582000  1.0 0.1340780095
S  S3  1  0.93474000  0.10524000  0.44674000  1.0 0.2174337518
S  S4  1  0.21923000  0.96344000  0.52343000  1.0 0.2112036288
S  S5  1  0.10221000  0.17716000  0.54011000  1.0 0.160400538
S  S6  1  0.38913000  0.03742000  0.61993000  1.0 0.1772236611
S  S7  1  0.26464000  0.25219000  0.53794000  1.0 0.1106609206
S  S8  1  0.55250000  0.11305000  0.62790000  1.0 0.2001089773
S  S9  1  0.20230000  0.08660000  0.95730000  1.0 0.1701864068
S  S10  1  0.45830000  0.22993000  0.95380000  1.0 0.2001089773
S  S11  1  0.52816000  0.09479000  0.99056000  1.0 0.1701864068
S  S12  1  0.24853000  0.95279000  0.90183000  1.0 0.2112036288
S  S13  1  0.06450000  0.60711000  0.68100000  1.0 0.2112036288
S  S14  1  0.78998000  0.75324000  0.60418000  1.0 0.1340780095
S  S15  1  0.06526000  0.60524000  0.05326000  1.0 0.2174337518
S  S16  1  0.78077000  0.46344000  0.97657000  1.0 0.2112036288
S  S17  1  0.89779000  0.67716000  0.95989000  1.0 0.1701864068
S  S18  1  0.61087000  0.53742000  0.88007000  1.0 0.1701864068
S  S19  1  0.73536000  0.75219000  0.96206000  1.0 0.1106609206
S  S20  1  0.44750000  0.61305000  0.87210000  1.0 0.2001089773
S  S21  1  0.79770000  0.58660000  0.54270000  1.0 0.1701864068
S  S22  1  0.54170000  0.72993000  0.54620000  1.0 0.2001089773
S  S23  1  0.47184000  0.59479000  0.50944000  1.0 0.1701864068
S  S24  1  0.75147000  0.45279000  0.59817000  1.0 0.2112036288
S  S25  1  0.06450000  0.89289000  0.18100000  1.0 0.2112036288
S  S26  1  0.78998000  0.74676000  0.10418000  1.0 0.1340780095
S  S27  1  0.06526000  0.89476000  0.55326000  1.0 0.2174337518
S  S28  1  0.78077000  0.03656000  0.47657000  1.0 0.2112036288
S  S29  1  0.89779000  0.82284000  0.45989000  1.0 0.160400538
S  S30  1  0.61087000  0.96258000  0.38007000  1.0 0.1772236611
S  S31  1  0.73536000  0.74781000  0.46206000  1.0 0.1152078024
S  S32  1  0.44750000  0.88695000  0.37210000  1.0 0.2001089773
S  S33  1  0.79770000  0.91340000  0.04270000  1.0 0.1772236611
S  S34  1  0.54170000  0.77007000  0.04620000  1.0 0.2001089773
S  S35  1  0.47184000  0.90521000  0.00944000  1.0 0.1772236611
S  S36  1  0.75147000  0.04721000  0.09817000  1.0 0.2112036288
S  S37  1  0.93550000  0.39289000  0.31900000  1.0 0.2112036288
S  S38  1  0.21002000  0.24676000  0.39582000  1.0 0.1340780095
S  S39  1  0.93474000  0.39476000  0.94674000  1.0 0.2174337518
S  S40  1  0.21923000  0.53656000  0.02343000  1.0 0.2174337518
S  S41  1  0.10221000  0.32284000  0.04011000  1.0 0.1701864068
S  S42  1  0.38913000  0.46258000  0.11993000  1.0 0.1772236611
S  S43  1  0.26464000  0.24781000  0.03794000  1.0 0.1106609206
S  S44  1  0.55250000  0.38695000  0.12790000  1.0 0.2001089773
S  S45  1  0.20230000  0.41340000  0.45730000  1.0 0.1701864068
S  S46  1  0.45830000  0.27007000  0.45380000  1.0 0.2001089773
S  S47  1  0.52816000  0.40521000  0.49056000  1.0 0.1772236611
S  S48  1  0.24853000  0.54721000  0.40183000  1.0 0.2112036288
N  N1  1  0.91530000  0.09630000  0.70540000  1.0 -0.3688603221
N  N2  1  0.02020000  0.14320000  0.76750000  1.0 -0.2795450633
N  N3  1  0.14760000  0.20480000  0.80530000  1.0 -0.3083134148
N  N4  1  0.24410000  0.25730000  0.79890000  1.0 -0.3774579524
N  N5  1  0.93230000  0.12140000  0.55290000  1.0 -0.4002199964
N  N6  1  0.02310000  0.06880000  0.53800000  1.0 -0.3598653588
N  N7  1  0.14410000  0.01190000  0.57450000  1.0 -0.3400885709
N  N8  1  0.24390000  0.96330000  0.63690000  1.0 -0.4217173893
N  N9  1  0.08400000  0.18340000  0.64170000  1.0 -0.4381539488
N  N10  1  0.17560000  0.13330000  0.63120000  1.0 -0.3400885709
N  N11  1  0.30180000  0.07810000  0.66680000  1.0 -0.3191676492
N  N12  1  0.40000000  0.02850000  0.73160000  1.0 -0.4280195126
N  N13  1  0.23610000  0.25730000  0.63620000  1.0 -0.4098888401
N  N14  1  0.33500000  0.20870000  0.63050000  1.0 -0.3688603221
N  N15  1  0.45810000  0.15030000  0.66950000  1.0 -0.3457874173
N  N16  1  0.55270000  0.10200000  0.73510000  1.0 -0.4002199964
N  N17  1  0.14660000  0.06200000  0.84490000  1.0 -0.3191676492
N  N18  1  0.24790000  0.11230000  0.87680000  1.0 -0.1890364309
N  N19  1  0.36870000  0.17710000  0.87860000  1.0 -0.1890364309
N  N20  1  0.44570000  0.21920000  0.84180000  1.0 -0.293151832
N  N21  1  0.54150000  0.12060000  0.88980000  1.0 -0.4002199964
N  N22  1  0.44400000  0.06580000  0.88950000  1.0 -0.2995232282
N  N23  1  0.31750000  0.00290000  0.85010000  1.0 -0.3191676492
N  N24  1  0.21180000  0.96090000  0.78610000  1.0 -0.3598653588
N  N25  1  0.08470000  0.59630000  0.79460000  1.0 -0.3688603221
N  N26  1  0.97980000  0.64320000  0.73250000  1.0 -0.2795450633
N  N27  1  0.85240000  0.70480000  0.69470000  1.0 -0.3083134148
N  N28  1  0.75590000  0.75730000  0.70110000  1.0 -0.3774579524
N  N29  1  0.06770000  0.62140000  0.94710000  1.0 -0.4002199964
N  N30  1  0.97690000  0.56880000  0.96200000  1.0 -0.3598653588
N  N31  1  0.85590000  0.51190000  0.92550000  1.0 -0.3400885709
N  N32  1  0.75610000  0.46330000  0.86310000  1.0 -0.4217173893
N  N33  1  0.91600000  0.68340000  0.85830000  1.0 -0.4381539488
N  N34  1  0.82440000  0.63330000  0.86880000  1.0 -0.3400885709
N  N35  1  0.69820000  0.57810000  0.83320000  1.0 -0.3191676492
N  N36  1  0.60000000  0.52850000  0.76840000  1.0 -0.4280195126
N  N37  1  0.76390000  0.75730000  0.86380000  1.0 -0.4098888401
N  N38  1  0.66500000  0.70870000  0.86950000  1.0 -0.3688603221
N  N39  1  0.54190000  0.65030000  0.83050000  1.0 -0.3457874173
N  N40  1  0.44730000  0.60200000  0.76490000  1.0 -0.4002199964
N  N41  1  0.85340000  0.56200000  0.65510000  1.0 -0.3191676492
N  N42  1  0.75210000  0.61230000  0.62320000  1.0 -0.1890364309
N  N43  1  0.63130000  0.67710000  0.62140000  1.0 -0.1890364309
N  N44  1  0.55430000  0.71920000  0.65820000  1.0 -0.293151832
N  N45  1  0.45850000  0.62060000  0.61020000  1.0 -0.3895775094
N  N46  1  0.55600000  0.56580000  0.61050000  1.0 -0.2995232282
N  N47  1  0.68250000  0.50290000  0.64990000  1.0 -0.3191676492
N  N48  1  0.78820000  0.46090000  0.71390000  1.0 -0.3598653588
N  N49  1  0.08470000  0.90370000  0.29460000  1.0 -0.3688603221
N  N50  1  0.97980000  0.85680000  0.23250000  1.0 -0.2795450633
N  N51  1  0.85240000  0.79520000  0.19470000  1.0 -0.3083134148
N  N52  1  0.75590000  0.74270000  0.20110000  1.0 -0.3774579524
N  N53  1  0.06770000  0.87860000  0.44710000  1.0 -0.4002199964
N  N54  1  0.97690000  0.93120000  0.46200000  1.0 -0.3598653588
N  N55  1  0.85590000  0.98810000  0.42550000  1.0 -0.3400885709
N  N56  1  0.75610000  0.03670000  0.36310000  1.0 -0.4217173893
N  N57  1  0.91600000  0.81660000  0.35830000  1.0 -0.4381539488
N  N58  1  0.82440000  0.86670000  0.36880000  1.0 -0.3400885709
N  N59  1  0.69820000  0.92190000  0.33320000  1.0 -0.3191676492
N  N60  1  0.60000000  0.97150000  0.26840000  1.0 -0.4280195126
N  N61  1  0.76390000  0.74270000  0.36380000  1.0 -0.4098888401
N  N62  1  0.66500000  0.79130000  0.36950000  1.0 -0.3688603221
N  N63  1  0.54190000  0.84970000  0.33050000  1.0 -0.3457874173
N  N64  1  0.44730000  0.89800000  0.26490000  1.0 -0.4002199964
N  N65  1  0.85340000  0.93800000  0.15510000  1.0 -0.3191676492
N  N66  1  0.75210000  0.88770000  0.12320000  1.0 -0.1890364309
N  N67  1  0.63130000  0.82290000  0.12140000  1.0 -0.1890364309
N  N68  1  0.55430000  0.78080000  0.15820000  1.0 -0.293151832
N  N69  1  0.45850000  0.87940000  0.11020000  1.0 -0.4002199964
N  N70  1  0.55600000  0.93420000  0.11050000  1.0 -0.2995232282
N  N71  1  0.68250000  0.99710000  0.14990000  1.0 -0.3191676492
N  N72  1  0.78820000  0.03910000  0.21390000  1.0 -0.3598653588
N  N73  1  0.91530000  0.40370000  0.20540000  1.0 -0.3688603221
N  N74  1  0.02020000  0.35680000  0.26750000  1.0 -0.2795450633
N  N75  1  0.14760000  0.29520000  0.30530000  1.0 -0.3083134148
N  N76  1  0.24410000  0.24270000  0.29890000  1.0 -0.3774579524
N  N77  1  0.93230000  0.37860000  0.05290000  1.0 -0.4002199964
N  N78  1  0.02310000  0.43120000  0.03800000  1.0 -0.3598653588
N  N79  1  0.14410000  0.48810000  0.07450000  1.0 -0.3400885709
N  N80  1  0.24390000  0.53670000  0.13690000  1.0 -0.4280195126
N  N81  1  0.08400000  0.31660000  0.14170000  1.0 -0.4381539488
N  N82  1  0.17560000  0.36670000  0.13120000  1.0 -0.3400885709
N  N83  1  0.30180000  0.42190000  0.16680000  1.0 -0.3191676492
N  N84  1  0.40000000  0.47150000  0.23160000  1.0 -0.4280195126
N  N85  1  0.23610000  0.24270000  0.13620000  1.0 -0.4098888401
N  N86  1  0.33500000  0.29130000  0.13050000  1.0 -0.3688603221
N  N87  1  0.45810000  0.34970000  0.16950000  1.0 -0.3457874173
N  N88  1  0.55270000  0.39800000  0.23510000  1.0 -0.4002199964
N  N89  1  0.14660000  0.43800000  0.34490000  1.0 -0.3191676492
N  N90  1  0.24790000  0.38770000  0.37680000  1.0 -0.1890364309
N  N91  1  0.36870000  0.32290000  0.37860000  1.0 -0.1890364309
N  N92  1  0.44570000  0.28080000  0.34180000  1.0 -0.293151832
N  N93  1  0.54150000  0.37940000  0.38980000  1.0 -0.3895775094
N  N94  1  0.44400000  0.43420000  0.38950000  1.0 -0.2995232282
N  N95  1  0.31750000  0.49710000  0.35010000  1.0 -0.3191676492
N  N96  1  0.21180000  0.53910000  0.28610000  1.0 -0.3598653588
O  O1  1  0.01050000  0.06080000  0.64770000  1.0 -0.5524524663
O  O2  1  0.16280000  0.02760000  0.69200000  1.0 -0.5524524663
O  O3  1  0.16460000  0.12440000  0.74390000  1.0 -0.4901070062
O  O4  1  0.31230000  0.08780000  0.78260000  1.0 -0.4512669076
O  O5  1  0.29930000  0.19080000  0.73140000  1.0 -0.5201396459
O  O6  1  0.43250000  0.14200000  0.77580000  1.0 -0.4512669076
O  O7  1  0.75640000  0.02240000  0.64360000  1.0 -0.5201396459
O  O8  1  0.83590000  0.05830000  0.74370000  1.0 -0.480262068
O  O9  1  0.82000000  0.06480000  0.60180000  1.0 -0.4901070062
O  O10  1  0.33120000  0.30340000  0.74540000  1.0 -0.4098888401
O  O11  1  0.34300000  0.36350000  0.80390000  1.0 -0.3191676492
O  O12  1  0.29880000  0.30950000  0.87260000  1.0 -0.3895775094
O  O13  1  0.70320000  0.02750000  0.81160000  1.0 -0.480262068
O  O14  1  0.64390000  0.06650000  0.70900000  1.0 -0.4217173893
O  O15  1  0.87080000  0.16550000  0.61880000  1.0 -0.4974613153
O  O16  1  0.80350000  0.21360000  0.55260000  1.0 -0.2795450633
O  O17  1  0.85500000  0.16530000  0.47570000  1.0 -0.2995232282
O  O18  1  0.31270000  0.92840000  0.74000000  1.0 -0.4715056234
O  O19  1  0.38120000  0.87880000  0.70980000  1.0 -0.4715056234
O  O20  1  0.31500000  0.91150000  0.60390000  1.0 -0.4580663002
O  O21  1  0.01460000  0.22330000  0.70650000  1.0 -0.4217173893
O  O22  1  0.96130000  0.27690000  0.64350000  1.0 -0.480262068
O  O23  1  0.01370000  0.23290000  0.56970000  1.0 -0.3335658922
O  O24  1  0.45810000  0.98390000  0.83060000  1.0 -0.4901070062
O  O25  1  0.53740000  0.94140000  0.79880000  1.0 -0.4098888401
O  O26  1  0.48180000  0.98710000  0.69950000  1.0 -0.3191676492
O  O27  1  0.15480000  0.29430000  0.69470000  1.0 -0.4715056234
O  O28  1  0.10010000  0.34630000  0.62660000  1.0 -0.3598653588
O  O29  1  0.17330000  0.30680000  0.56220000  1.0 -0.3774579524
O  O30  1  0.05190000  0.01590000  0.75370000  1.0 -0.293151832
O  O31  1  0.99000000  0.98050000  0.80500000  1.0 -0.4280195126
O  O32  1  0.08450000  0.02620000  0.89940000  1.0 -0.4381539488
O  O33  1  0.47620000  0.23650000  0.74450000  1.0 -0.4512669076
O  O34  1  0.54950000  0.29650000  0.78740000  1.0 -0.5270393306
O  O35  1  0.50630000  0.28690000  0.87880000  1.0 -0.4512669076
O  O36  1  0.61510000  0.17160000  0.83520000  1.0 -0.480262068
O  O37  1  0.68180000  0.20890000  0.91510000  1.0 -0.3598653588
O  O38  1  0.62320000  0.15190000  0.97310000  1.0 -0.3774579524
O  O39  1  0.05850000  0.87930000  0.71990000  1.0 -0.5670514667
O  O40  1  0.14690000  0.90870000  0.82190000  1.0 -0.508901205
O  O41  1  0.12540000  0.92330000  0.68040000  1.0 -0.4901070062
O  O42  1  0.61330000  0.06190000  0.83690000  1.0 -0.4715056234
O  O43  1  0.85140000  0.98030000  0.81840000  1.0 0.193234189
O  O44  1  0.61420000  0.97560000  0.65120000  1.0 0.1000290057
O  O45  1  0.68510000  0.93650000  0.77180000  1.0 0.251903016
O  O46  1  0.78910000  0.93050000  0.70080000  1.0 -0.0502032684
O  O47  1  0.06550000  0.87450000  0.89630000  1.0 0.1000290057
O  O48  1  0.93430000  0.82000000  0.74030000  1.0 0.062414085
O  O49  1  0.06040000  0.77550000  0.73310000  1.0 0.1000290057
O  O50  1  0.19700000  0.80820000  0.86030000  1.0 -0.4002199964
O  O51  1  0.51110000  0.89510000  0.66870000  1.0 -0.0502032684
O  O52  1  0.39720000  0.84990000  0.53500000  1.0 -0.508901205
O  O53  1  0.28900000  0.80170000  0.60160000  1.0 0.0658501273
O  O54  1  0.98950000  0.56080000  0.85230000  1.0 -0.5524524663
O  O55  1  0.83720000  0.52760000  0.80800000  1.0 -0.5524524663
O  O56  1  0.83540000  0.62440000  0.75610000  1.0 -0.4901070062
O  O57  1  0.68770000  0.58780000  0.71740000  1.0 -0.4512669076
O  O58  1  0.70070000  0.69080000  0.76860000  1.0 -0.5201396459
O  O59  1  0.56750000  0.64200000  0.72420000  1.0 -0.4580663002
O  O60  1  0.24360000  0.52240000  0.85640000  1.0 -0.5201396459
O  O61  1  0.16410000  0.55830000  0.75630000  1.0 -0.480262068
O  O62  1  0.18000000  0.56480000  0.89820000  1.0 -0.4901070062
O  O63  1  0.66880000  0.80340000  0.75460000  1.0 -0.4098888401
O  O64  1  0.65700000  0.86350000  0.69610000  1.0 -0.3191676492
O  O65  1  0.70120000  0.80950000  0.62740000  1.0 -0.3895775094
O  O66  1  0.29680000  0.52750000  0.68840000  1.0 -0.4715056234
O  O67  1  0.35610000  0.56650000  0.79100000  1.0 -0.4217173893
O  O68  1  0.12920000  0.66550000  0.88120000  1.0 -0.4974613153
O  O69  1  0.19650000  0.71360000  0.94740000  1.0 -0.2795450633
O  O70  1  0.14500000  0.66530000  0.02430000  1.0 -0.2995232282
O  O71  1  0.68730000  0.42840000  0.76000000  1.0 -0.480262068
O  O72  1  0.61880000  0.37880000  0.79020000  1.0 -0.4715056234
O  O73  1  0.68500000  0.41150000  0.89610000  1.0 -0.4580663002
O  O74  1  0.98540000  0.72330000  0.79350000  1.0 -0.4217173893
O  O75  1  0.03870000  0.77690000  0.85650000  1.0 -0.480262068
O  O76  1  0.98630000  0.73290000  0.93030000  1.0 -0.3335658922
O  O77  1  0.54190000  0.48390000  0.66940000  1.0 -0.4901070062
O  O78  1  0.46260000  0.44140000  0.70120000  1.0 -0.4098888401
O  O79  1  0.51820000  0.48710000  0.80050000  1.0 -0.3191676492
O  O80  1  0.84520000  0.79430000  0.80530000  1.0 -0.4715056234
O  O81  1  0.89990000  0.84630000  0.87340000  1.0 -0.3598653588
O  O82  1  0.82670000  0.80680000  0.93780000  1.0 -0.3774579524
O  O83  1  0.94810000  0.51590000  0.74630000  1.0 -0.2995232282
O  O84  1  0.01000000  0.48050000  0.69500000  1.0 -0.4280195126
O  O85  1  0.91550000  0.52620000  0.60060000  1.0 -0.4381539488
O  O86  1  0.52380000  0.73650000  0.75550000  1.0 -0.4512669076
O  O87  1  0.45050000  0.79650000  0.71260000  1.0 -0.5270393306
O  O88  1  0.49370000  0.78690000  0.62120000  1.0 -0.4512669076
O  O89  1  0.38490000  0.67160000  0.66480000  1.0 -0.480262068
O  O90  1  0.31820000  0.70890000  0.58490000  1.0 -0.3598653588
O  O91  1  0.37680000  0.65190000  0.52690000  1.0 -0.3774579524
O  O92  1  0.94150000  0.37930000  0.78010000  1.0 -0.5670514667
O  O93  1  0.85310000  0.40870000  0.67810000  1.0 -0.508901205
O  O94  1  0.87460000  0.42330000  0.81960000  1.0 -0.480262068
O  O95  1  0.38670000  0.56190000  0.66310000  1.0 -0.4715056234
O  O96  1  0.14860000  0.48030000  0.68160000  1.0 0.193234189
O  O97  1  0.38580000  0.47560000  0.84880000  1.0 0.0875313839
O  O98  1  0.31490000  0.43650000  0.72820000  1.0 0.251903016
O  O99  1  0.21090000  0.43050000  0.79920000  1.0 -0.0502032684
O  O100  1  0.93450000  0.37450000  0.60370000  1.0 0.1000290057
O  O101  1  0.06570000  0.32000000  0.75970000  1.0 0.062414085
O  O102  1  0.93960000  0.27550000  0.76690000  1.0 0.0777835087
O  O103  1  0.80300000  0.30820000  0.63970000  1.0 -0.3895775094
O  O104  1  0.48890000  0.39510000  0.83130000  1.0 -0.0596120061
O  O105  1  0.60280000  0.34990000  0.96500000  1.0 -0.508901205
O  O106  1  0.71100000  0.30170000  0.89840000  1.0 0.062414085
O  O107  1  0.98950000  0.93920000  0.35230000  1.0 -0.5524524663
O  O108  1  0.83720000  0.97240000  0.30800000  1.0 -0.5553716832
O  O109  1  0.83540000  0.87560000  0.25610000  1.0 -0.4901070062
O  O110  1  0.68770000  0.91220000  0.21740000  1.0 -0.4512669076
O  O111  1  0.70070000  0.80920000  0.26860000  1.0 -0.5201396459
O  O112  1  0.56750000  0.85800000  0.22420000  1.0 -0.4580663002
O  O113  1  0.24360000  0.97760000  0.35640000  1.0 -0.5201396459
O  O114  1  0.16410000  0.94170000  0.25630000  1.0 -0.480262068
O  O115  1  0.18000000  0.93520000  0.39820000  1.0 -0.4901070062
O  O116  1  0.66880000  0.69660000  0.25460000  1.0 -0.4098888401
O  O117  1  0.65700000  0.63650000  0.19610000  1.0 -0.3191676492
O  O118  1  0.70120000  0.69050000  0.12740000  1.0 -0.3895775094
O  O119  1  0.29680000  0.97250000  0.18840000  1.0 -0.480262068
O  O120  1  0.35610000  0.93350000  0.29100000  1.0 -0.4217173893
O  O121  1  0.12920000  0.83450000  0.38120000  1.0 -0.4974613153
O  O122  1  0.19650000  0.78640000  0.44740000  1.0 -0.2795450633
O  O123  1  0.14500000  0.83470000  0.52430000  1.0 -0.2995232282
O  O124  1  0.68730000  0.07160000  0.26000000  1.0 -0.4715056234
O  O125  1  0.61880000  0.12120000  0.29020000  1.0 -0.4715056234
O  O126  1  0.68500000  0.08850000  0.39610000  1.0 -0.4580663002
O  O127  1  0.98540000  0.77670000  0.29350000  1.0 -0.4217173893
O  O128  1  0.03870000  0.72310000  0.35650000  1.0 -0.480262068
O  O129  1  0.98630000  0.76710000  0.43030000  1.0 -0.3400885709
O  O130  1  0.54190000  0.01610000  0.16940000  1.0 -0.480262068
O  O131  1  0.46260000  0.05860000  0.20120000  1.0 -0.4098888401
O  O132  1  0.51820000  0.01290000  0.30050000  1.0 -0.3191676492
O  O133  1  0.84520000  0.70570000  0.30530000  1.0 -0.4715056234
O  O134  1  0.89990000  0.65370000  0.37340000  1.0 -0.3598653588
O  O135  1  0.82670000  0.69320000  0.43780000  1.0 -0.3774579524
O  O136  1  0.94810000  0.98410000  0.24630000  1.0 -0.2995232282
O  O137  1  0.01000000  0.01950000  0.19500000  1.0 -0.4280195126
O  O138  1  0.91550000  0.97380000  0.10060000  1.0 -0.4381539488
O  O139  1  0.52380000  0.76350000  0.25550000  1.0 -0.4512669076
O  O140  1  0.45050000  0.70350000  0.21260000  1.0 -0.5270393306
O  O141  1  0.49370000  0.71310000  0.12120000  1.0 -0.4512669076
O  O142  1  0.38490000  0.82840000  0.16480000  1.0 -0.480262068
O  O143  1  0.31820000  0.79110000  0.08490000  1.0 -0.3598653588
O  O144  1  0.37680000  0.84810000  0.02690000  1.0 -0.3774579524
O  O145  1  0.94150000  0.12070000  0.28010000  1.0 -0.5670514667
O  O146  1  0.85310000  0.09130000  0.17810000  1.0 -0.508901205
O  O147  1  0.87460000  0.07670000  0.31960000  1.0 -0.480262068
O  O148  1  0.38670000  0.93810000  0.16310000  1.0 -0.4715056234
O  O149  1  0.14860000  0.01970000  0.18160000  1.0 0.2112036288
O  O150  1  0.38580000  0.02440000  0.34880000  1.0 0.0875313839
O  O151  1  0.31490000  0.06350000  0.22820000  1.0 0.251903016
O  O152  1  0.21090000  0.06950000  0.29920000  1.0 -0.0502032684
O  O153  1  0.93450000  0.12550000  0.10370000  1.0 0.0875313839
O  O154  1  0.06570000  0.18000000  0.25970000  1.0 0.062414085
O  O155  1  0.93960000  0.22450000  0.26690000  1.0 0.0777835087
O  O156  1  0.80300000  0.19180000  0.13970000  1.0 -0.3895775094
O  O157  1  0.48890000  0.10490000  0.33130000  1.0 -0.0596120061
O  O158  1  0.60280000  0.15010000  0.46500000  1.0 -0.508901205
O  O159  1  0.71100000  0.19830000  0.39840000  1.0 0.0658501273
O  O160  1  0.01050000  0.43920000  0.14770000  1.0 -0.5553716832
O  O161  1  0.16280000  0.47240000  0.19200000  1.0 -0.5524524663
O  O162  1  0.16460000  0.37560000  0.24390000  1.0 -0.4901070062
O  O163  1  0.31230000  0.41220000  0.28260000  1.0 -0.4512669076
O  O164  1  0.29930000  0.30920000  0.23140000  1.0 -0.5201396459
O  O165  1  0.43250000  0.35800000  0.27580000  1.0 -0.4580663002
O  O166  1  0.75640000  0.47760000  0.14360000  1.0 -0.5201396459
O  O167  1  0.83590000  0.44170000  0.24370000  1.0 -0.480262068
O  O168  1  0.82000000  0.43520000  0.10180000  1.0 -0.4901070062
O  O169  1  0.33120000  0.19660000  0.24540000  1.0 -0.4098888401
O  O170  1  0.34300000  0.13650000  0.30390000  1.0 -0.3191676492
O  O171  1  0.29880000  0.19050000  0.37260000  1.0 -0.3895775094
O  O172  1  0.70320000  0.47250000  0.31160000  1.0 -0.4715056234
O  O173  1  0.64390000  0.43350000  0.20900000  1.0 -0.4217173893
O  O174  1  0.87080000  0.33450000  0.11880000  1.0 -0.4974613153
O  O175  1  0.80350000  0.28640000  0.05260000  1.0 -0.2795450633
O  O176  1  0.85500000  0.33470000  0.97570000  1.0 -0.2995232282
O  O177  1  0.31270000  0.57160000  0.24000000  1.0 -0.480262068
O  O178  1  0.38120000  0.62120000  0.20980000  1.0 -0.4715056234
O  O179  1  0.31500000  0.58850000  0.10390000  1.0 -0.4580663002
O  O180  1  0.01460000  0.27670000  0.20650000  1.0 -0.4217173893
O  O181  1  0.96130000  0.22310000  0.14350000  1.0 -0.480262068
O  O182  1  0.01370000  0.26710000  0.06970000  1.0 -0.3335658922
O  O183  1  0.45810000  0.51610000  0.33060000  1.0 -0.480262068
O  O184  1  0.53740000  0.55860000  0.29880000  1.0 -0.4098888401
O  O185  1  0.48180000  0.51290000  0.19950000  1.0 -0.3191676492
O  O186  1  0.15480000  0.20570000  0.19470000  1.0 -0.4715056234
O  O187  1  0.10010000  0.15370000  0.12660000  1.0 -0.3598653588
O  O188  1  0.17330000  0.19320000  0.06220000  1.0 -0.3688603221
O  O189  1  0.05190000  0.48410000  0.25370000  1.0 -0.2995232282
O  O190  1  0.99000000  0.51950000  0.30500000  1.0 -0.4217173893
O  O191  1  0.08450000  0.47380000  0.39940000  1.0 -0.4381539488
O  O192  1  0.47620000  0.26350000  0.24450000  1.0 -0.4512669076
O  O193  1  0.54950000  0.20350000  0.28740000  1.0 -0.5270393306
O  O194  1  0.50630000  0.21310000  0.37880000  1.0 -0.4512669076
O  O195  1  0.61510000  0.32840000  0.33520000  1.0 -0.480262068
O  O196  1  0.68180000  0.29110000  0.41510000  1.0 -0.3688603221
O  O197  1  0.62320000  0.34810000  0.47310000  1.0 -0.3774579524
O  O198  1  0.05850000  0.62070000  0.21990000  1.0 -0.5670514667
O  O199  1  0.14690000  0.59130000  0.32190000  1.0 -0.508901205
O  O200  1  0.12540000  0.57670000  0.18040000  1.0 -0.4901070062
O  O201  1  0.61330000  0.43810000  0.33690000  1.0 -0.480262068
O  O202  1  0.85140000  0.51970000  0.31840000  1.0 0.193234189
O  O203  1  0.61420000  0.52440000  0.15120000  1.0 0.0875313839
O  O204  1  0.68510000  0.56350000  0.27180000  1.0 0.251903016
O  O205  1  0.78910000  0.56950000  0.20080000  1.0 -0.0502032684
O  O206  1  0.06550000  0.62550000  0.39630000  1.0 0.1000290057
O  O207  1  0.93430000  0.68000000  0.24030000  1.0 0.0777835087
O  O208  1  0.06040000  0.72450000  0.23310000  1.0 0.0875313839
O  O209  1  0.19700000  0.69180000  0.36030000  1.0 -0.3895775094
O  O210  1  0.51110000  0.60490000  0.16870000  1.0 -0.0596120061
O  O211  1  0.39720000  0.65010000  0.03500000  1.0 -0.508901205
O  O212  1  0.28900000  0.69830000  0.10160000  1.0 0.062414085
