# DDEC6 charges by PACMAN v1.1 (https://github.com/mtap-research/PACMAN-charge/)
data_KOJZOZ_ASR_pacman
_symmetry_space_group_name_H-M   'P 1'
_cell_length_a   24.81560000
_cell_length_b   24.81560000
_cell_length_c   26.50770000
_cell_angle_alpha   71.78740000
_cell_angle_beta   108.21300000
_cell_angle_gamma   74.89830000
_symmetry_Int_Tables_number   1
_chemical_formula_structural   Cu6H43C115I20N5O24
_chemical_formula_sum   'Cu12 H86 C230 I40 N10 O48'
_cell_volume   13518.74197228
_cell_formula_units_Z   2
loop_
 _symmetry_equiv_pos_site_id
 _symmetry_equiv_pos_as_xyz
  1  'x, y, z'
loop_
 _atom_site_type_symbol
 _atom_site_label
 _atom_site_symmetry_multiplicity
 _atom_site_fract_x
 _atom_site_fract_y
 _atom_site_fract_z
 _atom_site_occupancy
 _atom_site_charge
Cu  Cu1  1  0.84118000  0.61196000  0.62683000  1.0 0.7795003478
Cu  Cu2  1  0.38803000  0.15882000  0.62683000  1.0 0.7795003478
Cu  Cu3  1  0.92576000  0.63336000  0.70021000  1.0 0.7658492897
Cu  Cu4  1  0.36664000  0.07424000  0.70021000  1.0 0.7658492897
Cu  Cu5  1  0.92514000  0.07486000  0.15228000  1.0 0.8602340791
Cu  Cu6  1  0.84339000  0.15661000  0.16526000  1.0 0.7856788907
Cu  Cu7  1  0.61196000  0.84118000  0.37317000  1.0 0.7795003478
Cu  Cu8  1  0.15882000  0.38803000  0.37317000  1.0 0.7795003478
Cu  Cu9  1  0.63336000  0.92576000  0.29979000  1.0 0.7658492897
Cu  Cu10  1  0.07424000  0.36664000  0.29979000  1.0 0.7658492897
Cu  Cu11  1  0.07486000  0.92514000  0.84772000  1.0 0.8602340791
Cu  Cu12  1  0.15661000  0.84339000  0.83474000  1.0 0.7856788907
H  H1  1  0.94950000  0.49870000  0.86490000  1.0 0.1477174501
H  H2  1  0.50130000  0.05050000  0.86490000  1.0 0.1477174501
H  H3  1  0.82110000  0.47170000  0.75250000  1.0 0.1477174501
H  H4  1  0.52830000  0.17890000  0.75250000  1.0 0.1477174501
H  H5  1  0.82740000  0.32300000  0.03530000  1.0 0.1408452664
H  H6  1  0.67700000  0.17260000  0.03530000  1.0 0.1408452664
H  H7  1  0.95160000  0.19860000  0.01770000  1.0 0.1477174501
H  H8  1  0.80140000  0.04840000  0.01770000  1.0 0.1477174501
H  H9  1  0.09230000  0.05870000  0.28110000  1.0 0.1477174501
H  H10  1  0.94130000  0.90770000  0.28110000  1.0 0.1408452664
H  H11  1  0.04890000  0.17690000  0.37850000  1.0 0.1301101388
H  H12  1  0.82310000  0.95110000  0.37850000  1.0 0.1301101388
H  H13  1  0.96940000  0.17780000  0.30420000  1.0 0.1301101388
H  H14  1  0.82220000  0.03060000  0.30420000  1.0 0.1301101388
H  H15  1  0.24270000  0.04210000  0.57170000  1.0 0.1301101388
H  H16  1  0.95790000  0.75730000  0.57170000  1.0 0.1301101388
H  H17  1  0.18090000  0.18590000  0.38230000  1.0 0.1301101388
H  H18  1  0.81410000  0.81910000  0.38230000  1.0 0.1301101388
H  H19  1  0.25190000  0.18890000  0.46090000  1.0 0.1408452664
H  H20  1  0.81110000  0.74810000  0.46090000  1.0 0.1408452664
H  H21  1  0.09320000  0.49240000  0.72730000  1.0 0.1408452664
H  H22  1  0.50760000  0.90680000  0.72730000  1.0 0.1408452664
H  H23  1  0.96530000  0.47010000  0.61190000  1.0 0.1562406991
H  H24  1  0.52990000  0.03470000  0.61190000  1.0 0.1562406991
H  H25  1  0.25060000  0.32220000  0.60360000  1.0 0.1408452664
H  H26  1  0.67780000  0.74940000  0.60360000  1.0 0.1408452664
H  H27  1  0.23460000  0.19740000  0.72700000  1.0 0.1408452664
H  H28  1  0.80260000  0.76540000  0.72700000  1.0 0.1408452664
H  H29  1  0.03750000  0.66890000  0.71070000  1.0 0.1234619144
H  H30  1  0.33110000  0.96250000  0.71070000  1.0 0.1234619144
H  H31  1  0.10120000  0.69860000  0.77220000  1.0 0.1408452664
H  H32  1  0.30140000  0.89880000  0.77220000  1.0 0.1408452664
H  H33  1  0.10460000  0.68020000  0.86440000  1.0 0.1408452664
H  H34  1  0.31980000  0.89540000  0.86440000  1.0 0.1408452664
H  H35  1  0.00610000  0.70110000  0.85690000  1.0 0.1477174501
H  H36  1  0.29890000  0.99390000  0.85690000  1.0 0.1477174501
H  H37  1  0.95390000  0.65450000  0.81100000  1.0 0.1234619144
H  H38  1  0.34550000  0.04610000  0.81100000  1.0 0.1234619144
H  H39  1  0.81640000  0.28160000  0.18090000  1.0 0.1088654659
H  H40  1  0.71840000  0.18360000  0.18090000  1.0 0.1088654659
H  H41  1  0.75580000  0.34660000  0.20690000  1.0 0.1301101388
H  H42  1  0.65340000  0.24420000  0.20690000  1.0 0.1301101388
H  H43  1  0.67010000  0.32990000  0.20940000  1.0 0.1408452664
H  H44  1  0.49870000  0.94950000  0.13510000  1.0 0.1477174501
H  H45  1  0.05050000  0.50130000  0.13510000  1.0 0.1477174501
H  H46  1  0.47170000  0.82110000  0.24750000  1.0 0.1477174501
H  H47  1  0.17890000  0.52830000  0.24750000  1.0 0.1477174501
H  H48  1  0.32300000  0.82740000  0.96470000  1.0 0.1408452664
H  H49  1  0.17260000  0.67700000  0.96470000  1.0 0.1408452664
H  H50  1  0.19860000  0.95160000  0.98230000  1.0 0.1477174501
H  H51  1  0.04840000  0.80140000  0.98230000  1.0 0.1477174501
H  H52  1  0.05870000  0.09230000  0.71890000  1.0 0.1477174501
H  H53  1  0.90770000  0.94130000  0.71890000  1.0 0.1408452664
H  H54  1  0.17690000  0.04890000  0.62150000  1.0 0.1301101388
H  H55  1  0.95110000  0.82310000  0.62150000  1.0 0.1301101388
H  H56  1  0.17780000  0.96940000  0.69580000  1.0 0.1301101388
H  H57  1  0.03060000  0.82220000  0.69580000  1.0 0.1301101388
H  H58  1  0.04210000  0.24270000  0.42830000  1.0 0.1301101388
H  H59  1  0.75730000  0.95790000  0.42830000  1.0 0.1301101388
H  H60  1  0.18590000  0.18090000  0.61770000  1.0 0.1301101388
H  H61  1  0.81910000  0.81410000  0.61770000  1.0 0.1301101388
H  H62  1  0.18890000  0.25190000  0.53910000  1.0 0.1408452664
H  H63  1  0.74810000  0.81110000  0.53910000  1.0 0.1408452664
H  H64  1  0.49240000  0.09320000  0.27270000  1.0 0.1408452664
H  H65  1  0.90680000  0.50760000  0.27270000  1.0 0.1408452664
H  H66  1  0.47010000  0.96530000  0.38810000  1.0 0.1562406991
H  H67  1  0.03470000  0.52990000  0.38810000  1.0 0.1562406991
H  H68  1  0.32220000  0.25060000  0.39640000  1.0 0.1408452664
H  H69  1  0.74940000  0.67780000  0.39640000  1.0 0.1408452664
H  H70  1  0.19740000  0.23460000  0.27300000  1.0 0.1408452664
H  H71  1  0.76540000  0.80260000  0.27300000  1.0 0.1408452664
H  H72  1  0.66890000  0.03750000  0.28930000  1.0 0.1234619144
H  H73  1  0.96250000  0.33110000  0.28930000  1.0 0.1234619144
H  H74  1  0.69860000  0.10120000  0.22780000  1.0 0.1408452664
H  H75  1  0.89880000  0.30140000  0.22780000  1.0 0.1408452664
H  H76  1  0.68020000  0.10460000  0.13560000  1.0 0.1408452664
H  H77  1  0.89540000  0.31980000  0.13560000  1.0 0.1408452664
H  H78  1  0.70110000  0.00610000  0.14310000  1.0 0.1477174501
H  H79  1  0.99390000  0.29890000  0.14310000  1.0 0.1477174501
H  H80  1  0.65450000  0.95390000  0.18900000  1.0 0.1234619144
H  H81  1  0.04610000  0.34550000  0.18900000  1.0 0.1234619144
H  H82  1  0.28160000  0.81640000  0.81910000  1.0 0.1020358824
H  H83  1  0.18360000  0.71840000  0.81910000  1.0 0.1020358824
H  H84  1  0.34660000  0.75580000  0.79310000  1.0 0.1301101388
H  H85  1  0.24420000  0.65340000  0.79310000  1.0 0.1301101388
H  H86  1  0.32990000  0.67010000  0.79060000  1.0 0.1301101388
C  C1  1  0.88488000  0.49228000  0.80070000  1.0 0.0181682234
C  C2  1  0.50772000  0.11512000  0.80070000  1.0 0.0181682234
C  C3  1  0.92393000  0.47733000  0.85780000  1.0 -0.1276457117
C  C4  1  0.52267000  0.07607000  0.85780000  1.0 -0.1276457117
C  C5  1  0.92562000  0.43162000  0.90410000  1.0 0.0100104679
C  C6  1  0.56838000  0.07438000  0.90410000  1.0 0.0100104679
C  C7  1  0.88748000  0.39988000  0.89420000  1.0 -0.0019233095
C  C8  1  0.60012000  0.11252000  0.89420000  1.0 -0.0019233095
C  C9  1  0.84767000  0.41627000  0.83730000  1.0 -0.019708445
C  C10  1  0.58373000  0.15233000  0.83730000  1.0 -0.019708445
C  C11  1  0.84754000  0.46174000  0.79120000  1.0 -0.1276457117
C  C12  1  0.53826000  0.15246000  0.79120000  1.0 -0.1276457117
C  C13  1  0.88445000  0.54163000  0.74960000  1.0 0.5701920885
C  C14  1  0.45837000  0.11555000  0.74960000  1.0 0.5701920885
C  C15  1  0.88919000  0.25419000  0.03367000  1.0 0.0100104679
C  C16  1  0.74581000  0.11081000  0.03367000  1.0 0.0100104679
C  C17  1  0.85269000  0.31429000  0.01660000  1.0 -0.1485609588
C  C18  1  0.68571000  0.14731000  0.01660000  1.0 -0.1485609588
C  C19  1  0.85204000  0.36244000  0.97250000  1.0 -0.0019233095
C  C20  1  0.63756000  0.14796000  0.97250000  1.0 -0.010187972
C  C21  1  0.88848000  0.34868000  0.94410000  1.0 0.0100104679
C  C22  1  0.65132000  0.11152000  0.94410000  1.0 0.003053088
C  C23  1  0.92442000  0.28762000  0.96070000  1.0 -0.0397417674
C  C24  1  0.71238000  0.07558000  0.96070000  1.0 -0.0397417674
C  C25  1  0.92617000  0.23977000  0.00600000  1.0 -0.1199268137
C  C26  1  0.76023000  0.07383000  0.00600000  1.0 -0.1276457117
C  C27  1  0.88761000  0.20221000  0.08113000  1.0 0.5762699518
C  C28  1  0.79779000  0.11239000  0.08113000  1.0 0.5762699518
C  C29  1  0.02318000  0.11838000  0.28446000  1.0 -0.010187972
C  C30  1  0.88162000  0.97682000  0.28446000  1.0 -0.010187972
C  C31  1  0.08299000  0.08259000  0.30100000  1.0 -0.1199268137
C  C32  1  0.91741000  0.91701000  0.30100000  1.0 -0.1199268137
C  C33  1  0.13086000  0.08106000  0.34730000  1.0 0.0100104679
C  C34  1  0.91894000  0.86914000  0.34730000  1.0 0.003053088
C  C35  1  0.11942000  0.11496000  0.37764000  1.0 0.0485283138
C  C36  1  0.88504000  0.88058000  0.37764000  1.0 0.0485283138
C  C37  1  0.05812000  0.15192000  0.35940000  1.0 -0.1400330777
C  C38  1  0.84808000  0.94188000  0.35940000  1.0 -0.1400330777
C  C39  1  0.01049000  0.15329000  0.31450000  1.0 -0.0904753085
C  C40  1  0.84671000  0.98951000  0.31450000  1.0 -0.0904753085
C  C41  1  0.97104000  0.11824000  0.23680000  1.0 0.5762699518
C  C42  1  0.88176000  0.02896000  0.23680000  1.0 0.5762699518
C  C43  1  0.25473000  0.11509000  0.52414000  1.0 0.003053088
C  C44  1  0.88491000  0.74527000  0.52414000  1.0 0.003053088
C  C45  1  0.23034000  0.07120000  0.53326000  1.0 -0.1400330777
C  C46  1  0.92880000  0.76966000  0.53326000  1.0 -0.1400330777
C  C47  1  0.18700000  0.06962000  0.48546000  1.0 0.0181682234
C  C48  1  0.93038000  0.81300000  0.48546000  1.0 0.0181682234
C  C49  1  0.16792000  0.11296000  0.42862000  1.0 0.039415288
C  C50  1  0.88704000  0.83208000  0.42862000  1.0 0.039415288
C  C51  1  0.19308000  0.15660000  0.42063000  1.0 -0.1117125552
C  C52  1  0.84340000  0.80692000  0.42063000  1.0 -0.1117125552
C  C53  1  0.23576000  0.15842000  0.46741000  1.0 -0.0904753085
C  C54  1  0.84158000  0.76424000  0.46741000  1.0 -0.0904753085
C  C55  1  0.29960000  0.11690000  0.57584000  1.0 0.5616102044
C  C56  1  0.88310000  0.70040000  0.57584000  1.0 0.5616102044
C  C57  1  0.02180000  0.49062000  0.66820000  1.0 0.0100104679
C  C58  1  0.50938000  0.97820000  0.66820000  1.0 0.0100104679
C  C59  1  0.08207000  0.47327000  0.70240000  1.0 -0.1400330777
C  C60  1  0.52673000  0.91793000  0.70240000  1.0 -0.1400330777
C  C61  1  0.12746000  0.42846000  0.70170000  1.0 -0.019708445
C  C62  1  0.57154000  0.87254000  0.70170000  1.0 -0.019708445
C  C63  1  0.11399000  0.39699000  0.66940000  1.0 -0.0019233095
C  C64  1  0.60301000  0.88601000  0.66940000  1.0 -0.0019233095
C  C65  1  0.05170000  0.41130000  0.63810000  1.0 -0.010187972
C  C66  1  0.58870000  0.94830000  0.63810000  1.0 -0.010187972
C  C67  1  0.00701000  0.45901000  0.63600000  1.0 -0.1199268137
C  C68  1  0.54099000  0.99299000  0.63600000  1.0 -0.1199268137
C  C69  1  0.97173000  0.54105000  0.66770000  1.0 0.5701920885
C  C70  1  0.45895000  0.02827000  0.66770000  1.0 0.5701920885
C  C71  1  0.24900000  0.25308000  0.66530000  1.0 0.0295484375
C  C72  1  0.74692000  0.75100000  0.66530000  1.0 0.0295484375
C  C73  1  0.23188000  0.31248000  0.62910000  1.0 -0.1276457117
C  C74  1  0.68752000  0.76812000  0.62910000  1.0 -0.1276457117
C  C75  1  0.18660000  0.36000000  0.62910000  1.0 -0.010187972
C  C76  1  0.64000000  0.81340000  0.62910000  1.0 -0.010187972
C  C77  1  0.16155000  0.34675000  0.66870000  1.0 0.0100104679
C  C78  1  0.65325000  0.83845000  0.66870000  1.0 0.0100104679
C  C79  1  0.17970000  0.28530000  0.70540000  1.0 0.0100104679
C  C80  1  0.71470000  0.82030000  0.70540000  1.0 0.0100104679
C  C81  1  0.22324000  0.23904000  0.70250000  1.0 -0.1400330777
C  C82  1  0.76096000  0.77676000  0.70250000  1.0 -0.1400330777
C  C83  1  0.29677000  0.20163000  0.66400000  1.0 0.5616102044
C  C84  1  0.79837000  0.70323000  0.66400000  1.0 0.5616102044
C  C85  1  0.75590000  0.55050000  0.58460000  1.0 -0.0397417674
C  C86  1  0.44950000  0.24410000  0.58460000  1.0 -0.0397417674
C  C87  1  0.71820000  0.52800000  0.55710000  1.0 -0.0989507742
C  C88  1  0.47200000  0.28180000  0.55710000  1.0 -0.0989507742
C  C89  1  0.71910000  0.53530000  0.50330000  1.0 0.0637779427
C  C90  1  0.46470000  0.28090000  0.50330000  1.0 0.0688455879
C  C91  1  0.75980000  0.56080000  0.48860000  1.0 -0.010187972
C  C92  1  0.43920000  0.24020000  0.48860000  1.0 -0.010187972
C  C93  1  0.79180000  0.58520000  0.52340000  1.0 0.039415288
C  C94  1  0.41480000  0.20820000  0.52340000  1.0 0.039415288
C  C95  1  0.03300000  0.66980000  0.74440000  1.0 0.0637779427
C  C96  1  0.33020000  0.96700000  0.74440000  1.0 0.0637779427
C  C97  1  0.07250000  0.68550000  0.78280000  1.0 -0.1485609588
C  C98  1  0.31450000  0.92750000  0.78280000  1.0 -0.1485609588
C  C99  1  0.07140000  0.68300000  0.83300000  1.0 -0.0473694017
C  C100  1  0.31700000  0.92860000  0.83300000  1.0 -0.0473694017
C  C101  1  0.01990000  0.68490000  0.83340000  1.0 -0.1692926165
C  C102  1  0.31510000  0.98010000  0.83340000  1.0 -0.1692926165
C  C103  1  0.98420000  0.66400000  0.80040000  1.0 0.1020358824
C  C104  1  0.33600000  0.01580000  0.80040000  1.0 0.1020358824
C  C105  1  0.78310000  0.27290000  0.18570000  1.0 0.039415288
C  C106  1  0.72710000  0.21690000  0.18570000  1.0 0.039415288
C  C107  1  0.74700000  0.31420000  0.20030000  1.0 -0.1400330777
C  C108  1  0.68580000  0.25300000  0.20030000  1.0 -0.1400330777
C  C109  1  0.69850000  0.30150000  0.20390000  1.0 -0.0790216561
C  C110  1  0.69740000  0.56260000  0.49760000  1.0 0.1088654659
C  C111  1  0.43740000  0.30260000  0.49760000  1.0 0.1088654659
C  C112  1  0.69730000  0.62250000  0.47750000  1.0 -0.0790216561
C  C113  1  0.37750000  0.30270000  0.47750000  1.0 -0.0790216561
C  C114  1  0.73950000  0.63550000  0.51620000  1.0 0.0485283138
C  C115  1  0.36450000  0.26050000  0.51620000  1.0 0.0485283138
C  C116  1  0.49228000  0.88488000  0.19930000  1.0 0.0100104679
C  C117  1  0.11512000  0.50772000  0.19930000  1.0 0.0100104679
C  C118  1  0.47733000  0.92393000  0.14220000  1.0 -0.1276457117
C  C119  1  0.07607000  0.52267000  0.14220000  1.0 -0.1276457117
C  C120  1  0.43162000  0.92562000  0.09590000  1.0 0.0100104679
C  C121  1  0.07438000  0.56838000  0.09590000  1.0 0.0100104679
C  C122  1  0.39988000  0.88748000  0.10580000  1.0 -0.0019233095
C  C123  1  0.11252000  0.60012000  0.10580000  1.0 -0.0019233095
C  C124  1  0.41627000  0.84767000  0.16270000  1.0 -0.019708445
C  C125  1  0.15233000  0.58373000  0.16270000  1.0 -0.019708445
C  C126  1  0.46174000  0.84754000  0.20880000  1.0 -0.1276457117
C  C127  1  0.15246000  0.53826000  0.20880000  1.0 -0.1276457117
C  C128  1  0.54163000  0.88445000  0.25040000  1.0 0.5701920885
C  C129  1  0.11555000  0.45837000  0.25040000  1.0 0.5701920885
C  C130  1  0.25419000  0.88919000  0.96633000  1.0 0.0100104679
C  C131  1  0.11081000  0.74581000  0.96633000  1.0 0.0100104679
C  C132  1  0.31429000  0.85269000  0.98340000  1.0 -0.1400330777
C  C133  1  0.14731000  0.68571000  0.98340000  1.0 -0.1400330777
C  C134  1  0.36244000  0.85204000  0.02750000  1.0 -0.0019233095
C  C135  1  0.14796000  0.63756000  0.02750000  1.0 -0.0019233095
C  C136  1  0.34868000  0.88848000  0.05590000  1.0 0.0100104679
C  C137  1  0.11152000  0.65132000  0.05590000  1.0 0.003053088
C  C138  1  0.28762000  0.92442000  0.03930000  1.0 -0.0397417674
C  C139  1  0.07558000  0.71238000  0.03930000  1.0 -0.0397417674
C  C140  1  0.23977000  0.92617000  0.99400000  1.0 -0.1276457117
C  C141  1  0.07383000  0.76023000  0.99400000  1.0 -0.1276457117
C  C142  1  0.20221000  0.88761000  0.91887000  1.0 0.5762699518
C  C143  1  0.11239000  0.79779000  0.91887000  1.0 0.5762699518
C  C144  1  0.11838000  0.02318000  0.71554000  1.0 -0.010187972
C  C145  1  0.97682000  0.88162000  0.71554000  1.0 -0.010187972
C  C146  1  0.08259000  0.08299000  0.69900000  1.0 -0.1199268137
C  C147  1  0.91701000  0.91741000  0.69900000  1.0 -0.1199268137
C  C148  1  0.08106000  0.13086000  0.65270000  1.0 0.0100104679
C  C149  1  0.86914000  0.91894000  0.65270000  1.0 0.0100104679
C  C150  1  0.11496000  0.11942000  0.62236000  1.0 0.0485283138
C  C151  1  0.88058000  0.88504000  0.62236000  1.0 0.0485283138
C  C152  1  0.15192000  0.05812000  0.64060000  1.0 -0.1400330777
C  C153  1  0.94188000  0.84808000  0.64060000  1.0 -0.1400330777
C  C154  1  0.15329000  0.01049000  0.68550000  1.0 -0.0904753085
C  C155  1  0.98951000  0.84671000  0.68550000  1.0 -0.0904753085
C  C156  1  0.11824000  0.97104000  0.76320000  1.0 0.5762699518
C  C157  1  0.02896000  0.88176000  0.76320000  1.0 0.5762699518
C  C158  1  0.11509000  0.25473000  0.47586000  1.0 0.003053088
C  C159  1  0.74527000  0.88491000  0.47586000  1.0 0.003053088
C  C160  1  0.07120000  0.23034000  0.46674000  1.0 -0.1400330777
C  C161  1  0.76966000  0.92880000  0.46674000  1.0 -0.1400330777
C  C162  1  0.06962000  0.18700000  0.51454000  1.0 0.0181682234
C  C163  1  0.81300000  0.93038000  0.51454000  1.0 0.0181682234
C  C164  1  0.11296000  0.16792000  0.57138000  1.0 0.039415288
C  C165  1  0.83208000  0.88704000  0.57138000  1.0 0.039415288
C  C166  1  0.15660000  0.19308000  0.57937000  1.0 -0.1117125552
C  C167  1  0.80692000  0.84340000  0.57937000  1.0 -0.1117125552
C  C168  1  0.15842000  0.23576000  0.53259000  1.0 -0.0904753085
C  C169  1  0.76424000  0.84158000  0.53259000  1.0 -0.0904753085
C  C170  1  0.11690000  0.29960000  0.42416000  1.0 0.5616102044
C  C171  1  0.70040000  0.88310000  0.42416000  1.0 0.5616102044
C  C172  1  0.49062000  0.02180000  0.33180000  1.0 0.0100104679
C  C173  1  0.97820000  0.50938000  0.33180000  1.0 0.0100104679
C  C174  1  0.47327000  0.08207000  0.29760000  1.0 -0.1400330777
C  C175  1  0.91793000  0.52673000  0.29760000  1.0 -0.1400330777
C  C176  1  0.42846000  0.12746000  0.29830000  1.0 -0.019708445
C  C177  1  0.87254000  0.57154000  0.29830000  1.0 -0.010187972
C  C178  1  0.39699000  0.11399000  0.33060000  1.0 -0.0019233095
C  C179  1  0.88601000  0.60301000  0.33060000  1.0 -0.0019233095
C  C180  1  0.41130000  0.05170000  0.36190000  1.0 -0.010187972
C  C181  1  0.94830000  0.58870000  0.36190000  1.0 -0.010187972
C  C182  1  0.45901000  0.00701000  0.36400000  1.0 -0.1199268137
C  C183  1  0.99299000  0.54099000  0.36400000  1.0 -0.1199268137
C  C184  1  0.54105000  0.97173000  0.33230000  1.0 0.5701920885
C  C185  1  0.02827000  0.45895000  0.33230000  1.0 0.5701920885
C  C186  1  0.25308000  0.24900000  0.33470000  1.0 0.0295484375
C  C187  1  0.75100000  0.74692000  0.33470000  1.0 0.0295484375
C  C188  1  0.31248000  0.23188000  0.37090000  1.0 -0.1276457117
C  C189  1  0.76812000  0.68752000  0.37090000  1.0 -0.1276457117
C  C190  1  0.36000000  0.18660000  0.37090000  1.0 -0.010187972
C  C191  1  0.81340000  0.64000000  0.37090000  1.0 -0.010187972
C  C192  1  0.34675000  0.16155000  0.33130000  1.0 0.0100104679
C  C193  1  0.83845000  0.65325000  0.33130000  1.0 0.0100104679
C  C194  1  0.28530000  0.17970000  0.29460000  1.0 0.0100104679
C  C195  1  0.82030000  0.71470000  0.29460000  1.0 0.003053088
C  C196  1  0.23904000  0.22324000  0.29750000  1.0 -0.1400330777
C  C197  1  0.77676000  0.76096000  0.29750000  1.0 -0.1400330777
C  C198  1  0.20163000  0.29677000  0.33600000  1.0 0.5616102044
C  C199  1  0.70323000  0.79837000  0.33600000  1.0 0.5616102044
C  C200  1  0.55050000  0.75590000  0.41540000  1.0 -0.0397417674
C  C201  1  0.24410000  0.44950000  0.41540000  1.0 -0.0397417674
C  C202  1  0.52800000  0.71820000  0.44290000  1.0 -0.0989507742
C  C203  1  0.28180000  0.47200000  0.44290000  1.0 -0.0989507742
C  C204  1  0.53530000  0.71910000  0.49670000  1.0 0.0637779427
C  C205  1  0.28090000  0.46470000  0.49670000  1.0 0.0688455879
C  C206  1  0.56080000  0.75980000  0.51140000  1.0 -0.010187972
C  C207  1  0.24020000  0.43920000  0.51140000  1.0 -0.010187972
C  C208  1  0.58520000  0.79180000  0.47660000  1.0 0.039415288
C  C209  1  0.20820000  0.41480000  0.47660000  1.0 0.039415288
C  C210  1  0.66980000  0.03300000  0.25560000  1.0 0.0637779427
C  C211  1  0.96700000  0.33020000  0.25560000  1.0 0.0637779427
C  C212  1  0.68550000  0.07250000  0.21720000  1.0 -0.1485609588
C  C213  1  0.92750000  0.31450000  0.21720000  1.0 -0.1485609588
C  C214  1  0.68300000  0.07140000  0.16700000  1.0 -0.0473694017
C  C215  1  0.92860000  0.31700000  0.16700000  1.0 -0.0473694017
C  C216  1  0.68490000  0.01990000  0.16660000  1.0 -0.1692926165
C  C217  1  0.98010000  0.31510000  0.16660000  1.0 -0.1692926165
C  C218  1  0.66400000  0.98420000  0.19960000  1.0 0.1020358824
C  C219  1  0.01580000  0.33600000  0.19960000  1.0 0.1020358824
C  C220  1  0.27290000  0.78310000  0.81430000  1.0 0.039415288
C  C221  1  0.21690000  0.72710000  0.81430000  1.0 0.039415288
C  C222  1  0.31420000  0.74700000  0.79970000  1.0 -0.1400330777
C  C223  1  0.25300000  0.68580000  0.79970000  1.0 -0.1400330777
C  C224  1  0.30150000  0.69850000  0.79610000  1.0 -0.0790216561
C  C225  1  0.56260000  0.69740000  0.50240000  1.0 0.1088654659
C  C226  1  0.30260000  0.43740000  0.50240000  1.0 0.1088654659
C  C227  1  0.62250000  0.69730000  0.52250000  1.0 -0.0790216561
C  C228  1  0.30270000  0.37750000  0.52250000  1.0 -0.0790216561
C  C229  1  0.63550000  0.73950000  0.48380000  1.0 0.0485283138
C  C230  1  0.26050000  0.36450000  0.48380000  1.0 0.0485283138
I  I1  1  0.98853000  0.40929000  0.98953000  1.0 -0.0790216561
I  I2  1  0.59071000  0.01147000  0.98953000  1.0 -0.0790216561
I  I3  1  0.98098000  0.25728000  0.91656000  1.0 -0.010187972
I  I4  1  0.74272000  0.01902000  0.91656000  1.0 -0.0019233095
I  I5  1  0.22146000  0.02624000  0.36844000  1.0 -0.010187972
I  I6  1  0.97376000  0.77854000  0.36844000  1.0 -0.010187972
I  I7  1  0.15215000  0.00147000  0.50230000  1.0 -0.010187972
I  I8  1  0.99853000  0.84785000  0.50230000  1.0 -0.019708445
I  I9  1  0.22020000  0.40826000  0.75430000  1.0 0.003053088
I  I10  1  0.59174000  0.77980000  0.75430000  1.0 0.003053088
I  I11  1  0.14680000  0.25588000  0.77245000  1.0 -0.0282272015
I  I12  1  0.74412000  0.85320000  0.77245000  1.0 -0.0282272015
I  I13  1  0.78540000  0.37160000  0.81220000  1.0 -0.010187972
I  I14  1  0.62840000  0.21460000  0.81220000  1.0 -0.010187972
I  I15  1  0.78784000  0.45522000  0.94796000  1.0 -0.019708445
I  I16  1  0.54478000  0.21216000  0.94796000  1.0 -0.019708445
I  I17  1  0.02531000  0.39607000  0.55110000  1.0 -0.2584330466
I  I18  1  0.60393000  0.97469000  0.55110000  1.0 -0.2494551565
I  I19  1  0.15721000  0.45451000  0.55918000  1.0 0.003053088
I  I20  1  0.54549000  0.84279000  0.55918000  1.0 -0.0019233095
I  I21  1  0.40929000  0.98853000  0.01047000  1.0 -0.0790216561
I  I22  1  0.01147000  0.59071000  0.01047000  1.0 -0.0790216561
I  I23  1  0.25728000  0.98098000  0.08344000  1.0 -0.010187972
I  I24  1  0.01902000  0.74272000  0.08344000  1.0 -0.0019233095
I  I25  1  0.02624000  0.22146000  0.63156000  1.0 -0.010187972
I  I26  1  0.77854000  0.97376000  0.63156000  1.0 -0.010187972
I  I27  1  0.00147000  0.15215000  0.49770000  1.0 -0.010187972
I  I28  1  0.84785000  0.99853000  0.49770000  1.0 -0.010187972
I  I29  1  0.40826000  0.22020000  0.24570000  1.0 0.003053088
I  I30  1  0.77980000  0.59174000  0.24570000  1.0 0.003053088
I  I31  1  0.25588000  0.14680000  0.22755000  1.0 -0.0282272015
I  I32  1  0.85320000  0.74412000  0.22755000  1.0 -0.0282272015
I  I33  1  0.37160000  0.78540000  0.18780000  1.0 -0.010187972
I  I34  1  0.21460000  0.62840000  0.18780000  1.0 -0.019708445
I  I35  1  0.45522000  0.78784000  0.05204000  1.0 -0.019708445
I  I36  1  0.21216000  0.54478000  0.05204000  1.0 -0.019708445
I  I37  1  0.39607000  0.02531000  0.44890000  1.0 -0.2584330466
I  I38  1  0.97469000  0.60393000  0.44890000  1.0 -0.2584330466
I  I39  1  0.45451000  0.15721000  0.44082000  1.0 -0.0019233095
I  I40  1  0.84279000  0.54549000  0.44082000  1.0 0.003053088
N  N1  1  0.78009000  0.58775000  0.57012000  1.0 -0.061686185
N  N2  1  0.41225000  0.21991000  0.57012000  1.0 -0.061686185
N  N3  1  0.98843000  0.65607000  0.75729000  1.0 -0.2120966788
N  N4  1  0.34393000  0.01157000  0.75729000  1.0 -0.2120966788
N  N5  1  0.77800000  0.22200000  0.17720000  1.0 -0.2689565595
N  N6  1  0.58775000  0.78009000  0.42988000  1.0 -0.061686185
N  N7  1  0.21991000  0.41225000  0.42988000  1.0 -0.061686185
N  N8  1  0.65607000  0.98843000  0.24271000  1.0 -0.2120966788
N  N9  1  0.01157000  0.34393000  0.24271000  1.0 -0.2120966788
N  N10  1  0.22200000  0.77800000  0.82280000  1.0 -0.2689565595
O  O1  1  0.84739000  0.55305000  0.69962000  1.0 -0.4815499436
O  O2  1  0.44695000  0.15261000  0.69962000  1.0 -0.4815499436
O  O3  1  0.91955000  0.56873000  0.76117000  1.0 -0.5079494257
O  O4  1  0.43127000  0.08045000  0.76117000  1.0 -0.5079494257
O  O5  1  0.85252000  0.21770000  0.10401000  1.0 -0.4969641394
O  O6  1  0.78230000  0.14748000  0.10401000  1.0 -0.4969641394
O  O7  1  0.92104000  0.14886000  0.09331000  1.0 -0.4923925947
O  O8  1  0.85114000  0.07896000  0.09331000  1.0 -0.4923925947
O  O9  1  0.98595000  0.08373000  0.21351000  1.0 -0.4969641394
O  O10  1  0.91627000  0.01405000  0.21351000  1.0 -0.4969641394
O  O11  1  0.91694000  0.15312000  0.22398000  1.0 -0.5079494257
O  O12  1  0.84688000  0.08306000  0.22398000  1.0 -0.5079494257
O  O13  1  0.30822000  0.08234000  0.62553000  1.0 -0.5079494257
O  O14  1  0.91766000  0.69178000  0.62553000  1.0 -0.5079494257
O  O15  1  0.32515000  0.15383000  0.56459000  1.0 -0.4923925947
O  O16  1  0.84617000  0.67485000  0.56459000  1.0 -0.4923925947
O  O17  1  0.91736000  0.55076000  0.63648000  1.0 -0.4969641394
O  O18  1  0.44924000  0.08264000  0.63648000  1.0 -0.4969641394
O  O19  1  0.98754000  0.56778000  0.69747000  1.0 -0.4726583835
O  O20  1  0.43222000  0.01246000  0.69747000  1.0 -0.4726583835
O  O21  1  0.30637000  0.14727000  0.69435000  1.0 -0.5079494257
O  O22  1  0.85273000  0.69363000  0.69435000  1.0 -0.5079494257
O  O23  1  0.32215000  0.21901000  0.63149000  1.0 -0.4923925947
O  O24  1  0.78099000  0.67785000  0.63149000  1.0 -0.4923925947
O  O25  1  0.55305000  0.84739000  0.30038000  1.0 -0.4815499436
O  O26  1  0.15261000  0.44695000  0.30038000  1.0 -0.4815499436
O  O27  1  0.56873000  0.91955000  0.23883000  1.0 -0.5079494257
O  O28  1  0.08045000  0.43127000  0.23883000  1.0 -0.5079494257
O  O29  1  0.21770000  0.85252000  0.89599000  1.0 -0.4969641394
O  O30  1  0.14748000  0.78230000  0.89599000  1.0 -0.4969641394
O  O31  1  0.14886000  0.92104000  0.90669000  1.0 -0.4923925947
O  O32  1  0.07896000  0.85114000  0.90669000  1.0 -0.4923925947
O  O33  1  0.08373000  0.98595000  0.78649000  1.0 -0.4969641394
O  O34  1  0.01405000  0.91627000  0.78649000  1.0 -0.4969641394
O  O35  1  0.15312000  0.91694000  0.77602000  1.0 -0.5079494257
O  O36  1  0.08306000  0.84688000  0.77602000  1.0 -0.5079494257
O  O37  1  0.08234000  0.30822000  0.37447000  1.0 -0.5079494257
O  O38  1  0.69178000  0.91766000  0.37447000  1.0 -0.5079494257
O  O39  1  0.15383000  0.32515000  0.43541000  1.0 -0.4923925947
O  O40  1  0.67485000  0.84617000  0.43541000  1.0 -0.4923925947
O  O41  1  0.55076000  0.91736000  0.36352000  1.0 -0.4969641394
O  O42  1  0.08264000  0.44924000  0.36352000  1.0 -0.4969641394
O  O43  1  0.56778000  0.98754000  0.30253000  1.0 -0.4726583835
O  O44  1  0.01246000  0.43222000  0.30253000  1.0 -0.4726583835
O  O45  1  0.14727000  0.30637000  0.30565000  1.0 -0.5079494257
O  O46  1  0.69363000  0.85273000  0.30565000  1.0 -0.5079494257
O  O47  1  0.21901000  0.32215000  0.36851000  1.0 -0.4923925947
O  O48  1  0.67785000  0.78099000  0.36851000  1.0 -0.4923925947
