# DDEC6 charges by PACMAN v1.1 (https://github.com/mtap-research/PACMAN-charge/)
data_KOKDEU_FSR_pacman
_symmetry_space_group_name_H-M   'P 1'
_cell_length_a   14.97230000
_cell_length_b   14.97230000
_cell_length_c   40.85700000
_cell_angle_alpha   86.67660000
_cell_angle_beta   93.32340000
_cell_angle_gamma   62.70570000
_symmetry_Int_Tables_number   1
_chemical_formula_structural   Cu17H108(C79N25)2
_chemical_formula_sum   'Cu34 H216 C316 N100'
_cell_volume   8088.50010775
_cell_formula_units_Z   2
loop_
 _symmetry_equiv_pos_site_id
 _symmetry_equiv_pos_as_xyz
  1  'x, y, z'
loop_
 _atom_site_type_symbol
 _atom_site_label
 _atom_site_symmetry_multiplicity
 _atom_site_fract_x
 _atom_site_fract_y
 _atom_site_fract_z
 _atom_site_occupancy
 _atom_site_charge
Cu  Cu1  1  0.63610000  0.12764000  0.82891000  1.0 0.2096286243
Cu  Cu2  1  0.12764000  0.63610000  0.67109000  1.0 0.2096286243
Cu  Cu3  1  0.36390000  0.87236000  0.17109000  1.0 0.2096286243
Cu  Cu4  1  0.87236000  0.36390000  0.32891000  1.0 0.2096286243
Cu  Cu5  1  0.80010000  0.92802000  0.91089000  1.0 0.2032592346
Cu  Cu6  1  0.92802000  0.80010000  0.58911000  1.0 0.2032592346
Cu  Cu7  1  0.19990000  0.07198000  0.08911000  1.0 0.2032592346
Cu  Cu8  1  0.07198000  0.19990000  0.41089000  1.0 0.2032592346
Cu  Cu9  1  0.84277000  0.96775000  0.84332000  1.0 0.2393818343
Cu  Cu10  1  0.96775000  0.84277000  0.65668000  1.0 0.2393818343
Cu  Cu11  1  0.15723000  0.03225000  0.15668000  1.0 0.2393818343
Cu  Cu12  1  0.03225000  0.15723000  0.34332000  1.0 0.2393818343
Cu  Cu13  1  0.61030000  0.96114000  0.86916000  1.0 0.268850187
Cu  Cu14  1  0.96114000  0.61030000  0.63084000  1.0 0.268850187
Cu  Cu15  1  0.38970000  0.03886000  0.13084000  1.0 0.268850187
Cu  Cu16  1  0.03886000  0.38970000  0.36916000  1.0 0.268850187
Cu  Cu17  1  0.66028000  0.16330000  0.90327000  1.0 0.268850187
Cu  Cu18  1  0.16330000  0.66028000  0.59673000  1.0 0.2755354817
Cu  Cu19  1  0.33972000  0.83670000  0.09673000  1.0 0.2755354817
Cu  Cu20  1  0.83670000  0.33972000  0.40327000  1.0 0.2755354817
Cu  Cu21  1  0.14894000  0.14894000  0.75000000  1.0 0.167785056
Cu  Cu22  1  0.85106000  0.85106000  0.25000000  1.0 0.167785056
Cu  Cu23  1  0.30482000  0.71856000  0.83052000  1.0 0.2393818343
Cu  Cu24  1  0.71856000  0.30482000  0.66948000  1.0 0.2393818343
Cu  Cu25  1  0.69518000  0.28144000  0.16948000  1.0 0.2393818343
Cu  Cu26  1  0.28144000  0.69518000  0.33052000  1.0 0.2393818343
Cu  Cu27  1  0.74546000  0.49912000  0.00605000  1.0 0.167785056
Cu  Cu28  1  0.49912000  0.74546000  0.49395000  1.0 0.167785056
Cu  Cu29  1  0.25454000  0.50088000  0.99395000  1.0 0.167785056
Cu  Cu30  1  0.50088000  0.25454000  0.50605000  1.0 0.167785056
Cu  Cu31  1  0.80569000  0.13729000  0.06869000  1.0 0.121057003
Cu  Cu32  1  0.13729000  0.80569000  0.43131000  1.0 0.121057003
Cu  Cu33  1  0.19431000  0.86271000  0.93131000  1.0 0.121057003
Cu  Cu34  1  0.86271000  0.19431000  0.56869000  1.0 0.121057003
H  H1  1  0.46960000  0.15280000  0.79090000  1.0 0.1301640693
H  H2  1  0.15280000  0.46960000  0.70910000  1.0 0.1301640693
H  H3  1  0.53040000  0.84720000  0.20910000  1.0 0.1301640693
H  H4  1  0.84720000  0.53040000  0.29090000  1.0 0.1301640693
H  H5  1  0.29980000  0.21360000  0.77860000  1.0 0.0992590013
H  H6  1  0.21360000  0.29980000  0.72140000  1.0 0.0992590013
H  H7  1  0.70020000  0.78640000  0.22140000  1.0 0.0992590013
H  H8  1  0.78640000  0.70020000  0.27860000  1.0 0.0992590013
H  H9  1  0.34040000  0.95860000  0.74850000  1.0 0.0918184273
H  H10  1  0.95860000  0.34040000  0.75150000  1.0 0.0918184273
H  H11  1  0.65960000  0.04140000  0.25150000  1.0 0.0918184273
H  H12  1  0.04140000  0.65960000  0.24850000  1.0 0.0918184273
H  H13  1  0.51060000  0.88900000  0.76170000  1.0 0.121057003
H  H14  1  0.88900000  0.51060000  0.73830000  1.0 0.121057003
H  H15  1  0.48940000  0.11100000  0.23830000  1.0 0.121057003
H  H16  1  0.11100000  0.48940000  0.26170000  1.0 0.121057003
H  H17  1  0.67740000  0.81800000  0.77430000  1.0 0.1301640693
H  H18  1  0.81800000  0.67740000  0.72570000  1.0 0.1301640693
H  H19  1  0.32260000  0.18200000  0.22570000  1.0 0.1301640693
H  H20  1  0.18200000  0.32260000  0.27430000  1.0 0.1395658513
H  H21  1  0.81680000  0.66440000  0.79970000  1.0 0.1301640693
H  H22  1  0.66440000  0.81680000  0.70030000  1.0 0.1301640693
H  H23  1  0.18320000  0.33560000  0.20030000  1.0 0.1301640693
H  H24  1  0.33560000  0.18320000  0.29970000  1.0 0.1301640693
H  H25  1  0.96110000  0.51770000  0.81000000  1.0 0.0918184273
H  H26  1  0.51770000  0.96110000  0.69000000  1.0 0.0918184273
H  H27  1  0.03890000  0.48230000  0.19000000  1.0 0.0918184273
H  H28  1  0.48230000  0.03890000  0.31000000  1.0 0.0918184273
H  H29  1  0.11570000  0.66370000  0.82100000  1.0 0.0918184273
H  H30  1  0.66370000  0.11570000  0.67900000  1.0 0.0918184273
H  H31  1  0.88430000  0.33630000  0.17900000  1.0 0.0918184273
H  H32  1  0.33630000  0.88430000  0.32100000  1.0 0.0918184273
H  H33  1  0.96870000  0.81610000  0.81340000  1.0 0.121057003
H  H34  1  0.81610000  0.96870000  0.68660000  1.0 0.121057003
H  H35  1  0.03130000  0.18390000  0.18660000  1.0 0.121057003
H  H36  1  0.18390000  0.03130000  0.31340000  1.0 0.121057003
H  H37  1  0.50260000  0.33980000  0.81660000  1.0 0.1301640693
H  H38  1  0.33980000  0.50260000  0.68340000  1.0 0.1301640693
H  H39  1  0.49740000  0.66020000  0.18340000  1.0 0.1301640693
H  H40  1  0.66020000  0.49740000  0.31660000  1.0 0.1301640693
H  H41  1  0.45620000  0.50900000  0.80630000  1.0 0.0992590013
H  H42  1  0.50900000  0.45620000  0.69370000  1.0 0.0992590013
H  H43  1  0.54380000  0.49100000  0.19370000  1.0 0.0992590013
H  H44  1  0.49100000  0.54380000  0.30630000  1.0 0.0992590013
H  H45  1  0.25310000  0.58110000  0.86810000  1.0 0.0992590013
H  H46  1  0.58110000  0.25310000  0.63190000  1.0 0.0992590013
H  H47  1  0.74690000  0.41890000  0.13190000  1.0 0.0992590013
H  H48  1  0.41890000  0.74690000  0.36810000  1.0 0.0992590013
H  H49  1  0.28450000  0.41570000  0.87730000  1.0 0.1301640693
H  H50  1  0.41570000  0.28450000  0.62270000  1.0 0.1301640693
H  H51  1  0.71550000  0.58430000  0.12270000  1.0 0.1301640693
H  H52  1  0.58430000  0.71550000  0.37730000  1.0 0.1301640693
H  H53  1  0.28780000  0.26440000  0.87420000  1.0 0.1395658513
H  H54  1  0.26440000  0.28780000  0.62580000  1.0 0.1395658513
H  H55  1  0.71220000  0.73560000  0.12580000  1.0 0.1395658513
H  H56  1  0.73560000  0.71220000  0.37420000  1.0 0.1395658513
H  H57  1  0.22990000  0.13270000  0.87130000  1.0 0.1301640693
H  H58  1  0.13270000  0.22990000  0.62870000  1.0 0.1301640693
H  H59  1  0.77010000  0.86730000  0.12870000  1.0 0.1301640693
H  H60  1  0.86730000  0.77010000  0.37130000  1.0 0.1301640693
H  H61  1  0.16840000  0.03720000  0.89770000  1.0 0.0992590013
H  H62  1  0.03720000  0.16840000  0.60230000  1.0 0.0992590013
H  H63  1  0.83160000  0.96280000  0.10230000  1.0 0.0992590013
H  H64  1  0.96280000  0.83160000  0.39770000  1.0 0.0992590013
H  H65  1  0.42110000  0.84790000  0.93330000  1.0 0.0992590013
H  H66  1  0.84790000  0.42110000  0.56670000  1.0 0.0992590013
H  H67  1  0.57890000  0.15210000  0.06670000  1.0 0.0992590013
H  H68  1  0.15210000  0.57890000  0.43330000  1.0 0.0992590013
H  H69  1  0.49590000  0.94450000  0.91250000  1.0 0.1301640693
H  H70  1  0.94450000  0.49590000  0.58750000  1.0 0.1301640693
H  H71  1  0.50410000  0.05550000  0.08750000  1.0 0.1301640693
H  H72  1  0.05550000  0.50410000  0.41250000  1.0 0.1301640693
H  H73  1  0.76920000  0.12780000  0.78170000  1.0 0.1301640693
H  H74  1  0.12780000  0.76920000  0.71830000  1.0 0.1301640693
H  H75  1  0.23080000  0.87220000  0.21830000  1.0 0.1301640693
H  H76  1  0.87220000  0.23080000  0.28170000  1.0 0.1301640693
H  H77  1  0.77150000  0.14010000  0.72620000  1.0 0.0992590013
H  H78  1  0.14010000  0.77150000  0.77380000  1.0 0.0992590013
H  H79  1  0.22850000  0.85990000  0.27380000  1.0 0.0992590013
H  H80  1  0.85990000  0.22850000  0.22620000  1.0 0.0992590013
H  H81  1  0.73010000  0.41550000  0.72520000  1.0 0.0918184273
H  H82  1  0.41550000  0.73010000  0.77480000  1.0 0.0918184273
H  H83  1  0.26990000  0.58450000  0.27480000  1.0 0.0918184273
H  H84  1  0.58450000  0.26990000  0.22520000  1.0 0.0918184273
H  H85  1  0.72530000  0.41030000  0.78040000  1.0 0.1301640693
H  H86  1  0.41030000  0.72530000  0.71960000  1.0 0.1301640693
H  H87  1  0.27470000  0.58970000  0.21960000  1.0 0.1301640693
H  H88  1  0.58970000  0.27470000  0.28040000  1.0 0.1301640693
H  H89  1  0.76890000  0.37950000  0.83860000  1.0 0.1395658513
H  H90  1  0.37950000  0.76890000  0.66140000  1.0 0.1395658513
H  H91  1  0.23110000  0.62050000  0.16140000  1.0 0.1395658513
H  H92  1  0.62050000  0.23110000  0.33860000  1.0 0.1395658513
H  H93  1  0.84550000  0.37550000  0.89760000  1.0 0.1301640693
H  H94  1  0.37550000  0.84550000  0.60240000  1.0 0.1301640693
H  H95  1  0.15450000  0.62450000  0.10240000  1.0 0.1301640693
H  H96  1  0.62450000  0.15450000  0.39760000  1.0 0.1301640693
H  H97  1  0.85300000  0.44180000  0.94670000  1.0 0.0918184273
H  H98  1  0.44180000  0.85300000  0.55330000  1.0 0.0918184273
H  H99  1  0.14700000  0.55820000  0.05330000  1.0 0.0918184273
H  H100  1  0.55820000  0.14700000  0.44670000  1.0 0.0918184273
H  H101  1  0.61780000  0.41840000  0.97260000  1.0 0.0992590013
H  H102  1  0.41840000  0.61780000  0.52740000  1.0 0.0992590013
H  H103  1  0.38220000  0.58160000  0.02740000  1.0 0.0992590013
H  H104  1  0.58160000  0.38220000  0.47260000  1.0 0.0992590013
H  H105  1  0.60780000  0.34860000  0.92470000  1.0 0.121057003
H  H106  1  0.34860000  0.60780000  0.57530000  1.0 0.121057003
H  H107  1  0.39220000  0.65140000  0.07530000  1.0 0.121057003
H  H108  1  0.65140000  0.39220000  0.42470000  1.0 0.121057003
H  H109  1  0.87350000  0.94470000  0.97200000  1.0 0.1301640693
H  H110  1  0.94470000  0.87350000  0.52800000  1.0 0.1301640693
H  H111  1  0.12650000  0.05530000  0.02800000  1.0 0.1301640693
H  H112  1  0.05530000  0.12650000  0.47200000  1.0 0.1301640693
H  H113  1  0.83340000  0.98240000  0.02460000  1.0 0.0918184273
H  H114  1  0.98240000  0.83340000  0.47540000  1.0 0.0918184273
H  H115  1  0.16660000  0.01760000  0.97540000  1.0 0.0918184273
H  H116  1  0.01760000  0.16660000  0.52460000  1.0 0.0918184273
H  H117  1  0.86220000  0.22480000  0.01310000  1.0 0.0992590013
H  H118  1  0.22480000  0.86220000  0.48690000  1.0 0.0992590013
H  H119  1  0.13780000  0.77520000  0.98690000  1.0 0.0992590013
H  H120  1  0.77520000  0.13780000  0.51310000  1.0 0.0992590013
H  H121  1  0.89990000  0.19870000  0.96120000  1.0 0.121057003
H  H122  1  0.19870000  0.89990000  0.53880000  1.0 0.121057003
H  H123  1  0.10010000  0.80130000  0.03880000  1.0 0.121057003
H  H124  1  0.80130000  0.10010000  0.46120000  1.0 0.121057003
H  H125  1  0.98200000  0.14080000  0.91170000  1.0 0.1301640693
H  H126  1  0.14080000  0.98200000  0.58830000  1.0 0.1301640693
H  H127  1  0.01800000  0.85920000  0.08830000  1.0 0.1301640693
H  H128  1  0.85920000  0.01800000  0.41170000  1.0 0.1301640693
H  H129  1  0.98750000  0.21730000  0.85560000  1.0 0.121057003
H  H130  1  0.21730000  0.98750000  0.64440000  1.0 0.121057003
H  H131  1  0.01250000  0.78270000  0.14440000  1.0 0.121057003
H  H132  1  0.78270000  0.01250000  0.35560000  1.0 0.121057003
H  H133  1  0.05710000  0.24390000  0.81000000  1.0 0.0918184273
H  H134  1  0.24390000  0.05710000  0.69000000  1.0 0.0918184273
H  H135  1  0.94290000  0.75610000  0.19000000  1.0 0.0918184273
H  H136  1  0.75610000  0.94290000  0.31000000  1.0 0.0918184273
H  H137  1  0.09660000  0.98980000  0.77930000  1.0 0.0992590013
H  H138  1  0.98980000  0.09660000  0.72070000  1.0 0.0992590013
H  H139  1  0.90340000  0.01020000  0.22070000  1.0 0.0992590013
H  H140  1  0.01020000  0.90340000  0.27930000  1.0 0.0992590013
H  H141  1  0.02480000  0.95700000  0.82310000  1.0 0.1301640693
H  H142  1  0.95700000  0.02480000  0.67690000  1.0 0.1301640693
H  H143  1  0.97520000  0.04300000  0.17690000  1.0 0.1301640693
H  H144  1  0.04300000  0.97520000  0.32310000  1.0 0.1301640693
H  H145  1  0.02220000  0.74640000  0.90040000  1.0 0.1395658513
H  H146  1  0.74640000  0.02220000  0.59960000  1.0 0.1395658513
H  H147  1  0.97780000  0.25360000  0.09960000  1.0 0.1395658513
H  H148  1  0.25360000  0.97780000  0.40040000  1.0 0.1395658513
H  H149  1  0.17080000  0.66340000  0.93390000  1.0 0.0992590013
H  H150  1  0.66340000  0.17080000  0.56610000  1.0 0.0992590013
H  H151  1  0.82920000  0.33660000  0.06610000  1.0 0.0992590013
H  H152  1  0.33660000  0.82920000  0.43390000  1.0 0.0992590013
H  H153  1  0.07950000  0.48850000  0.97590000  1.0 0.0918184273
H  H154  1  0.48850000  0.07950000  0.52410000  1.0 0.0918184273
H  H155  1  0.92050000  0.51150000  0.02410000  1.0 0.0918184273
H  H156  1  0.51150000  0.92050000  0.47590000  1.0 0.0918184273
H  H157  1  0.93120000  0.56200000  0.94370000  1.0 0.121057003
H  H158  1  0.56200000  0.93120000  0.55630000  1.0 0.121057003
H  H159  1  0.06880000  0.43800000  0.05630000  1.0 0.121057003
H  H160  1  0.43800000  0.06880000  0.44370000  1.0 0.121057003
H  H161  1  0.82920000  0.59160000  0.88650000  1.0 0.1301640693
H  H162  1  0.59160000  0.82920000  0.61350000  1.0 0.1301640693
H  H163  1  0.17080000  0.40840000  0.11350000  1.0 0.1301640693
H  H164  1  0.40840000  0.17080000  0.38650000  1.0 0.1301640693
H  H165  1  0.66870000  0.58690000  0.87650000  1.0 0.1301640693
H  H166  1  0.58690000  0.66870000  0.62350000  1.0 0.1301640693
H  H167  1  0.33130000  0.41310000  0.12350000  1.0 0.1301640693
H  H168  1  0.41310000  0.33130000  0.37650000  1.0 0.1301640693
H  H169  1  0.52800000  0.57860000  0.85950000  1.0 0.0992590013
H  H170  1  0.57860000  0.52800000  0.64050000  1.0 0.0992590013
H  H171  1  0.47200000  0.42140000  0.14050000  1.0 0.0992590013
H  H172  1  0.42140000  0.47200000  0.35950000  1.0 0.0992590013
H  H173  1  0.39930000  0.85710000  0.82460000  1.0 0.0992590013
H  H174  1  0.85710000  0.39930000  0.67540000  1.0 0.0992590013
H  H175  1  0.60070000  0.14290000  0.17540000  1.0 0.0992590013
H  H176  1  0.14290000  0.60070000  0.32460000  1.0 0.0992590013
H  H177  1  0.54180000  0.86880000  0.83730000  1.0 0.121057003
H  H178  1  0.86880000  0.54180000  0.66270000  1.0 0.121057003
H  H179  1  0.45820000  0.13120000  0.16270000  1.0 0.121057003
H  H180  1  0.13120000  0.45820000  0.33730000  1.0 0.121057003
H  H181  1  0.66480000  0.81260000  0.93180000  1.0 0.121057003
H  H182  1  0.81260000  0.66480000  0.56820000  1.0 0.121057003
H  H183  1  0.33520000  0.18740000  0.06820000  1.0 0.121057003
H  H184  1  0.18740000  0.33520000  0.43180000  1.0 0.121057003
H  H185  1  0.70580000  0.64880000  0.94610000  1.0 0.0918184273
H  H186  1  0.64880000  0.70580000  0.55390000  1.0 0.0918184273
H  H187  1  0.29420000  0.35120000  0.05390000  1.0 0.0918184273
H  H188  1  0.35120000  0.29420000  0.44610000  1.0 0.0918184273
H  H189  1  0.76100000  0.67620000  0.03770000  1.0 0.0918184273
H  H190  1  0.67620000  0.76100000  0.46230000  1.0 0.0918184273
H  H191  1  0.23900000  0.32380000  0.96230000  1.0 0.0918184273
H  H192  1  0.32380000  0.23900000  0.53770000  1.0 0.0918184273
H  H193  1  0.71830000  0.84430000  0.02520000  1.0 0.1301640693
H  H194  1  0.84430000  0.71830000  0.47480000  1.0 0.1301640693
H  H195  1  0.28170000  0.15570000  0.97480000  1.0 0.1301640693
H  H196  1  0.15570000  0.28170000  0.52520000  1.0 0.1301640693
H  H197  1  0.57680000  0.03820000  0.00510000  1.0 0.1395658513
H  H198  1  0.03820000  0.57680000  0.49490000  1.0 0.1395658513
H  H199  1  0.42320000  0.96180000  0.99490000  1.0 0.1395658513
H  H200  1  0.96180000  0.42320000  0.50510000  1.0 0.1395658513
H  H201  1  0.58590000  0.22530000  0.01600000  1.0 0.121057003
H  H202  1  0.22530000  0.58590000  0.48400000  1.0 0.121057003
H  H203  1  0.41410000  0.77470000  0.98400000  1.0 0.121057003
H  H204  1  0.77470000  0.41410000  0.51600000  1.0 0.121057003
H  H205  1  0.48190000  0.38970000  0.02350000  1.0 0.0992590013
H  H206  1  0.38970000  0.48190000  0.47650000  1.0 0.0992590013
H  H207  1  0.51810000  0.61030000  0.97650000  1.0 0.0992590013
H  H208  1  0.61030000  0.51810000  0.52350000  1.0 0.0992590013
H  H209  1  0.36320000  0.44400000  0.93390000  1.0 0.0992590013
H  H210  1  0.44400000  0.36320000  0.56610000  1.0 0.0992590013
H  H211  1  0.63680000  0.55600000  0.06610000  1.0 0.0992590013
H  H212  1  0.55600000  0.63680000  0.43390000  1.0 0.0992590013
H  H213  1  0.45840000  0.28020000  0.92330000  1.0 0.1301640693
H  H214  1  0.28020000  0.45840000  0.57670000  1.0 0.1301640693
H  H215  1  0.54160000  0.71980000  0.07670000  1.0 0.1301640693
H  H216  1  0.71980000  0.54160000  0.42330000  1.0 0.1301640693
C  C1  1  0.44500000  0.11060000  0.78290000  1.0 -0.1810709185
C  C2  1  0.11060000  0.44500000  0.71710000  1.0 -0.1810709185
C  C3  1  0.55500000  0.88940000  0.21710000  1.0 -0.1810709185
C  C4  1  0.88940000  0.55500000  0.28290000  1.0 -0.1810709185
C  C5  1  0.34250000  0.14710000  0.77510000  1.0 0.0504191512
C  C6  1  0.14710000  0.34250000  0.72490000  1.0 0.0504191512
C  C7  1  0.65750000  0.85290000  0.22490000  1.0 0.0504191512
C  C8  1  0.85290000  0.65750000  0.27510000  1.0 0.0504191512
C  C9  1  0.36610000  0.99830000  0.75780000  1.0 0.0310278289
C  C10  1  0.99830000  0.36610000  0.74220000  1.0 0.0310278289
C  C11  1  0.63390000  0.00170000  0.24220000  1.0 0.0310278289
C  C12  1  0.00170000  0.63390000  0.25780000  1.0 0.0310278289
C  C13  1  0.46920000  0.95560000  0.76550000  1.0 -0.2102703101
C  C14  1  0.95560000  0.46920000  0.73450000  1.0 -0.2102703101
C  C15  1  0.53080000  0.04440000  0.23450000  1.0 -0.2102703101
C  C16  1  0.04440000  0.53080000  0.26550000  1.0 -0.2102703101
C  C17  1  0.51020000  0.01260000  0.77896000  1.0 0.0992590013
C  C18  1  0.01260000  0.51020000  0.72104000  1.0 0.0992590013
C  C19  1  0.48980000  0.98740000  0.22104000  1.0 0.0992590013
C  C20  1  0.98740000  0.48980000  0.27896000  1.0 0.0992590013
C  C21  1  0.62010000  0.96410000  0.78880000  1.0 0.1395658513
C  C22  1  0.96410000  0.62010000  0.71120000  1.0 0.1395658513
C  C23  1  0.37990000  0.03590000  0.21120000  1.0 0.1395658513
C  C24  1  0.03590000  0.37990000  0.28880000  1.0 0.1395658513
C  C25  1  0.68970000  0.86510000  0.78490000  1.0 -0.3074125374
C  C26  1  0.86510000  0.68970000  0.71510000  1.0 -0.3074125374
C  C27  1  0.31030000  0.13490000  0.21510000  1.0 -0.3074125374
C  C28  1  0.13490000  0.31030000  0.28490000  1.0 -0.3074125374
C  C29  1  0.78090000  0.85110000  0.80006000  1.0 0.1490464111
C  C30  1  0.85110000  0.78090000  0.69994000  1.0 0.1490464111
C  C31  1  0.21910000  0.14890000  0.19994000  1.0 0.1490464111
C  C32  1  0.14890000  0.21910000  0.30006000  1.0 0.1490464111
C  C33  1  0.87690000  0.75890000  0.80500000  1.0 0.0992590013
C  C34  1  0.75890000  0.87690000  0.69500000  1.0 0.0992590013
C  C35  1  0.12310000  0.24110000  0.19500000  1.0 0.0992590013
C  C36  1  0.24110000  0.12310000  0.30500000  1.0 0.0992590013
C  C37  1  0.87750000  0.66630000  0.80420000  1.0 -0.2001514444
C  C38  1  0.66630000  0.87750000  0.69580000  1.0 -0.2001514444
C  C39  1  0.12250000  0.33370000  0.19580000  1.0 -0.2001514444
C  C40  1  0.33370000  0.12250000  0.30420000  1.0 -0.2001514444
C  C41  1  0.96430000  0.57830000  0.80970000  1.0 0.0417806617
C  C42  1  0.57830000  0.96430000  0.69030000  1.0 0.0417806617
C  C43  1  0.03570000  0.42170000  0.19030000  1.0 0.0417806617
C  C44  1  0.42170000  0.03570000  0.30970000  1.0 0.0417806617
C  C45  1  0.05460000  0.66280000  0.81640000  1.0 0.0779465748
C  C46  1  0.66280000  0.05460000  0.68360000  1.0 0.0779465748
C  C47  1  0.94540000  0.33720000  0.18360000  1.0 0.0779465748
C  C48  1  0.33720000  0.94540000  0.31640000  1.0 0.0779465748
C  C49  1  0.96500000  0.75620000  0.81170000  1.0 -0.2001514444
C  C50  1  0.75620000  0.96500000  0.68830000  1.0 -0.2001514444
C  C51  1  0.03500000  0.24380000  0.18830000  1.0 -0.2001514444
C  C52  1  0.24380000  0.03500000  0.31170000  1.0 -0.2001514444
C  C53  1  0.45030000  0.38710000  0.82710000  1.0 -0.1903940194
C  C54  1  0.38710000  0.45030000  0.67290000  1.0 -0.1903940194
C  C55  1  0.54970000  0.61290000  0.17290000  1.0 -0.1903940194
C  C56  1  0.61290000  0.54970000  0.32710000  1.0 -0.1903940194
C  C57  1  0.42240000  0.48980000  0.82140000  1.0 0.0699030211
C  C58  1  0.48980000  0.42240000  0.67860000  1.0 0.0699030211
C  C59  1  0.57760000  0.51020000  0.17860000  1.0 0.0699030211
C  C60  1  0.51020000  0.57760000  0.32140000  1.0 0.0699030211
C  C61  1  0.30240000  0.53220000  0.85710000  1.0 0.0504191512
C  C62  1  0.53220000  0.30240000  0.64290000  1.0 0.0504191512
C  C63  1  0.69760000  0.46780000  0.14290000  1.0 0.0504191512
C  C64  1  0.46780000  0.69760000  0.35710000  1.0 0.0504191512
C  C65  1  0.32260000  0.43220000  0.86330000  1.0 -0.2001514444
C  C66  1  0.43220000  0.32260000  0.63670000  1.0 -0.2001514444
C  C67  1  0.67740000  0.56780000  0.13670000  1.0 -0.2001514444
C  C68  1  0.56780000  0.67740000  0.36330000  1.0 -0.2001514444
C  C69  1  0.39940000  0.35680000  0.84870000  1.0 0.0992590013
C  C70  1  0.35680000  0.39940000  0.65130000  1.0 0.0992590013
C  C71  1  0.60060000  0.64320000  0.15130000  1.0 0.0992590013
C  C72  1  0.64320000  0.60060000  0.34870000  1.0 0.0992590013
C  C73  1  0.41920000  0.25300000  0.85660000  1.0 0.121057003
C  C74  1  0.25300000  0.41920000  0.64340000  1.0 0.121057003
C  C75  1  0.58080000  0.74700000  0.14340000  1.0 0.121057003
C  C76  1  0.74700000  0.58080000  0.35660000  1.0 0.121057003
C  C77  1  0.35410000  0.22330000  0.87000000  1.0 -0.3074125374
C  C78  1  0.22330000  0.35410000  0.63000000  1.0 -0.3074125374
C  C79  1  0.64590000  0.77670000  0.13000000  1.0 -0.3074125374
C  C80  1  0.77670000  0.64590000  0.37000000  1.0 -0.3074125374
C  C81  1  0.40680000  0.12020000  0.87590000  1.0 0.1490464111
C  C82  1  0.12020000  0.40680000  0.62410000  1.0 0.1490464111
C  C83  1  0.59320000  0.87980000  0.12410000  1.0 0.1490464111
C  C84  1  0.87980000  0.59320000  0.37590000  1.0 0.1490464111
C  C85  1  0.36960000  0.05240000  0.89030000  1.0 0.0992590013
C  C86  1  0.05240000  0.36960000  0.60970000  1.0 0.0992590013
C  C87  1  0.63040000  0.94760000  0.10970000  1.0 0.0992590013
C  C88  1  0.94760000  0.63040000  0.39030000  1.0 0.0992590013
C  C89  1  0.27360000  0.07600000  0.88520000  1.0 -0.2319885964
C  C90  1  0.07600000  0.27360000  0.61480000  1.0 -0.2319885964
C  C91  1  0.72640000  0.92400000  0.11480000  1.0 -0.2319885964
C  C92  1  0.92400000  0.72640000  0.38520000  1.0 -0.2319885964
C  C93  1  0.23770000  0.01490000  0.90100000  1.0 0.0779465748
C  C94  1  0.01490000  0.23770000  0.59900000  1.0 0.0779465748
C  C95  1  0.76230000  0.98510000  0.09900000  1.0 0.0779465748
C  C96  1  0.98510000  0.76230000  0.40100000  1.0 0.0779465748
C  C97  1  0.37930000  0.90970000  0.92150000  1.0 0.0699030211
C  C98  1  0.90970000  0.37930000  0.57850000  1.0 0.0699030211
C  C99  1  0.62070000  0.09030000  0.07850000  1.0 0.0699030211
C  C100  1  0.09030000  0.62070000  0.42150000  1.0 0.0699030211
C  C101  1  0.42680000  0.96720000  0.90830000  1.0 -0.2367252136
C  C102  1  0.96720000  0.42680000  0.59170000  1.0 -0.2367252136
C  C103  1  0.57320000  0.03280000  0.09170000  1.0 -0.2367252136
C  C104  1  0.03280000  0.57320000  0.40830000  1.0 -0.2367252136
C  C105  1  0.75800000  0.18860000  0.77070000  1.0 -0.2001514444
C  C106  1  0.18860000  0.75800000  0.72930000  1.0 -0.2001514444
C  C107  1  0.24200000  0.81140000  0.22930000  1.0 -0.2001514444
C  C108  1  0.81140000  0.24200000  0.27070000  1.0 -0.2001514444
C  C109  1  0.76070000  0.19630000  0.73720000  1.0 0.0504191512
C  C110  1  0.19630000  0.76070000  0.76280000  1.0 0.0504191512
C  C111  1  0.23930000  0.80370000  0.26280000  1.0 0.0504191512
C  C112  1  0.80370000  0.23930000  0.23720000  1.0 0.0504191512
C  C113  1  0.73630000  0.35690000  0.73650000  1.0 0.0215311284
C  C114  1  0.35690000  0.73630000  0.76350000  1.0 0.0215311284
C  C115  1  0.26370000  0.64310000  0.26350000  1.0 0.0215311284
C  C116  1  0.64310000  0.26370000  0.23650000  1.0 0.0215311284
C  C117  1  0.73250000  0.35450000  0.76970000  1.0 -0.2001514444
C  C118  1  0.35450000  0.73250000  0.73030000  1.0 -0.2001514444
C  C119  1  0.26750000  0.64550000  0.23030000  1.0 -0.2001514444
C  C120  1  0.64550000  0.26750000  0.26970000  1.0 -0.2001514444
C  C121  1  0.73890000  0.27030000  0.78799000  1.0 0.0992590013
C  C122  1  0.27030000  0.73890000  0.71201000  1.0 0.0992590013
C  C123  1  0.26110000  0.72970000  0.21201000  1.0 0.0992590013
C  C124  1  0.72970000  0.26110000  0.28799000  1.0 0.0992590013
C  C125  1  0.72880000  0.27160000  0.82311000  1.0 0.1301640693
C  C126  1  0.27160000  0.72880000  0.67689000  1.0 0.1395658513
C  C127  1  0.27120000  0.72840000  0.17689000  1.0 0.1395658513
C  C128  1  0.72840000  0.27120000  0.32311000  1.0 0.1395658513
C  C129  1  0.74560000  0.33300000  0.84391000  1.0 -0.3177692561
C  C130  1  0.33300000  0.74560000  0.65609000  1.0 -0.3177692561
C  C131  1  0.25440000  0.66700000  0.15609000  1.0 -0.3177692561
C  C132  1  0.66700000  0.25440000  0.34391000  1.0 -0.3177692561
C  C133  1  0.72050000  0.31070000  0.87442000  1.0 0.1395658513
C  C134  1  0.31070000  0.72050000  0.62558000  1.0 0.1395658513
C  C135  1  0.27950000  0.68930000  0.12558000  1.0 0.1395658513
C  C136  1  0.68930000  0.27950000  0.37442000  1.0 0.1395658513
C  C137  1  0.72590000  0.35390000  0.90588000  1.0 0.0992590013
C  C138  1  0.35390000  0.72590000  0.59412000  1.0 0.0992590013
C  C139  1  0.27410000  0.64610000  0.09412000  1.0 0.0992590013
C  C140  1  0.64610000  0.27410000  0.40588000  1.0 0.0992590013
C  C141  1  0.79880000  0.38280000  0.91265000  1.0 -0.2102703101
C  C142  1  0.38280000  0.79880000  0.58735000  1.0 -0.2102703101
C  C143  1  0.20120000  0.61720000  0.08735000  1.0 -0.2102703101
C  C144  1  0.61720000  0.20120000  0.41265000  1.0 -0.2102703101
C  C145  1  0.80240000  0.42340000  0.94230000  1.0 0.0417806617
C  C146  1  0.42340000  0.80240000  0.55770000  1.0 0.0417806617
C  C147  1  0.19760000  0.57660000  0.05770000  1.0 0.0417806617
C  C148  1  0.57660000  0.19760000  0.44230000  1.0 0.0417806617
C  C149  1  0.66480000  0.40920000  0.95750000  1.0 0.0417806617
C  C150  1  0.40920000  0.66480000  0.54250000  1.0 0.0417806617
C  C151  1  0.33520000  0.59080000  0.04250000  1.0 0.0417806617
C  C152  1  0.59080000  0.33520000  0.45750000  1.0 0.0417806617
C  C153  1  0.65830000  0.36750000  0.92870000  1.0 -0.2001514444
C  C154  1  0.36750000  0.65830000  0.57130000  1.0 -0.2001514444
C  C155  1  0.34170000  0.63250000  0.07130000  1.0 -0.2001514444
C  C156  1  0.63250000  0.34170000  0.42870000  1.0 -0.2001514444
C  C157  1  0.87040000  0.00340000  0.97954000  1.0 -0.1810709185
C  C158  1  0.00340000  0.87040000  0.52046000  1.0 -0.1810709185
C  C159  1  0.12960000  0.99660000  0.02046000  1.0 -0.1810709185
C  C160  1  0.99660000  0.12960000  0.47954000  1.0 -0.1810709185
C  C161  1  0.84640000  0.02700000  0.01140000  1.0 0.0417806617
C  C162  1  0.02700000  0.84640000  0.48860000  1.0 0.0417806617
C  C163  1  0.15360000  0.97300000  0.98860000  1.0 0.0417806617
C  C164  1  0.97300000  0.15360000  0.51140000  1.0 0.0417806617
C  C165  1  0.86280000  0.16820000  0.00470000  1.0 0.0417806617
C  C166  1  0.16820000  0.86280000  0.49530000  1.0 0.0417806617
C  C167  1  0.13720000  0.83180000  0.99530000  1.0 0.0417806617
C  C168  1  0.83180000  0.13720000  0.50470000  1.0 0.0417806617
C  C169  1  0.88600000  0.15300000  0.97340000  1.0 -0.1903940194
C  C170  1  0.15300000  0.88600000  0.52660000  1.0 -0.2001514444
C  C171  1  0.11400000  0.84700000  0.02660000  1.0 -0.2001514444
C  C172  1  0.84700000  0.11400000  0.47340000  1.0 -0.1903940194
C  C173  1  0.88950000  0.06910000  0.95926000  1.0 0.0992590013
C  C174  1  0.06910000  0.88950000  0.54074000  1.0 0.0992590013
C  C175  1  0.11050000  0.93090000  0.04074000  1.0 0.0992590013
C  C176  1  0.93090000  0.11050000  0.45926000  1.0 0.0992590013
C  C177  1  0.91200000  0.05280000  0.92492000  1.0 0.1301640693
C  C178  1  0.05280000  0.91200000  0.57508000  1.0 0.1301640693
C  C179  1  0.08800000  0.94720000  0.07508000  1.0 0.1301640693
C  C180  1  0.94720000  0.08800000  0.42492000  1.0 0.1301640693
C  C181  1  0.95700000  0.09720000  0.90543000  1.0 -0.3177692561
C  C182  1  0.09720000  0.95700000  0.59457000  1.0 -0.3177692561
C  C183  1  0.04300000  0.90280000  0.09457000  1.0 -0.3177692561
C  C184  1  0.90280000  0.04300000  0.40543000  1.0 -0.3177692561
C  C185  1  0.95640000  0.06280000  0.87475000  1.0 0.1395658513
C  C186  1  0.06280000  0.95640000  0.62525000  1.0 0.1395658513
C  C187  1  0.04360000  0.93720000  0.12525000  1.0 0.1395658513
C  C188  1  0.93720000  0.04360000  0.37475000  1.0 0.1395658513
C  C189  1  0.99770000  0.08190000  0.84481000  1.0 0.0992590013
C  C190  1  0.08190000  0.99770000  0.65519000  1.0 0.0992590013
C  C191  1  0.00230000  0.91810000  0.15519000  1.0 0.0992590013
C  C192  1  0.91810000  0.00230000  0.34481000  1.0 0.0992590013
C  C193  1  0.00820000  0.17000000  0.84022000  1.0 -0.2102703101
C  C194  1  0.17000000  0.00820000  0.65978000  1.0 -0.2102703101
C  C195  1  0.99180000  0.83000000  0.15978000  1.0 -0.2102703101
C  C196  1  0.83000000  0.99180000  0.34022000  1.0 -0.2102703101
C  C197  1  0.04990000  0.18550000  0.81250000  1.0 0.0504191512
C  C198  1  0.18550000  0.04990000  0.68750000  1.0 0.0504191512
C  C199  1  0.95010000  0.81450000  0.18750000  1.0 0.0504191512
C  C200  1  0.81450000  0.95010000  0.31250000  1.0 0.0504191512
C  C201  1  0.07240000  0.03720000  0.79450000  1.0 0.0310278289
C  C202  1  0.03720000  0.07240000  0.70550000  1.0 0.0310278289
C  C203  1  0.92760000  0.96280000  0.20550000  1.0 0.0310278289
C  C204  1  0.96280000  0.92760000  0.29450000  1.0 0.0310278289
C  C205  1  0.03060000  0.01620000  0.82120000  1.0 -0.1810709185
C  C206  1  0.01620000  0.03060000  0.67880000  1.0 -0.1810709185
C  C207  1  0.96940000  0.98380000  0.17880000  1.0 -0.1810709185
C  C208  1  0.98380000  0.96940000  0.32120000  1.0 -0.1903940194
C  C209  1  0.03130000  0.69370000  0.91570000  1.0 -0.1903940194
C  C210  1  0.69370000  0.03130000  0.58430000  1.0 -0.1903940194
C  C211  1  0.96870000  0.30630000  0.08430000  1.0 -0.1903940194
C  C212  1  0.30630000  0.96870000  0.41570000  1.0 -0.1903940194
C  C213  1  0.12060000  0.64400000  0.93650000  1.0 0.0504191512
C  C214  1  0.64400000  0.12060000  0.56350000  1.0 0.0504191512
C  C215  1  0.87940000  0.35600000  0.06350000  1.0 0.0504191512
C  C216  1  0.35600000  0.87940000  0.43650000  1.0 0.0504191512
C  C217  1  0.06760000  0.54240000  0.96070000  1.0 0.0310278289
C  C218  1  0.54240000  0.06760000  0.53930000  1.0 0.0310278289
C  C219  1  0.93240000  0.45760000  0.03930000  1.0 0.0310278289
C  C220  1  0.45760000  0.93240000  0.46070000  1.0 0.0310278289
C  C221  1  0.97830000  0.58570000  0.94120000  1.0 -0.2102703101
C  C222  1  0.58570000  0.97830000  0.55880000  1.0 -0.2102703101
C  C223  1  0.02170000  0.41430000  0.05880000  1.0 -0.2102703101
C  C224  1  0.41430000  0.02170000  0.44120000  1.0 -0.2102703101
C  C225  1  0.95740000  0.66540000  0.91750000  1.0 0.1057478985
C  C226  1  0.66540000  0.95740000  0.58250000  1.0 0.1057478985
C  C227  1  0.04260000  0.33460000  0.08250000  1.0 0.1057478985
C  C228  1  0.33460000  0.04260000  0.41750000  1.0 0.1057478985
C  C229  1  0.85950000  0.71010000  0.89744000  1.0 0.1395658513
C  C230  1  0.71010000  0.85950000  0.60256000  1.0 0.1395658513
C  C231  1  0.14050000  0.28990000  0.10256000  1.0 0.1395658513
C  C232  1  0.28990000  0.14050000  0.39744000  1.0 0.1395658513
C  C233  1  0.80710000  0.66090000  0.88550000  1.0 -0.3177692561
C  C234  1  0.66090000  0.80710000  0.61450000  1.0 -0.3177692561
C  C235  1  0.19290000  0.33910000  0.11450000  1.0 -0.3177692561
C  C236  1  0.33910000  0.19290000  0.38550000  1.0 -0.3177692561
C  C237  1  0.71430000  0.73710000  0.87155000  1.0 0.1301640693
C  C238  1  0.73710000  0.71430000  0.62845000  1.0 0.1301640693
C  C239  1  0.28570000  0.26290000  0.12845000  1.0 0.1301640693
C  C240  1  0.26290000  0.28570000  0.37155000  1.0 0.1301640693
C  C241  1  0.62460000  0.72940000  0.85928000  1.0 0.0992590013
C  C242  1  0.72940000  0.62460000  0.64072000  1.0 0.0992590013
C  C243  1  0.37540000  0.27060000  0.14072000  1.0 0.0992590013
C  C244  1  0.27060000  0.37540000  0.35928000  1.0 0.0992590013
C  C245  1  0.61500000  0.64380000  0.86530000  1.0 -0.2102703101
C  C246  1  0.64380000  0.61500000  0.63470000  1.0 -0.2102703101
C  C247  1  0.38500000  0.35620000  0.13470000  1.0 -0.2102703101
C  C248  1  0.35620000  0.38500000  0.36530000  1.0 -0.2102703101
C  C249  1  0.52960000  0.63960000  0.85530000  1.0 0.0417806617
C  C250  1  0.63960000  0.52960000  0.64470000  1.0 0.0417806617
C  C251  1  0.47040000  0.36040000  0.14470000  1.0 0.0417806617
C  C252  1  0.36040000  0.47040000  0.35530000  1.0 0.0417806617
C  C253  1  0.45550000  0.80010000  0.83470000  1.0 0.0504191512
C  C254  1  0.80010000  0.45550000  0.66530000  1.0 0.0504191512
C  C255  1  0.54450000  0.19990000  0.16530000  1.0 0.0504191512
C  C256  1  0.19990000  0.54450000  0.33470000  1.0 0.0504191512
C  C257  1  0.54070000  0.80830000  0.84290000  1.0 -0.2102703101
C  C258  1  0.80830000  0.54070000  0.65710000  1.0 -0.2102703101
C  C259  1  0.45930000  0.19170000  0.15710000  1.0 -0.2102703101
C  C260  1  0.19170000  0.45930000  0.34290000  1.0 -0.2102703101
C  C261  1  0.68410000  0.78690000  0.95370000  1.0 -0.1903940194
C  C262  1  0.78690000  0.68410000  0.54630000  1.0 -0.1903940194
C  C263  1  0.31590000  0.21310000  0.04630000  1.0 -0.1903940194
C  C264  1  0.21310000  0.31590000  0.45370000  1.0 -0.1903940194
C  C265  1  0.70790000  0.68850000  0.96250000  1.0 0.0310278289
C  C266  1  0.68850000  0.70790000  0.53750000  1.0 0.0310278289
C  C267  1  0.29210000  0.31150000  0.03750000  1.0 0.0310278289
C  C268  1  0.31150000  0.29210000  0.46250000  1.0 0.0310278289
C  C269  1  0.73990000  0.70410000  0.01600000  1.0 0.0578670254
C  C270  1  0.70410000  0.73990000  0.48400000  1.0 0.0578670254
C  C271  1  0.26010000  0.29590000  0.98400000  1.0 0.0578670254
C  C272  1  0.29590000  0.26010000  0.51600000  1.0 0.0578670254
C  C273  1  0.71570000  0.80570000  0.00840000  1.0 -0.2001514444
C  C274  1  0.80570000  0.71570000  0.49160000  1.0 -0.2001514444
C  C275  1  0.28430000  0.19430000  0.99160000  1.0 -0.2001514444
C  C276  1  0.19430000  0.28430000  0.50840000  1.0 -0.2001514444
C  C277  1  0.68840000  0.84820000  0.97668000  1.0 0.0992590013
C  C278  1  0.84820000  0.68840000  0.52332000  1.0 0.0992590013
C  C279  1  0.31160000  0.15180000  0.02332000  1.0 0.0992590013
C  C280  1  0.15180000  0.31160000  0.47668000  1.0 0.0992590013
C  C281  1  0.65810000  0.95650000  0.96790000  1.0 0.1395658513
C  C282  1  0.95650000  0.65810000  0.53210000  1.0 0.1395658513
C  C283  1  0.34190000  0.04350000  0.03210000  1.0 0.1395658513
C  C284  1  0.04350000  0.34190000  0.46790000  1.0 0.1395658513
C  C285  1  0.60120000  0.03900000  0.98475000  1.0 -0.3177692561
C  C286  1  0.03900000  0.60120000  0.51525000  1.0 -0.3177692561
C  C287  1  0.39880000  0.96100000  0.01525000  1.0 -0.3177692561
C  C288  1  0.96100000  0.39880000  0.48475000  1.0 -0.3177692561
C  C289  1  0.58860000  0.12200000  0.96480000  1.0 0.1301640693
C  C290  1  0.12200000  0.58860000  0.53520000  1.0 0.1301640693
C  C291  1  0.41140000  0.87800000  0.03520000  1.0 0.1301640693
C  C292  1  0.87800000  0.41140000  0.46480000  1.0 0.1301640693
C  C293  1  0.52830000  0.22950000  0.96926000  1.0 0.0992590013
C  C294  1  0.22950000  0.52830000  0.53074000  1.0 0.0992590013
C  C295  1  0.47170000  0.77050000  0.03074000  1.0 0.0992590013
C  C296  1  0.77050000  0.47170000  0.46926000  1.0 0.0992590013
C  C297  1  0.53800000  0.26720000  0.99910000  1.0 -0.2001514444
C  C298  1  0.26720000  0.53800000  0.50090000  1.0 -0.2001514444
C  C299  1  0.46200000  0.73280000  0.00090000  1.0 -0.2001514444
C  C300  1  0.73280000  0.46200000  0.49910000  1.0 -0.2001514444
C  C301  1  0.47630000  0.36670000  0.00330000  1.0 0.0215311284
C  C302  1  0.36670000  0.47630000  0.49670000  1.0 0.0215311284
C  C303  1  0.52370000  0.63330000  0.99670000  1.0 0.0215311284
C  C304  1  0.63330000  0.52370000  0.50330000  1.0 0.0215311284
C  C305  1  0.40640000  0.39820000  0.95110000  1.0 0.0578670254
C  C306  1  0.39820000  0.40640000  0.54890000  1.0 0.0578670254
C  C307  1  0.59360000  0.60180000  0.04890000  1.0 0.0504191512
C  C308  1  0.60180000  0.59360000  0.45110000  1.0 0.0504191512
C  C309  1  0.46350000  0.29930000  0.94430000  1.0 -0.2102703101
C  C310  1  0.29930000  0.46350000  0.55570000  1.0 -0.2102703101
C  C311  1  0.53650000  0.70070000  0.05570000  1.0 -0.2102703101
C  C312  1  0.70070000  0.53650000  0.44430000  1.0 -0.2102703101
C  C313  1  0.80230000  0.19390000  0.10910000  1.0 -0.1381457845
C  C314  1  0.19390000  0.80230000  0.39090000  1.0 -0.1381457845
C  C315  1  0.19770000  0.80610000  0.89090000  1.0 -0.1381457845
C  C316  1  0.80610000  0.19770000  0.60910000  1.0 -0.1381457845
N  N1  1  0.30090000  0.09250000  0.76265000  1.0 -0.2102703101
N  N2  1  0.09250000  0.30090000  0.73735000  1.0 -0.2102703101
N  N3  1  0.69910000  0.90750000  0.23735000  1.0 -0.2102703101
N  N4  1  0.90750000  0.69910000  0.26265000  1.0 -0.2102703101
N  N5  1  0.66790000  0.00850000  0.80527000  1.0 -0.2001514444
N  N6  1  0.00850000  0.66790000  0.69473000  1.0 -0.2001514444
N  N7  1  0.33210000  0.99150000  0.19473000  1.0 -0.2001514444
N  N8  1  0.99150000  0.33210000  0.30527000  1.0 -0.2001514444
N  N9  1  0.76740000  0.93880000  0.81168000  1.0 -0.1903940194
N  N10  1  0.93880000  0.76740000  0.68832000  1.0 -0.1903940194
N  N11  1  0.23260000  0.06120000  0.18832000  1.0 -0.1903940194
N  N12  1  0.06120000  0.23260000  0.31168000  1.0 -0.1903940194
N  N13  1  0.05540000  0.57600000  0.81480000  1.0 -0.2565749312
N  N14  1  0.57600000  0.05540000  0.68520000  1.0 -0.2565749312
N  N15  1  0.94460000  0.42400000  0.18520000  1.0 -0.2565749312
N  N16  1  0.42400000  0.94460000  0.31480000  1.0 -0.2565749312
N  N17  1  0.35140000  0.56080000  0.83584000  1.0 -0.2168877596
N  N18  1  0.56080000  0.35140000  0.66416000  1.0 -0.2168877596
N  N19  1  0.64860000  0.43920000  0.16416000  1.0 -0.2168877596
N  N20  1  0.43920000  0.64860000  0.33584000  1.0 -0.2168877596
N  N21  1  0.50820000  0.17120000  0.85395000  1.0 -0.2001514444
N  N22  1  0.17120000  0.50820000  0.64605000  1.0 -0.2001514444
N  N23  1  0.49180000  0.82880000  0.14605000  1.0 -0.2001514444
N  N24  1  0.82880000  0.49180000  0.35395000  1.0 -0.2001514444
N  N25  1  0.49950000  0.08870000  0.86636000  1.0 -0.1810709185
N  N26  1  0.08870000  0.49950000  0.63364000  1.0 -0.1810709185
N  N27  1  0.50050000  0.91130000  0.13364000  1.0 -0.1810709185
N  N28  1  0.91130000  0.50050000  0.36636000  1.0 -0.1810709185
N  N29  1  0.28560000  0.93660000  0.91820000  1.0 -0.0862129858
N  N30  1  0.93660000  0.28560000  0.58180000  1.0 -0.0862129858
N  N31  1  0.71440000  0.06340000  0.08180000  1.0 -0.0862129858
N  N32  1  0.06340000  0.71440000  0.41820000  1.0 -0.0862129858
N  N33  1  0.74890000  0.27870000  0.71927000  1.0 -0.2102703101
N  N34  1  0.27870000  0.74890000  0.78073000  1.0 -0.2102703101
N  N35  1  0.25110000  0.72130000  0.28073000  1.0 -0.2102703101
N  N36  1  0.72130000  0.25110000  0.21927000  1.0 -0.2102703101
N  N37  1  0.69550000  0.21490000  0.84012000  1.0 -0.1903940194
N  N38  1  0.21490000  0.69550000  0.65988000  1.0 -0.1903940194
N  N39  1  0.30450000  0.78510000  0.15988000  1.0 -0.1903940194
N  N40  1  0.78510000  0.30450000  0.34012000  1.0 -0.1903940194
N  N41  1  0.69050000  0.23950000  0.87197000  1.0 -0.1810709185
N  N42  1  0.23950000  0.69050000  0.62803000  1.0 -0.1810709185
N  N43  1  0.30950000  0.76050000  0.12803000  1.0 -0.1810709185
N  N44  1  0.76050000  0.30950000  0.37197000  1.0 -0.1810709185
N  N45  1  0.73690000  0.43690000  0.96432000  1.0 -0.2001514444
N  N46  1  0.43690000  0.73690000  0.53568000  1.0 -0.2001514444
N  N47  1  0.26310000  0.56310000  0.03568000  1.0 -0.2001514444
N  N48  1  0.56310000  0.26310000  0.46432000  1.0 -0.2001514444
N  N49  1  0.84080000  0.10940000  0.02428000  1.0 -0.2102703101
N  N50  1  0.10940000  0.84080000  0.47572000  1.0 -0.2102703101
N  N51  1  0.15920000  0.89060000  0.97572000  1.0 -0.2102703101
N  N52  1  0.89060000  0.15920000  0.52428000  1.0 -0.2102703101
N  N53  1  0.88240000  0.99680000  0.90678000  1.0 -0.2001514444
N  N54  1  0.99680000  0.88240000  0.59322000  1.0 -0.2001514444
N  N55  1  0.11760000  0.00320000  0.09322000  1.0 -0.2001514444
N  N56  1  0.00320000  0.11760000  0.40678000  1.0 -0.2001514444
N  N57  1  0.91090000  0.00230000  0.87581000  1.0 -0.1810709185
N  N58  1  0.00230000  0.91090000  0.62419000  1.0 -0.1810709185
N  N59  1  0.08910000  0.99770000  0.12419000  1.0 -0.1810709185
N  N60  1  0.99770000  0.08910000  0.37581000  1.0 -0.1810709185
N  N61  1  0.08000000  0.12300000  0.78937000  1.0 -0.2102703101
N  N62  1  0.12300000  0.08000000  0.71063000  1.0 -0.2102703101
N  N63  1  0.92000000  0.87700000  0.21063000  1.0 -0.2102703101
N  N64  1  0.87700000  0.92000000  0.28937000  1.0 -0.2102703101
N  N65  1  0.13790000  0.57190000  0.95938000  1.0 -0.2001514444
N  N66  1  0.57190000  0.13790000  0.54062000  1.0 -0.2001514444
N  N67  1  0.86210000  0.42810000  0.04062000  1.0 -0.2001514444
N  N68  1  0.42810000  0.86210000  0.45938000  1.0 -0.2001514444
N  N69  1  0.80260000  0.81040000  0.89133000  1.0 -0.1903940194
N  N70  1  0.81040000  0.80260000  0.60867000  1.0 -0.1903940194
N  N71  1  0.19740000  0.18960000  0.10867000  1.0 -0.1903940194
N  N72  1  0.18960000  0.19740000  0.39133000  1.0 -0.1903940194
N  N73  1  0.71190000  0.82830000  0.87516000  1.0 -0.2001514444
N  N74  1  0.82830000  0.71190000  0.62484000  1.0 -0.2001514444
N  N75  1  0.28810000  0.17170000  0.12484000  1.0 -0.2001514444
N  N76  1  0.17170000  0.28810000  0.37516000  1.0 -0.2001514444
N  N77  1  0.44800000  0.71680000  0.84011000  1.0 -0.2102703101
N  N78  1  0.71680000  0.44800000  0.65989000  1.0 -0.2102703101
N  N79  1  0.55200000  0.28320000  0.15989000  1.0 -0.2102703101
N  N80  1  0.28320000  0.55200000  0.34011000  1.0 -0.2102703101
N  N81  1  0.73390000  0.64650000  0.99366000  1.0 -0.2168877596
N  N82  1  0.64650000  0.73390000  0.50634000  1.0 -0.2168877596
N  N83  1  0.26610000  0.35350000  0.00634000  1.0 -0.2168877596
N  N84  1  0.35350000  0.26610000  0.49366000  1.0 -0.2168877596
N  N85  1  0.68030000  0.98850000  0.93928000  1.0 -0.1903940194
N  N86  1  0.98850000  0.68030000  0.56072000  1.0 -0.1903940194
N  N87  1  0.31970000  0.01150000  0.06072000  1.0 -0.1903940194
N  N88  1  0.01150000  0.31970000  0.43928000  1.0 -0.1903940194
N  N89  1  0.63640000  0.09160000  0.93765000  1.0 -0.1810709185
N  N90  1  0.09160000  0.63640000  0.56235000  1.0 -0.1810709185
N  N91  1  0.36360000  0.90840000  0.06235000  1.0 -0.1810709185
N  N92  1  0.90840000  0.36360000  0.43765000  1.0 -0.1810709185
N  N93  1  0.40860000  0.43200000  0.97970000  1.0 -0.2102703101
N  N94  1  0.43200000  0.40860000  0.52030000  1.0 -0.2102703101
N  N95  1  0.59140000  0.56800000  0.02030000  1.0 -0.2102703101
N  N96  1  0.56800000  0.59140000  0.47970000  1.0 -0.2102703101
N  N97  1  0.77660000  0.22160000  0.13400000  1.0 -0.3453747133
N  N98  1  0.22160000  0.77660000  0.36600000  1.0 -0.3453747133
N  N99  1  0.22340000  0.77840000  0.86600000  1.0 -0.3453747133
N  N100  1  0.77840000  0.22340000  0.63400000  1.0 -0.3453747133
