# DDEC6 charges by PACMAN v1.1 (https://github.com/mtap-research/PACMAN-charge/)
data_KOMFIC_ASR_pacman
_symmetry_space_group_name_H-M   'P 1'
_cell_length_a   7.96930000
_cell_length_b   12.97700000
_cell_length_c   12.97270000
_cell_angle_alpha   90.00000000
_cell_angle_beta   127.68100000
_cell_angle_gamma   90.00000000
_symmetry_Int_Tables_number   1
_chemical_formula_structural   CuH8(C2N3)4
_chemical_formula_sum   'Cu2 H16 C16 N24'
_cell_volume   1061.78191168
_cell_formula_units_Z   2
loop_
 _symmetry_equiv_pos_site_id
 _symmetry_equiv_pos_as_xyz
  1  'x, y, z'
loop_
 _atom_site_type_symbol
 _atom_site_label
 _atom_site_symmetry_multiplicity
 _atom_site_fract_x
 _atom_site_fract_y
 _atom_site_fract_z
 _atom_site_occupancy
 _atom_site_charge
Cu  Cu1  1  0.50000000  0.00000000  0.50000000  1.0 0.2566959299
Cu  Cu2  1  0.50000000  0.50000000  0.00000000  1.0 0.2532085218
H  H1  1  0.79310000  0.84130000  0.72170000  1.0 0.1273038751
H  H2  1  0.20690000  0.34130000  0.77830000  1.0 0.1273038751
H  H3  1  0.20690000  0.15870000  0.27830000  1.0 0.1273038751
H  H4  1  0.79310000  0.65870000  0.22170000  1.0 0.1273038751
H  H5  1  0.73730000  0.66010000  0.45790000  1.0 0.1273038751
H  H6  1  0.26270000  0.16010000  0.04210000  1.0 0.1273038751
H  H7  1  0.26270000  0.33990000  0.54210000  1.0 0.1273038751
H  H8  1  0.73730000  0.83990000  0.95790000  1.0 0.1273038751
H  H9  1  0.73650000  0.57850000  0.74630000  1.0 0.1273038751
H  H10  1  0.26350000  0.07850000  0.75370000  1.0 0.1273038751
H  H11  1  0.26350000  0.42150000  0.25370000  1.0 0.1273038751
H  H12  1  0.73650000  0.92150000  0.24630000  1.0 0.1273038751
H  H13  1  0.23460000  0.67330000  0.77690000  1.0 0.1273038751
H  H14  1  0.76540000  0.17330000  0.72310000  1.0 0.1273038751
H  H15  1  0.76540000  0.32670000  0.22310000  1.0 0.1273038751
H  H16  1  0.23460000  0.82670000  0.27690000  1.0 0.1273038751
C  C1  1  0.75550000  0.81540000  0.64330000  1.0 0.0276564355
C  C2  1  0.24450000  0.31540000  0.85670000  1.0 0.0276564355
C  C3  1  0.24450000  0.18460000  0.35670000  1.0 0.0276564355
C  C4  1  0.75550000  0.68460000  0.14330000  1.0 0.0276564355
C  C5  1  0.72400000  0.71610000  0.49710000  1.0 -0.0298122866
C  C6  1  0.27600000  0.21610000  0.00290000  1.0 -0.0298122866
C  C7  1  0.27600000  0.28390000  0.50290000  1.0 -0.0298122866
C  C8  1  0.72400000  0.78390000  0.99710000  1.0 -0.0298122866
C  C9  1  0.87450000  0.58490000  0.77360000  1.0 -0.0298122866
C  C10  1  0.12550000  0.08490000  0.72640000  1.0 -0.0298122866
C  C11  1  0.12550000  0.41510000  0.22640000  1.0 -0.0298122866
C  C12  1  0.87450000  0.91510000  0.27360000  1.0 -0.0298122866
C  C13  1  0.14770000  0.63730000  0.78960000  1.0 0.0276564355
C  C14  1  0.85230000  0.13730000  0.71040000  1.0 0.0276564355
C  C15  1  0.85230000  0.36270000  0.21040000  1.0 0.0276564355
C  C16  1  0.14770000  0.86270000  0.28960000  1.0 0.0276564355
N  N1  1  0.63760000  0.86203000  0.53120000  1.0 -0.1688483022
N  N2  1  0.36240000  0.36203000  0.96880000  1.0 -0.1688483022
N  N3  1  0.36240000  0.13797000  0.46880000  1.0 -0.1688483022
N  N4  1  0.63760000  0.63797000  0.03120000  1.0 -0.1688483022
N  N5  1  0.61760000  0.79920000  0.43720000  1.0 -0.2189545632
N  N6  1  0.38240000  0.29920000  0.06280000  1.0 -0.2189545632
N  N7  1  0.38240000  0.20080000  0.56280000  1.0 -0.2189545632
N  N8  1  0.61760000  0.70080000  0.93720000  1.0 -0.2189545632
N  N9  1  0.81380000  0.72320000  0.62660000  1.0 0.0731732565
N  N10  1  0.18620000  0.22320000  0.87340000  1.0 0.0731732565
N  N11  1  0.18620000  0.27680000  0.37340000  1.0 0.0731732565
N  N12  1  0.81380000  0.77680000  0.12660000  1.0 0.0731732565
N  N13  1  0.93800000  0.65200000  0.72320000  1.0 0.0499711139
N  N14  1  0.06200000  0.15200000  0.77680000  1.0 0.0499711139
N  N15  1  0.06200000  0.34800000  0.27680000  1.0 0.0499711139
N  N16  1  0.93800000  0.84800000  0.22320000  1.0 0.0499711139
N  N17  1  0.03520000  0.53100000  0.86550000  1.0 -0.1988731139
N  N18  1  0.96480000  0.03100000  0.63450000  1.0 -0.1988731139
N  N19  1  0.96480000  0.46900000  0.13450000  1.0 -0.1988731139
N  N20  1  0.03520000  0.96900000  0.36550000  1.0 -0.1988731139
N  N21  1  0.20850000  0.56460000  0.87450000  1.0 -0.1688483022
N  N22  1  0.79150000  0.06460000  0.62550000  1.0 -0.1688483022
N  N23  1  0.79150000  0.43540000  0.12550000  1.0 -0.1688483022
N  N24  1  0.20850000  0.93540000  0.37450000  1.0 -0.1688483022
