# DDEC6 charges by PACMAN v1.1 (https://github.com/mtap-research/PACMAN-charge/)
data_KOMHIE_FSR_pacman
_symmetry_space_group_name_H-M   'P 1'
_cell_length_a   12.70350000
_cell_length_b   12.70350000
_cell_length_c   25.43800000
_cell_angle_alpha   90.00000000
_cell_angle_beta   90.00000000
_cell_angle_gamma   90.00000000
_symmetry_Int_Tables_number   1
_chemical_formula_structural   ZnH13C7N5O2
_chemical_formula_sum   'Zn16 H208 C112 N80 O32'
_cell_volume   4105.15676982
_cell_formula_units_Z   16
loop_
 _symmetry_equiv_pos_site_id
 _symmetry_equiv_pos_as_xyz
  1  'x, y, z'
loop_
 _atom_site_type_symbol
 _atom_site_label
 _atom_site_symmetry_multiplicity
 _atom_site_fract_x
 _atom_site_fract_y
 _atom_site_fract_z
 _atom_site_occupancy
 _atom_site_charge
Zn  Zn1  1  0.28734000  0.18131000  0.18804000  1.0 0.6940678891
Zn  Zn2  1  0.81869000  0.28734000  0.18804000  1.0 0.6940678891
Zn  Zn3  1  0.18131000  0.71266000  0.18804000  1.0 0.6940678891
Zn  Zn4  1  0.18131000  0.28734000  0.81196000  1.0 0.6940678891
Zn  Zn5  1  0.71266000  0.81869000  0.18804000  1.0 0.6940678891
Zn  Zn6  1  0.71266000  0.18131000  0.81196000  1.0 0.6940678891
Zn  Zn7  1  0.28734000  0.81869000  0.81196000  1.0 0.6940678891
Zn  Zn8  1  0.81869000  0.71266000  0.81196000  1.0 0.6940678891
Zn  Zn9  1  0.21266000  0.31869000  0.31196000  1.0 0.6940678891
Zn  Zn10  1  0.68131000  0.21266000  0.31196000  1.0 0.6940678891
Zn  Zn11  1  0.31869000  0.78734000  0.31196000  1.0 0.6940678891
Zn  Zn12  1  0.31869000  0.21266000  0.68804000  1.0 0.6940678891
Zn  Zn13  1  0.78734000  0.68131000  0.31196000  1.0 0.6940678891
Zn  Zn14  1  0.78734000  0.31869000  0.68804000  1.0 0.6960155262
Zn  Zn15  1  0.21266000  0.68131000  0.68804000  1.0 0.6940678891
Zn  Zn16  1  0.68131000  0.78734000  0.68804000  1.0 0.6960155262
H  H1  1  0.52010000  0.18900000  0.22140000  1.0 0.1218435733
H  H2  1  0.81100000  0.52010000  0.22140000  1.0 0.1218435733
H  H3  1  0.18900000  0.47990000  0.22140000  1.0 0.1218435733
H  H4  1  0.18900000  0.52010000  0.77860000  1.0 0.1218435733
H  H5  1  0.47990000  0.81100000  0.22140000  1.0 0.1218435733
H  H6  1  0.47990000  0.18900000  0.77860000  1.0 0.1218435733
H  H7  1  0.52010000  0.81100000  0.77860000  1.0 0.1218435733
H  H8  1  0.81100000  0.47990000  0.77860000  1.0 0.1218435733
H  H9  1  0.97990000  0.31100000  0.27860000  1.0 0.1218435733
H  H10  1  0.68900000  0.97990000  0.27860000  1.0 0.1218435733
H  H11  1  0.31100000  0.02010000  0.27860000  1.0 0.1218435733
H  H12  1  0.31100000  0.97990000  0.72140000  1.0 0.1218435733
H  H13  1  0.02010000  0.68900000  0.27860000  1.0 0.1218435733
H  H14  1  0.02010000  0.31100000  0.72140000  1.0 0.1218435733
H  H15  1  0.97990000  0.68900000  0.72140000  1.0 0.1218435733
H  H16  1  0.68900000  0.02010000  0.72140000  1.0 0.1218435733
H  H17  1  0.41350000  0.28340000  0.40350000  1.0 0.1692504203
H  H18  1  0.71660000  0.41350000  0.40350000  1.0 0.1692504203
H  H19  1  0.28340000  0.58650000  0.40350000  1.0 0.1692504203
H  H20  1  0.28340000  0.41350000  0.59650000  1.0 0.1692504203
H  H21  1  0.58650000  0.71660000  0.40350000  1.0 0.1692504203
H  H22  1  0.58650000  0.28340000  0.59650000  1.0 0.1692504203
H  H23  1  0.41350000  0.71660000  0.59650000  1.0 0.1692504203
H  H24  1  0.71660000  0.58650000  0.59650000  1.0 0.1692504203
H  H25  1  0.08650000  0.21660000  0.09650000  1.0 0.1692504203
H  H26  1  0.78340000  0.08650000  0.09650000  1.0 0.1692504203
H  H27  1  0.21660000  0.91350000  0.09650000  1.0 0.1692504203
H  H28  1  0.21660000  0.08650000  0.90350000  1.0 0.1692504203
H  H29  1  0.91350000  0.78340000  0.09650000  1.0 0.1692504203
H  H30  1  0.91350000  0.21660000  0.90350000  1.0 0.1692504203
H  H31  1  0.08650000  0.78340000  0.90350000  1.0 0.1692504203
H  H32  1  0.78340000  0.91350000  0.90350000  1.0 0.1692504203
H  H33  1  0.53050000  0.30070000  0.38720000  1.0 0.2169880016
H  H34  1  0.69930000  0.53050000  0.38720000  1.0 0.2169880016
H  H35  1  0.30070000  0.46950000  0.38720000  1.0 0.2169880016
H  H36  1  0.30070000  0.53050000  0.61280000  1.0 0.2169880016
H  H37  1  0.46950000  0.69930000  0.38720000  1.0 0.2169880016
H  H38  1  0.46950000  0.30070000  0.61280000  1.0 0.2169880016
H  H39  1  0.53050000  0.69930000  0.61280000  1.0 0.2169880016
H  H40  1  0.69930000  0.46950000  0.61280000  1.0 0.2169880016
H  H41  1  0.96950000  0.19930000  0.11280000  1.0 0.2169880016
H  H42  1  0.80070000  0.96950000  0.11280000  1.0 0.2169880016
H  H43  1  0.19930000  0.03050000  0.11280000  1.0 0.2169880016
H  H44  1  0.19930000  0.96950000  0.88720000  1.0 0.2169880016
H  H45  1  0.03050000  0.80070000  0.11280000  1.0 0.2169880016
H  H46  1  0.03050000  0.19930000  0.88720000  1.0 0.2169880016
H  H47  1  0.96950000  0.80070000  0.88720000  1.0 0.2169880016
H  H48  1  0.80070000  0.03050000  0.88720000  1.0 0.2169880016
H  H49  1  0.38400000  0.12150000  0.01900000  1.0 0.0901975771
H  H50  1  0.87850000  0.38400000  0.01900000  1.0 0.0901975771
H  H51  1  0.12150000  0.61600000  0.01900000  1.0 0.0901975771
H  H52  1  0.12150000  0.38400000  0.98100000  1.0 0.0901975771
H  H53  1  0.61600000  0.87850000  0.01900000  1.0 0.0901975771
H  H54  1  0.61600000  0.12150000  0.98100000  1.0 0.0901975771
H  H55  1  0.38400000  0.87850000  0.98100000  1.0 0.0901975771
H  H56  1  0.87850000  0.61600000  0.98100000  1.0 0.0901975771
H  H57  1  0.11600000  0.37850000  0.48100000  1.0 0.0901975771
H  H58  1  0.62150000  0.11600000  0.48100000  1.0 0.0901975771
H  H59  1  0.37850000  0.88400000  0.48100000  1.0 0.0901975771
H  H60  1  0.37850000  0.11600000  0.51900000  1.0 0.0901975771
H  H61  1  0.88400000  0.62150000  0.48100000  1.0 0.0901975771
H  H62  1  0.88400000  0.37850000  0.51900000  1.0 0.0901975771
H  H63  1  0.11600000  0.62150000  0.51900000  1.0 0.0901975771
H  H64  1  0.62150000  0.88400000  0.51900000  1.0 0.0901975771
H  H65  1  0.32370000  0.16620000  0.99260000  1.0 0.0821940439
H  H66  1  0.83380000  0.32370000  0.99260000  1.0 0.0821940439
H  H67  1  0.16620000  0.67630000  0.99260000  1.0 0.0821940439
H  H68  1  0.16620000  0.32370000  0.00740000  1.0 0.0821940439
H  H69  1  0.67630000  0.83380000  0.99260000  1.0 0.0821940439
H  H70  1  0.67630000  0.16620000  0.00740000  1.0 0.0821940439
H  H71  1  0.32370000  0.83380000  0.00740000  1.0 0.0821940439
H  H72  1  0.83380000  0.67630000  0.00740000  1.0 0.0821940439
H  H73  1  0.17630000  0.33380000  0.50740000  1.0 0.0821940439
H  H74  1  0.66620000  0.17630000  0.50740000  1.0 0.0821940439
H  H75  1  0.33380000  0.82370000  0.50740000  1.0 0.0821940439
H  H76  1  0.33380000  0.17630000  0.49260000  1.0 0.0821940439
H  H77  1  0.82370000  0.66620000  0.50740000  1.0 0.0821940439
H  H78  1  0.82370000  0.33380000  0.49260000  1.0 0.0821940439
H  H79  1  0.17630000  0.66620000  0.49260000  1.0 0.0821940439
H  H80  1  0.66620000  0.82370000  0.49260000  1.0 0.0821940439
H  H81  1  0.39460000  0.24480000  0.01770000  1.0 0.0901975771
H  H82  1  0.75520000  0.39460000  0.01770000  1.0 0.0901975771
H  H83  1  0.24480000  0.60540000  0.01770000  1.0 0.0901975771
H  H84  1  0.24480000  0.39460000  0.98230000  1.0 0.0901975771
H  H85  1  0.60540000  0.75520000  0.01770000  1.0 0.0901975771
H  H86  1  0.60540000  0.24480000  0.98230000  1.0 0.0901975771
H  H87  1  0.39460000  0.75520000  0.98230000  1.0 0.0901975771
H  H88  1  0.75520000  0.60540000  0.98230000  1.0 0.0901975771
H  H89  1  0.10540000  0.25520000  0.48230000  1.0 0.0901975771
H  H90  1  0.74480000  0.10540000  0.48230000  1.0 0.0901975771
H  H91  1  0.25520000  0.89460000  0.48230000  1.0 0.0901975771
H  H92  1  0.25520000  0.10540000  0.51770000  1.0 0.0901975771
H  H93  1  0.89460000  0.74480000  0.48230000  1.0 0.0901975771
H  H94  1  0.89460000  0.25520000  0.51770000  1.0 0.0901975771
H  H95  1  0.10540000  0.74480000  0.51770000  1.0 0.0901975771
H  H96  1  0.74480000  0.89460000  0.51770000  1.0 0.0901975771
H  H97  1  0.54310000  0.24390000  0.05720000  1.0 0.0975255637
H  H98  1  0.75610000  0.54310000  0.05720000  1.0 0.0975255637
H  H99  1  0.24390000  0.45690000  0.05720000  1.0 0.0975255637
H  H100  1  0.24390000  0.54310000  0.94280000  1.0 0.0975255637
H  H101  1  0.45690000  0.75610000  0.05720000  1.0 0.0975255637
H  H102  1  0.45690000  0.24390000  0.94280000  1.0 0.0975255637
H  H103  1  0.54310000  0.75610000  0.94280000  1.0 0.0975255637
H  H104  1  0.75610000  0.45690000  0.94280000  1.0 0.0975255637
H  H105  1  0.95690000  0.25610000  0.44280000  1.0 0.0975255637
H  H106  1  0.74390000  0.95690000  0.44280000  1.0 0.0975255637
H  H107  1  0.25610000  0.04310000  0.44280000  1.0 0.0975255637
H  H108  1  0.25610000  0.95690000  0.55720000  1.0 0.0975255637
H  H109  1  0.04310000  0.74390000  0.44280000  1.0 0.0975255637
H  H110  1  0.04310000  0.25610000  0.55720000  1.0 0.0975255637
H  H111  1  0.95690000  0.74390000  0.55720000  1.0 0.0975255637
H  H112  1  0.74390000  0.04310000  0.55720000  1.0 0.0975255637
H  H113  1  0.54960000  0.12610000  0.07510000  1.0 0.0901975771
H  H114  1  0.87390000  0.54960000  0.07510000  1.0 0.0901975771
H  H115  1  0.12610000  0.45040000  0.07510000  1.0 0.0901975771
H  H116  1  0.12610000  0.54960000  0.92490000  1.0 0.0901975771
H  H117  1  0.45040000  0.87390000  0.07510000  1.0 0.0901975771
H  H118  1  0.45040000  0.12610000  0.92490000  1.0 0.0901975771
H  H119  1  0.54960000  0.87390000  0.92490000  1.0 0.0901975771
H  H120  1  0.87390000  0.45040000  0.92490000  1.0 0.0901975771
H  H121  1  0.95040000  0.37390000  0.42490000  1.0 0.0901975771
H  H122  1  0.62610000  0.95040000  0.42490000  1.0 0.0901975771
H  H123  1  0.37390000  0.04960000  0.42490000  1.0 0.0901975771
H  H124  1  0.37390000  0.95040000  0.57510000  1.0 0.0901975771
H  H125  1  0.04960000  0.62610000  0.42490000  1.0 0.0901975771
H  H126  1  0.04960000  0.37390000  0.57510000  1.0 0.0901975771
H  H127  1  0.95040000  0.62610000  0.57510000  1.0 0.0901975771
H  H128  1  0.62610000  0.04960000  0.57510000  1.0 0.0901975771
H  H129  1  0.20220000  0.99440000  0.10350000  1.0 0.1692504203
H  H130  1  0.00560000  0.20220000  0.10350000  1.0 0.1692504203
H  H131  1  0.99440000  0.79780000  0.10350000  1.0 0.1692504203
H  H132  1  0.99440000  0.20220000  0.89650000  1.0 0.1692504203
H  H133  1  0.79780000  0.00560000  0.10350000  1.0 0.1692504203
H  H134  1  0.79780000  0.99440000  0.89650000  1.0 0.1692504203
H  H135  1  0.20220000  0.00560000  0.89650000  1.0 0.1692504203
H  H136  1  0.00560000  0.79780000  0.89650000  1.0 0.1692504203
H  H137  1  0.29780000  0.50560000  0.39650000  1.0 0.1692504203
H  H138  1  0.49440000  0.29780000  0.39650000  1.0 0.1692504203
H  H139  1  0.50560000  0.70220000  0.39650000  1.0 0.1692504203
H  H140  1  0.50560000  0.29780000  0.60350000  1.0 0.1692504203
H  H141  1  0.70220000  0.49440000  0.39650000  1.0 0.1692504203
H  H142  1  0.70220000  0.50560000  0.60350000  1.0 0.1692504203
H  H143  1  0.29780000  0.49440000  0.60350000  1.0 0.1692504203
H  H144  1  0.49440000  0.70220000  0.60350000  1.0 0.1692504203
H  H145  1  0.22750000  0.87440000  0.10340000  1.0 0.2140514559
H  H146  1  0.12560000  0.22750000  0.10340000  1.0 0.2140514559
H  H147  1  0.87440000  0.77250000  0.10340000  1.0 0.2140514559
H  H148  1  0.87440000  0.22750000  0.89660000  1.0 0.2140514559
H  H149  1  0.77250000  0.12560000  0.10340000  1.0 0.2140514559
H  H150  1  0.77250000  0.87440000  0.89660000  1.0 0.2140514559
H  H151  1  0.22750000  0.12560000  0.89660000  1.0 0.2140514559
H  H152  1  0.12560000  0.77250000  0.89660000  1.0 0.2140514559
H  H153  1  0.27250000  0.62560000  0.39660000  1.0 0.2140514559
H  H154  1  0.37440000  0.27250000  0.39660000  1.0 0.2140514559
H  H155  1  0.62560000  0.72750000  0.39660000  1.0 0.2140514559
H  H156  1  0.62560000  0.27250000  0.60340000  1.0 0.2140514559
H  H157  1  0.72750000  0.37440000  0.39660000  1.0 0.2140514559
H  H158  1  0.72750000  0.62560000  0.60340000  1.0 0.2140514559
H  H159  1  0.27250000  0.37440000  0.60340000  1.0 0.2140514559
H  H160  1  0.37440000  0.72750000  0.60340000  1.0 0.2140514559
H  H161  1  0.41350000  0.08750000  0.00810000  1.0 0.0901975771
H  H162  1  0.91250000  0.41350000  0.00810000  1.0 0.0901975771
H  H163  1  0.08750000  0.58650000  0.00810000  1.0 0.0901975771
H  H164  1  0.08750000  0.41350000  0.99190000  1.0 0.0901975771
H  H165  1  0.58650000  0.91250000  0.00810000  1.0 0.0901975771
H  H166  1  0.58650000  0.08750000  0.99190000  1.0 0.0901975771
H  H167  1  0.41350000  0.91250000  0.99190000  1.0 0.0901975771
H  H168  1  0.91250000  0.58650000  0.99190000  1.0 0.0901975771
H  H169  1  0.08650000  0.41250000  0.49190000  1.0 0.0901975771
H  H170  1  0.58750000  0.08650000  0.49190000  1.0 0.0901975771
H  H171  1  0.41250000  0.91350000  0.49190000  1.0 0.0901975771
H  H172  1  0.41250000  0.08650000  0.50810000  1.0 0.0901975771
H  H173  1  0.91350000  0.58750000  0.49190000  1.0 0.0901975771
H  H174  1  0.91350000  0.41250000  0.50810000  1.0 0.0901975771
H  H175  1  0.08650000  0.58750000  0.50810000  1.0 0.0901975771
H  H176  1  0.58750000  0.91350000  0.50810000  1.0 0.0901975771
H  H177  1  0.49780000  0.19450000  0.05900000  1.0 0.0821940439
H  H178  1  0.80550000  0.49780000  0.05900000  1.0 0.0821940439
H  H179  1  0.19450000  0.50220000  0.05900000  1.0 0.0821940439
H  H180  1  0.19450000  0.49780000  0.94100000  1.0 0.0821940439
H  H181  1  0.50220000  0.80550000  0.05900000  1.0 0.0821940439
H  H182  1  0.50220000  0.19450000  0.94100000  1.0 0.0821940439
H  H183  1  0.49780000  0.80550000  0.94100000  1.0 0.0821940439
H  H184  1  0.80550000  0.50220000  0.94100000  1.0 0.0821940439
H  H185  1  0.00220000  0.30550000  0.44100000  1.0 0.0821940439
H  H186  1  0.69450000  0.00220000  0.44100000  1.0 0.0821940439
H  H187  1  0.30550000  0.99780000  0.44100000  1.0 0.0821940439
H  H188  1  0.30550000  0.00220000  0.55900000  1.0 0.0821940439
H  H189  1  0.99780000  0.69450000  0.44100000  1.0 0.0821940439
H  H190  1  0.99780000  0.30550000  0.55900000  1.0 0.0821940439
H  H191  1  0.00220000  0.69450000  0.55900000  1.0 0.0821940439
H  H192  1  0.69450000  0.99780000  0.55900000  1.0 0.0821940439
H  H193  1  0.42720000  0.29040000  0.04250000  1.0 0.0975255637
H  H194  1  0.70960000  0.42720000  0.04250000  1.0 0.0975255637
H  H195  1  0.29040000  0.57280000  0.04250000  1.0 0.0975255637
H  H196  1  0.29040000  0.42720000  0.95750000  1.0 0.0975255637
H  H197  1  0.57280000  0.70960000  0.04250000  1.0 0.0975255637
H  H198  1  0.57280000  0.29040000  0.95750000  1.0 0.0975255637
H  H199  1  0.42720000  0.70960000  0.95750000  1.0 0.0975255637
H  H200  1  0.70960000  0.57280000  0.95750000  1.0 0.0975255637
H  H201  1  0.07280000  0.20960000  0.45750000  1.0 0.0975255637
H  H202  1  0.79040000  0.07280000  0.45750000  1.0 0.0975255637
H  H203  1  0.20960000  0.92720000  0.45750000  1.0 0.0975255637
H  H204  1  0.20960000  0.07280000  0.54250000  1.0 0.0975255637
H  H205  1  0.92720000  0.79040000  0.45750000  1.0 0.0975255637
H  H206  1  0.92720000  0.20960000  0.54250000  1.0 0.0975255637
H  H207  1  0.07280000  0.79040000  0.54250000  1.0 0.0975255637
H  H208  1  0.79040000  0.92720000  0.54250000  1.0 0.0975255637
C  C1  1  0.44040000  0.25390000  0.32700000  1.0 0.4422040457
C  C2  1  0.74610000  0.44040000  0.32700000  1.0 0.4422040457
C  C3  1  0.25390000  0.55960000  0.32700000  1.0 0.4422040457
C  C4  1  0.25390000  0.44040000  0.67300000  1.0 0.4422040457
C  C5  1  0.55960000  0.74610000  0.32700000  1.0 0.4422040457
C  C6  1  0.55960000  0.25390000  0.67300000  1.0 0.4422040457
C  C7  1  0.44040000  0.74610000  0.67300000  1.0 0.4422040457
C  C8  1  0.74610000  0.55960000  0.67300000  1.0 0.4422040457
C  C9  1  0.05960000  0.24610000  0.17300000  1.0 0.4422040457
C  C10  1  0.75390000  0.05960000  0.17300000  1.0 0.4422040457
C  C11  1  0.24610000  0.94040000  0.17300000  1.0 0.4422040457
C  C12  1  0.24610000  0.05960000  0.82700000  1.0 0.4422040457
C  C13  1  0.94040000  0.75390000  0.17300000  1.0 0.4422040457
C  C14  1  0.94040000  0.24610000  0.82700000  1.0 0.4422040457
C  C15  1  0.05960000  0.75390000  0.82700000  1.0 0.4422040457
C  C16  1  0.75390000  0.94040000  0.82700000  1.0 0.4422040457
C  C17  1  0.48090000  0.20930000  0.25060000  1.0 0.1692504203
C  C18  1  0.79070000  0.48090000  0.25060000  1.0 0.1692504203
C  C19  1  0.20930000  0.51910000  0.25060000  1.0 0.1692504203
C  C20  1  0.20930000  0.48090000  0.74940000  1.0 0.1692504203
C  C21  1  0.51910000  0.79070000  0.25060000  1.0 0.1692504203
C  C22  1  0.51910000  0.20930000  0.74940000  1.0 0.1692504203
C  C23  1  0.48090000  0.79070000  0.74940000  1.0 0.1692504203
C  C24  1  0.79070000  0.51910000  0.74940000  1.0 0.1692504203
C  C25  1  0.01910000  0.29070000  0.24940000  1.0 0.1692504203
C  C26  1  0.70930000  0.01910000  0.24940000  1.0 0.1692504203
C  C27  1  0.29070000  0.98090000  0.24940000  1.0 0.1692504203
C  C28  1  0.29070000  0.01910000  0.75060000  1.0 0.1692504203
C  C29  1  0.98090000  0.70930000  0.24940000  1.0 0.1692504203
C  C30  1  0.98090000  0.29070000  0.75060000  1.0 0.1692504203
C  C31  1  0.01910000  0.70930000  0.75060000  1.0 0.1692504203
C  C32  1  0.70930000  0.98090000  0.75060000  1.0 0.1692504203
C  C33  1  0.35240000  0.18950000  0.09150000  1.0 0.3562566776
C  C34  1  0.81050000  0.35240000  0.09150000  1.0 0.3562566776
C  C35  1  0.18950000  0.64760000  0.09150000  1.0 0.3562566776
C  C36  1  0.18950000  0.35240000  0.90850000  1.0 0.3562566776
C  C37  1  0.64760000  0.81050000  0.09150000  1.0 0.3562566776
C  C38  1  0.64760000  0.18950000  0.90850000  1.0 0.3562566776
C  C39  1  0.35240000  0.81050000  0.90850000  1.0 0.354491104
C  C40  1  0.81050000  0.64760000  0.90850000  1.0 0.354491104
C  C41  1  0.14760000  0.31050000  0.40850000  1.0 0.3562566776
C  C42  1  0.68950000  0.14760000  0.40850000  1.0 0.3562566776
C  C43  1  0.31050000  0.85240000  0.40850000  1.0 0.354491104
C  C44  1  0.31050000  0.14760000  0.59150000  1.0 0.3562566776
C  C45  1  0.85240000  0.68950000  0.40850000  1.0 0.354491104
C  C46  1  0.85240000  0.31050000  0.59150000  1.0 0.3562566776
C  C47  1  0.14760000  0.68950000  0.59150000  1.0 0.3562566776
C  C48  1  0.68950000  0.85240000  0.59150000  1.0 0.354491104
C  C49  1  0.52630000  0.17300000  0.04780000  1.0 -0.14560774
C  C50  1  0.82700000  0.52630000  0.04780000  1.0 -0.14560774
C  C51  1  0.17300000  0.47370000  0.04780000  1.0 -0.14560774
C  C52  1  0.17300000  0.52630000  0.95220000  1.0 -0.14560774
C  C53  1  0.47370000  0.82700000  0.04780000  1.0 -0.14560774
C  C54  1  0.47370000  0.17300000  0.95220000  1.0 -0.14560774
C  C55  1  0.52630000  0.82700000  0.95220000  1.0 -0.14560774
C  C56  1  0.82700000  0.47370000  0.95220000  1.0 -0.14560774
C  C57  1  0.97370000  0.32700000  0.45220000  1.0 -0.14560774
C  C58  1  0.67300000  0.97370000  0.45220000  1.0 -0.14560774
C  C59  1  0.32700000  0.02630000  0.45220000  1.0 -0.14560774
C  C60  1  0.32700000  0.97370000  0.54780000  1.0 -0.14560774
C  C61  1  0.02630000  0.67300000  0.45220000  1.0 -0.14560774
C  C62  1  0.02630000  0.32700000  0.54780000  1.0 -0.14560774
C  C63  1  0.97370000  0.67300000  0.54780000  1.0 -0.14560774
C  C64  1  0.67300000  0.02630000  0.54780000  1.0 -0.14560774
C  C65  1  0.39800000  0.15900000  0.99900000  1.0 -0.1324526149
C  C66  1  0.84100000  0.39800000  0.99900000  1.0 -0.1324526149
C  C67  1  0.15900000  0.60200000  0.99900000  1.0 -0.1324526149
C  C68  1  0.15900000  0.39800000  0.00100000  1.0 -0.1324526149
C  C69  1  0.60200000  0.84100000  0.99900000  1.0 -0.1324526149
C  C70  1  0.60200000  0.15900000  0.00100000  1.0 -0.1324526149
C  C71  1  0.39800000  0.84100000  0.00100000  1.0 -0.1324526149
C  C72  1  0.84100000  0.60200000  0.00100000  1.0 -0.1324526149
C  C73  1  0.10200000  0.34100000  0.50100000  1.0 -0.1324526149
C  C74  1  0.65900000  0.10200000  0.50100000  1.0 -0.1324526149
C  C75  1  0.34100000  0.89800000  0.50100000  1.0 -0.1324526149
C  C76  1  0.34100000  0.10200000  0.49900000  1.0 -0.1324526149
C  C77  1  0.89800000  0.65900000  0.50100000  1.0 -0.1324526149
C  C78  1  0.89800000  0.34100000  0.49900000  1.0 -0.1324526149
C  C79  1  0.10200000  0.65900000  0.49900000  1.0 -0.1324526149
C  C80  1  0.65900000  0.89800000  0.49900000  1.0 -0.1324526149
C  C81  1  0.42700000  0.21500000  0.04860000  1.0 -0.1006237677
C  C82  1  0.78500000  0.42700000  0.04860000  1.0 -0.1006237677
C  C83  1  0.21500000  0.57300000  0.04860000  1.0 -0.1006237677
C  C84  1  0.21500000  0.42700000  0.95140000  1.0 -0.1006237677
C  C85  1  0.57300000  0.78500000  0.04860000  1.0 -0.1006237677
C  C86  1  0.57300000  0.21500000  0.95140000  1.0 -0.1006237677
C  C87  1  0.42700000  0.78500000  0.95140000  1.0 -0.1006237677
C  C88  1  0.78500000  0.57300000  0.95140000  1.0 -0.1006237677
C  C89  1  0.07300000  0.28500000  0.45140000  1.0 -0.1006237677
C  C90  1  0.71500000  0.07300000  0.45140000  1.0 -0.1006237677
C  C91  1  0.28500000  0.92700000  0.45140000  1.0 -0.1006237677
C  C92  1  0.28500000  0.07300000  0.54860000  1.0 -0.1006237677
C  C93  1  0.92700000  0.71500000  0.45140000  1.0 -0.1006237677
C  C94  1  0.92700000  0.28500000  0.54860000  1.0 -0.1006237677
C  C95  1  0.07300000  0.71500000  0.54860000  1.0 -0.1006237677
C  C96  1  0.71500000  0.92700000  0.54860000  1.0 -0.1006237677
C  C97  1  0.40900000  0.18200000  0.03840000  1.0 -0.0774554413
C  C98  1  0.81800000  0.40900000  0.03840000  1.0 -0.0774554413
C  C99  1  0.18200000  0.59100000  0.03840000  1.0 -0.0774554413
C  C100  1  0.18200000  0.40900000  0.96160000  1.0 -0.0774554413
C  C101  1  0.59100000  0.81800000  0.03840000  1.0 -0.0774554413
C  C102  1  0.59100000  0.18200000  0.96160000  1.0 -0.0774554413
C  C103  1  0.40900000  0.81800000  0.96160000  1.0 -0.0774554413
C  C104  1  0.81800000  0.59100000  0.96160000  1.0 -0.0774554413
C  C105  1  0.09100000  0.31800000  0.46160000  1.0 -0.0774554413
C  C106  1  0.68200000  0.09100000  0.46160000  1.0 -0.0774554413
C  C107  1  0.31800000  0.90900000  0.46160000  1.0 -0.0774554413
C  C108  1  0.31800000  0.09100000  0.53840000  1.0 -0.0774554413
C  C109  1  0.90900000  0.68200000  0.46160000  1.0 -0.0774554413
C  C110  1  0.90900000  0.31800000  0.53840000  1.0 -0.0774554413
C  C111  1  0.09100000  0.68200000  0.53840000  1.0 -0.0774554413
C  C112  1  0.68200000  0.90900000  0.53840000  1.0 -0.0774554413
N  N1  1  0.38030000  0.22260000  0.24900000  1.0 -0.1826889621
N  N2  1  0.77740000  0.38030000  0.24900000  1.0 -0.1826889621
N  N3  1  0.22260000  0.61970000  0.24900000  1.0 -0.1826889621
N  N4  1  0.22260000  0.38030000  0.75100000  1.0 -0.1826889621
N  N5  1  0.61970000  0.77740000  0.24900000  1.0 -0.1826889621
N  N6  1  0.61970000  0.22260000  0.75100000  1.0 -0.1826889621
N  N7  1  0.38030000  0.77740000  0.75100000  1.0 -0.1826889621
N  N8  1  0.77740000  0.61970000  0.75100000  1.0 -0.1826889621
N  N9  1  0.11970000  0.27740000  0.25100000  1.0 -0.1826889621
N  N10  1  0.72260000  0.11970000  0.25100000  1.0 -0.1826889621
N  N11  1  0.27740000  0.88030000  0.25100000  1.0 -0.1826889621
N  N12  1  0.27740000  0.11970000  0.74900000  1.0 -0.1826889621
N  N13  1  0.88030000  0.72260000  0.25100000  1.0 -0.1826889621
N  N14  1  0.88030000  0.27740000  0.74900000  1.0 -0.1826889621
N  N15  1  0.11970000  0.72260000  0.74900000  1.0 -0.1826889621
N  N16  1  0.72260000  0.88030000  0.74900000  1.0 -0.1826889621
N  N17  1  0.52430000  0.22720000  0.29803000  1.0 -0.4363530384
N  N18  1  0.77280000  0.52430000  0.29803000  1.0 -0.4363530384
N  N19  1  0.22720000  0.47570000  0.29803000  1.0 -0.4363530384
N  N20  1  0.22720000  0.52430000  0.70197000  1.0 -0.4363530384
N  N21  1  0.47570000  0.77280000  0.29803000  1.0 -0.4363530384
N  N22  1  0.47570000  0.22720000  0.70197000  1.0 -0.4363530384
N  N23  1  0.52430000  0.77280000  0.70197000  1.0 -0.4363530384
N  N24  1  0.77280000  0.47570000  0.70197000  1.0 -0.4363530384
N  N25  1  0.97570000  0.27280000  0.20197000  1.0 -0.4363530384
N  N26  1  0.72720000  0.97570000  0.20197000  1.0 -0.4363530384
N  N27  1  0.27280000  0.02430000  0.20197000  1.0 -0.4363530384
N  N28  1  0.27280000  0.97570000  0.79803000  1.0 -0.4363530384
N  N29  1  0.02430000  0.72720000  0.20197000  1.0 -0.4363530384
N  N30  1  0.02430000  0.27280000  0.79803000  1.0 -0.4363530384
N  N31  1  0.97570000  0.72720000  0.79803000  1.0 -0.4363530384
N  N32  1  0.72720000  0.02430000  0.79803000  1.0 -0.4363530384
N  N33  1  0.35220000  0.25340000  0.29976000  1.0 -0.3261114763
N  N34  1  0.74660000  0.35220000  0.29976000  1.0 -0.3261114763
N  N35  1  0.25340000  0.64780000  0.29976000  1.0 -0.3261114763
N  N36  1  0.25340000  0.35220000  0.70024000  1.0 -0.3261114763
N  N37  1  0.64780000  0.74660000  0.29976000  1.0 -0.3261114763
N  N38  1  0.64780000  0.25340000  0.70024000  1.0 -0.3261114763
N  N39  1  0.35220000  0.74660000  0.70024000  1.0 -0.3261114763
N  N40  1  0.74660000  0.64780000  0.70024000  1.0 -0.3261114763
N  N41  1  0.14780000  0.24660000  0.20024000  1.0 -0.3261114763
N  N42  1  0.75340000  0.14780000  0.20024000  1.0 -0.3261114763
N  N43  1  0.24660000  0.85220000  0.20024000  1.0 -0.3261114763
N  N44  1  0.24660000  0.14780000  0.79976000  1.0 -0.3261114763
N  N45  1  0.85220000  0.75340000  0.20024000  1.0 -0.3261114763
N  N46  1  0.85220000  0.24660000  0.79976000  1.0 -0.3261114763
N  N47  1  0.14780000  0.75340000  0.79976000  1.0 -0.3261114763
N  N48  1  0.75340000  0.85220000  0.79976000  1.0 -0.3261114763
N  N49  1  0.46400000  0.28300000  0.37870000  1.0 -0.500049326
N  N50  1  0.71700000  0.46400000  0.37870000  1.0 -0.500049326
N  N51  1  0.28300000  0.53600000  0.37870000  1.0 -0.500049326
N  N52  1  0.28300000  0.46400000  0.62130000  1.0 -0.500049326
N  N53  1  0.53600000  0.71700000  0.37870000  1.0 -0.500049326
N  N54  1  0.53600000  0.28300000  0.62130000  1.0 -0.500049326
N  N55  1  0.46400000  0.71700000  0.62130000  1.0 -0.500049326
N  N56  1  0.71700000  0.53600000  0.62130000  1.0 -0.500049326
N  N57  1  0.03600000  0.21700000  0.12130000  1.0 -0.500049326
N  N58  1  0.78300000  0.03600000  0.12130000  1.0 -0.500049326
N  N59  1  0.21700000  0.96400000  0.12130000  1.0 -0.500049326
N  N60  1  0.21700000  0.03600000  0.87870000  1.0 -0.500049326
N  N61  1  0.96400000  0.78300000  0.12130000  1.0 -0.500049326
N  N62  1  0.96400000  0.21700000  0.87870000  1.0 -0.500049326
N  N63  1  0.03600000  0.78300000  0.87870000  1.0 -0.500049326
N  N64  1  0.78300000  0.96400000  0.87870000  1.0 -0.500049326
N  N65  1  0.22200000  0.93600000  0.12070000  1.0 -0.500049326
N  N66  1  0.06400000  0.22200000  0.12070000  1.0 -0.500049326
N  N67  1  0.93600000  0.77800000  0.12070000  1.0 -0.500049326
N  N68  1  0.93600000  0.22200000  0.87930000  1.0 -0.500049326
N  N69  1  0.77800000  0.06400000  0.12070000  1.0 -0.500049326
N  N70  1  0.77800000  0.93600000  0.87930000  1.0 -0.500049326
N  N71  1  0.22200000  0.06400000  0.87930000  1.0 -0.500049326
N  N72  1  0.06400000  0.77800000  0.87930000  1.0 -0.500049326
N  N73  1  0.27800000  0.56400000  0.37930000  1.0 -0.500049326
N  N74  1  0.43600000  0.27800000  0.37930000  1.0 -0.500049326
N  N75  1  0.56400000  0.72200000  0.37930000  1.0 -0.500049326
N  N76  1  0.56400000  0.27800000  0.62070000  1.0 -0.500049326
N  N77  1  0.72200000  0.43600000  0.37930000  1.0 -0.500049326
N  N78  1  0.72200000  0.56400000  0.62070000  1.0 -0.500049326
N  N79  1  0.27800000  0.43600000  0.62070000  1.0 -0.500049326
N  N80  1  0.43600000  0.72200000  0.62070000  1.0 -0.500049326
O  O1  1  0.39330000  0.20820000  0.13340000  1.0 -0.4108231919
O  O2  1  0.79180000  0.39330000  0.13340000  1.0 -0.4108231919
O  O3  1  0.20820000  0.60670000  0.13340000  1.0 -0.4108231919
O  O4  1  0.20820000  0.39330000  0.86660000  1.0 -0.4108231919
O  O5  1  0.60670000  0.79180000  0.13340000  1.0 -0.4108231919
O  O6  1  0.60670000  0.20820000  0.86660000  1.0 -0.4108231919
O  O7  1  0.39330000  0.79180000  0.86660000  1.0 -0.4108231919
O  O8  1  0.79180000  0.60670000  0.86660000  1.0 -0.4108231919
O  O9  1  0.10670000  0.29180000  0.36660000  1.0 -0.4108231919
O  O10  1  0.70820000  0.10670000  0.36660000  1.0 -0.4108231919
O  O11  1  0.29180000  0.89330000  0.36660000  1.0 -0.4108231919
O  O12  1  0.29180000  0.10670000  0.63340000  1.0 -0.4108231919
O  O13  1  0.89330000  0.70820000  0.36660000  1.0 -0.4108231919
O  O14  1  0.89330000  0.29180000  0.63340000  1.0 -0.4108231919
O  O15  1  0.10670000  0.70820000  0.63340000  1.0 -0.4108231919
O  O16  1  0.70820000  0.89330000  0.63340000  1.0 -0.4108231919
O  O17  1  0.26130000  0.16310000  0.08730000  1.0 -0.4608692558
O  O18  1  0.83690000  0.26130000  0.08730000  1.0 -0.4608692558
O  O19  1  0.16310000  0.73870000  0.08730000  1.0 -0.4608692558
O  O20  1  0.16310000  0.26130000  0.91270000  1.0 -0.4608692558
O  O21  1  0.73870000  0.83690000  0.08730000  1.0 -0.4608692558
O  O22  1  0.73870000  0.16310000  0.91270000  1.0 -0.4608692558
O  O23  1  0.26130000  0.83690000  0.91270000  1.0 -0.4608692558
O  O24  1  0.83690000  0.73870000  0.91270000  1.0 -0.4608692558
O  O25  1  0.23870000  0.33690000  0.41270000  1.0 -0.4608692558
O  O26  1  0.66310000  0.23870000  0.41270000  1.0 -0.4608692558
O  O27  1  0.33690000  0.76130000  0.41270000  1.0 -0.4608692558
O  O28  1  0.33690000  0.23870000  0.58730000  1.0 -0.4608692558
O  O29  1  0.76130000  0.66310000  0.41270000  1.0 -0.4608692558
O  O30  1  0.76130000  0.33690000  0.58730000  1.0 -0.4608692558
O  O31  1  0.23870000  0.66310000  0.58730000  1.0 -0.4608692558
O  O32  1  0.66310000  0.76130000  0.58730000  1.0 -0.4608692558
