# DDEC6 charges by PACMAN v1.1 (https://github.com/mtap-research/PACMAN-charge/)
data_KOMJAZ_ASR_pacman
_symmetry_space_group_name_H-M   'P 1'
_cell_length_a   12.62800000
_cell_length_b   12.62800000
_cell_length_c   17.85200000
_cell_angle_alpha   90.00000000
_cell_angle_beta   90.00000000
_cell_angle_gamma   120.00000000
_symmetry_Int_Tables_number   1
_chemical_formula_structural   Dy2Cd3H48(C6O5)6
_chemical_formula_sum   'Dy4 Cd6 H96 C72 O60'
_cell_volume   2465.39582563
_cell_formula_units_Z   2
loop_
 _symmetry_equiv_pos_site_id
 _symmetry_equiv_pos_as_xyz
  1  'x, y, z'
loop_
 _atom_site_type_symbol
 _atom_site_label
 _atom_site_symmetry_multiplicity
 _atom_site_fract_x
 _atom_site_fract_y
 _atom_site_fract_z
 _atom_site_occupancy
 _atom_site_charge
Dy  Dy1  1  0.66666667  0.33333333  0.25000000  1.0 1.7527136922
Dy  Dy2  1  0.33333333  0.66666667  0.25000000  1.0 1.7527136922
Dy  Dy3  1  0.33333333  0.66666667  0.75000000  1.0 1.7527136922
Dy  Dy4  1  0.66666667  0.33333333  0.75000000  1.0 1.7527136922
Cd  Cd1  1  0.50000000  0.00000000  0.00000000  1.0 1.0761637906
Cd  Cd2  1  0.50000000  0.50000000  0.00000000  1.0 1.0761637906
Cd  Cd3  1  0.00000000  0.50000000  0.00000000  1.0 1.0761637906
Cd  Cd4  1  0.00000000  0.50000000  0.50000000  1.0 1.0761637906
Cd  Cd5  1  0.50000000  0.00000000  0.50000000  1.0 1.0761637906
Cd  Cd6  1  0.50000000  0.50000000  0.50000000  1.0 1.0761637906
H  H1  1  0.38213000  0.24673000  0.15230000  1.0 0.1191768877
H  H2  1  0.13540000  0.38213000  0.15230000  1.0 0.1191768877
H  H3  1  0.75327000  0.13540000  0.15230000  1.0 0.1191768877
H  H4  1  0.61787000  0.75327000  0.15230000  1.0 0.1191768877
H  H5  1  0.86460000  0.61787000  0.15230000  1.0 0.1191768877
H  H6  1  0.24673000  0.86460000  0.15230000  1.0 0.1191768877
H  H7  1  0.75327000  0.61787000  0.34770000  1.0 0.1191768877
H  H8  1  0.13540000  0.75327000  0.34770000  1.0 0.1191768877
H  H9  1  0.38213000  0.13540000  0.34770000  1.0 0.1191768877
H  H10  1  0.24673000  0.38213000  0.34770000  1.0 0.1191768877
H  H11  1  0.86460000  0.24673000  0.34770000  1.0 0.1191768877
H  H12  1  0.61787000  0.86460000  0.34770000  1.0 0.1191768877
H  H13  1  0.61787000  0.75327000  0.84770000  1.0 0.1191768877
H  H14  1  0.86460000  0.61787000  0.84770000  1.0 0.1191768877
H  H15  1  0.24673000  0.86460000  0.84770000  1.0 0.1191768877
H  H16  1  0.38213000  0.24673000  0.84770000  1.0 0.1191768877
H  H17  1  0.13540000  0.38213000  0.84770000  1.0 0.1191768877
H  H18  1  0.75327000  0.13540000  0.84770000  1.0 0.1191768877
H  H19  1  0.24673000  0.38213000  0.65230000  1.0 0.1191768877
H  H20  1  0.86460000  0.24673000  0.65230000  1.0 0.1191768877
H  H21  1  0.61787000  0.86460000  0.65230000  1.0 0.1191768877
H  H22  1  0.75327000  0.61787000  0.65230000  1.0 0.1191768877
H  H23  1  0.13540000  0.75327000  0.65230000  1.0 0.1191768877
H  H24  1  0.38213000  0.13540000  0.65230000  1.0 0.1191768877
H  H25  1  0.29773000  0.11593000  0.18790000  1.0 0.0735313415
H  H26  1  0.18180000  0.29773000  0.18790000  1.0 0.0735313415
H  H27  1  0.88407000  0.18180000  0.18790000  1.0 0.0735313415
H  H28  1  0.70227000  0.88407000  0.18790000  1.0 0.0735313415
H  H29  1  0.81820000  0.70227000  0.18790000  1.0 0.0735313415
H  H30  1  0.11593000  0.81820000  0.18790000  1.0 0.0735313415
H  H31  1  0.88407000  0.70227000  0.31210000  1.0 0.0735313415
H  H32  1  0.18180000  0.88407000  0.31210000  1.0 0.0735313415
H  H33  1  0.29773000  0.18180000  0.31210000  1.0 0.0735313415
H  H34  1  0.11593000  0.29773000  0.31210000  1.0 0.0735313415
H  H35  1  0.81820000  0.11593000  0.31210000  1.0 0.0735313415
H  H36  1  0.70227000  0.81820000  0.31210000  1.0 0.0735313415
H  H37  1  0.70227000  0.88407000  0.81210000  1.0 0.0735313415
H  H38  1  0.81820000  0.70227000  0.81210000  1.0 0.0735313415
H  H39  1  0.11593000  0.81820000  0.81210000  1.0 0.0735313415
H  H40  1  0.29773000  0.11593000  0.81210000  1.0 0.0735313415
H  H41  1  0.18180000  0.29773000  0.81210000  1.0 0.0735313415
H  H42  1  0.88407000  0.18180000  0.81210000  1.0 0.0735313415
H  H43  1  0.11593000  0.29773000  0.68790000  1.0 0.0735313415
H  H44  1  0.81820000  0.11593000  0.68790000  1.0 0.0735313415
H  H45  1  0.70227000  0.81820000  0.68790000  1.0 0.0735313415
H  H46  1  0.88407000  0.70227000  0.68790000  1.0 0.0735313415
H  H47  1  0.18180000  0.88407000  0.68790000  1.0 0.0735313415
H  H48  1  0.29773000  0.18180000  0.68790000  1.0 0.0735313415
H  H49  1  0.38303000  0.03923000  0.23610000  1.0 0.0787924833
H  H50  1  0.34380000  0.38303000  0.23610000  1.0 0.0787924833
H  H51  1  0.96077000  0.34380000  0.23610000  1.0 0.0787924833
H  H52  1  0.61697000  0.96077000  0.23610000  1.0 0.0787924833
H  H53  1  0.65620000  0.61697000  0.23610000  1.0 0.0787924833
H  H54  1  0.03923000  0.65620000  0.23610000  1.0 0.0787924833
H  H55  1  0.96077000  0.61697000  0.26390000  1.0 0.0787924833
H  H56  1  0.34380000  0.96077000  0.26390000  1.0 0.0787924833
H  H57  1  0.38303000  0.34380000  0.26390000  1.0 0.0787924833
H  H58  1  0.03923000  0.38303000  0.26390000  1.0 0.0787924833
H  H59  1  0.65620000  0.03923000  0.26390000  1.0 0.0787924833
H  H60  1  0.61697000  0.65620000  0.26390000  1.0 0.0787924833
H  H61  1  0.61697000  0.96077000  0.76390000  1.0 0.0787924833
H  H62  1  0.65620000  0.61697000  0.76390000  1.0 0.0787924833
H  H63  1  0.03923000  0.65620000  0.76390000  1.0 0.0787924833
H  H64  1  0.38303000  0.03923000  0.76390000  1.0 0.0787924833
H  H65  1  0.34380000  0.38303000  0.76390000  1.0 0.0787924833
H  H66  1  0.96077000  0.34380000  0.76390000  1.0 0.0787924833
H  H67  1  0.03923000  0.38303000  0.73610000  1.0 0.0787924833
H  H68  1  0.65620000  0.03923000  0.73610000  1.0 0.0787924833
H  H69  1  0.61697000  0.65620000  0.73610000  1.0 0.0787924833
H  H70  1  0.96077000  0.61697000  0.73610000  1.0 0.0787924833
H  H71  1  0.34380000  0.96077000  0.73610000  1.0 0.0787924833
H  H72  1  0.38303000  0.34380000  0.73610000  1.0 0.0787924833
H  H73  1  0.30123000  0.08243000  0.19410000  1.0 0.0787924833
H  H74  1  0.21880000  0.30123000  0.19410000  1.0 0.0787924833
H  H75  1  0.91757000  0.21880000  0.19410000  1.0 0.0787924833
H  H76  1  0.69877000  0.91757000  0.19410000  1.0 0.0787924833
H  H77  1  0.78120000  0.69877000  0.19410000  1.0 0.0787924833
H  H78  1  0.08243000  0.78120000  0.19410000  1.0 0.0787924833
H  H79  1  0.91757000  0.69877000  0.30590000  1.0 0.0787924833
H  H80  1  0.21880000  0.91757000  0.30590000  1.0 0.0787924833
H  H81  1  0.30123000  0.21880000  0.30590000  1.0 0.0787924833
H  H82  1  0.08243000  0.30123000  0.30590000  1.0 0.0787924833
H  H83  1  0.78120000  0.08243000  0.30590000  1.0 0.0787924833
H  H84  1  0.69877000  0.78120000  0.30590000  1.0 0.0787924833
H  H85  1  0.69877000  0.91757000  0.80590000  1.0 0.0787924833
H  H86  1  0.78120000  0.69877000  0.80590000  1.0 0.0787924833
H  H87  1  0.08243000  0.78120000  0.80590000  1.0 0.0787924833
H  H88  1  0.30123000  0.08243000  0.80590000  1.0 0.0787924833
H  H89  1  0.21880000  0.30123000  0.80590000  1.0 0.0787924833
H  H90  1  0.91757000  0.21880000  0.80590000  1.0 0.0787924833
H  H91  1  0.08243000  0.30123000  0.69410000  1.0 0.0787924833
H  H92  1  0.78120000  0.08243000  0.69410000  1.0 0.0787924833
H  H93  1  0.69877000  0.78120000  0.69410000  1.0 0.0787924833
H  H94  1  0.91757000  0.69877000  0.69410000  1.0 0.0787924833
H  H95  1  0.21880000  0.91757000  0.69410000  1.0 0.0787924833
H  H96  1  0.30123000  0.21880000  0.69410000  1.0 0.0787924833
C  C1  1  0.46043000  0.13123000  0.14000000  1.0 0.4987976272
C  C2  1  0.32920000  0.46043000  0.14000000  1.0 0.4987976272
C  C3  1  0.86877000  0.32920000  0.14000000  1.0 0.4987976272
C  C4  1  0.53957000  0.86877000  0.14000000  1.0 0.4987976272
C  C5  1  0.67080000  0.53957000  0.14000000  1.0 0.4987976272
C  C6  1  0.13123000  0.67080000  0.14000000  1.0 0.4987976272
C  C7  1  0.86877000  0.53957000  0.36000000  1.0 0.4987976272
C  C8  1  0.32920000  0.86877000  0.36000000  1.0 0.4987976272
C  C9  1  0.46043000  0.32920000  0.36000000  1.0 0.4987976272
C  C10  1  0.13123000  0.46043000  0.36000000  1.0 0.4987976272
C  C11  1  0.67080000  0.13123000  0.36000000  1.0 0.4987976272
C  C12  1  0.53957000  0.67080000  0.36000000  1.0 0.4987976272
C  C13  1  0.53957000  0.86877000  0.86000000  1.0 0.4987976272
C  C14  1  0.67080000  0.53957000  0.86000000  1.0 0.4987976272
C  C15  1  0.13123000  0.67080000  0.86000000  1.0 0.4987976272
C  C16  1  0.46043000  0.13123000  0.86000000  1.0 0.4987976272
C  C17  1  0.32920000  0.46043000  0.86000000  1.0 0.4987976272
C  C18  1  0.86877000  0.32920000  0.86000000  1.0 0.4987976272
C  C19  1  0.13123000  0.46043000  0.64000000  1.0 0.4987976272
C  C20  1  0.67080000  0.13123000  0.64000000  1.0 0.4987976272
C  C21  1  0.53957000  0.67080000  0.64000000  1.0 0.4987976272
C  C22  1  0.86877000  0.53957000  0.64000000  1.0 0.4987976272
C  C23  1  0.32920000  0.86877000  0.64000000  1.0 0.4987976272
C  C24  1  0.46043000  0.32920000  0.64000000  1.0 0.4987976272
C  C25  1  0.38193000  0.18093000  0.18000000  1.0 -0.1101510319
C  C26  1  0.20100000  0.38193000  0.18000000  1.0 -0.1101510319
C  C27  1  0.81907000  0.20100000  0.18000000  1.0 -0.1101510319
C  C28  1  0.61807000  0.81907000  0.18000000  1.0 -0.1101510319
C  C29  1  0.79900000  0.61807000  0.18000000  1.0 -0.1101510319
C  C30  1  0.18093000  0.79900000  0.18000000  1.0 -0.1101510319
C  C31  1  0.81907000  0.61807000  0.32000000  1.0 -0.1101510319
C  C32  1  0.20100000  0.81907000  0.32000000  1.0 -0.1101510319
C  C33  1  0.38193000  0.20100000  0.32000000  1.0 -0.1101510319
C  C34  1  0.18093000  0.38193000  0.32000000  1.0 -0.1101510319
C  C35  1  0.79900000  0.18093000  0.32000000  1.0 -0.1101510319
C  C36  1  0.61807000  0.79900000  0.32000000  1.0 -0.1101510319
C  C37  1  0.61807000  0.81907000  0.82000000  1.0 -0.1101510319
C  C38  1  0.79900000  0.61807000  0.82000000  1.0 -0.1101510319
C  C39  1  0.18093000  0.79900000  0.82000000  1.0 -0.1101510319
C  C40  1  0.38193000  0.18093000  0.82000000  1.0 -0.1101510319
C  C41  1  0.20100000  0.38193000  0.82000000  1.0 -0.1101510319
C  C42  1  0.81907000  0.20100000  0.82000000  1.0 -0.1101510319
C  C43  1  0.18093000  0.38193000  0.68000000  1.0 -0.1101510319
C  C44  1  0.79900000  0.18093000  0.68000000  1.0 -0.1101510319
C  C45  1  0.61807000  0.79900000  0.68000000  1.0 -0.1101510319
C  C46  1  0.81907000  0.61807000  0.68000000  1.0 -0.1101510319
C  C47  1  0.20100000  0.81907000  0.68000000  1.0 -0.1101510319
C  C48  1  0.38193000  0.20100000  0.68000000  1.0 -0.1101510319
C  C49  1  0.38393000  0.10493000  0.20720000  1.0 -0.1230535227
C  C50  1  0.27900000  0.38393000  0.20720000  1.0 -0.1230535227
C  C51  1  0.89507000  0.27900000  0.20720000  1.0 -0.1230535227
C  C52  1  0.61607000  0.89507000  0.20720000  1.0 -0.1230535227
C  C53  1  0.72100000  0.61607000  0.20720000  1.0 -0.1230535227
C  C54  1  0.10493000  0.72100000  0.20720000  1.0 -0.1230535227
C  C55  1  0.89507000  0.61607000  0.29280000  1.0 -0.1230535227
C  C56  1  0.27900000  0.89507000  0.29280000  1.0 -0.1230535227
C  C57  1  0.38393000  0.27900000  0.29280000  1.0 -0.1230535227
C  C58  1  0.10493000  0.38393000  0.29280000  1.0 -0.1230535227
C  C59  1  0.72100000  0.10493000  0.29280000  1.0 -0.1230535227
C  C60  1  0.61607000  0.72100000  0.29280000  1.0 -0.1230535227
C  C61  1  0.61607000  0.89507000  0.79280000  1.0 -0.1230535227
C  C62  1  0.72100000  0.61607000  0.79280000  1.0 -0.1230535227
C  C63  1  0.10493000  0.72100000  0.79280000  1.0 -0.1230535227
C  C64  1  0.38393000  0.10493000  0.79280000  1.0 -0.1230535227
C  C65  1  0.27900000  0.38393000  0.79280000  1.0 -0.1230535227
C  C66  1  0.89507000  0.27900000  0.79280000  1.0 -0.1230535227
C  C67  1  0.10493000  0.38393000  0.70720000  1.0 -0.1230535227
C  C68  1  0.72100000  0.10493000  0.70720000  1.0 -0.1230535227
C  C69  1  0.61607000  0.72100000  0.70720000  1.0 -0.1230535227
C  C70  1  0.89507000  0.61607000  0.70720000  1.0 -0.1230535227
C  C71  1  0.27900000  0.89507000  0.70720000  1.0 -0.1230535227
C  C72  1  0.38393000  0.27900000  0.70720000  1.0 -0.1230535227
O  O1  1  0.44543000  0.22272000  0.25000000  1.0 -0.1838738551
O  O2  1  0.22272000  0.44543000  0.25000000  1.0 -0.1838738551
O  O3  1  0.77728000  0.22272000  0.25000000  1.0 -0.1838738551
O  O4  1  0.55457000  0.77728000  0.25000000  1.0 -0.1838738551
O  O5  1  0.77728000  0.55457000  0.25000000  1.0 -0.1838738551
O  O6  1  0.22272000  0.77728000  0.25000000  1.0 -0.1838738551
O  O7  1  0.55457000  0.77728000  0.75000000  1.0 -0.1838738551
O  O8  1  0.77728000  0.55457000  0.75000000  1.0 -0.1838738551
O  O9  1  0.22272000  0.77728000  0.75000000  1.0 -0.1838738551
O  O10  1  0.44543000  0.22272000  0.75000000  1.0 -0.1838738551
O  O11  1  0.22272000  0.44543000  0.75000000  1.0 -0.1838738551
O  O12  1  0.77728000  0.22272000  0.75000000  1.0 -0.1838738551
O  O13  1  0.56723000  0.17983000  0.15610000  1.0 -0.5534173429
O  O14  1  0.38740000  0.56723000  0.15610000  1.0 -0.5534173429
O  O15  1  0.82017000  0.38740000  0.15610000  1.0 -0.5534173429
O  O16  1  0.43277000  0.82017000  0.15610000  1.0 -0.5534173429
O  O17  1  0.61260000  0.43277000  0.15610000  1.0 -0.5534173429
O  O18  1  0.17983000  0.61260000  0.15610000  1.0 -0.5534173429
O  O19  1  0.82017000  0.43277000  0.34390000  1.0 -0.5534173429
O  O20  1  0.38740000  0.82017000  0.34390000  1.0 -0.5534173429
O  O21  1  0.56723000  0.38740000  0.34390000  1.0 -0.5534173429
O  O22  1  0.17983000  0.56723000  0.34390000  1.0 -0.5534173429
O  O23  1  0.61260000  0.17983000  0.34390000  1.0 -0.5534173429
O  O24  1  0.43277000  0.61260000  0.34390000  1.0 -0.5534173429
O  O25  1  0.43277000  0.82017000  0.84390000  1.0 -0.5534173429
O  O26  1  0.61260000  0.43277000  0.84390000  1.0 -0.5534173429
O  O27  1  0.17983000  0.61260000  0.84390000  1.0 -0.5534173429
O  O28  1  0.56723000  0.17983000  0.84390000  1.0 -0.5534173429
O  O29  1  0.38740000  0.56723000  0.84390000  1.0 -0.5534173429
O  O30  1  0.82017000  0.38740000  0.84390000  1.0 -0.5534173429
O  O31  1  0.17983000  0.56723000  0.65610000  1.0 -0.5534173429
O  O32  1  0.61260000  0.17983000  0.65610000  1.0 -0.5534173429
O  O33  1  0.43277000  0.61260000  0.65610000  1.0 -0.5534173429
O  O34  1  0.82017000  0.43277000  0.65610000  1.0 -0.5534173429
O  O35  1  0.38740000  0.82017000  0.65610000  1.0 -0.5534173429
O  O36  1  0.56723000  0.38740000  0.65610000  1.0 -0.5534173429
O  O37  1  0.41113000  0.06163000  0.08400000  1.0 -0.5316918944
O  O38  1  0.34950000  0.41113000  0.08400000  1.0 -0.5316918944
O  O39  1  0.93837000  0.34950000  0.08400000  1.0 -0.5316918944
O  O40  1  0.58887000  0.93837000  0.08400000  1.0 -0.5316918944
O  O41  1  0.65050000  0.58887000  0.08400000  1.0 -0.5316918944
O  O42  1  0.06163000  0.65050000  0.08400000  1.0 -0.5316918944
O  O43  1  0.93837000  0.58887000  0.41600000  1.0 -0.5316918944
O  O44  1  0.34950000  0.93837000  0.41600000  1.0 -0.5316918944
O  O45  1  0.41113000  0.34950000  0.41600000  1.0 -0.5316918944
O  O46  1  0.06163000  0.41113000  0.41600000  1.0 -0.5316918944
O  O47  1  0.65050000  0.06163000  0.41600000  1.0 -0.5316918944
O  O48  1  0.58887000  0.65050000  0.41600000  1.0 -0.5316918944
O  O49  1  0.58887000  0.93837000  0.91600000  1.0 -0.5316918944
O  O50  1  0.65050000  0.58887000  0.91600000  1.0 -0.5316918944
O  O51  1  0.06163000  0.65050000  0.91600000  1.0 -0.5316918944
O  O52  1  0.41113000  0.06163000  0.91600000  1.0 -0.5316918944
O  O53  1  0.34950000  0.41113000  0.91600000  1.0 -0.5316918944
O  O54  1  0.93837000  0.34950000  0.91600000  1.0 -0.5316918944
O  O55  1  0.06163000  0.41113000  0.58400000  1.0 -0.5316918944
O  O56  1  0.65050000  0.06163000  0.58400000  1.0 -0.5316918944
O  O57  1  0.58887000  0.65050000  0.58400000  1.0 -0.5316918944
O  O58  1  0.93837000  0.58887000  0.58400000  1.0 -0.5316918944
O  O59  1  0.34950000  0.93837000  0.58400000  1.0 -0.5316918944
O  O60  1  0.41113000  0.34950000  0.58400000  1.0 -0.5316918944
