# DDEC6 charges by PACMAN v1.1 (https://github.com/mtap-research/PACMAN-charge/)
data_KONFIE_ASR_pacman
_symmetry_space_group_name_H-M   'P 1'
_cell_length_a   6.97500000
_cell_length_b   12.90100000
_cell_length_c   13.55100000
_cell_angle_alpha   90.00000000
_cell_angle_beta   100.72900000
_cell_angle_gamma   90.00000000
_symmetry_Int_Tables_number   1
_chemical_formula_structural   Ce2C12S3(NO2)6
_chemical_formula_sum   'Ce4 C24 S6 N12 O24'
_cell_volume   1198.06327533
_cell_formula_units_Z   2
loop_
 _symmetry_equiv_pos_site_id
 _symmetry_equiv_pos_as_xyz
  1  'x, y, z'
loop_
 _atom_site_type_symbol
 _atom_site_label
 _atom_site_symmetry_multiplicity
 _atom_site_fract_x
 _atom_site_fract_y
 _atom_site_fract_z
 _atom_site_occupancy
 _atom_site_charge
Ce  Ce1  1  0.79337000  0.03988000  0.95877000  1.0 1.9653928267
Ce  Ce2  1  0.20663000  0.53988000  0.04123000  1.0 1.9633965479
Ce  Ce3  1  0.58528000  0.96235000  0.44136000  1.0 2.0549496399
Ce  Ce4  1  0.41472000  0.46235000  0.55864000  1.0 2.0549496399
C  C1  1  0.95500000  0.01310000  0.22610000  1.0 0.0621460113
C  C2  1  0.04500000  0.51310000  0.77390000  1.0 0.0621460113
C  C3  1  0.09100000  0.98630000  0.31070000  1.0 0.070639609
C  C4  1  0.90900000  0.48630000  0.68930000  1.0 0.070639609
C  C5  1  0.73800000  0.99800000  0.20270000  1.0 0.5903671371
C  C6  1  0.26200000  0.49800000  0.79730000  1.0 0.5903671371
C  C7  1  0.07200000  0.93090000  0.40720000  1.0 0.5971060084
C  C8  1  0.92800000  0.43090000  0.59280000  1.0 0.5971060084
C  C9  1  0.62700000  0.12850000  0.71270000  1.0 0.070639609
C  C10  1  0.37300000  0.62850000  0.28730000  1.0 0.070639609
C  C11  1  0.54100000  0.20450000  0.64220000  1.0 0.0511029722
C  C12  1  0.45900000  0.70450000  0.35780000  1.0 0.0511029722
C  C13  1  0.67700000  0.01940000  0.70330000  1.0 0.5971060084
C  C14  1  0.32300000  0.51940000  0.29670000  1.0 0.5971060084
C  C15  1  0.44300000  0.19960000  0.53410000  1.0 0.6072067009
C  C16  1  0.55700000  0.69960000  0.46590000  1.0 0.6072067009
C  C17  1  0.35600000  0.17990000  0.98440000  1.0 0.0621460113
C  C18  1  0.64400000  0.67990000  0.01560000  1.0 0.0621460113
C  C19  1  0.25400000  0.26690000  0.00760000  1.0 0.0256858157
C  C20  1  0.74600000  0.76690000  0.99240000  1.0 0.0256858157
C  C21  1  0.28700000  0.07990000  0.92790000  1.0 0.5790230619
C  C22  1  0.71300000  0.57990000  0.07210000  1.0 0.5790230619
C  C23  1  0.04100000  0.28870000  0.99420000  1.0 0.5727699088
C  C24  1  0.95900000  0.78870000  0.00580000  1.0 0.5727699088
S  S1  1  0.25830000  0.05860000  0.18830000  1.0 0.4200122343
S  S2  1  0.74170000  0.55860000  0.81170000  1.0 0.4200122343
S  S3  1  0.63290000  0.29180000  0.79900000  1.0 0.3649259792
S  S4  1  0.36710000  0.79180000  0.20100000  1.0 0.3649259792
S  S5  1  0.59690000  0.30740000  0.05230000  1.0 0.5218611942
S  S6  1  0.40310000  0.80740000  0.94770000  1.0 0.5218611942
N  N1  1  0.02500000  0.04750000  0.15040000  1.0 -0.3606953038
N  N2  1  0.97500000  0.54750000  0.84960000  1.0 -0.3606953038
N  N3  1  0.26900000  0.01070000  0.29980000  1.0 -0.3806548653
N  N4  1  0.73100000  0.51070000  0.70020000  1.0 -0.3806548653
N  N5  1  0.68600000  0.16790000  0.80120000  1.0 -0.3743073357
N  N6  1  0.31400000  0.66790000  0.19880000  1.0 -0.3743073357
N  N7  1  0.53700000  0.29830000  0.68460000  1.0 -0.3806548653
N  N8  1  0.46300000  0.79830000  0.31540000  1.0 -0.3806548653
N  N9  1  0.54700000  0.19370000  0.00510000  1.0 -0.403232084
N  N10  1  0.45300000  0.69370000  0.99490000  1.0 -0.403232084
N  N11  1  0.37500000  0.34360000  0.04620000  1.0 -0.3476892723
N  N12  1  0.62500000  0.84360000  0.95380000  1.0 -0.3476892723
O  O1  1  0.65400000  0.99570000  0.10960000  1.0 -0.625852467
O  O2  1  0.34600000  0.49570000  0.89040000  1.0 -0.625852467
O  O3  1  0.63970000  0.99450000  0.27010000  1.0 -0.6080507649
O  O4  1  0.36030000  0.49450000  0.72990000  1.0 -0.6080507649
O  O5  1  0.92200000  0.90720000  0.42700000  1.0 -0.5172342075
O  O6  1  0.07800000  0.40720000  0.57300000  1.0 -0.5172342075
O  O7  1  0.24300000  0.91130000  0.46470000  1.0 -0.6080507649
O  O8  1  0.75700000  0.41130000  0.53530000  1.0 -0.6080507649
O  O9  1  0.74040000  0.97110000  0.78520000  1.0 -0.5682359649
O  O10  1  0.25960000  0.47110000  0.21480000  1.0 -0.5682359649
O  O11  1  0.67100000  0.97510000  0.62010000  1.0 -0.5808147801
O  O12  1  0.32900000  0.47510000  0.37990000  1.0 -0.5808147801
O  O13  1  0.41500000  0.11200000  0.49250000  1.0 -0.6237729205
O  O14  1  0.58500000  0.61200000  0.50750000  1.0 -0.6237729205
O  O15  1  0.38500000  0.28280000  0.49060000  1.0 -0.5553078665
O  O16  1  0.61500000  0.78280000  0.50940000  1.0 -0.5553078665
O  O17  1  0.42200000  0.02730000  0.90300000  1.0 -0.5808147801
O  O18  1  0.57800000  0.52730000  0.09700000  1.0 -0.5808147801
O  O19  1  0.11260000  0.05890000  0.90820000  1.0 -0.5515944375
O  O20  1  0.88740000  0.55890000  0.09180000  1.0 -0.5515944375
O  O21  1  0.92700000  0.21990000  0.99480000  1.0 -0.5515944375
O  O22  1  0.07300000  0.71990000  0.00520000  1.0 -0.5515944375
O  O23  1  0.00000000  0.38460000  0.99110000  1.0 -0.5935254706
O  O24  1  0.00000000  0.88460000  0.00890000  1.0 -0.5935254706
