# DDEC6 charges by PACMAN v1.1 (https://github.com/mtap-research/PACMAN-charge/)
data_KONFEA_FSR_pacman
_symmetry_space_group_name_H-M   'P 1'
_cell_length_a   7.04040000
_cell_length_b   13.00150000
_cell_length_c   13.73380000
_cell_angle_alpha   90.00000000
_cell_angle_beta   100.88100000
_cell_angle_gamma   90.00000000
_symmetry_Int_Tables_number   1
_chemical_formula_structural   La2C12S3N6O13
_chemical_formula_sum   'La4 C24 S6 N12 O26'
_cell_volume   1234.53227883
_cell_formula_units_Z   2
loop_
 _symmetry_equiv_pos_site_id
 _symmetry_equiv_pos_as_xyz
  1  'x, y, z'
loop_
 _atom_site_type_symbol
 _atom_site_label
 _atom_site_symmetry_multiplicity
 _atom_site_fract_x
 _atom_site_fract_y
 _atom_site_fract_z
 _atom_site_occupancy
 _atom_site_charge
La  La1  1  0.20765000  0.96156000  0.04226000  1.0 1.7284485692
La  La2  1  0.79235000  0.46156000  0.95774000  1.0 1.7357992524
La  La3  1  0.41322000  0.03591000  0.55926000  1.0 1.8103226417
La  La4  1  0.58678000  0.53591000  0.44074000  1.0 1.8103226417
C  C1  1  0.05200000  0.99040000  0.77520000  1.0 0.0432446258
C  C2  1  0.94800000  0.49040000  0.22480000  1.0 0.0432446258
C  C3  1  0.90940000  0.01390000  0.68900000  1.0 0.0918864266
C  C4  1  0.09060000  0.51390000  0.31100000  1.0 0.0918864266
C  C5  1  0.26720000  0.00290000  0.79930000  1.0 0.5843095177
C  C6  1  0.73280000  0.50290000  0.20070000  1.0 0.5843095177
C  C7  1  0.92100000  0.06890000  0.59240000  1.0 0.5896603101
C  C8  1  0.07900000  0.56890000  0.40760000  1.0 0.5896603101
C  C9  1  0.37240000  0.86960000  0.28860000  1.0 0.0838383616
C  C10  1  0.62760000  0.36960000  0.71140000  1.0 0.0838383616
C  C11  1  0.45930000  0.79490000  0.35820000  1.0 0.0698129286
C  C12  1  0.54070000  0.29490000  0.64180000  1.0 0.0698129286
C  C13  1  0.32140000  0.98300000  0.29670000  1.0 0.6188270742
C  C14  1  0.67860000  0.48300000  0.70330000  1.0 0.6188270742
C  C15  1  0.55870000  0.80130000  0.46580000  1.0 0.6039207571
C  C16  1  0.44130000  0.30130000  0.53420000  1.0 0.6039207571
C  C17  1  0.64220000  0.82090000  0.01830000  1.0 0.0641024628
C  C18  1  0.35780000  0.32090000  0.98170000  1.0 0.0641024628
C  C19  1  0.74420000  0.73500000  0.99250000  1.0 0.0698129286
C  C20  1  0.25580000  0.23500000  0.00750000  1.0 0.0698129286
C  C21  1  0.70960000  0.92040000  0.07220000  1.0 0.5896603101
C  C22  1  0.29040000  0.42040000  0.92780000  1.0 0.5896603101
C  C23  1  0.95660000  0.71210000  0.00320000  1.0 0.5843095177
C  C24  1  0.04340000  0.21210000  0.99680000  1.0 0.5896603101
S  S1  1  0.74190000  0.94264000  0.81226000  1.0 0.4211233997
S  S2  1  0.25810000  0.44264000  0.18774000  1.0 0.4211233997
S  S3  1  0.36790000  0.70876000  0.20186000  1.0 0.3592153781
S  S4  1  0.63210000  0.20876000  0.79814000  1.0 0.3592153781
S  S5  1  0.40470000  0.69318000  0.95077000  1.0 0.5031685227
S  S6  1  0.59530000  0.19318000  0.04923000  1.0 0.5031685227
N  N1  1  0.97420000  0.95020000  0.84930000  1.0 -0.3514989695
N  N2  1  0.02580000  0.45020000  0.15070000  1.0 -0.3514989695
N  N3  1  0.73100000  0.99000000  0.70130000  1.0 -0.3781057006
N  N4  1  0.26900000  0.49000000  0.29870000  1.0 -0.3781057006
N  N5  1  0.31510000  0.83090000  0.19890000  1.0 -0.3449750549
N  N6  1  0.68490000  0.33090000  0.80110000  1.0 -0.3449750549
N  N7  1  0.46350000  0.70210000  0.31660000  1.0 -0.3514989695
N  N8  1  0.53650000  0.20210000  0.68340000  1.0 -0.3514989695
N  N9  1  0.45200000  0.80800000  0.99670000  1.0 -0.3598887032
N  N10  1  0.54800000  0.30800000  0.00330000  1.0 -0.3598887032
N  N11  1  0.62840000  0.65990000  0.95600000  1.0 -0.3123014277
N  N12  1  0.37160000  0.15990000  0.04400000  1.0 -0.3123014277
O  O1  1  0.34170000  0.00460000  0.88840000  1.0 -0.5603203942
O  O2  1  0.65830000  0.50460000  0.11160000  1.0 -0.5603203942
O  O3  1  0.35890000  0.00670000  0.73050000  1.0 -0.5603203942
O  O4  1  0.64110000  0.50670000  0.26950000  1.0 -0.5603203942
O  O5  1  0.07840000  0.09090000  0.57310000  1.0 -0.5306944555
O  O6  1  0.92160000  0.59090000  0.42690000  1.0 -0.5306944555
O  O7  1  0.75770000  0.08760000  0.53930000  1.0 -0.5408520347
O  O8  1  0.24230000  0.58760000  0.46070000  1.0 -0.5408520347
O  O9  1  0.26650000  0.02800000  0.21660000  1.0 -0.5306944555
O  O10  1  0.73350000  0.52800000  0.78340000  1.0 -0.5306944555
O  O11  1  0.32700000  0.02060000  0.38030000  1.0 -0.5509309775
O  O12  1  0.67300000  0.52060000  0.61970000  1.0 -0.5509309775
O  O13  1  0.58700000  0.88730000  0.50670000  1.0 -0.5603203942
O  O14  1  0.41300000  0.38730000  0.49330000  1.0 -0.5603203942
O  O15  1  0.61750000  0.71710000  0.50590000  1.0 -0.5408520347
O  O16  1  0.38250000  0.21710000  0.49410000  1.0 -0.5408520347
O  O17  1  0.57890000  0.97470000  0.09720000  1.0 -0.5509309775
O  O18  1  0.42110000  0.47470000  0.90280000  1.0 -0.5603203942
O  O19  1  0.88570000  0.94100000  0.09120000  1.0 -0.5408520347
O  O20  1  0.11430000  0.44100000  0.90880000  1.0 -0.5509309775
O  O21  1  0.07290000  0.78290000  0.00460000  1.0 -0.5603203942
O  O22  1  0.92710000  0.28290000  0.99540000  1.0 -0.5603203942
O  O23  1  0.99960000  0.61750000  0.00760000  1.0 -0.5603203942
O  O24  1  0.00040000  0.11750000  0.99240000  1.0 -0.5603203942
O  O25  1  0.19730000  0.87630000  0.54900000  1.0 -0.1266025236
O  O26  1  0.80270000  0.37630000  0.45100000  1.0 -0.1266025236
