# DDEC6 charges by PACMAN v1.1 (https://github.com/mtap-research/PACMAN-charge/)
data_KOSLIP_ASR_pacman
_symmetry_space_group_name_H-M   'P 1'
_cell_length_a   15.05110000
_cell_length_b   15.05110000
_cell_length_c   15.05110000
_cell_angle_alpha   117.80300000
_cell_angle_beta   117.80300000
_cell_angle_gamma   117.80300000
_symmetry_Int_Tables_number   1
_chemical_formula_structural   NiHC4O3
_chemical_formula_sum   'Ni6 H6 C24 O18'
_cell_volume   1295.50317321
_cell_formula_units_Z   6
loop_
 _symmetry_equiv_pos_site_id
 _symmetry_equiv_pos_as_xyz
  1  'x, y, z'
loop_
 _atom_site_type_symbol
 _atom_site_label
 _atom_site_symmetry_multiplicity
 _atom_site_fract_x
 _atom_site_fract_y
 _atom_site_fract_z
 _atom_site_occupancy
 _atom_site_charge
Ni  Ni1  1  0.88230000  0.18720000  0.60120000  1.0 0.8993683055
Ni  Ni2  1  0.18720000  0.60120000  0.88230000  1.0 0.8993683055
Ni  Ni3  1  0.60120000  0.88230000  0.18720000  1.0 0.8993683055
Ni  Ni4  1  0.18720000  0.88230000  0.60120000  1.0 0.8993683055
Ni  Ni5  1  0.88230000  0.60120000  0.18720000  1.0 0.8993683055
Ni  Ni6  1  0.60120000  0.18720000  0.88230000  1.0 0.8993683055
H  H1  1  0.74950000  0.25900000  0.74950000  1.0 0.1840797856
H  H2  1  0.25900000  0.74950000  0.74950000  1.0 0.1840797856
H  H3  1  0.74950000  0.74950000  0.25900000  1.0 0.1840797856
H  H4  1  0.44850000  0.88300000  0.44850000  1.0 0.1377744868
H  H5  1  0.88300000  0.44850000  0.44850000  1.0 0.1377744868
H  H6  1  0.44850000  0.44850000  0.88300000  1.0 0.1377744868
C  C1  1  0.04910000  0.49160000  0.95530000  1.0 0.4013854259
C  C2  1  0.49160000  0.95530000  0.04910000  1.0 0.4013854259
C  C3  1  0.95530000  0.04910000  0.49160000  1.0 0.4013854259
C  C4  1  0.49160000  0.04910000  0.95530000  1.0 0.4013854259
C  C5  1  0.04910000  0.95530000  0.49160000  1.0 0.4013854259
C  C6  1  0.95530000  0.49160000  0.04910000  1.0 0.4013854259
C  C7  1  0.90415000  0.41170000  0.90415000  1.0 -0.39091908
C  C8  1  0.41170000  0.90415000  0.90415000  1.0 -0.39091908
C  C9  1  0.90415000  0.90415000  0.41170000  1.0 -0.39091908
C  C10  1  0.27240000  0.69890000  0.18170000  1.0 -0.1876235461
C  C11  1  0.69890000  0.18170000  0.27240000  1.0 -0.1876235461
C  C12  1  0.18170000  0.27240000  0.69890000  1.0 -0.1876235461
C  C13  1  0.69890000  0.27240000  0.18170000  1.0 -0.1876235461
C  C14  1  0.27240000  0.18170000  0.69890000  1.0 -0.1876235461
C  C15  1  0.18170000  0.69890000  0.27240000  1.0 -0.1876235461
C  C16  1  0.43940000  0.79400000  0.25260000  1.0 0.6117195978
C  C17  1  0.79400000  0.25260000  0.43940000  1.0 0.6117195978
C  C18  1  0.25260000  0.43940000  0.79400000  1.0 0.6117195978
C  C19  1  0.79400000  0.43940000  0.25260000  1.0 0.6117195978
C  C20  1  0.43940000  0.25260000  0.79400000  1.0 0.6117195978
C  C21  1  0.25260000  0.79400000  0.43940000  1.0 0.6117195978
C  C22  1  0.32455000  0.76490000  0.32455000  1.0 -0.0638887192
C  C23  1  0.76490000  0.32455000  0.32455000  1.0 -0.0638887192
C  C24  1  0.32455000  0.32455000  0.76490000  1.0 -0.0638887192
O  O1  1  0.01790000  0.43810000  0.83600000  1.0 -0.5256341502
O  O2  1  0.43810000  0.83600000  0.01790000  1.0 -0.5256341502
O  O3  1  0.83600000  0.01790000  0.43810000  1.0 -0.5256341502
O  O4  1  0.43810000  0.01790000  0.83600000  1.0 -0.5256341502
O  O5  1  0.01790000  0.83600000  0.43810000  1.0 -0.5256341502
O  O6  1  0.83600000  0.43810000  0.01790000  1.0 -0.5256341502
O  O7  1  0.40540000  0.75260000  0.13300000  1.0 -0.5663694348
O  O8  1  0.75260000  0.13300000  0.40540000  1.0 -0.5663694348
O  O9  1  0.13300000  0.40540000  0.75260000  1.0 -0.5663694348
O  O10  1  0.75260000  0.40540000  0.13300000  1.0 -0.5663694348
O  O11  1  0.40540000  0.13300000  0.75260000  1.0 -0.5663694348
O  O12  1  0.13300000  0.75260000  0.40540000  1.0 -0.5663694348
O  O13  1  0.63020000  0.96580000  0.45700000  1.0 -0.5663694348
O  O14  1  0.96580000  0.45700000  0.63020000  1.0 -0.5663694348
O  O15  1  0.45700000  0.63020000  0.96580000  1.0 -0.5663694348
O  O16  1  0.96580000  0.63020000  0.45700000  1.0 -0.5663694348
O  O17  1  0.63020000  0.45700000  0.96580000  1.0 -0.5663694348
O  O18  1  0.45700000  0.96580000  0.63020000  1.0 -0.5663694348
