# DDEC6 charges by PACMAN v1.1 (https://github.com/mtap-research/PACMAN-charge/)
data_KOVGOT_FSR_pacman
_symmetry_space_group_name_H-M   'P 1'
_cell_length_a   15.74500000
_cell_length_b   26.50600000
_cell_length_c   27.76500000
_cell_angle_alpha   86.97600000
_cell_angle_beta   84.13900000
_cell_angle_gamma   88.30200000
_symmetry_Int_Tables_number   1
_chemical_formula_structural   Zn4Mo12PH15C27O47
_chemical_formula_sum   'Zn16 Mo48 P4 H60 C108 O188'
_cell_volume   11507.30928300
_cell_formula_units_Z   4
loop_
 _symmetry_equiv_pos_site_id
 _symmetry_equiv_pos_as_xyz
  1  'x, y, z'
loop_
 _atom_site_type_symbol
 _atom_site_label
 _atom_site_symmetry_multiplicity
 _atom_site_fract_x
 _atom_site_fract_y
 _atom_site_fract_z
 _atom_site_occupancy
 _atom_site_charge
Zn  Zn1  1  0.34789000  0.30713000  0.42449000  1.0 1.0794042697
Zn  Zn2  1  0.65211000  0.69287000  0.57551000  1.0 1.0794042697
Zn  Zn3  1  0.27609000  0.48316000  0.28166000  1.0 1.0794042697
Zn  Zn4  1  0.72391000  0.51684000  0.71834000  1.0 1.0794042697
Zn  Zn5  1  0.63795000  0.39759000  0.30772000  1.0 1.0794042697
Zn  Zn6  1  0.36205000  0.60241000  0.69228000  1.0 1.0794042697
Zn  Zn7  1  0.42696000  0.52829000  0.45733000  1.0 1.0525874248
Zn  Zn8  1  0.57304000  0.47171000  0.54267000  1.0 1.0525874248
Zn  Zn9  1  0.60148000  0.00870000  0.02681000  1.0 1.0989038696
Zn  Zn10  1  0.39852000  0.99130000  0.97319000  1.0 1.0989038696
Zn  Zn11  1  0.39870000  0.92919000  0.21538000  1.0 1.0794042697
Zn  Zn12  1  0.60130000  0.07081000  0.78462000  1.0 1.0794042697
Zn  Zn13  1  0.56848000  0.78421000  0.08931000  1.0 1.0638748755
Zn  Zn14  1  0.43152000  0.21579000  0.91069000  1.0 1.0638748755
Zn  Zn15  1  0.78892000  0.92782000  0.18548000  1.0 1.0794042697
Zn  Zn16  1  0.21108000  0.07218000  0.81452000  1.0 1.074801003
Mo  Mo1  1  0.27954000  0.34579000  0.30859000  1.0 1.9897478251
Mo  Mo2  1  0.72046000  0.65421000  0.69141000  1.0 1.9897478251
Mo  Mo3  1  0.19386000  0.39765000  0.37546000  1.0 1.9982797256
Mo  Mo4  1  0.80614000  0.60235000  0.62454000  1.0 1.9982797256
Mo  Mo5  1  0.56797000  0.32511000  0.41324000  1.0 2.0605810991
Mo  Mo6  1  0.43203000  0.67489000  0.58676000  1.0 2.0605810991
Mo  Mo7  1  0.49992000  0.49372000  0.25165000  1.0 1.9982797256
Mo  Mo8  1  0.50008000  0.50628000  0.74835000  1.0 1.9982797256
Mo  Mo9  1  0.45790000  0.40227000  0.23768000  1.0 1.9897478251
Mo  Mo10  1  0.54210000  0.59773000  0.76232000  1.0 1.9897478251
Mo  Mo11  1  0.28656000  0.42446000  0.48428000  1.0 1.9897478251
Mo  Mo12  1  0.71344000  0.57554000  0.51572000  1.0 1.9897478251
Mo  Mo13  1  0.48520000  0.30225000  0.31731000  1.0 2.0483092418
Mo  Mo14  1  0.51480000  0.69775000  0.68269000  1.0 2.0415880551
Mo  Mo15  1  0.39628000  0.56817000  0.33712000  1.0 2.0415880551
Mo  Mo16  1  0.60372000  0.43183000  0.66288000  1.0 2.0415880551
Mo  Mo17  1  0.23804000  0.51875000  0.40113000  1.0 2.0483092418
Mo  Mo18  1  0.76196000  0.48125000  0.59887000  1.0 2.0605810991
Mo  Mo19  1  0.44320000  0.39393000  0.49542000  1.0 1.6180709352
Mo  Mo20  1  0.55680000  0.60607000  0.50458000  1.0 1.6180709352
Mo  Mo21  1  0.59391000  0.52060000  0.36014000  1.0 1.9897478251
Mo  Mo22  1  0.40609000  0.47940000  0.63986000  1.0 1.9897478251
Mo  Mo23  1  0.61798000  0.44819000  0.42531000  1.0 1.9501948109
Mo  Mo24  1  0.38202000  0.55181000  0.57469000  1.0 1.9501948109
Mo  Mo25  1  0.78216000  0.83215000  0.10182000  1.0 1.9897478251
Mo  Mo26  1  0.21784000  0.16785000  0.89818000  1.0 1.9897478251
Mo  Mo27  1  0.70086000  0.80124000  0.18397000  1.0 1.9897478251
Mo  Mo28  1  0.29914000  0.19876000  0.81603000  1.0 1.9982797256
Mo  Mo29  1  0.48288000  0.80570000  0.20825000  1.0 2.0483092418
Mo  Mo30  1  0.51712000  0.19430000  0.79175000  1.0 2.0483092418
Mo  Mo31  1  0.79472000  0.95548000  0.06072000  1.0 2.0104239336
Mo  Mo32  1  0.20528000  0.04452000  0.93928000  1.0 2.0249131074
Mo  Mo33  1  0.59426000  0.89124000  0.26340000  1.0 1.9982797256
Mo  Mo34  1  0.40574000  0.10876000  0.73660000  1.0 1.9982797256
Mo  Mo35  1  0.66508000  0.88132000  0.00338000  1.0 1.9982797256
Mo  Mo36  1  0.33492000  0.11868000  0.99662000  1.0 1.9982797256
Mo  Mo37  1  0.39490000  0.97546000  0.09299000  1.0 1.9675557962
Mo  Mo38  1  0.60510000  0.02454000  0.90701000  1.0 1.9675557962
Mo  Mo39  1  0.59861000  0.98705000  0.23739000  1.0 2.0104239336
Mo  Mo40  1  0.40139000  0.01295000  0.76261000  1.0 2.0104239336
Mo  Mo41  1  0.70043000  0.03534000  0.13065000  1.0 2.0415880551
Mo  Mo42  1  0.29957000  0.96466000  0.86935000  1.0 2.0415880551
Mo  Mo43  1  0.48138000  0.03641000  0.13947000  1.0 1.9897478251
Mo  Mo44  1  0.51862000  0.96359000  0.86053000  1.0 1.9897478251
Mo  Mo45  1  0.49812000  0.88670000  0.01629000  1.0 1.9390061846
Mo  Mo46  1  0.50188000  0.11330000  0.98371000  1.0 1.9390061846
Mo  Mo47  1  0.37881000  0.84834000  0.12199000  1.0 2.0605810991
Mo  Mo48  1  0.62119000  0.15166000  0.87801000  1.0 2.0605810991
P  P1  1  0.42209000  0.42837000  0.36679000  1.0 1.4199429502
P  P2  1  0.57791000  0.57163000  0.63321000  1.0 1.4199429502
P  P3  1  0.59060000  0.91052000  0.13038000  1.0 1.4334001889
P  P4  1  0.40940000  0.08948000  0.86962000  1.0 1.4334001889
H  H1  1  0.01040000  0.06390000  0.40960000  1.0 0.1195693012
H  H2  1  0.98960000  0.93610000  0.59040000  1.0 0.1195693012
H  H3  1  0.83790000  0.97910000  0.48650000  1.0 0.1195693012
H  H4  1  0.16210000  0.02090000  0.51350000  1.0 0.1195693012
H  H5  1  0.93620000  0.09780000  0.54550000  1.0 0.1195693012
H  H6  1  0.06380000  0.90220000  0.45450000  1.0 0.1195693012
H  H7  1  0.96710000  0.17680000  0.51200000  1.0 0.1299970321
H  H8  1  0.03290000  0.82320000  0.48800000  1.0 0.1299970321
H  H9  1  0.05510000  0.24470000  0.50510000  1.0 0.1299970321
H  H10  1  0.94490000  0.75530000  0.49490000  1.0 0.1299970321
H  H11  1  0.23170000  0.16130000  0.42860000  1.0 0.1368403455
H  H12  1  0.76830000  0.83870000  0.57140000  1.0 0.1368403455
H  H13  1  0.14430000  0.09590000  0.43620000  1.0 0.1299970321
H  H14  1  0.85570000  0.90410000  0.56380000  1.0 0.1299970321
H  H15  1  0.88040000  0.92290000  0.43060000  1.0 0.1195693012
H  H16  1  0.11960000  0.07710000  0.56940000  1.0 0.1195693012
H  H17  1  0.85880000  0.87930000  0.36310000  1.0 0.1299970321
H  H18  1  0.14120000  0.12070000  0.63690000  1.0 0.1299970321
H  H19  1  0.91480000  0.00570000  0.27990000  1.0 0.1299970321
H  H20  1  0.08520000  0.99430000  0.72010000  1.0 0.1299970321
H  H21  1  0.94660000  0.04410000  0.34950000  1.0 0.1195693012
H  H22  1  0.05340000  0.95590000  0.65050000  1.0 0.1195693012
H  H23  1  0.72740000  0.99270000  0.55020000  1.0 0.1299970321
H  H24  1  0.27260000  0.00730000  0.44980000  1.0 0.1299970321
H  H25  1  0.64920000  0.98380000  0.62460000  1.0 0.1299970321
H  H26  1  0.35080000  0.01620000  0.37540000  1.0 0.1299970321
H  H27  1  0.83340000  0.04480000  0.68590000  1.0 0.1368403455
H  H28  1  0.16660000  0.95520000  0.31410000  1.0 0.1368403455
H  H29  1  0.91450000  0.05030000  0.61270000  1.0 0.1195693012
H  H30  1  0.08550000  0.94970000  0.38730000  1.0 0.1195693012
H  H31  1  0.94660000  0.63000000  0.93000000  1.0 0.1368403455
H  H32  1  0.05340000  0.37000000  0.07000000  1.0 0.1368403455
H  H33  1  0.92710000  0.59060000  0.07110000  1.0 0.1195693012
H  H34  1  0.07290000  0.40940000  0.92890000  1.0 0.1195693012
H  H35  1  0.13120000  0.54520000  0.98530000  1.0 0.1299970321
H  H36  1  0.86880000  0.45480000  0.01470000  1.0 0.1299970321
H  H37  1  0.12290000  0.50980000  0.90580000  1.0 0.1149138486
H  H38  1  0.87710000  0.49020000  0.09420000  1.0 0.1149138486
H  H39  1  0.19740000  0.50620000  0.82940000  1.0 0.1299970321
H  H40  1  0.80260000  0.49380000  0.17060000  1.0 0.1299970321
H  H41  1  0.16350000  0.65410000  0.80700000  1.0 0.1195693012
H  H42  1  0.83650000  0.34590000  0.19300000  1.0 0.1195693012
H  H43  1  0.08280000  0.65830000  0.88190000  1.0 0.1299970321
H  H44  1  0.91720000  0.34170000  0.11810000  1.0 0.1299970321
H  H45  1  0.78710000  0.60620000  0.95230000  1.0 0.1368403455
H  H46  1  0.21290000  0.39380000  0.04770000  1.0 0.1368403455
H  H47  1  0.65670000  0.64260000  0.96020000  1.0 0.1195693012
H  H48  1  0.34330000  0.35740000  0.03980000  1.0 0.1195693012
H  H49  1  0.71560000  0.70760000  0.07740000  1.0 0.1368403455
H  H50  1  0.28440000  0.29240000  0.92260000  1.0 0.1368403455
H  H51  1  0.84840000  0.67470000  0.06870000  1.0 0.1454369327
H  H52  1  0.15160000  0.32530000  0.93130000  1.0 0.1454369327
H  H53  1  0.03160000  0.59250000  0.12650000  1.0 0.1299970321
H  H54  1  0.96840000  0.40750000  0.87350000  1.0 0.1299970321
H  H55  1  0.09180000  0.55610000  0.19230000  1.0 0.1299970321
H  H56  1  0.90820000  0.44390000  0.80770000  1.0 0.1299970321
H  H57  1  0.19830000  0.44880000  0.11060000  1.0 0.1195693012
H  H58  1  0.80170000  0.55120000  0.88940000  1.0 0.1195693012
H  H59  1  0.13680000  0.48350000  0.04520000  1.0 0.1195693012
H  H60  1  0.86320000  0.51650000  0.95480000  1.0 0.1195693012
C  C1  1  0.98440000  0.08680000  0.47820000  1.0 0.0883510581
C  C2  1  0.01560000  0.91320000  0.52180000  1.0 0.0883510581
C  C3  1  0.97630000  0.05770000  0.43850000  1.0 -0.1914018144
C  C4  1  0.02370000  0.94230000  0.56150000  1.0 -0.1914018144
C  C5  1  0.91590000  0.01840000  0.44240000  1.0 0.0883510581
C  C6  1  0.08410000  0.98160000  0.55760000  1.0 0.0883510581
C  C7  1  0.87260000  0.00710000  0.48400000  1.0 -0.1695956835
C  C8  1  0.12740000  0.99290000  0.51600000  1.0 -0.1695956835
C  C9  1  0.87610000  0.03540000  0.52490000  1.0 0.0883510581
C  C10  1  0.12390000  0.96460000  0.47510000  1.0 0.0883510581
C  C11  1  0.93380000  0.07710000  0.51970000  1.0 -0.1914018144
C  C12  1  0.06620000  0.92290000  0.48030000  1.0 -0.1914018144
C  C13  1  0.04430000  0.13000000  0.47430000  1.0 0.0710172107
C  C14  1  0.95570000  0.87000000  0.52570000  1.0 0.0710172107
C  C15  1  0.02080000  0.17390000  0.49500000  1.0 -0.1425074537
C  C16  1  0.97920000  0.82610000  0.50500000  1.0 -0.1425074537
C  C17  1  0.07390000  0.21450000  0.49160000  1.0 -0.0874993847
C  C18  1  0.92610000  0.78550000  0.50840000  1.0 -0.0874993847
C  C19  1  0.15470000  0.21030000  0.46830000  1.0 0.0035254973
C  C20  1  0.84530000  0.78970000  0.53170000  1.0 0.0035254973
C  C21  1  0.17840000  0.16440000  0.44610000  1.0 -0.0810573779
C  C22  1  0.82160000  0.83560000  0.55390000  1.0 -0.0810573779
C  C23  1  0.12630000  0.12610000  0.44990000  1.0 -0.1513194051
C  C24  1  0.87370000  0.87390000  0.55010000  1.0 -0.1513194051
C  C25  1  0.21000000  0.25600000  0.46330000  1.0 0.5287334075
C  C26  1  0.79000000  0.74400000  0.53670000  1.0 0.5287334075
C  C27  1  0.90960000  0.98970000  0.39820000  1.0 0.0710172107
C  C28  1  0.09040000  0.01030000  0.60180000  1.0 0.0710172107
C  C29  1  0.88700000  0.93990000  0.40030000  1.0 -0.1695956835
C  C30  1  0.11300000  0.06010000  0.59970000  1.0 -0.1695956835
C  C31  1  0.87330000  0.91320000  0.36020000  1.0 -0.0874993847
C  C32  1  0.12670000  0.08680000  0.63980000  1.0 -0.0874993847
C  C33  1  0.88240000  0.94020000  0.31450000  1.0 -0.0121549956
C  C34  1  0.11760000  0.05980000  0.68550000  1.0 -0.0121549956
C  C35  1  0.90810000  0.98840000  0.31000000  1.0 -0.0810573779
C  C36  1  0.09190000  0.01160000  0.69000000  1.0 -0.0874993847
C  C37  1  0.92440000  0.01180000  0.35260000  1.0 -0.1580040901
C  C38  1  0.07560000  0.98820000  0.64740000  1.0 -0.1580040901
C  C39  1  0.85690000  0.91420000  0.27140000  1.0 0.5662493656
C  C40  1  0.14310000  0.08580000  0.72860000  1.0 0.5620429268
C  C41  1  0.82600000  0.02560000  0.57250000  1.0 0.0710172107
C  C42  1  0.17400000  0.97440000  0.42750000  1.0 0.0710172107
C  C43  1  0.74930000  0.00430000  0.57730000  1.0 -0.1513194051
C  C44  1  0.25070000  0.99570000  0.42270000  1.0 -0.1513194051
C  C45  1  0.70190000  0.99910000  0.62220000  1.0 -0.0810573779
C  C46  1  0.29810000  0.00090000  0.37780000  1.0 -0.0810573779
C  C47  1  0.73140000  0.01630000  0.66320000  1.0 -0.0121549956
C  C48  1  0.26860000  0.98370000  0.33680000  1.0 -0.0176169741
C  C49  1  0.81060000  0.03460000  0.65850000  1.0 -0.0810573779
C  C50  1  0.18940000  0.96540000  0.34150000  1.0 -0.0810573779
C  C51  1  0.85910000  0.03870000  0.61440000  1.0 -0.1513194051
C  C52  1  0.14090000  0.96130000  0.38560000  1.0 -0.1580040901
C  C53  1  0.67520000  0.01520000  0.71030000  1.0 0.541112577
C  C54  1  0.32480000  0.98480000  0.28970000  1.0 0.541112577
C  C55  1  0.04700000  0.58710000  0.95040000  1.0 0.0979387363
C  C56  1  0.95300000  0.41290000  0.04960000  1.0 0.0979387363
C  C57  1  0.96800000  0.61330000  0.95660000  1.0 -0.1914018144
C  C58  1  0.03200000  0.38670000  0.04340000  1.0 -0.1914018144
C  C59  1  0.92260000  0.61450000  0.00050000  1.0 0.0883510581
C  C60  1  0.07740000  0.38550000  0.99950000  1.0 0.0883510581
C  C61  1  0.95780000  0.59040000  0.04060000  1.0 -0.1989695081
C  C62  1  0.04220000  0.40960000  0.95940000  1.0 -0.1989695081
C  C63  1  0.03770000  0.56630000  0.03550000  1.0 0.0883510581
C  C64  1  0.96230000  0.43370000  0.96450000  1.0 0.0883510581
C  C65  1  0.07990000  0.56350000  0.98960000  1.0 -0.1833261648
C  C66  1  0.92010000  0.43650000  0.01040000  1.0 -0.1833261648
C  C67  1  0.09360000  0.58520000  0.90050000  1.0 0.0710172107
C  C68  1  0.90640000  0.41480000  0.09950000  1.0 0.0710172107
C  C69  1  0.12980000  0.53890000  0.88560000  1.0 -0.1580040901
C  C70  1  0.87020000  0.46110000  0.11440000  1.0 -0.1513194051
C  C71  1  0.17630000  0.53720000  0.84010000  1.0 -0.0810573779
C  C72  1  0.82370000  0.46280000  0.15990000  1.0 -0.0810573779
C  C73  1  0.19170000  0.57980000  0.81090000  1.0 -0.0121549956
C  C74  1  0.80830000  0.42020000  0.18910000  1.0 -0.0121549956
C  C75  1  0.15540000  0.62480000  0.82670000  1.0 -0.0738048727
C  C76  1  0.84460000  0.37520000  0.17330000  1.0 -0.0738048727
C  C77  1  0.10630000  0.62750000  0.87190000  1.0 -0.1513194051
C  C78  1  0.89370000  0.37250000  0.12810000  1.0 -0.1425074537
C  C79  1  0.24320000  0.57610000  0.76230000  1.0 0.541112577
C  C80  1  0.75680000  0.42390000  0.23770000  1.0 0.541112577
C  C81  1  0.83360000  0.63620000  0.00710000  1.0 0.0883510581
C  C82  1  0.16640000  0.36380000  0.99290000  1.0 0.0883510581
C  C83  1  0.77320000  0.62740000  0.97780000  1.0 -0.1198566655
C  C84  1  0.22680000  0.37260000  0.02220000  1.0 -0.1198566655
C  C85  1  0.69380000  0.64790000  0.98340000  1.0 -0.1077632854
C  C86  1  0.30620000  0.35210000  0.01660000  1.0 -0.1077632854
C  C87  1  0.66530000  0.67680000  0.02280000  1.0 -0.0630939664
C  C88  1  0.33470000  0.32320000  0.97720000  1.0 -0.0630939664
C  C89  1  0.72970000  0.68630000  0.05210000  1.0 -0.0810573779
C  C90  1  0.27030000  0.31370000  0.94790000  1.0 -0.0810573779
C  C91  1  0.80950000  0.66760000  0.04710000  1.0 -0.1335224236
C  C92  1  0.19050000  0.33240000  0.95290000  1.0 -0.1335224236
C  C93  1  0.57890000  0.69820000  0.02780000  1.0 0.4081510356
C  C94  1  0.42110000  0.30180000  0.97220000  1.0 0.4081510356
C  C95  1  0.07400000  0.54160000  0.07860000  1.0 0.0824373192
C  C96  1  0.92600000  0.45840000  0.92140000  1.0 0.0824373192
C  C97  1  0.06450000  0.56290000  0.12290000  1.0 -0.1580040901
C  C98  1  0.93550000  0.43710000  0.87710000  1.0 -0.1580040901
C  C99  1  0.10190000  0.54200000  0.16220000  1.0 -0.0810573779
C  C100  1  0.89810000  0.45800000  0.83780000  1.0 -0.0810573779
C  C101  1  0.15250000  0.50170000  0.15660000  1.0 -0.0121549956
C  C102  1  0.84750000  0.49830000  0.84340000  1.0 -0.0121549956
C  C103  1  0.16470000  0.47820000  0.11340000  1.0 -0.0874993847
C  C104  1  0.83530000  0.52180000  0.88660000  1.0 -0.0874993847
C  C105  1  0.12700000  0.49860000  0.07480000  1.0 -0.1695956835
C  C106  1  0.87300000  0.50140000  0.92520000  1.0 -0.1695956835
C  C107  1  0.20140000  0.48020000  0.19780000  1.0 0.5662493656
C  C108  1  0.79860000  0.51980000  0.80220000  1.0 0.5662493656
O  O1  1  0.33160000  0.43790000  0.39210000  1.0 -0.8398363705
O  O2  1  0.66840000  0.56210000  0.60790000  1.0 -0.8398363705
O  O3  1  0.45880000  0.47710000  0.34170000  1.0 -0.8398363705
O  O4  1  0.54120000  0.52290000  0.65830000  1.0 -0.8398363705
O  O5  1  0.48090000  0.40790000  0.40590000  1.0 -0.8499055192
O  O6  1  0.51910000  0.59210000  0.59410000  1.0 -0.8499055192
O  O7  1  0.41580000  0.38960000  0.32750000  1.0 -0.8398363705
O  O8  1  0.58420000  0.61040000  0.67250000  1.0 -0.8398363705
O  O9  1  0.09660000  0.37690000  0.37230000  1.0 -0.4693670868
O  O10  1  0.90340000  0.62310000  0.62770000  1.0 -0.4693670868
O  O11  1  0.63820000  0.45080000  0.35370000  1.0 -0.8499055192
O  O12  1  0.36180000  0.54920000  0.64630000  1.0 -0.8499055192
O  O13  1  0.39170000  0.46100000  0.48550000  1.0 -0.8398363705
O  O14  1  0.60830000  0.53900000  0.51450000  1.0 -0.8398363705
O  O15  1  0.46090000  0.30090000  0.38880000  1.0 -0.9121108154
O  O16  1  0.53910000  0.69910000  0.61120000  1.0 -0.9121108154
O  O17  1  0.20010000  0.31310000  0.29070000  1.0 -0.4897685809
O  O18  1  0.79990000  0.68690000  0.70930000  1.0 -0.4897685809
O  O19  1  0.35440000  0.54710000  0.40680000  1.0 -0.9289696315
O  O20  1  0.64560000  0.45290000  0.59320000  1.0 -0.9289696315
O  O21  1  0.58260000  0.33850000  0.34070000  1.0 -0.9201229313
O  O22  1  0.41740000  0.66150000  0.65930000  1.0 -0.9201229313
O  O23  1  0.34860000  0.36100000  0.47110000  1.0 -0.8222694496
O  O24  1  0.65140000  0.63900000  0.52890000  1.0 -0.8222694496
O  O25  1  0.29160000  0.52890000  0.33240000  1.0 -0.9121108154
O  O26  1  0.70840000  0.47110000  0.66760000  1.0 -0.9121108154
O  O27  1  0.55740000  0.42840000  0.26260000  1.0 -0.8294435789
O  O28  1  0.44260000  0.57160000  0.73740000  1.0 -0.8294435789
O  O29  1  0.26970000  0.33880000  0.37920000  1.0 -0.8222694496
O  O30  1  0.73030000  0.66120000  0.62080000  1.0 -0.8294435789
O  O31  1  0.55690000  0.42820000  0.49040000  1.0 -0.8499055192
O  O32  1  0.44310000  0.57180000  0.50960000  1.0 -0.8499055192
O  O33  1  0.23870000  0.41690000  0.30910000  1.0 -0.8398363705
O  O34  1  0.76130000  0.58310000  0.69090000  1.0 -0.8398363705
O  O35  1  0.64430000  0.37450000  0.41810000  1.0 -0.7808567632
O  O36  1  0.35570000  0.62550000  0.58190000  1.0 -0.7808567632
O  O37  1  0.59770000  0.52100000  0.28440000  1.0 -0.8398363705
O  O38  1  0.40230000  0.47900000  0.71560000  1.0 -0.8398363705
O  O39  1  0.54180000  0.50720000  0.42640000  1.0 -0.8570751199
O  O40  1  0.45820000  0.49280000  0.57360000  1.0 -0.8570751199
O  O41  1  0.33800000  0.36900000  0.24210000  1.0 -0.8398363705
O  O42  1  0.66200000  0.63100000  0.75790000  1.0 -0.8398363705
O  O43  1  0.42980000  0.38000000  0.55500000  1.0 0.1299970321
O  O44  1  0.57020000  0.62000000  0.44500000  1.0 0.1299970321
O  O45  1  0.24000000  0.49180000  0.46280000  1.0 -0.7709638843
O  O46  1  0.76000000  0.50820000  0.53720000  1.0 -0.7709638843
O  O47  1  0.19120000  0.39380000  0.44960000  1.0 -0.8398363705
O  O48  1  0.80880000  0.60620000  0.55040000  1.0 -0.8398363705
O  O49  1  0.50200000  0.57410000  0.35690000  1.0 -0.7892166982
O  O50  1  0.49800000  0.42590000  0.64310000  1.0 -0.7892166982
O  O51  1  0.43140000  0.55370000  0.27510000  1.0 -0.7560508797
O  O52  1  0.56860000  0.44630000  0.72490000  1.0 -0.7560508797
O  O53  1  0.38840000  0.46390000  0.24850000  1.0 -0.8398363705
O  O54  1  0.61160000  0.53610000  0.75150000  1.0 -0.8398363705
O  O55  1  0.50900000  0.33070000  0.47240000  1.0 -0.7709638843
O  O56  1  0.49100000  0.66930000  0.52760000  1.0 -0.7709638843
O  O57  1  0.48010000  0.40250000  0.17750000  1.0 -0.5191633055
O  O58  1  0.51990000  0.59750000  0.82250000  1.0 -0.5191633055
O  O59  1  0.53250000  0.24400000  0.30930000  1.0 -0.5292614946
O  O60  1  0.46750000  0.75600000  0.69070000  1.0 -0.5292614946
O  O61  1  0.16990000  0.47160000  0.37920000  1.0 -0.7808567632
O  O62  1  0.83010000  0.52840000  0.62080000  1.0 -0.7892166982
O  O63  1  0.24260000  0.41770000  0.54070000  1.0 -0.4983947723
O  O64  1  0.75740000  0.58230000  0.45930000  1.0 -0.4983947723
O  O65  1  0.62520000  0.27010000  0.41990000  1.0 -0.5103016197
O  O66  1  0.37480000  0.72990000  0.58010000  1.0 -0.5103016197
O  O67  1  0.50810000  0.33480000  0.25740000  1.0 -0.7892166982
O  O68  1  0.49190000  0.66520000  0.74260000  1.0 -0.7892166982
O  O69  1  0.37170000  0.29280000  0.31240000  1.0 -0.7808567632
O  O70  1  0.62830000  0.70720000  0.68760000  1.0 -0.7808567632
O  O71  1  0.36090000  0.62820000  0.33130000  1.0 -0.4693670868
O  O72  1  0.63910000  0.37180000  0.66870000  1.0 -0.4693670868
O  O73  1  0.67790000  0.55580000  0.36430000  1.0 -0.4983947723
O  O74  1  0.32210000  0.44420000  0.63570000  1.0 -0.4983947723
O  O75  1  0.17360000  0.57030000  0.40720000  1.0 -0.4897685809
O  O76  1  0.82640000  0.42970000  0.59280000  1.0 -0.4897685809
O  O77  1  0.53360000  0.51260000  0.19440000  1.0 -0.5103016197
O  O78  1  0.46640000  0.48740000  0.80560000  1.0 -0.5103016197
O  O79  1  0.70890000  0.46650000  0.44330000  1.0 -0.4897685809
O  O80  1  0.29110000  0.53350000  0.55670000  1.0 -0.4778582627
O  O81  1  0.28890000  0.24730000  0.44460000  1.0 -0.5389421234
O  O82  1  0.71110000  0.75270000  0.55540000  1.0 -0.5389421234
O  O83  1  0.18260000  0.29560000  0.47630000  1.0 -0.3952918598
O  O84  1  0.81740000  0.70440000  0.52370000  1.0 -0.3952918598
O  O85  1  0.26170000  0.53260000  0.74890000  1.0 -0.4460215221
O  O86  1  0.73830000  0.46740000  0.25110000  1.0 -0.4460215221
O  O87  1  0.26700000  0.61690000  0.74060000  1.0 -0.5103016197
O  O88  1  0.73300000  0.38310000  0.25940000  1.0 -0.5103016197
O  O89  1  0.20150000  0.50780000  0.23390000  1.0 -0.5191633055
O  O90  1  0.79850000  0.49220000  0.76610000  1.0 -0.5191633055
O  O91  1  0.23860000  0.43710000  0.19570000  1.0 -0.4693670868
O  O92  1  0.76140000  0.56290000  0.80430000  1.0 -0.4693670868
O  O93  1  0.66850000  0.89960000  0.09340000  1.0 -0.8499055192
O  O94  1  0.33150000  0.10040000  0.90660000  1.0 -0.8499055192
O  O95  1  0.59150000  0.87140000  0.17370000  1.0 -0.8499055192
O  O96  1  0.40850000  0.12860000  0.82630000  1.0 -0.8499055192
O  O97  1  0.59210000  0.96520000  0.14870000  1.0 -0.8398363705
O  O98  1  0.40790000  0.03480000  0.85130000  1.0 -0.8398363705
O  O99  1  0.50730000  0.90680000  0.10520000  1.0 -0.8499055192
O  O100  1  0.49270000  0.09320000  0.89480000  1.0 -0.8499055192
O  O101  1  0.41550000  0.76090000  0.23170000  1.0 -0.4778582627
O  O102  1  0.58450000  0.23910000  0.76830000  1.0 -0.4778582627
O  O103  1  0.49690000  0.01390000  0.07360000  1.0 -0.8398363705
O  O104  1  0.50310000  0.98610000  0.92640000  1.0 -0.8398363705
O  O105  1  0.50570000  0.93960000  0.24470000  1.0 -0.8398363705
O  O106  1  0.49430000  0.06040000  0.75530000  1.0 -0.8398363705
O  O107  1  0.41390000  0.94540000  0.02810000  1.0 -0.8926573644
O  O108  1  0.58610000  0.05460000  0.97190000  1.0 -0.8926573644
O  O109  1  0.58550000  0.93900000  0.00810000  1.0 -0.8499055192
O  O110  1  0.41450000  0.06100000  0.99190000  1.0 -0.8499055192
O  O111  1  0.69940000  0.00780000  0.06460000  1.0 -0.9289696315
O  O112  1  0.30060000  0.99220000  0.93540000  1.0 -0.9289696315
O  O113  1  0.50560000  0.83980000  0.26030000  1.0 -0.7709638843
O  O114  1  0.49440000  0.16020000  0.73970000  1.0 -0.7709638843
O  O115  1  0.40200000  0.86230000  0.19020000  1.0 -0.9201229313
O  O116  1  0.59800000  0.13770000  0.80980000  1.0 -0.9201229313
O  O117  1  0.68590000  0.93360000  0.23240000  1.0 -0.8294435789
O  O118  1  0.31410000  0.06640000  0.76760000  1.0 -0.8294435789
O  O119  1  0.67800000  0.79290000  0.11630000  1.0 -0.8499055192
O  O120  1  0.32200000  0.20710000  0.88370000  1.0 -0.8499055192
O  O121  1  0.68530000  0.02790000  0.19650000  1.0 -0.7709638843
O  O122  1  0.31470000  0.97210000  0.80350000  1.0 -0.7709638843
O  O123  1  0.50760000  0.03510000  0.21120000  1.0 -0.8570751199
O  O124  1  0.49240000  0.96490000  0.78880000  1.0 -0.8570751199
O  O125  1  0.47480000  0.80110000  0.13750000  1.0 -0.9201229313
O  O126  1  0.52520000  0.19890000  0.86250000  1.0 -0.9201229313
O  O127  1  0.33180000  0.91280000  0.11730000  1.0 -0.7987301895
O  O128  1  0.66820000  0.08720000  0.88270000  1.0 -0.7987301895
O  O129  1  0.41360000  0.84360000  0.05820000  1.0 -0.7709638843
O  O130  1  0.58640000  0.15640000  0.94180000  1.0 -0.7808567632
O  O131  1  0.75480000  0.83090000  0.03050000  1.0 -0.8687010655
O  O132  1  0.24520000  0.16910000  0.96950000  1.0 -0.8687010655
O  O133  1  0.84570000  0.89550000  0.08180000  1.0 -0.7987301895
O  O134  1  0.15430000  0.10450000  0.91820000  1.0 -0.7987301895
O  O135  1  0.57990000  0.83500000  0.03460000  1.0 -0.8398363705
O  O136  1  0.42010000  0.16500000  0.96540000  1.0 -0.8398363705
O  O137  1  0.41830000  0.08750000  0.13810000  1.0 -0.4897685809
O  O138  1  0.58170000  0.91250000  0.86190000  1.0 -0.4897685809
O  O139  1  0.40670000  0.98080000  0.16150000  1.0 -0.8222694496
O  O140  1  0.59330000  0.01920000  0.83850000  1.0 -0.8294435789
O  O141  1  0.75380000  0.93350000  0.00690000  1.0 -0.7709638843
O  O142  1  0.24620000  0.06650000  0.99310000  1.0 -0.7709638843
O  O143  1  0.77810000  0.85630000  0.16650000  1.0 -0.8138280759
O  O144  1  0.22190000  0.14370000  0.83350000  1.0 -0.8138280759
O  O145  1  0.47430000  0.87200000  0.96230000  1.0 -0.4778582627
O  O146  1  0.52570000  0.12800000  0.03770000  1.0 -0.4778582627
O  O147  1  0.58760000  0.77290000  0.20090000  1.0 -0.7709638843
O  O148  1  0.41240000  0.22710000  0.79910000  1.0 -0.7709638843
O  O149  1  0.29490000  0.80980000  0.13230000  1.0 -0.5103016197
O  O150  1  0.70510000  0.19020000  0.86770000  1.0 -0.5103016197
O  O151  1  0.31320000  0.01400000  0.08330000  1.0 -0.4897685809
O  O152  1  0.68680000  0.98600000  0.91670000  1.0 -0.4897685809
O  O153  1  0.77060000  0.08240000  0.12050000  1.0 -0.4897685809
O  O154  1  0.22940000  0.91760000  0.87950000  1.0 -0.4897685809
O  O155  1  0.87950000  0.98950000  0.03730000  1.0 -0.4778582627
O  O156  1  0.12050000  0.01050000  0.96270000  1.0 -0.4897685809
O  O157  1  0.59650000  0.06580000  0.12420000  1.0 -0.7709638843
O  O158  1  0.40350000  0.93420000  0.87580000  1.0 -0.7709638843
O  O159  1  0.68080000  0.86670000  0.94560000  1.0 -0.5191633055
O  O160  1  0.31920000  0.13330000  0.05440000  1.0 -0.5191633055
O  O161  1  0.86140000  0.79030000  0.09840000  1.0 -0.5103016197
O  O162  1  0.13860000  0.20970000  0.90160000  1.0 -0.5103016197
O  O163  1  0.78160000  0.97470000  0.13000000  1.0 -0.9201229313
O  O164  1  0.21840000  0.02530000  0.87000000  1.0 -0.9201229313
O  O165  1  0.60260000  0.01240000  0.29050000  1.0 -0.5103016197
O  O166  1  0.39740000  0.98760000  0.70950000  1.0 -0.5103016197
O  O167  1  0.59770000  0.89250000  0.32260000  1.0 -0.4983947723
O  O168  1  0.40230000  0.10750000  0.67740000  1.0 -0.4983947723
O  O169  1  0.76210000  0.75170000  0.19780000  1.0 -0.4897685809
O  O170  1  0.23790000  0.24830000  0.80220000  1.0 -0.4897685809
O  O171  1  0.68160000  0.83380000  0.25180000  1.0 -0.8499055192
O  O172  1  0.31840000  0.16620000  0.74820000  1.0 -0.8398363705
O  O173  1  0.68960000  0.05180000  0.73590000  1.0 -0.5191633055
O  O174  1  0.31040000  0.94820000  0.26410000  1.0 -0.5191633055
O  O175  1  0.62290000  0.98290000  0.72130000  1.0 -0.4119968215
O  O176  1  0.37710000  0.01710000  0.27870000  1.0 -0.4119968215
O  O177  1  0.55140000  0.71900000  0.06760000  1.0 -0.4778582627
O  O178  1  0.44860000  0.28100000  0.93240000  1.0 -0.4778582627
O  O179  1  0.51740000  0.67430000  0.01070000  1.0 0.0824373192
O  O180  1  0.48260000  0.32570000  0.98930000  1.0 0.0883510581
O  O181  1  0.82320000  0.87070000  0.27590000  1.0 -0.4588536272
O  O182  1  0.17680000  0.12930000  0.72410000  1.0 -0.4588536272
O  O183  1  0.87020000  0.93800000  0.23090000  1.0 -0.5292614946
O  O184  1  0.12980000  0.06200000  0.76910000  1.0 -0.5292614946
O  O185  1  0.47900000  0.38070000  0.54820000  1.0 0.1454369327
O  O186  1  0.52100000  0.61930000  0.45180000  1.0 0.1454369327
O  O187  1  0.53280000  0.69550000  0.99070000  1.0 -0.0176169741
O  O188  1  0.46720000  0.30450000  0.00930000  1.0 -0.0176169741
