# DDEC6 charges by PACMAN v1.1 (https://github.com/mtap-research/PACMAN-charge/)
data_KOZQEX_ASR_pacman
_symmetry_space_group_name_H-M   'P 1'
_cell_length_a   27.86000000
_cell_length_b   27.86000000
_cell_length_c   27.86000000
_cell_angle_alpha   90.00000000
_cell_angle_beta   90.00000000
_cell_angle_gamma   90.00000000
_symmetry_Int_Tables_number   1
_chemical_formula_structural   Cu3H20C42(NO6)2
_chemical_formula_sum   'Cu18 H120 C252 N12 O72'
_cell_volume   21624.36365600
_cell_formula_units_Z   6
loop_
 _symmetry_equiv_pos_site_id
 _symmetry_equiv_pos_as_xyz
  1  'x, y, z'
loop_
 _atom_site_type_symbol
 _atom_site_label
 _atom_site_symmetry_multiplicity
 _atom_site_fract_x
 _atom_site_fract_y
 _atom_site_fract_z
 _atom_site_occupancy
 _atom_site_charge
Cu  Cu1  1  0.50000000  0.50000000  0.24979000  1.0 0.8543510739
Cu  Cu2  1  0.50000000  0.50000000  0.75021000  1.0 0.8543510739
Cu  Cu3  1  0.24979000  0.50000000  0.50000000  1.0 0.8543510739
Cu  Cu4  1  0.50000000  0.24979000  0.50000000  1.0 0.8543510739
Cu  Cu5  1  0.75021000  0.50000000  0.50000000  1.0 0.8543510739
Cu  Cu6  1  0.50000000  0.75021000  0.50000000  1.0 0.8543510739
Cu  Cu7  1  0.50000000  0.50000000  0.15536000  1.0 0.8687621657
Cu  Cu8  1  0.50000000  0.50000000  0.84464000  1.0 0.8687621657
Cu  Cu9  1  0.15536000  0.50000000  0.50000000  1.0 0.8687621657
Cu  Cu10  1  0.50000000  0.15536000  0.50000000  1.0 0.8687621657
Cu  Cu11  1  0.84464000  0.50000000  0.50000000  1.0 0.8687621657
Cu  Cu12  1  0.50000000  0.84464000  0.50000000  1.0 0.8687621657
Cu  Cu13  1  0.45244000  0.00000000  0.00000000  1.0 0.8177339141
Cu  Cu14  1  0.00000000  0.45244000  0.00000000  1.0 0.8177339141
Cu  Cu15  1  0.54756000  0.00000000  0.00000000  1.0 0.8177339141
Cu  Cu16  1  0.00000000  0.54756000  0.00000000  1.0 0.8177339141
Cu  Cu17  1  0.00000000  0.00000000  0.45244000  1.0 0.8177339141
Cu  Cu18  1  0.00000000  0.00000000  0.54756000  1.0 0.8177339141
H  H1  1  0.50000000  0.34860000  0.12990000  1.0 0.1296386408
H  H2  1  0.65140000  0.50000000  0.12990000  1.0 0.1296386408
H  H3  1  0.50000000  0.65140000  0.12990000  1.0 0.1296386408
H  H4  1  0.34860000  0.50000000  0.12990000  1.0 0.1296386408
H  H5  1  0.50000000  0.65140000  0.87010000  1.0 0.1296386408
H  H6  1  0.34860000  0.50000000  0.87010000  1.0 0.1296386408
H  H7  1  0.50000000  0.34860000  0.87010000  1.0 0.1296386408
H  H8  1  0.65140000  0.50000000  0.87010000  1.0 0.1296386408
H  H9  1  0.12990000  0.50000000  0.34860000  1.0 0.1296386408
H  H10  1  0.50000000  0.12990000  0.34860000  1.0 0.1296386408
H  H11  1  0.87010000  0.50000000  0.34860000  1.0 0.1296386408
H  H12  1  0.50000000  0.87010000  0.34860000  1.0 0.1296386408
H  H13  1  0.12990000  0.50000000  0.65140000  1.0 0.1296386408
H  H14  1  0.50000000  0.12990000  0.65140000  1.0 0.1296386408
H  H15  1  0.87010000  0.50000000  0.65140000  1.0 0.1296386408
H  H16  1  0.50000000  0.87010000  0.65140000  1.0 0.1296386408
H  H17  1  0.34860000  0.12990000  0.50000000  1.0 0.1296386408
H  H18  1  0.87010000  0.65140000  0.50000000  1.0 0.1296386408
H  H19  1  0.87010000  0.34860000  0.50000000  1.0 0.1296386408
H  H20  1  0.12990000  0.34860000  0.50000000  1.0 0.1296386408
H  H21  1  0.12990000  0.65140000  0.50000000  1.0 0.1296386408
H  H22  1  0.34860000  0.87010000  0.50000000  1.0 0.1296386408
H  H23  1  0.65140000  0.87010000  0.50000000  1.0 0.1296386408
H  H24  1  0.65140000  0.12990000  0.50000000  1.0 0.1296386408
H  H25  1  0.50000000  0.26590000  0.12820000  1.0 0.1296386408
H  H26  1  0.73410000  0.50000000  0.12820000  1.0 0.1296386408
H  H27  1  0.50000000  0.73410000  0.12820000  1.0 0.1296386408
H  H28  1  0.26590000  0.50000000  0.12820000  1.0 0.1296386408
H  H29  1  0.50000000  0.73410000  0.87180000  1.0 0.1296386408
H  H30  1  0.26590000  0.50000000  0.87180000  1.0 0.1296386408
H  H31  1  0.50000000  0.26590000  0.87180000  1.0 0.1296386408
H  H32  1  0.73410000  0.50000000  0.87180000  1.0 0.1296386408
H  H33  1  0.12820000  0.50000000  0.26590000  1.0 0.1296386408
H  H34  1  0.50000000  0.12820000  0.26590000  1.0 0.1296386408
H  H35  1  0.87180000  0.50000000  0.26590000  1.0 0.1296386408
H  H36  1  0.50000000  0.87180000  0.26590000  1.0 0.1296386408
H  H37  1  0.12820000  0.50000000  0.73410000  1.0 0.1296386408
H  H38  1  0.50000000  0.12820000  0.73410000  1.0 0.1296386408
H  H39  1  0.87180000  0.50000000  0.73410000  1.0 0.1296386408
H  H40  1  0.50000000  0.87180000  0.73410000  1.0 0.1296386408
H  H41  1  0.26590000  0.12820000  0.50000000  1.0 0.1296386408
H  H42  1  0.87180000  0.73410000  0.50000000  1.0 0.1296386408
H  H43  1  0.87180000  0.26590000  0.50000000  1.0 0.1296386408
H  H44  1  0.12820000  0.26590000  0.50000000  1.0 0.1296386408
H  H45  1  0.12820000  0.73410000  0.50000000  1.0 0.1296386408
H  H46  1  0.26590000  0.87180000  0.50000000  1.0 0.1296386408
H  H47  1  0.73410000  0.87180000  0.50000000  1.0 0.1296386408
H  H48  1  0.73410000  0.12820000  0.50000000  1.0 0.1296386408
H  H49  1  0.50000000  0.34680000  0.27410000  1.0 0.1457780902
H  H50  1  0.65320000  0.50000000  0.27410000  1.0 0.1457780902
H  H51  1  0.50000000  0.65320000  0.27410000  1.0 0.1457780902
H  H52  1  0.34680000  0.50000000  0.27410000  1.0 0.1457780902
H  H53  1  0.50000000  0.65320000  0.72590000  1.0 0.1457780902
H  H54  1  0.34680000  0.50000000  0.72590000  1.0 0.1457780902
H  H55  1  0.50000000  0.34680000  0.72590000  1.0 0.1457780902
H  H56  1  0.65320000  0.50000000  0.72590000  1.0 0.1457780902
H  H57  1  0.27410000  0.50000000  0.34680000  1.0 0.1457780902
H  H58  1  0.50000000  0.27410000  0.34680000  1.0 0.1457780902
H  H59  1  0.72590000  0.50000000  0.34680000  1.0 0.1457780902
H  H60  1  0.50000000  0.72590000  0.34680000  1.0 0.1457780902
H  H61  1  0.27410000  0.50000000  0.65320000  1.0 0.1457780902
H  H62  1  0.50000000  0.27410000  0.65320000  1.0 0.1457780902
H  H63  1  0.72590000  0.50000000  0.65320000  1.0 0.1457780902
H  H64  1  0.50000000  0.72590000  0.65320000  1.0 0.1457780902
H  H65  1  0.34680000  0.27410000  0.50000000  1.0 0.1457780902
H  H66  1  0.72590000  0.65320000  0.50000000  1.0 0.1457780902
H  H67  1  0.72590000  0.34680000  0.50000000  1.0 0.1457780902
H  H68  1  0.27410000  0.34680000  0.50000000  1.0 0.1457780902
H  H69  1  0.27410000  0.65320000  0.50000000  1.0 0.1457780902
H  H70  1  0.34680000  0.72590000  0.50000000  1.0 0.1457780902
H  H71  1  0.65320000  0.72590000  0.50000000  1.0 0.1457780902
H  H72  1  0.65320000  0.27410000  0.50000000  1.0 0.1457780902
H  H73  1  0.43230000  0.16780000  0.16780000  1.0 0.1296386408
H  H74  1  0.83220000  0.43230000  0.16780000  1.0 0.1296386408
H  H75  1  0.56770000  0.83220000  0.16780000  1.0 0.1296386408
H  H76  1  0.16780000  0.56770000  0.16780000  1.0 0.1296386408
H  H77  1  0.43230000  0.83220000  0.83220000  1.0 0.1296386408
H  H78  1  0.16780000  0.43230000  0.83220000  1.0 0.1296386408
H  H79  1  0.56770000  0.16780000  0.83220000  1.0 0.1296386408
H  H80  1  0.83220000  0.56770000  0.83220000  1.0 0.1296386408
H  H81  1  0.16780000  0.43230000  0.16780000  1.0 0.1296386408
H  H82  1  0.56770000  0.16780000  0.16780000  1.0 0.1296386408
H  H83  1  0.83220000  0.56770000  0.16780000  1.0 0.1296386408
H  H84  1  0.43230000  0.83220000  0.16780000  1.0 0.1296386408
H  H85  1  0.16780000  0.56770000  0.83220000  1.0 0.1296386408
H  H86  1  0.43230000  0.16780000  0.83220000  1.0 0.1296386408
H  H87  1  0.83220000  0.43230000  0.83220000  1.0 0.1296386408
H  H88  1  0.56770000  0.83220000  0.83220000  1.0 0.1296386408
H  H89  1  0.16780000  0.16780000  0.43230000  1.0 0.1296386408
H  H90  1  0.83220000  0.83220000  0.56770000  1.0 0.1296386408
H  H91  1  0.83220000  0.16780000  0.43230000  1.0 0.1296386408
H  H92  1  0.16780000  0.16780000  0.56770000  1.0 0.1296386408
H  H93  1  0.16780000  0.83220000  0.43230000  1.0 0.1296386408
H  H94  1  0.16780000  0.83220000  0.56770000  1.0 0.1296386408
H  H95  1  0.83220000  0.83220000  0.43230000  1.0 0.1296386408
H  H96  1  0.83220000  0.16780000  0.56770000  1.0 0.1296386408
H  H97  1  0.43100000  0.10730000  0.10730000  1.0 0.1296386408
H  H98  1  0.89270000  0.43100000  0.10730000  1.0 0.1296386408
H  H99  1  0.56900000  0.89270000  0.10730000  1.0 0.1296386408
H  H100  1  0.10730000  0.56900000  0.10730000  1.0 0.1296386408
H  H101  1  0.43100000  0.89270000  0.89270000  1.0 0.1296386408
H  H102  1  0.10730000  0.43100000  0.89270000  1.0 0.1296386408
H  H103  1  0.56900000  0.10730000  0.89270000  1.0 0.1296386408
H  H104  1  0.89270000  0.56900000  0.89270000  1.0 0.1296386408
H  H105  1  0.10730000  0.43100000  0.10730000  1.0 0.1296386408
H  H106  1  0.56900000  0.10730000  0.10730000  1.0 0.1296386408
H  H107  1  0.89270000  0.56900000  0.10730000  1.0 0.1296386408
H  H108  1  0.43100000  0.89270000  0.10730000  1.0 0.1296386408
H  H109  1  0.10730000  0.56900000  0.89270000  1.0 0.1296386408
H  H110  1  0.43100000  0.10730000  0.89270000  1.0 0.1296386408
H  H111  1  0.89270000  0.43100000  0.89270000  1.0 0.1296386408
H  H112  1  0.56900000  0.89270000  0.89270000  1.0 0.1296386408
H  H113  1  0.10730000  0.10730000  0.43100000  1.0 0.1296386408
H  H114  1  0.89270000  0.89270000  0.56900000  1.0 0.1296386408
H  H115  1  0.89270000  0.10730000  0.43100000  1.0 0.1296386408
H  H116  1  0.10730000  0.10730000  0.56900000  1.0 0.1296386408
H  H117  1  0.10730000  0.89270000  0.43100000  1.0 0.1296386408
H  H118  1  0.10730000  0.89270000  0.56900000  1.0 0.1296386408
H  H119  1  0.89270000  0.89270000  0.43100000  1.0 0.1296386408
H  H120  1  0.89270000  0.10730000  0.56900000  1.0 0.1296386408
C  C1  1  0.50000000  0.40931000  0.20265000  1.0 0.5759071414
C  C2  1  0.59069000  0.50000000  0.20265000  1.0 0.5759071414
C  C3  1  0.50000000  0.59069000  0.20265000  1.0 0.5759071414
C  C4  1  0.40931000  0.50000000  0.20265000  1.0 0.5759071414
C  C5  1  0.50000000  0.59069000  0.79735000  1.0 0.5759071414
C  C6  1  0.40931000  0.50000000  0.79735000  1.0 0.5759071414
C  C7  1  0.50000000  0.40931000  0.79735000  1.0 0.5759071414
C  C8  1  0.59069000  0.50000000  0.79735000  1.0 0.5759071414
C  C9  1  0.20265000  0.50000000  0.40931000  1.0 0.5759071414
C  C10  1  0.50000000  0.20265000  0.40931000  1.0 0.5759071414
C  C11  1  0.79735000  0.50000000  0.40931000  1.0 0.5759071414
C  C12  1  0.50000000  0.79735000  0.40931000  1.0 0.5759071414
C  C13  1  0.20265000  0.50000000  0.59069000  1.0 0.5759071414
C  C14  1  0.50000000  0.20265000  0.59069000  1.0 0.5759071414
C  C15  1  0.79735000  0.50000000  0.59069000  1.0 0.5759071414
C  C16  1  0.50000000  0.79735000  0.59069000  1.0 0.5759071414
C  C17  1  0.40931000  0.20265000  0.50000000  1.0 0.5759071414
C  C18  1  0.79735000  0.59069000  0.50000000  1.0 0.5759071414
C  C19  1  0.79735000  0.40931000  0.50000000  1.0 0.5759071414
C  C20  1  0.20265000  0.40931000  0.50000000  1.0 0.5759071414
C  C21  1  0.20265000  0.59069000  0.50000000  1.0 0.5759071414
C  C22  1  0.40931000  0.79735000  0.50000000  1.0 0.5759071414
C  C23  1  0.59069000  0.79735000  0.50000000  1.0 0.5759071414
C  C24  1  0.59069000  0.20265000  0.50000000  1.0 0.5759071414
C  C25  1  0.50000000  0.35600000  0.20259000  1.0 -0.0402457785
C  C26  1  0.64400000  0.50000000  0.20259000  1.0 -0.0402457785
C  C27  1  0.50000000  0.64400000  0.20259000  1.0 -0.0402457785
C  C28  1  0.35600000  0.50000000  0.20259000  1.0 -0.0402457785
C  C29  1  0.50000000  0.64400000  0.79741000  1.0 -0.0402457785
C  C30  1  0.35600000  0.50000000  0.79741000  1.0 -0.0402457785
C  C31  1  0.50000000  0.35600000  0.79741000  1.0 -0.0402457785
C  C32  1  0.64400000  0.50000000  0.79741000  1.0 -0.0402457785
C  C33  1  0.20259000  0.50000000  0.35600000  1.0 -0.0402457785
C  C34  1  0.50000000  0.20259000  0.35600000  1.0 -0.0402457785
C  C35  1  0.79741000  0.50000000  0.35600000  1.0 -0.0402457785
C  C36  1  0.50000000  0.79741000  0.35600000  1.0 -0.0402457785
C  C37  1  0.20259000  0.50000000  0.64400000  1.0 -0.0402457785
C  C38  1  0.50000000  0.20259000  0.64400000  1.0 -0.0402457785
C  C39  1  0.79741000  0.50000000  0.64400000  1.0 -0.0402457785
C  C40  1  0.50000000  0.79741000  0.64400000  1.0 -0.0402457785
C  C41  1  0.35600000  0.20259000  0.50000000  1.0 -0.0402457785
C  C42  1  0.79741000  0.64400000  0.50000000  1.0 -0.0402457785
C  C43  1  0.79741000  0.35600000  0.50000000  1.0 -0.0402457785
C  C44  1  0.20259000  0.35600000  0.50000000  1.0 -0.0402457785
C  C45  1  0.20259000  0.64400000  0.50000000  1.0 -0.0402457785
C  C46  1  0.35600000  0.79741000  0.50000000  1.0 -0.0402457785
C  C47  1  0.64400000  0.79741000  0.50000000  1.0 -0.0402457785
C  C48  1  0.64400000  0.20259000  0.50000000  1.0 -0.0402457785
C  C49  1  0.50000000  0.33142000  0.15853000  1.0 -0.0822050871
C  C50  1  0.66858000  0.50000000  0.15853000  1.0 -0.0822050871
C  C51  1  0.50000000  0.66858000  0.15853000  1.0 -0.0822050871
C  C52  1  0.33142000  0.50000000  0.15853000  1.0 -0.0822050871
C  C53  1  0.50000000  0.66858000  0.84147000  1.0 -0.0822050871
C  C54  1  0.33142000  0.50000000  0.84147000  1.0 -0.0822050871
C  C55  1  0.50000000  0.33142000  0.84147000  1.0 -0.0822050871
C  C56  1  0.66858000  0.50000000  0.84147000  1.0 -0.0822050871
C  C57  1  0.15853000  0.50000000  0.33142000  1.0 -0.0822050871
C  C58  1  0.50000000  0.15853000  0.33142000  1.0 -0.0822050871
C  C59  1  0.84147000  0.50000000  0.33142000  1.0 -0.0822050871
C  C60  1  0.50000000  0.84147000  0.33142000  1.0 -0.0822050871
C  C61  1  0.15853000  0.50000000  0.66858000  1.0 -0.0822050871
C  C62  1  0.50000000  0.15853000  0.66858000  1.0 -0.0822050871
C  C63  1  0.84147000  0.50000000  0.66858000  1.0 -0.0822050871
C  C64  1  0.50000000  0.84147000  0.66858000  1.0 -0.0822050871
C  C65  1  0.33142000  0.15853000  0.50000000  1.0 -0.0822050871
C  C66  1  0.84147000  0.66858000  0.50000000  1.0 -0.0822050871
C  C67  1  0.84147000  0.33142000  0.50000000  1.0 -0.0822050871
C  C68  1  0.15853000  0.33142000  0.50000000  1.0 -0.0822050871
C  C69  1  0.15853000  0.66858000  0.50000000  1.0 -0.0822050871
C  C70  1  0.33142000  0.84147000  0.50000000  1.0 -0.0822050871
C  C71  1  0.66858000  0.84147000  0.50000000  1.0 -0.0822050871
C  C72  1  0.66858000  0.15853000  0.50000000  1.0 -0.0822050871
C  C73  1  0.50000000  0.28211000  0.15742000  1.0 -0.1905276969
C  C74  1  0.71789000  0.50000000  0.15742000  1.0 -0.1905276969
C  C75  1  0.50000000  0.71789000  0.15742000  1.0 -0.1905276969
C  C76  1  0.28211000  0.50000000  0.15742000  1.0 -0.1905276969
C  C77  1  0.50000000  0.71789000  0.84258000  1.0 -0.1905276969
C  C78  1  0.28211000  0.50000000  0.84258000  1.0 -0.1905276969
C  C79  1  0.50000000  0.28211000  0.84258000  1.0 -0.1905276969
C  C80  1  0.71789000  0.50000000  0.84258000  1.0 -0.1905276969
C  C81  1  0.15742000  0.50000000  0.28211000  1.0 -0.1905276969
C  C82  1  0.50000000  0.15742000  0.28211000  1.0 -0.1905276969
C  C83  1  0.84258000  0.50000000  0.28211000  1.0 -0.1905276969
C  C84  1  0.50000000  0.84258000  0.28211000  1.0 -0.1905276969
C  C85  1  0.15742000  0.50000000  0.71789000  1.0 -0.1905276969
C  C86  1  0.50000000  0.15742000  0.71789000  1.0 -0.1905276969
C  C87  1  0.84258000  0.50000000  0.71789000  1.0 -0.1905276969
C  C88  1  0.50000000  0.84258000  0.71789000  1.0 -0.1905276969
C  C89  1  0.28211000  0.15742000  0.50000000  1.0 -0.1905276969
C  C90  1  0.84258000  0.71789000  0.50000000  1.0 -0.1905276969
C  C91  1  0.84258000  0.28211000  0.50000000  1.0 -0.1905276969
C  C92  1  0.15742000  0.28211000  0.50000000  1.0 -0.1905276969
C  C93  1  0.15742000  0.71789000  0.50000000  1.0 -0.1905276969
C  C94  1  0.28211000  0.84258000  0.50000000  1.0 -0.1905276969
C  C95  1  0.71789000  0.84258000  0.50000000  1.0 -0.1905276969
C  C96  1  0.71789000  0.15742000  0.50000000  1.0 -0.1905276969
C  C97  1  0.50000000  0.25683000  0.19996000  1.0 0.121134977
C  C98  1  0.74317000  0.50000000  0.19996000  1.0 0.121134977
C  C99  1  0.50000000  0.74317000  0.19996000  1.0 0.121134977
C  C100  1  0.25683000  0.50000000  0.19996000  1.0 0.121134977
C  C101  1  0.50000000  0.74317000  0.80004000  1.0 0.121134977
C  C102  1  0.25683000  0.50000000  0.80004000  1.0 0.121134977
C  C103  1  0.50000000  0.25683000  0.80004000  1.0 0.121134977
C  C104  1  0.74317000  0.50000000  0.80004000  1.0 0.121134977
C  C105  1  0.19996000  0.50000000  0.25683000  1.0 0.121134977
C  C106  1  0.50000000  0.19996000  0.25683000  1.0 0.121134977
C  C107  1  0.80004000  0.50000000  0.25683000  1.0 0.121134977
C  C108  1  0.50000000  0.80004000  0.25683000  1.0 0.121134977
C  C109  1  0.19996000  0.50000000  0.74317000  1.0 0.121134977
C  C110  1  0.50000000  0.19996000  0.74317000  1.0 0.121134977
C  C111  1  0.80004000  0.50000000  0.74317000  1.0 0.121134977
C  C112  1  0.50000000  0.80004000  0.74317000  1.0 0.121134977
C  C113  1  0.25683000  0.19996000  0.50000000  1.0 0.121134977
C  C114  1  0.80004000  0.74317000  0.50000000  1.0 0.121134977
C  C115  1  0.80004000  0.25683000  0.50000000  1.0 0.121134977
C  C116  1  0.19996000  0.25683000  0.50000000  1.0 0.121134977
C  C117  1  0.19996000  0.74317000  0.50000000  1.0 0.121134977
C  C118  1  0.25683000  0.80004000  0.50000000  1.0 0.121134977
C  C119  1  0.74317000  0.80004000  0.50000000  1.0 0.121134977
C  C120  1  0.74317000  0.19996000  0.50000000  1.0 0.121134977
C  C121  1  0.50000000  0.28092000  0.24477000  1.0 -0.0246138072
C  C122  1  0.71908000  0.50000000  0.24477000  1.0 -0.0246138072
C  C123  1  0.50000000  0.71908000  0.24477000  1.0 -0.0246138072
C  C124  1  0.28092000  0.50000000  0.24477000  1.0 -0.0246138072
C  C125  1  0.50000000  0.71908000  0.75523000  1.0 -0.0246138072
C  C126  1  0.28092000  0.50000000  0.75523000  1.0 -0.0246138072
C  C127  1  0.50000000  0.28092000  0.75523000  1.0 -0.0246138072
C  C128  1  0.71908000  0.50000000  0.75523000  1.0 -0.0246138072
C  C129  1  0.24477000  0.50000000  0.28092000  1.0 -0.0246138072
C  C130  1  0.50000000  0.24477000  0.28092000  1.0 -0.0246138072
C  C131  1  0.75523000  0.50000000  0.28092000  1.0 -0.0246138072
C  C132  1  0.50000000  0.75523000  0.28092000  1.0 -0.0246138072
C  C133  1  0.24477000  0.50000000  0.71908000  1.0 -0.0246138072
C  C134  1  0.50000000  0.24477000  0.71908000  1.0 -0.0246138072
C  C135  1  0.75523000  0.50000000  0.71908000  1.0 -0.0246138072
C  C136  1  0.50000000  0.75523000  0.71908000  1.0 -0.0246138072
C  C137  1  0.28092000  0.24477000  0.50000000  1.0 -0.0246138072
C  C138  1  0.75523000  0.71908000  0.50000000  1.0 -0.0246138072
C  C139  1  0.75523000  0.28092000  0.50000000  1.0 -0.0246138072
C  C140  1  0.24477000  0.28092000  0.50000000  1.0 -0.0246138072
C  C141  1  0.24477000  0.71908000  0.50000000  1.0 -0.0246138072
C  C142  1  0.28092000  0.75523000  0.50000000  1.0 -0.0246138072
C  C143  1  0.71908000  0.75523000  0.50000000  1.0 -0.0246138072
C  C144  1  0.71908000  0.24477000  0.50000000  1.0 -0.0246138072
C  C145  1  0.50000000  0.33046000  0.24496000  1.0 -0.1314554608
C  C146  1  0.66954000  0.50000000  0.24496000  1.0 -0.1314554608
C  C147  1  0.50000000  0.66954000  0.24496000  1.0 -0.1314554608
C  C148  1  0.33046000  0.50000000  0.24496000  1.0 -0.1314554608
C  C149  1  0.50000000  0.66954000  0.75504000  1.0 -0.1314554608
C  C150  1  0.33046000  0.50000000  0.75504000  1.0 -0.1314554608
C  C151  1  0.50000000  0.33046000  0.75504000  1.0 -0.1314554608
C  C152  1  0.66954000  0.50000000  0.75504000  1.0 -0.1314554608
C  C153  1  0.24496000  0.50000000  0.33046000  1.0 -0.1314554608
C  C154  1  0.50000000  0.24496000  0.33046000  1.0 -0.1314554608
C  C155  1  0.75504000  0.50000000  0.33046000  1.0 -0.1314554608
C  C156  1  0.50000000  0.75504000  0.33046000  1.0 -0.1314554608
C  C157  1  0.24496000  0.50000000  0.66954000  1.0 -0.1314554608
C  C158  1  0.50000000  0.24496000  0.66954000  1.0 -0.1314554608
C  C159  1  0.75504000  0.50000000  0.66954000  1.0 -0.1314554608
C  C160  1  0.50000000  0.75504000  0.66954000  1.0 -0.1314554608
C  C161  1  0.33046000  0.24496000  0.50000000  1.0 -0.1314554608
C  C162  1  0.75504000  0.66954000  0.50000000  1.0 -0.1314554608
C  C163  1  0.75504000  0.33046000  0.50000000  1.0 -0.1314554608
C  C164  1  0.24496000  0.33046000  0.50000000  1.0 -0.1314554608
C  C165  1  0.24496000  0.66954000  0.50000000  1.0 -0.1314554608
C  C166  1  0.33046000  0.75504000  0.50000000  1.0 -0.1314554608
C  C167  1  0.66954000  0.75504000  0.50000000  1.0 -0.1314554608
C  C168  1  0.66954000  0.24496000  0.50000000  1.0 -0.1314554608
C  C169  1  0.50000000  0.17224000  0.17224000  1.0 0.1296386408
C  C170  1  0.82776000  0.50000000  0.17224000  1.0 0.1296386408
C  C171  1  0.50000000  0.82776000  0.17224000  1.0 0.1296386408
C  C172  1  0.17224000  0.50000000  0.17224000  1.0 0.1296386408
C  C173  1  0.50000000  0.82776000  0.82776000  1.0 0.1296386408
C  C174  1  0.17224000  0.50000000  0.82776000  1.0 0.1296386408
C  C175  1  0.50000000  0.17224000  0.82776000  1.0 0.1296386408
C  C176  1  0.82776000  0.50000000  0.82776000  1.0 0.1296386408
C  C177  1  0.17224000  0.17224000  0.50000000  1.0 0.1296386408
C  C178  1  0.82776000  0.82776000  0.50000000  1.0 0.1296386408
C  C179  1  0.82776000  0.17224000  0.50000000  1.0 0.1296386408
C  C180  1  0.17224000  0.82776000  0.50000000  1.0 0.1296386408
C  C181  1  0.46120000  0.15591000  0.15591000  1.0 -0.1952982243
C  C182  1  0.84409000  0.46120000  0.15591000  1.0 -0.1952982243
C  C183  1  0.53880000  0.84409000  0.15591000  1.0 -0.1952982243
C  C184  1  0.15591000  0.53880000  0.15591000  1.0 -0.1952982243
C  C185  1  0.46120000  0.84409000  0.84409000  1.0 -0.1952982243
C  C186  1  0.15591000  0.46120000  0.84409000  1.0 -0.1952982243
C  C187  1  0.53880000  0.15591000  0.84409000  1.0 -0.1952982243
C  C188  1  0.84409000  0.53880000  0.84409000  1.0 -0.1952982243
C  C189  1  0.15591000  0.46120000  0.15591000  1.0 -0.1952982243
C  C190  1  0.53880000  0.15591000  0.15591000  1.0 -0.1952982243
C  C191  1  0.84409000  0.53880000  0.15591000  1.0 -0.1952982243
C  C192  1  0.46120000  0.84409000  0.15591000  1.0 -0.1952982243
C  C193  1  0.15591000  0.53880000  0.84409000  1.0 -0.1952982243
C  C194  1  0.46120000  0.15591000  0.84409000  1.0 -0.1952982243
C  C195  1  0.84409000  0.46120000  0.84409000  1.0 -0.1952982243
C  C196  1  0.53880000  0.84409000  0.84409000  1.0 -0.1952982243
C  C197  1  0.15591000  0.15591000  0.46120000  1.0 -0.1952982243
C  C198  1  0.84409000  0.84409000  0.53880000  1.0 -0.1952982243
C  C199  1  0.84409000  0.15591000  0.46120000  1.0 -0.1952982243
C  C200  1  0.15591000  0.15591000  0.53880000  1.0 -0.1952982243
C  C201  1  0.15591000  0.84409000  0.46120000  1.0 -0.1952982243
C  C202  1  0.15591000  0.84409000  0.53880000  1.0 -0.1952982243
C  C203  1  0.84409000  0.84409000  0.46120000  1.0 -0.1952982243
C  C204  1  0.84409000  0.15591000  0.53880000  1.0 -0.1952982243
C  C205  1  0.46030000  0.11866000  0.11866000  1.0 -0.0910211648
C  C206  1  0.88134000  0.46030000  0.11866000  1.0 -0.0910211648
C  C207  1  0.53970000  0.88134000  0.11866000  1.0 -0.0910211648
C  C208  1  0.11866000  0.53970000  0.11866000  1.0 -0.0910211648
C  C209  1  0.46030000  0.88134000  0.88134000  1.0 -0.0910211648
C  C210  1  0.11866000  0.46030000  0.88134000  1.0 -0.0910211648
C  C211  1  0.53970000  0.11866000  0.88134000  1.0 -0.0910211648
C  C212  1  0.88134000  0.53970000  0.88134000  1.0 -0.0910211648
C  C213  1  0.11866000  0.46030000  0.11866000  1.0 -0.0910211648
C  C214  1  0.53970000  0.11866000  0.11866000  1.0 -0.0910211648
C  C215  1  0.88134000  0.53970000  0.11866000  1.0 -0.0910211648
C  C216  1  0.46030000  0.88134000  0.11866000  1.0 -0.0910211648
C  C217  1  0.11866000  0.53970000  0.88134000  1.0 -0.0910211648
C  C218  1  0.46030000  0.11866000  0.88134000  1.0 -0.0910211648
C  C219  1  0.88134000  0.46030000  0.88134000  1.0 -0.0910211648
C  C220  1  0.53970000  0.88134000  0.88134000  1.0 -0.0910211648
C  C221  1  0.11866000  0.11866000  0.46030000  1.0 -0.0910211648
C  C222  1  0.88134000  0.88134000  0.53970000  1.0 -0.0910211648
C  C223  1  0.88134000  0.11866000  0.46030000  1.0 -0.0910211648
C  C224  1  0.11866000  0.11866000  0.53970000  1.0 -0.0910211648
C  C225  1  0.11866000  0.88134000  0.46030000  1.0 -0.0910211648
C  C226  1  0.11866000  0.88134000  0.53970000  1.0 -0.0910211648
C  C227  1  0.88134000  0.88134000  0.46030000  1.0 -0.0910211648
C  C228  1  0.88134000  0.11866000  0.53970000  1.0 -0.0910211648
C  C229  1  0.50000000  0.10148000  0.10148000  1.0 -0.0402457785
C  C230  1  0.89852000  0.50000000  0.10148000  1.0 -0.0402457785
C  C231  1  0.50000000  0.89852000  0.10148000  1.0 -0.0402457785
C  C232  1  0.10148000  0.50000000  0.10148000  1.0 -0.0402457785
C  C233  1  0.50000000  0.89852000  0.89852000  1.0 -0.0402457785
C  C234  1  0.10148000  0.50000000  0.89852000  1.0 -0.0402457785
C  C235  1  0.50000000  0.10148000  0.89852000  1.0 -0.0402457785
C  C236  1  0.89852000  0.50000000  0.89852000  1.0 -0.0402457785
C  C237  1  0.10148000  0.10148000  0.50000000  1.0 -0.0402457785
C  C238  1  0.89852000  0.89852000  0.50000000  1.0 -0.0402457785
C  C239  1  0.89852000  0.10148000  0.50000000  1.0 -0.0402457785
C  C240  1  0.10148000  0.89852000  0.50000000  1.0 -0.0402457785
C  C241  1  0.50000000  0.06376000  0.06376000  1.0 0.5701775258
C  C242  1  0.93624000  0.50000000  0.06376000  1.0 0.5701775258
C  C243  1  0.50000000  0.93624000  0.06376000  1.0 0.5701775258
C  C244  1  0.06376000  0.50000000  0.06376000  1.0 0.5701775258
C  C245  1  0.50000000  0.93624000  0.93624000  1.0 0.5701775258
C  C246  1  0.06376000  0.50000000  0.93624000  1.0 0.5701775258
C  C247  1  0.50000000  0.06376000  0.93624000  1.0 0.5701775258
C  C248  1  0.93624000  0.50000000  0.93624000  1.0 0.5701775258
C  C249  1  0.06376000  0.06376000  0.50000000  1.0 0.5701775258
C  C250  1  0.93624000  0.93624000  0.50000000  1.0 0.5701775258
C  C251  1  0.93624000  0.06376000  0.50000000  1.0 0.5701775258
C  C252  1  0.06376000  0.93624000  0.50000000  1.0 0.5701775258
N  N1  1  0.50000000  0.20824000  0.20824000  1.0 -0.0822050871
N  N2  1  0.79176000  0.50000000  0.20824000  1.0 -0.0822050871
N  N3  1  0.50000000  0.79176000  0.20824000  1.0 -0.0822050871
N  N4  1  0.20824000  0.50000000  0.20824000  1.0 -0.0822050871
N  N5  1  0.50000000  0.79176000  0.79176000  1.0 -0.0822050871
N  N6  1  0.20824000  0.50000000  0.79176000  1.0 -0.0822050871
N  N7  1  0.50000000  0.20824000  0.79176000  1.0 -0.0822050871
N  N8  1  0.79176000  0.50000000  0.79176000  1.0 -0.0822050871
N  N9  1  0.20824000  0.20824000  0.50000000  1.0 -0.0822050871
N  N10  1  0.79176000  0.79176000  0.50000000  1.0 -0.0822050871
N  N11  1  0.79176000  0.20824000  0.50000000  1.0 -0.0822050871
N  N12  1  0.20824000  0.79176000  0.50000000  1.0 -0.0822050871
O  O1  1  0.50000000  0.43028000  0.16273000  1.0 -0.5252225693
O  O2  1  0.56972000  0.50000000  0.16273000  1.0 -0.5252225693
O  O3  1  0.50000000  0.56972000  0.16273000  1.0 -0.5252225693
O  O4  1  0.43028000  0.50000000  0.16273000  1.0 -0.5252225693
O  O5  1  0.50000000  0.56972000  0.83727000  1.0 -0.5252225693
O  O6  1  0.43028000  0.50000000  0.83727000  1.0 -0.5252225693
O  O7  1  0.50000000  0.43028000  0.83727000  1.0 -0.5252225693
O  O8  1  0.56972000  0.50000000  0.83727000  1.0 -0.5252225693
O  O9  1  0.16273000  0.50000000  0.43028000  1.0 -0.5252225693
O  O10  1  0.50000000  0.16273000  0.43028000  1.0 -0.5252225693
O  O11  1  0.83727000  0.50000000  0.43028000  1.0 -0.5252225693
O  O12  1  0.50000000  0.83727000  0.43028000  1.0 -0.5252225693
O  O13  1  0.16273000  0.50000000  0.56972000  1.0 -0.5252225693
O  O14  1  0.50000000  0.16273000  0.56972000  1.0 -0.5252225693
O  O15  1  0.83727000  0.50000000  0.56972000  1.0 -0.5252225693
O  O16  1  0.50000000  0.83727000  0.56972000  1.0 -0.5252225693
O  O17  1  0.43028000  0.16273000  0.50000000  1.0 -0.5252225693
O  O18  1  0.83727000  0.56972000  0.50000000  1.0 -0.5252225693
O  O19  1  0.83727000  0.43028000  0.50000000  1.0 -0.5252225693
O  O20  1  0.16273000  0.43028000  0.50000000  1.0 -0.5252225693
O  O21  1  0.16273000  0.56972000  0.50000000  1.0 -0.5252225693
O  O22  1  0.43028000  0.83727000  0.50000000  1.0 -0.5252225693
O  O23  1  0.56972000  0.83727000  0.50000000  1.0 -0.5174208077
O  O24  1  0.56972000  0.16273000  0.50000000  1.0 -0.5252225693
O  O25  1  0.50000000  0.43002000  0.24268000  1.0 -0.5174208077
O  O26  1  0.56998000  0.50000000  0.24268000  1.0 -0.5174208077
O  O27  1  0.50000000  0.56998000  0.24268000  1.0 -0.5174208077
O  O28  1  0.43002000  0.50000000  0.24268000  1.0 -0.5174208077
O  O29  1  0.50000000  0.56998000  0.75732000  1.0 -0.5174208077
O  O30  1  0.43002000  0.50000000  0.75732000  1.0 -0.5174208077
O  O31  1  0.50000000  0.43002000  0.75732000  1.0 -0.5174208077
O  O32  1  0.56998000  0.50000000  0.75732000  1.0 -0.5174208077
O  O33  1  0.24268000  0.50000000  0.43002000  1.0 -0.5174208077
O  O34  1  0.50000000  0.24268000  0.43002000  1.0 -0.5174208077
O  O35  1  0.75732000  0.50000000  0.43002000  1.0 -0.5174208077
O  O36  1  0.50000000  0.75732000  0.43002000  1.0 -0.5174208077
O  O37  1  0.24268000  0.50000000  0.56998000  1.0 -0.5174208077
O  O38  1  0.50000000  0.24268000  0.56998000  1.0 -0.5174208077
O  O39  1  0.75732000  0.50000000  0.56998000  1.0 -0.5174208077
O  O40  1  0.50000000  0.75732000  0.56998000  1.0 -0.5174208077
O  O41  1  0.43002000  0.24268000  0.50000000  1.0 -0.5174208077
O  O42  1  0.75732000  0.56998000  0.50000000  1.0 -0.5174208077
O  O43  1  0.75732000  0.43002000  0.50000000  1.0 -0.5174208077
O  O44  1  0.24268000  0.43002000  0.50000000  1.0 -0.5174208077
O  O45  1  0.24268000  0.56998000  0.50000000  1.0 -0.5174208077
O  O46  1  0.43002000  0.75732000  0.50000000  1.0 -0.5174208077
O  O47  1  0.56998000  0.75732000  0.50000000  1.0 -0.5174208077
O  O48  1  0.56998000  0.24268000  0.50000000  1.0 -0.5174208077
O  O49  1  0.46012000  0.04997000  0.04997000  1.0 -0.4875836877
O  O50  1  0.95003000  0.46012000  0.04997000  1.0 -0.4875836877
O  O51  1  0.53988000  0.95003000  0.04997000  1.0 -0.4875836877
O  O52  1  0.04997000  0.53988000  0.04997000  1.0 -0.4875836877
O  O53  1  0.46012000  0.95003000  0.95003000  1.0 -0.4875836877
O  O54  1  0.04997000  0.46012000  0.95003000  1.0 -0.4875836877
O  O55  1  0.53988000  0.04997000  0.95003000  1.0 -0.4875836877
O  O56  1  0.95003000  0.53988000  0.95003000  1.0 -0.4875836877
O  O57  1  0.04997000  0.46012000  0.04997000  1.0 -0.4875836877
O  O58  1  0.53988000  0.04997000  0.04997000  1.0 -0.4875836877
O  O59  1  0.95003000  0.53988000  0.04997000  1.0 -0.4875836877
O  O60  1  0.46012000  0.95003000  0.04997000  1.0 -0.4875836877
O  O61  1  0.04997000  0.53988000  0.95003000  1.0 -0.4875836877
O  O62  1  0.46012000  0.04997000  0.95003000  1.0 -0.4875836877
O  O63  1  0.95003000  0.46012000  0.95003000  1.0 -0.4875836877
O  O64  1  0.53988000  0.95003000  0.95003000  1.0 -0.4875836877
O  O65  1  0.04997000  0.04997000  0.46012000  1.0 -0.4875836877
O  O66  1  0.95003000  0.95003000  0.53988000  1.0 -0.4875836877
O  O67  1  0.95003000  0.04997000  0.46012000  1.0 -0.4875836877
O  O68  1  0.04997000  0.04997000  0.53988000  1.0 -0.4875836877
O  O69  1  0.04997000  0.95003000  0.46012000  1.0 -0.4875836877
O  O70  1  0.04997000  0.95003000  0.53988000  1.0 -0.4875836877
O  O71  1  0.95003000  0.95003000  0.46012000  1.0 -0.4875836877
O  O72  1  0.95003000  0.04997000  0.53988000  1.0 -0.4875836877
