# DDEC6 charges by PACMAN v1.1 (https://github.com/mtap-research/PACMAN-charge/)
data_KOZQIB_ASR_pacman
_symmetry_space_group_name_H-M   'P 1'
_cell_length_a   33.97000000
_cell_length_b   33.97000000
_cell_length_c   33.97000000
_cell_angle_alpha   90.00000000
_cell_angle_beta   90.00000000
_cell_angle_gamma   90.00000000
_symmetry_Int_Tables_number   1
_chemical_formula_structural   Cu3H36C62(NO6)2
_chemical_formula_sum   'Cu18 H216 C372 N12 O72'
_cell_volume   39200.05177300
_cell_formula_units_Z   6
loop_
 _symmetry_equiv_pos_site_id
 _symmetry_equiv_pos_as_xyz
  1  'x, y, z'
loop_
 _atom_site_type_symbol
 _atom_site_label
 _atom_site_symmetry_multiplicity
 _atom_site_fract_x
 _atom_site_fract_y
 _atom_site_fract_z
 _atom_site_occupancy
 _atom_site_charge
Cu  Cu1  1  0.29502000  0.50000000  0.50000000  1.0 0.8610759979
Cu  Cu2  1  0.50000000  0.29502000  0.50000000  1.0 0.8610759979
Cu  Cu3  1  0.70498000  0.50000000  0.50000000  1.0 0.8610759979
Cu  Cu4  1  0.50000000  0.70498000  0.50000000  1.0 0.8610759979
Cu  Cu5  1  0.50000000  0.50000000  0.29502000  1.0 0.8610759979
Cu  Cu6  1  0.50000000  0.50000000  0.70498000  1.0 0.8610759979
Cu  Cu7  1  0.21782000  0.50000000  0.50000000  1.0 0.866754895
Cu  Cu8  1  0.50000000  0.21782000  0.50000000  1.0 0.866754895
Cu  Cu9  1  0.78218000  0.50000000  0.50000000  1.0 0.866754895
Cu  Cu10  1  0.50000000  0.78218000  0.50000000  1.0 0.866754895
Cu  Cu11  1  0.50000000  0.50000000  0.21782000  1.0 0.866754895
Cu  Cu12  1  0.50000000  0.50000000  0.78218000  1.0 0.866754895
Cu  Cu13  1  0.00000000  0.00000000  0.46110000  1.0 0.8610759979
Cu  Cu14  1  0.00000000  0.00000000  0.53890000  1.0 0.8610759979
Cu  Cu15  1  0.46110000  0.00000000  0.00000000  1.0 0.8610759979
Cu  Cu16  1  0.00000000  0.46110000  0.00000000  1.0 0.8610759979
Cu  Cu17  1  0.53890000  0.00000000  0.00000000  1.0 0.8610759979
Cu  Cu18  1  0.00000000  0.53890000  0.00000000  1.0 0.8610759979
H  H1  1  0.31510000  0.37430000  0.50000000  1.0 0.1462654874
H  H2  1  0.62570000  0.31510000  0.50000000  1.0 0.1462654874
H  H3  1  0.68490000  0.62570000  0.50000000  1.0 0.1462654874
H  H4  1  0.37430000  0.68490000  0.50000000  1.0 0.1462654874
H  H5  1  0.31510000  0.62570000  0.50000000  1.0 0.1462654874
H  H6  1  0.37430000  0.31510000  0.50000000  1.0 0.1462654874
H  H7  1  0.68490000  0.37430000  0.50000000  1.0 0.1462654874
H  H8  1  0.62570000  0.68490000  0.50000000  1.0 0.1462654874
H  H9  1  0.50000000  0.31510000  0.37430000  1.0 0.1462654874
H  H10  1  0.68490000  0.50000000  0.37430000  1.0 0.1462654874
H  H11  1  0.50000000  0.68490000  0.37430000  1.0 0.1462654874
H  H12  1  0.31510000  0.50000000  0.37430000  1.0 0.1462654874
H  H13  1  0.50000000  0.68490000  0.62570000  1.0 0.1462654874
H  H14  1  0.31510000  0.50000000  0.62570000  1.0 0.1462654874
H  H15  1  0.50000000  0.31510000  0.62570000  1.0 0.1462654874
H  H16  1  0.68490000  0.50000000  0.62570000  1.0 0.1462654874
H  H17  1  0.37430000  0.50000000  0.31510000  1.0 0.1462654874
H  H18  1  0.50000000  0.62570000  0.68490000  1.0 0.1462654874
H  H19  1  0.50000000  0.37430000  0.31510000  1.0 0.1462654874
H  H20  1  0.50000000  0.37430000  0.68490000  1.0 0.1462654874
H  H21  1  0.50000000  0.62570000  0.31510000  1.0 0.1462654874
H  H22  1  0.37430000  0.50000000  0.68490000  1.0 0.1462654874
H  H23  1  0.62570000  0.50000000  0.31510000  1.0 0.1462654874
H  H24  1  0.62570000  0.50000000  0.68490000  1.0 0.1462654874
H  H25  1  0.24770000  0.20500000  0.45010000  1.0 0.108722419
H  H26  1  0.79500000  0.24770000  0.45010000  1.0 0.108722419
H  H27  1  0.75230000  0.79500000  0.45010000  1.0 0.108722419
H  H28  1  0.20500000  0.75230000  0.45010000  1.0 0.108722419
H  H29  1  0.24770000  0.79500000  0.54990000  1.0 0.108722419
H  H30  1  0.20500000  0.24770000  0.54990000  1.0 0.108722419
H  H31  1  0.75230000  0.20500000  0.54990000  1.0 0.108722419
H  H32  1  0.79500000  0.75230000  0.54990000  1.0 0.108722419
H  H33  1  0.45010000  0.24770000  0.20500000  1.0 0.108722419
H  H34  1  0.75230000  0.45010000  0.20500000  1.0 0.108722419
H  H35  1  0.54990000  0.75230000  0.20500000  1.0 0.108722419
H  H36  1  0.24770000  0.54990000  0.20500000  1.0 0.108722419
H  H37  1  0.45010000  0.75230000  0.79500000  1.0 0.108722419
H  H38  1  0.24770000  0.45010000  0.79500000  1.0 0.108722419
H  H39  1  0.54990000  0.24770000  0.79500000  1.0 0.108722419
H  H40  1  0.75230000  0.54990000  0.79500000  1.0 0.108722419
H  H41  1  0.20500000  0.45010000  0.24770000  1.0 0.108722419
H  H42  1  0.54990000  0.79500000  0.75230000  1.0 0.108722419
H  H43  1  0.54990000  0.20500000  0.24770000  1.0 0.108722419
H  H44  1  0.45010000  0.20500000  0.75230000  1.0 0.108722419
H  H45  1  0.45010000  0.79500000  0.24770000  1.0 0.108722419
H  H46  1  0.20500000  0.54990000  0.75230000  1.0 0.108722419
H  H47  1  0.79500000  0.54990000  0.24770000  1.0 0.108722419
H  H48  1  0.79500000  0.45010000  0.75230000  1.0 0.108722419
H  H49  1  0.75230000  0.79500000  0.54990000  1.0 0.108722419
H  H50  1  0.20500000  0.75230000  0.54990000  1.0 0.108722419
H  H51  1  0.24770000  0.20500000  0.54990000  1.0 0.108722419
H  H52  1  0.79500000  0.24770000  0.54990000  1.0 0.108722419
H  H53  1  0.75230000  0.20500000  0.45010000  1.0 0.108722419
H  H54  1  0.79500000  0.75230000  0.45010000  1.0 0.108722419
H  H55  1  0.24770000  0.79500000  0.45010000  1.0 0.108722419
H  H56  1  0.20500000  0.24770000  0.45010000  1.0 0.108722419
H  H57  1  0.54990000  0.75230000  0.79500000  1.0 0.108722419
H  H58  1  0.24770000  0.54990000  0.79500000  1.0 0.108722419
H  H59  1  0.45010000  0.24770000  0.79500000  1.0 0.108722419
H  H60  1  0.75230000  0.45010000  0.79500000  1.0 0.108722419
H  H61  1  0.54990000  0.24770000  0.20500000  1.0 0.108722419
H  H62  1  0.75230000  0.54990000  0.20500000  1.0 0.108722419
H  H63  1  0.45010000  0.75230000  0.20500000  1.0 0.108722419
H  H64  1  0.24770000  0.45010000  0.20500000  1.0 0.108722419
H  H65  1  0.79500000  0.54990000  0.75230000  1.0 0.108722419
H  H66  1  0.45010000  0.20500000  0.24770000  1.0 0.108722419
H  H67  1  0.45010000  0.79500000  0.75230000  1.0 0.108722419
H  H68  1  0.54990000  0.79500000  0.24770000  1.0 0.108722419
H  H69  1  0.54990000  0.20500000  0.75230000  1.0 0.108722419
H  H70  1  0.79500000  0.45010000  0.24770000  1.0 0.108722419
H  H71  1  0.20500000  0.45010000  0.75230000  1.0 0.108722419
H  H72  1  0.20500000  0.54990000  0.24770000  1.0 0.108722419
H  H73  1  0.20030000  0.15540000  0.45020000  1.0 0.1022257677
H  H74  1  0.84460000  0.20030000  0.45020000  1.0 0.1022257677
H  H75  1  0.79970000  0.84460000  0.45020000  1.0 0.1022257677
H  H76  1  0.15540000  0.79970000  0.45020000  1.0 0.1022257677
H  H77  1  0.20030000  0.84460000  0.54980000  1.0 0.1022257677
H  H78  1  0.15540000  0.20030000  0.54980000  1.0 0.1022257677
H  H79  1  0.79970000  0.15540000  0.54980000  1.0 0.1022257677
H  H80  1  0.84460000  0.79970000  0.54980000  1.0 0.1022257677
H  H81  1  0.45020000  0.20030000  0.15540000  1.0 0.1022257677
H  H82  1  0.79970000  0.45020000  0.15540000  1.0 0.1022257677
H  H83  1  0.54980000  0.79970000  0.15540000  1.0 0.1022257677
H  H84  1  0.20030000  0.54980000  0.15540000  1.0 0.1022257677
H  H85  1  0.45020000  0.79970000  0.84460000  1.0 0.1022257677
H  H86  1  0.20030000  0.45020000  0.84460000  1.0 0.1022257677
H  H87  1  0.54980000  0.20030000  0.84460000  1.0 0.1022257677
H  H88  1  0.79970000  0.54980000  0.84460000  1.0 0.1022257677
H  H89  1  0.15540000  0.45020000  0.20030000  1.0 0.1022257677
H  H90  1  0.54980000  0.84460000  0.79970000  1.0 0.1022257677
H  H91  1  0.54980000  0.15540000  0.20030000  1.0 0.1022257677
H  H92  1  0.45020000  0.15540000  0.79970000  1.0 0.1022257677
H  H93  1  0.45020000  0.84460000  0.20030000  1.0 0.1022257677
H  H94  1  0.15540000  0.54980000  0.79970000  1.0 0.1022257677
H  H95  1  0.84460000  0.54980000  0.20030000  1.0 0.1022257677
H  H96  1  0.84460000  0.45020000  0.79970000  1.0 0.1022257677
H  H97  1  0.79970000  0.84460000  0.54980000  1.0 0.1022257677
H  H98  1  0.15540000  0.79970000  0.54980000  1.0 0.1022257677
H  H99  1  0.20030000  0.15540000  0.54980000  1.0 0.1022257677
H  H100  1  0.84460000  0.20030000  0.54980000  1.0 0.1022257677
H  H101  1  0.79970000  0.15540000  0.45020000  1.0 0.1022257677
H  H102  1  0.84460000  0.79970000  0.45020000  1.0 0.1022257677
H  H103  1  0.20030000  0.84460000  0.45020000  1.0 0.1022257677
H  H104  1  0.15540000  0.20030000  0.45020000  1.0 0.1022257677
H  H105  1  0.54980000  0.79970000  0.84460000  1.0 0.1022257677
H  H106  1  0.20030000  0.54980000  0.84460000  1.0 0.1022257677
H  H107  1  0.45020000  0.20030000  0.84460000  1.0 0.1022257677
H  H108  1  0.79970000  0.45020000  0.84460000  1.0 0.1022257677
H  H109  1  0.54980000  0.20030000  0.15540000  1.0 0.1022257677
H  H110  1  0.79970000  0.54980000  0.15540000  1.0 0.1022257677
H  H111  1  0.45020000  0.79970000  0.15540000  1.0 0.1022257677
H  H112  1  0.20030000  0.45020000  0.15540000  1.0 0.1022257677
H  H113  1  0.84460000  0.54980000  0.79970000  1.0 0.1022257677
H  H114  1  0.45020000  0.15540000  0.20030000  1.0 0.1022257677
H  H115  1  0.45020000  0.84460000  0.79970000  1.0 0.1022257677
H  H116  1  0.54980000  0.84460000  0.20030000  1.0 0.1022257677
H  H117  1  0.54980000  0.15540000  0.79970000  1.0 0.1022257677
H  H118  1  0.84460000  0.45020000  0.20030000  1.0 0.1022257677
H  H119  1  0.15540000  0.45020000  0.79970000  1.0 0.1022257677
H  H120  1  0.15540000  0.54980000  0.20030000  1.0 0.1022257677
H  H121  1  0.13680000  0.13680000  0.44170000  1.0 0.108722419
H  H122  1  0.86320000  0.13680000  0.44170000  1.0 0.108722419
H  H123  1  0.86320000  0.86320000  0.44170000  1.0 0.108722419
H  H124  1  0.13680000  0.86320000  0.44170000  1.0 0.108722419
H  H125  1  0.13680000  0.86320000  0.55830000  1.0 0.108722419
H  H126  1  0.13680000  0.13680000  0.55830000  1.0 0.108722419
H  H127  1  0.86320000  0.13680000  0.55830000  1.0 0.108722419
H  H128  1  0.86320000  0.86320000  0.55830000  1.0 0.108722419
H  H129  1  0.44170000  0.13680000  0.13680000  1.0 0.108722419
H  H130  1  0.86320000  0.44170000  0.13680000  1.0 0.108722419
H  H131  1  0.55830000  0.86320000  0.13680000  1.0 0.108722419
H  H132  1  0.13680000  0.55830000  0.13680000  1.0 0.108722419
H  H133  1  0.44170000  0.86320000  0.86320000  1.0 0.108722419
H  H134  1  0.13680000  0.44170000  0.86320000  1.0 0.108722419
H  H135  1  0.55830000  0.13680000  0.86320000  1.0 0.108722419
H  H136  1  0.86320000  0.55830000  0.86320000  1.0 0.108722419
H  H137  1  0.13680000  0.44170000  0.13680000  1.0 0.108722419
H  H138  1  0.55830000  0.86320000  0.86320000  1.0 0.108722419
H  H139  1  0.55830000  0.13680000  0.13680000  1.0 0.108722419
H  H140  1  0.44170000  0.13680000  0.86320000  1.0 0.108722419
H  H141  1  0.44170000  0.86320000  0.13680000  1.0 0.108722419
H  H142  1  0.13680000  0.55830000  0.86320000  1.0 0.108722419
H  H143  1  0.86320000  0.55830000  0.13680000  1.0 0.108722419
H  H144  1  0.86320000  0.44170000  0.86320000  1.0 0.108722419
H  H145  1  0.08840000  0.08840000  0.44080000  1.0 0.1296195485
H  H146  1  0.91160000  0.08840000  0.44080000  1.0 0.1296195485
H  H147  1  0.91160000  0.91160000  0.44080000  1.0 0.1296195485
H  H148  1  0.08840000  0.91160000  0.44080000  1.0 0.1296195485
H  H149  1  0.08840000  0.91160000  0.55920000  1.0 0.1296195485
H  H150  1  0.08840000  0.08840000  0.55920000  1.0 0.1296195485
H  H151  1  0.91160000  0.08840000  0.55920000  1.0 0.1296195485
H  H152  1  0.91160000  0.91160000  0.55920000  1.0 0.1296195485
H  H153  1  0.44080000  0.08840000  0.08840000  1.0 0.1296195485
H  H154  1  0.91160000  0.44080000  0.08840000  1.0 0.1296195485
H  H155  1  0.55920000  0.91160000  0.08840000  1.0 0.1296195485
H  H156  1  0.08840000  0.55920000  0.08840000  1.0 0.1296195485
H  H157  1  0.44080000  0.91160000  0.91160000  1.0 0.1296195485
H  H158  1  0.08840000  0.44080000  0.91160000  1.0 0.1296195485
H  H159  1  0.55920000  0.08840000  0.91160000  1.0 0.1296195485
H  H160  1  0.91160000  0.55920000  0.91160000  1.0 0.1296195485
H  H161  1  0.08840000  0.44080000  0.08840000  1.0 0.1296195485
H  H162  1  0.55920000  0.91160000  0.91160000  1.0 0.1296195485
H  H163  1  0.55920000  0.08840000  0.08840000  1.0 0.1296195485
H  H164  1  0.44080000  0.08840000  0.91160000  1.0 0.1296195485
H  H165  1  0.44080000  0.91160000  0.08840000  1.0 0.1296195485
H  H166  1  0.08840000  0.55920000  0.91160000  1.0 0.1296195485
H  H167  1  0.91160000  0.55920000  0.08840000  1.0 0.1296195485
H  H168  1  0.91160000  0.44080000  0.91160000  1.0 0.1296195485
H  H169  1  0.19460000  0.30800000  0.50000000  1.0 0.1296195485
H  H170  1  0.69200000  0.19460000  0.50000000  1.0 0.1296195485
H  H171  1  0.80540000  0.69200000  0.50000000  1.0 0.1296195485
H  H172  1  0.30800000  0.80540000  0.50000000  1.0 0.1296195485
H  H173  1  0.19460000  0.69200000  0.50000000  1.0 0.1296195485
H  H174  1  0.30800000  0.19460000  0.50000000  1.0 0.1296195485
H  H175  1  0.80540000  0.30800000  0.50000000  1.0 0.1296195485
H  H176  1  0.69200000  0.80540000  0.50000000  1.0 0.1296195485
H  H177  1  0.50000000  0.19460000  0.30800000  1.0 0.1296195485
H  H178  1  0.80540000  0.50000000  0.30800000  1.0 0.1296195485
H  H179  1  0.50000000  0.80540000  0.30800000  1.0 0.1296195485
H  H180  1  0.19460000  0.50000000  0.30800000  1.0 0.1296195485
H  H181  1  0.50000000  0.80540000  0.69200000  1.0 0.1296195485
H  H182  1  0.19460000  0.50000000  0.69200000  1.0 0.1296195485
H  H183  1  0.50000000  0.19460000  0.69200000  1.0 0.1296195485
H  H184  1  0.80540000  0.50000000  0.69200000  1.0 0.1296195485
H  H185  1  0.30800000  0.50000000  0.19460000  1.0 0.1296195485
H  H186  1  0.50000000  0.69200000  0.80540000  1.0 0.1296195485
H  H187  1  0.50000000  0.30800000  0.19460000  1.0 0.1296195485
H  H188  1  0.50000000  0.30800000  0.80540000  1.0 0.1296195485
H  H189  1  0.50000000  0.69200000  0.19460000  1.0 0.1296195485
H  H190  1  0.30800000  0.50000000  0.80540000  1.0 0.1296195485
H  H191  1  0.69200000  0.50000000  0.19460000  1.0 0.1296195485
H  H192  1  0.69200000  0.50000000  0.80540000  1.0 0.1296195485
H  H193  1  0.19660000  0.37560000  0.50000000  1.0 0.1296195485
H  H194  1  0.62440000  0.19660000  0.50000000  1.0 0.1296195485
H  H195  1  0.80340000  0.62440000  0.50000000  1.0 0.1296195485
H  H196  1  0.37560000  0.80340000  0.50000000  1.0 0.1296195485
H  H197  1  0.19660000  0.62440000  0.50000000  1.0 0.1296195485
H  H198  1  0.37560000  0.19660000  0.50000000  1.0 0.1296195485
H  H199  1  0.80340000  0.37560000  0.50000000  1.0 0.1296195485
H  H200  1  0.62440000  0.80340000  0.50000000  1.0 0.1296195485
H  H201  1  0.50000000  0.19660000  0.37560000  1.0 0.1296195485
H  H202  1  0.80340000  0.50000000  0.37560000  1.0 0.1296195485
H  H203  1  0.50000000  0.80340000  0.37560000  1.0 0.1296195485
H  H204  1  0.19660000  0.50000000  0.37560000  1.0 0.1296195485
H  H205  1  0.50000000  0.80340000  0.62440000  1.0 0.1296195485
H  H206  1  0.19660000  0.50000000  0.62440000  1.0 0.1296195485
H  H207  1  0.50000000  0.19660000  0.62440000  1.0 0.1296195485
H  H208  1  0.80340000  0.50000000  0.62440000  1.0 0.1296195485
H  H209  1  0.37560000  0.50000000  0.19660000  1.0 0.1296195485
H  H210  1  0.50000000  0.62440000  0.80340000  1.0 0.1296195485
H  H211  1  0.50000000  0.37560000  0.19660000  1.0 0.1296195485
H  H212  1  0.50000000  0.37560000  0.80340000  1.0 0.1296195485
H  H213  1  0.50000000  0.62440000  0.19660000  1.0 0.1296195485
H  H214  1  0.37560000  0.50000000  0.80340000  1.0 0.1296195485
H  H215  1  0.62440000  0.50000000  0.19660000  1.0 0.1296195485
H  H216  1  0.62440000  0.50000000  0.80340000  1.0 0.1296195485
C  C1  1  0.25621000  0.42561000  0.50000000  1.0 0.5791839631
C  C2  1  0.57439000  0.25621000  0.50000000  1.0 0.5791839631
C  C3  1  0.74379000  0.57439000  0.50000000  1.0 0.5791839631
C  C4  1  0.42561000  0.74379000  0.50000000  1.0 0.5791839631
C  C5  1  0.25621000  0.57439000  0.50000000  1.0 0.5791839631
C  C6  1  0.42561000  0.25621000  0.50000000  1.0 0.5791839631
C  C7  1  0.74379000  0.42561000  0.50000000  1.0 0.5791839631
C  C8  1  0.57439000  0.74379000  0.50000000  1.0 0.5791839631
C  C9  1  0.50000000  0.25621000  0.42561000  1.0 0.5791839631
C  C10  1  0.74379000  0.50000000  0.42561000  1.0 0.5791839631
C  C11  1  0.50000000  0.74379000  0.42561000  1.0 0.5791839631
C  C12  1  0.25621000  0.50000000  0.42561000  1.0 0.5791839631
C  C13  1  0.50000000  0.74379000  0.57439000  1.0 0.5791839631
C  C14  1  0.25621000  0.50000000  0.57439000  1.0 0.5791839631
C  C15  1  0.50000000  0.25621000  0.57439000  1.0 0.5791839631
C  C16  1  0.74379000  0.50000000  0.57439000  1.0 0.5791839631
C  C17  1  0.42561000  0.50000000  0.25621000  1.0 0.5791839631
C  C18  1  0.50000000  0.57439000  0.74379000  1.0 0.5791839631
C  C19  1  0.50000000  0.42561000  0.25621000  1.0 0.5791839631
C  C20  1  0.50000000  0.42561000  0.74379000  1.0 0.5791839631
C  C21  1  0.50000000  0.57439000  0.25621000  1.0 0.5791839631
C  C22  1  0.42561000  0.50000000  0.74379000  1.0 0.5791839631
C  C23  1  0.57439000  0.50000000  0.25621000  1.0 0.5791839631
C  C24  1  0.57439000  0.50000000  0.74379000  1.0 0.5791839631
C  C25  1  0.25619000  0.38192000  0.50000000  1.0 -0.03907354
C  C26  1  0.61808000  0.25619000  0.50000000  1.0 -0.03907354
C  C27  1  0.74381000  0.61808000  0.50000000  1.0 -0.03907354
C  C28  1  0.38192000  0.74381000  0.50000000  1.0 -0.03907354
C  C29  1  0.25619000  0.61808000  0.50000000  1.0 -0.03907354
C  C30  1  0.38192000  0.25619000  0.50000000  1.0 -0.03907354
C  C31  1  0.74381000  0.38192000  0.50000000  1.0 -0.03907354
C  C32  1  0.61808000  0.74381000  0.50000000  1.0 -0.03907354
C  C33  1  0.50000000  0.25619000  0.38192000  1.0 -0.03907354
C  C34  1  0.74381000  0.50000000  0.38192000  1.0 -0.03907354
C  C35  1  0.50000000  0.74381000  0.38192000  1.0 -0.03907354
C  C36  1  0.25619000  0.50000000  0.38192000  1.0 -0.03907354
C  C37  1  0.50000000  0.74381000  0.61808000  1.0 -0.03907354
C  C38  1  0.25619000  0.50000000  0.61808000  1.0 -0.03907354
C  C39  1  0.50000000  0.25619000  0.61808000  1.0 -0.03907354
C  C40  1  0.74381000  0.50000000  0.61808000  1.0 -0.03907354
C  C41  1  0.38192000  0.50000000  0.25619000  1.0 -0.03907354
C  C42  1  0.50000000  0.61808000  0.74381000  1.0 -0.03907354
C  C43  1  0.50000000  0.38192000  0.25619000  1.0 -0.03907354
C  C44  1  0.50000000  0.38192000  0.74381000  1.0 -0.03907354
C  C45  1  0.50000000  0.61808000  0.25619000  1.0 -0.03907354
C  C46  1  0.38192000  0.50000000  0.74381000  1.0 -0.03907354
C  C47  1  0.61808000  0.50000000  0.25619000  1.0 -0.03907354
C  C48  1  0.61808000  0.50000000  0.74381000  1.0 -0.03907354
C  C49  1  0.29117000  0.36101000  0.50000000  1.0 -0.1255592127
C  C50  1  0.63899000  0.29117000  0.50000000  1.0 -0.1255592127
C  C51  1  0.70883000  0.63899000  0.50000000  1.0 -0.1255592127
C  C52  1  0.36101000  0.70883000  0.50000000  1.0 -0.1255592127
C  C53  1  0.29117000  0.63899000  0.50000000  1.0 -0.1255592127
C  C54  1  0.36101000  0.29117000  0.50000000  1.0 -0.1255592127
C  C55  1  0.70883000  0.36101000  0.50000000  1.0 -0.1255592127
C  C56  1  0.63899000  0.70883000  0.50000000  1.0 -0.1255592127
C  C57  1  0.50000000  0.29117000  0.36101000  1.0 -0.1255592127
C  C58  1  0.70883000  0.50000000  0.36101000  1.0 -0.1255592127
C  C59  1  0.50000000  0.70883000  0.36101000  1.0 -0.1255592127
C  C60  1  0.29117000  0.50000000  0.36101000  1.0 -0.1255592127
C  C61  1  0.50000000  0.70883000  0.63899000  1.0 -0.1255592127
C  C62  1  0.29117000  0.50000000  0.63899000  1.0 -0.1255592127
C  C63  1  0.50000000  0.29117000  0.63899000  1.0 -0.1255592127
C  C64  1  0.70883000  0.50000000  0.63899000  1.0 -0.1255592127
C  C65  1  0.36101000  0.50000000  0.29117000  1.0 -0.1255592127
C  C66  1  0.50000000  0.63899000  0.70883000  1.0 -0.1255592127
C  C67  1  0.50000000  0.36101000  0.29117000  1.0 -0.1255592127
C  C68  1  0.50000000  0.36101000  0.70883000  1.0 -0.1255592127
C  C69  1  0.50000000  0.63899000  0.29117000  1.0 -0.1255592127
C  C70  1  0.36101000  0.50000000  0.70883000  1.0 -0.1255592127
C  C71  1  0.63899000  0.50000000  0.29117000  1.0 -0.1255592127
C  C72  1  0.63899000  0.50000000  0.70883000  1.0 -0.1255592127
C  C73  1  0.29047000  0.32046000  0.50000000  1.0 -0.0203452409
C  C74  1  0.67954000  0.29047000  0.50000000  1.0 -0.0203452409
C  C75  1  0.70953000  0.67954000  0.50000000  1.0 -0.0203452409
C  C76  1  0.32046000  0.70953000  0.50000000  1.0 -0.0203452409
C  C77  1  0.29047000  0.67954000  0.50000000  1.0 -0.0203452409
C  C78  1  0.32046000  0.29047000  0.50000000  1.0 -0.0203452409
C  C79  1  0.70953000  0.32046000  0.50000000  1.0 -0.0203452409
C  C80  1  0.67954000  0.70953000  0.50000000  1.0 -0.0203452409
C  C81  1  0.50000000  0.29047000  0.32046000  1.0 -0.0203452409
C  C82  1  0.70953000  0.50000000  0.32046000  1.0 -0.0203452409
C  C83  1  0.50000000  0.70953000  0.32046000  1.0 -0.0203452409
C  C84  1  0.29047000  0.50000000  0.32046000  1.0 -0.0203452409
C  C85  1  0.50000000  0.70953000  0.67954000  1.0 -0.0203452409
C  C86  1  0.29047000  0.50000000  0.67954000  1.0 -0.0203452409
C  C87  1  0.50000000  0.29047000  0.67954000  1.0 -0.0203452409
C  C88  1  0.70953000  0.50000000  0.67954000  1.0 -0.0203452409
C  C89  1  0.32046000  0.50000000  0.29047000  1.0 -0.0203452409
C  C90  1  0.50000000  0.67954000  0.70953000  1.0 -0.0203452409
C  C91  1  0.50000000  0.32046000  0.29047000  1.0 -0.0203452409
C  C92  1  0.50000000  0.32046000  0.70953000  1.0 -0.0203452409
C  C93  1  0.50000000  0.67954000  0.29047000  1.0 -0.0203452409
C  C94  1  0.32046000  0.50000000  0.70953000  1.0 -0.0203452409
C  C95  1  0.67954000  0.50000000  0.29047000  1.0 -0.0203452409
C  C96  1  0.67954000  0.50000000  0.70953000  1.0 -0.0203452409
C  C97  1  0.25361000  0.30071000  0.50000000  1.0 0.1296195485
C  C98  1  0.69929000  0.25361000  0.50000000  1.0 0.1296195485
C  C99  1  0.74639000  0.69929000  0.50000000  1.0 0.1296195485
C  C100  1  0.30071000  0.74639000  0.50000000  1.0 0.1296195485
C  C101  1  0.25361000  0.69929000  0.50000000  1.0 0.1296195485
C  C102  1  0.30071000  0.25361000  0.50000000  1.0 0.1296195485
C  C103  1  0.74639000  0.30071000  0.50000000  1.0 0.1296195485
C  C104  1  0.69929000  0.74639000  0.50000000  1.0 0.1296195485
C  C105  1  0.50000000  0.25361000  0.30071000  1.0 0.1296195485
C  C106  1  0.74639000  0.50000000  0.30071000  1.0 0.1296195485
C  C107  1  0.50000000  0.74639000  0.30071000  1.0 0.1296195485
C  C108  1  0.25361000  0.50000000  0.30071000  1.0 0.1296195485
C  C109  1  0.50000000  0.74639000  0.69929000  1.0 0.1296195485
C  C110  1  0.25361000  0.50000000  0.69929000  1.0 0.1296195485
C  C111  1  0.50000000  0.25361000  0.69929000  1.0 0.1296195485
C  C112  1  0.74639000  0.50000000  0.69929000  1.0 0.1296195485
C  C113  1  0.30071000  0.50000000  0.25361000  1.0 0.1296195485
C  C114  1  0.50000000  0.69929000  0.74639000  1.0 0.1296195485
C  C115  1  0.50000000  0.30071000  0.25361000  1.0 0.1296195485
C  C116  1  0.50000000  0.30071000  0.74639000  1.0 0.1296195485
C  C117  1  0.50000000  0.69929000  0.25361000  1.0 0.1296195485
C  C118  1  0.30071000  0.50000000  0.74639000  1.0 0.1296195485
C  C119  1  0.69929000  0.50000000  0.25361000  1.0 0.1296195485
C  C120  1  0.69929000  0.50000000  0.74639000  1.0 0.1296195485
C  C121  1  0.23042000  0.23042000  0.50000000  1.0 0.1022257677
C  C122  1  0.76958000  0.23042000  0.50000000  1.0 0.1022257677
C  C123  1  0.76958000  0.76958000  0.50000000  1.0 0.1022257677
C  C124  1  0.23042000  0.76958000  0.50000000  1.0 0.1022257677
C  C125  1  0.50000000  0.23042000  0.23042000  1.0 0.1022257677
C  C126  1  0.76958000  0.50000000  0.23042000  1.0 0.1022257677
C  C127  1  0.50000000  0.76958000  0.23042000  1.0 0.1022257677
C  C128  1  0.23042000  0.50000000  0.23042000  1.0 0.1022257677
C  C129  1  0.50000000  0.76958000  0.76958000  1.0 0.1022257677
C  C130  1  0.23042000  0.50000000  0.76958000  1.0 0.1022257677
C  C131  1  0.50000000  0.23042000  0.76958000  1.0 0.1022257677
C  C132  1  0.76958000  0.50000000  0.76958000  1.0 0.1022257677
C  C133  1  0.22935000  0.20368000  0.47038000  1.0 -0.1012128458
C  C134  1  0.79632000  0.22935000  0.47038000  1.0 -0.1012128458
C  C135  1  0.77065000  0.79632000  0.47038000  1.0 -0.1012128458
C  C136  1  0.20368000  0.77065000  0.47038000  1.0 -0.1012128458
C  C137  1  0.22935000  0.79632000  0.52962000  1.0 -0.1012128458
C  C138  1  0.20368000  0.22935000  0.52962000  1.0 -0.1012128458
C  C139  1  0.77065000  0.20368000  0.52962000  1.0 -0.1012128458
C  C140  1  0.79632000  0.77065000  0.52962000  1.0 -0.1012128458
C  C141  1  0.47038000  0.22935000  0.20368000  1.0 -0.1012128458
C  C142  1  0.77065000  0.47038000  0.20368000  1.0 -0.1012128458
C  C143  1  0.52962000  0.77065000  0.20368000  1.0 -0.1012128458
C  C144  1  0.22935000  0.52962000  0.20368000  1.0 -0.1012128458
C  C145  1  0.47038000  0.77065000  0.79632000  1.0 -0.1012128458
C  C146  1  0.22935000  0.47038000  0.79632000  1.0 -0.1012128458
C  C147  1  0.52962000  0.22935000  0.79632000  1.0 -0.1012128458
C  C148  1  0.77065000  0.52962000  0.79632000  1.0 -0.1012128458
C  C149  1  0.20368000  0.47038000  0.22935000  1.0 -0.1012128458
C  C150  1  0.52962000  0.79632000  0.77065000  1.0 -0.1012128458
C  C151  1  0.52962000  0.20368000  0.22935000  1.0 -0.1012128458
C  C152  1  0.47038000  0.20368000  0.77065000  1.0 -0.1012128458
C  C153  1  0.47038000  0.79632000  0.22935000  1.0 -0.1012128458
C  C154  1  0.20368000  0.52962000  0.77065000  1.0 -0.1012128458
C  C155  1  0.79632000  0.52962000  0.22935000  1.0 -0.1012128458
C  C156  1  0.79632000  0.47038000  0.77065000  1.0 -0.1012128458
C  C157  1  0.77065000  0.79632000  0.52962000  1.0 -0.1012128458
C  C158  1  0.20368000  0.77065000  0.52962000  1.0 -0.1012128458
C  C159  1  0.22935000  0.20368000  0.52962000  1.0 -0.1012128458
C  C160  1  0.79632000  0.22935000  0.52962000  1.0 -0.1012128458
C  C161  1  0.77065000  0.20368000  0.47038000  1.0 -0.1012128458
C  C162  1  0.79632000  0.77065000  0.47038000  1.0 -0.1012128458
C  C163  1  0.22935000  0.79632000  0.47038000  1.0 -0.1012128458
C  C164  1  0.20368000  0.22935000  0.47038000  1.0 -0.1012128458
C  C165  1  0.52962000  0.77065000  0.79632000  1.0 -0.1012128458
C  C166  1  0.22935000  0.52962000  0.79632000  1.0 -0.1012128458
C  C167  1  0.47038000  0.22935000  0.79632000  1.0 -0.1012128458
C  C168  1  0.77065000  0.47038000  0.79632000  1.0 -0.1012128458
C  C169  1  0.52962000  0.22935000  0.20368000  1.0 -0.1012128458
C  C170  1  0.77065000  0.52962000  0.20368000  1.0 -0.1012128458
C  C171  1  0.47038000  0.77065000  0.20368000  1.0 -0.1012128458
C  C172  1  0.22935000  0.47038000  0.20368000  1.0 -0.1012128458
C  C173  1  0.79632000  0.52962000  0.77065000  1.0 -0.1012128458
C  C174  1  0.47038000  0.20368000  0.22935000  1.0 -0.1012128458
C  C175  1  0.47038000  0.79632000  0.77065000  1.0 -0.1012128458
C  C176  1  0.52962000  0.79632000  0.22935000  1.0 -0.1012128458
C  C177  1  0.52962000  0.20368000  0.77065000  1.0 -0.1012128458
C  C178  1  0.79632000  0.47038000  0.22935000  1.0 -0.1012128458
C  C179  1  0.20368000  0.47038000  0.77065000  1.0 -0.1012128458
C  C180  1  0.20368000  0.52962000  0.22935000  1.0 -0.1012128458
C  C181  1  0.20066000  0.17412000  0.47023000  1.0 -0.1012128458
C  C182  1  0.82588000  0.20066000  0.47023000  1.0 -0.1012128458
C  C183  1  0.79934000  0.82588000  0.47023000  1.0 -0.1012128458
C  C184  1  0.17412000  0.79934000  0.47023000  1.0 -0.1012128458
C  C185  1  0.20066000  0.82588000  0.52977000  1.0 -0.1012128458
C  C186  1  0.17412000  0.20066000  0.52977000  1.0 -0.1012128458
C  C187  1  0.79934000  0.17412000  0.52977000  1.0 -0.1012128458
C  C188  1  0.82588000  0.79934000  0.52977000  1.0 -0.1012128458
C  C189  1  0.47023000  0.20066000  0.17412000  1.0 -0.1012128458
C  C190  1  0.79934000  0.47023000  0.17412000  1.0 -0.1012128458
C  C191  1  0.52977000  0.79934000  0.17412000  1.0 -0.1012128458
C  C192  1  0.20066000  0.52977000  0.17412000  1.0 -0.1012128458
C  C193  1  0.47023000  0.79934000  0.82588000  1.0 -0.1012128458
C  C194  1  0.20066000  0.47023000  0.82588000  1.0 -0.1012128458
C  C195  1  0.52977000  0.20066000  0.82588000  1.0 -0.1012128458
C  C196  1  0.79934000  0.52977000  0.82588000  1.0 -0.1012128458
C  C197  1  0.17412000  0.47023000  0.20066000  1.0 -0.1012128458
C  C198  1  0.52977000  0.82588000  0.79934000  1.0 -0.1012128458
C  C199  1  0.52977000  0.17412000  0.20066000  1.0 -0.1012128458
C  C200  1  0.47023000  0.17412000  0.79934000  1.0 -0.1012128458
C  C201  1  0.47023000  0.82588000  0.20066000  1.0 -0.1012128458
C  C202  1  0.17412000  0.52977000  0.79934000  1.0 -0.1012128458
C  C203  1  0.82588000  0.52977000  0.20066000  1.0 -0.1012128458
C  C204  1  0.82588000  0.47023000  0.79934000  1.0 -0.1012128458
C  C205  1  0.79934000  0.82588000  0.52977000  1.0 -0.1012128458
C  C206  1  0.17412000  0.79934000  0.52977000  1.0 -0.1012128458
C  C207  1  0.20066000  0.17412000  0.52977000  1.0 -0.1012128458
C  C208  1  0.82588000  0.20066000  0.52977000  1.0 -0.1012128458
C  C209  1  0.79934000  0.17412000  0.47023000  1.0 -0.1012128458
C  C210  1  0.82588000  0.79934000  0.47023000  1.0 -0.1012128458
C  C211  1  0.20066000  0.82588000  0.47023000  1.0 -0.1012128458
C  C212  1  0.17412000  0.20066000  0.47023000  1.0 -0.1012128458
C  C213  1  0.52977000  0.79934000  0.82588000  1.0 -0.1012128458
C  C214  1  0.20066000  0.52977000  0.82588000  1.0 -0.1012128458
C  C215  1  0.47023000  0.20066000  0.82588000  1.0 -0.1012128458
C  C216  1  0.79934000  0.47023000  0.82588000  1.0 -0.1012128458
C  C217  1  0.52977000  0.20066000  0.17412000  1.0 -0.1012128458
C  C218  1  0.79934000  0.52977000  0.17412000  1.0 -0.1012128458
C  C219  1  0.47023000  0.79934000  0.17412000  1.0 -0.1012128458
C  C220  1  0.20066000  0.47023000  0.17412000  1.0 -0.1012128458
C  C221  1  0.82588000  0.52977000  0.79934000  1.0 -0.1012128458
C  C222  1  0.47023000  0.17412000  0.20066000  1.0 -0.1012128458
C  C223  1  0.47023000  0.82588000  0.79934000  1.0 -0.1012128458
C  C224  1  0.52977000  0.82588000  0.20066000  1.0 -0.1012128458
C  C225  1  0.52977000  0.17412000  0.79934000  1.0 -0.1012128458
C  C226  1  0.82588000  0.47023000  0.20066000  1.0 -0.1012128458
C  C227  1  0.17412000  0.47023000  0.79934000  1.0 -0.1012128458
C  C228  1  0.17412000  0.52977000  0.20066000  1.0 -0.1012128458
C  C229  1  0.17273000  0.17273000  0.50000000  1.0 0.0499069727
C  C230  1  0.82727000  0.17273000  0.50000000  1.0 0.0499069727
C  C231  1  0.82727000  0.82727000  0.50000000  1.0 0.0499069727
C  C232  1  0.17273000  0.82727000  0.50000000  1.0 0.0499069727
C  C233  1  0.50000000  0.17273000  0.17273000  1.0 0.0499069727
C  C234  1  0.82727000  0.50000000  0.17273000  1.0 0.0499069727
C  C235  1  0.50000000  0.82727000  0.17273000  1.0 0.0499069727
C  C236  1  0.17273000  0.50000000  0.17273000  1.0 0.0499069727
C  C237  1  0.50000000  0.82727000  0.82727000  1.0 0.0499069727
C  C238  1  0.17273000  0.50000000  0.82727000  1.0 0.0499069727
C  C239  1  0.50000000  0.17273000  0.82727000  1.0 0.0499069727
C  C240  1  0.82727000  0.50000000  0.82727000  1.0 0.0499069727
C  C241  1  0.14164000  0.14164000  0.50000000  1.0 0.0578182984
C  C242  1  0.85836000  0.14164000  0.50000000  1.0 0.0578182984
C  C243  1  0.85836000  0.85836000  0.50000000  1.0 0.0578182984
C  C244  1  0.14164000  0.85836000  0.50000000  1.0 0.0578182984
C  C245  1  0.50000000  0.14164000  0.14164000  1.0 0.0578182984
C  C246  1  0.85836000  0.50000000  0.14164000  1.0 0.0578182984
C  C247  1  0.50000000  0.85836000  0.14164000  1.0 0.0578182984
C  C248  1  0.14164000  0.50000000  0.14164000  1.0 0.0578182984
C  C249  1  0.50000000  0.85836000  0.85836000  1.0 0.0578182984
C  C250  1  0.14164000  0.50000000  0.85836000  1.0 0.0578182984
C  C251  1  0.50000000  0.14164000  0.85836000  1.0 0.0578182984
C  C252  1  0.85836000  0.50000000  0.85836000  1.0 0.0578182984
C  C253  1  0.12709000  0.12709000  0.46539000  1.0 -0.1752273503
C  C254  1  0.87291000  0.12709000  0.46539000  1.0 -0.1752273503
C  C255  1  0.87291000  0.87291000  0.46539000  1.0 -0.1745644306
C  C256  1  0.12709000  0.87291000  0.46539000  1.0 -0.1752273503
C  C257  1  0.12709000  0.87291000  0.53461000  1.0 -0.1752273503
C  C258  1  0.12709000  0.12709000  0.53461000  1.0 -0.1752273503
C  C259  1  0.87291000  0.12709000  0.53461000  1.0 -0.1752273503
C  C260  1  0.87291000  0.87291000  0.53461000  1.0 -0.1745644306
C  C261  1  0.46539000  0.12709000  0.12709000  1.0 -0.1752273503
C  C262  1  0.87291000  0.46539000  0.12709000  1.0 -0.1745644306
C  C263  1  0.53461000  0.87291000  0.12709000  1.0 -0.1752273503
C  C264  1  0.12709000  0.53461000  0.12709000  1.0 -0.1752273503
C  C265  1  0.46539000  0.87291000  0.87291000  1.0 -0.1752273503
C  C266  1  0.12709000  0.46539000  0.87291000  1.0 -0.1752273503
C  C267  1  0.53461000  0.12709000  0.87291000  1.0 -0.1752273503
C  C268  1  0.87291000  0.53461000  0.87291000  1.0 -0.1752273503
C  C269  1  0.12709000  0.46539000  0.12709000  1.0 -0.1752273503
C  C270  1  0.53461000  0.87291000  0.87291000  1.0 -0.1752273503
C  C271  1  0.53461000  0.12709000  0.12709000  1.0 -0.1752273503
C  C272  1  0.46539000  0.12709000  0.87291000  1.0 -0.1752273503
C  C273  1  0.46539000  0.87291000  0.12709000  1.0 -0.1745644306
C  C274  1  0.12709000  0.53461000  0.87291000  1.0 -0.1752273503
C  C275  1  0.87291000  0.53461000  0.12709000  1.0 -0.1745644306
C  C276  1  0.87291000  0.46539000  0.87291000  1.0 -0.1752273503
C  C277  1  0.09793000  0.09793000  0.46456000  1.0 -0.0857962967
C  C278  1  0.90207000  0.09793000  0.46456000  1.0 -0.0857962967
C  C279  1  0.90207000  0.90207000  0.46456000  1.0 -0.0857962967
C  C280  1  0.09793000  0.90207000  0.46456000  1.0 -0.0857962967
C  C281  1  0.09793000  0.90207000  0.53544000  1.0 -0.0857962967
C  C282  1  0.09793000  0.09793000  0.53544000  1.0 -0.0857962967
C  C283  1  0.90207000  0.09793000  0.53544000  1.0 -0.0857962967
C  C284  1  0.90207000  0.90207000  0.53544000  1.0 -0.0857962967
C  C285  1  0.46456000  0.09793000  0.09793000  1.0 -0.0857962967
C  C286  1  0.90207000  0.46456000  0.09793000  1.0 -0.0857962967
C  C287  1  0.53544000  0.90207000  0.09793000  1.0 -0.0857962967
C  C288  1  0.09793000  0.53544000  0.09793000  1.0 -0.0857962967
C  C289  1  0.46456000  0.90207000  0.90207000  1.0 -0.0857962967
C  C290  1  0.09793000  0.46456000  0.90207000  1.0 -0.0857962967
C  C291  1  0.53544000  0.09793000  0.90207000  1.0 -0.0857962967
C  C292  1  0.90207000  0.53544000  0.90207000  1.0 -0.0857962967
C  C293  1  0.09793000  0.46456000  0.09793000  1.0 -0.0857962967
C  C294  1  0.53544000  0.90207000  0.90207000  1.0 -0.0857962967
C  C295  1  0.53544000  0.09793000  0.09793000  1.0 -0.0857962967
C  C296  1  0.46456000  0.09793000  0.90207000  1.0 -0.0857962967
C  C297  1  0.46456000  0.90207000  0.09793000  1.0 -0.0857962967
C  C298  1  0.09793000  0.53544000  0.90207000  1.0 -0.0857962967
C  C299  1  0.90207000  0.53544000  0.09793000  1.0 -0.0857962967
C  C300  1  0.90207000  0.46456000  0.90207000  1.0 -0.0857962967
C  C301  1  0.08375000  0.08375000  0.50000000  1.0 -0.0306116138
C  C302  1  0.91625000  0.08375000  0.50000000  1.0 -0.0306116138
C  C303  1  0.91625000  0.91625000  0.50000000  1.0 -0.0306116138
C  C304  1  0.08375000  0.91625000  0.50000000  1.0 -0.0306116138
C  C305  1  0.50000000  0.08375000  0.08375000  1.0 -0.0306116138
C  C306  1  0.91625000  0.50000000  0.08375000  1.0 -0.0306116138
C  C307  1  0.50000000  0.91625000  0.08375000  1.0 -0.0306116138
C  C308  1  0.08375000  0.50000000  0.08375000  1.0 -0.0306116138
C  C309  1  0.50000000  0.91625000  0.91625000  1.0 -0.0306116138
C  C310  1  0.08375000  0.50000000  0.91625000  1.0 -0.0306116138
C  C311  1  0.50000000  0.08375000  0.91625000  1.0 -0.0306116138
C  C312  1  0.91625000  0.50000000  0.91625000  1.0 -0.0306116138
C  C313  1  0.05216000  0.05216000  0.50000000  1.0 0.5791839631
C  C314  1  0.94784000  0.05216000  0.50000000  1.0 0.5791839631
C  C315  1  0.94784000  0.94784000  0.50000000  1.0 0.5791839631
C  C316  1  0.05216000  0.94784000  0.50000000  1.0 0.5791839631
C  C317  1  0.50000000  0.05216000  0.05216000  1.0 0.5791839631
C  C318  1  0.94784000  0.50000000  0.05216000  1.0 0.5791839631
C  C319  1  0.50000000  0.94784000  0.05216000  1.0 0.5791839631
C  C320  1  0.05216000  0.50000000  0.05216000  1.0 0.5791839631
C  C321  1  0.50000000  0.94784000  0.94784000  1.0 0.5791839631
C  C322  1  0.05216000  0.50000000  0.94784000  1.0 0.5791839631
C  C323  1  0.50000000  0.05216000  0.94784000  1.0 0.5791839631
C  C324  1  0.94784000  0.50000000  0.94784000  1.0 0.5791839631
C  C325  1  0.21861000  0.32121000  0.50000000  1.0 -0.2030127611
C  C326  1  0.67879000  0.21861000  0.50000000  1.0 -0.2030127611
C  C327  1  0.78139000  0.67879000  0.50000000  1.0 -0.2030127611
C  C328  1  0.32121000  0.78139000  0.50000000  1.0 -0.2030127611
C  C329  1  0.21861000  0.67879000  0.50000000  1.0 -0.2030127611
C  C330  1  0.32121000  0.21861000  0.50000000  1.0 -0.2030127611
C  C331  1  0.78139000  0.32121000  0.50000000  1.0 -0.2030127611
C  C332  1  0.67879000  0.78139000  0.50000000  1.0 -0.2030127611
C  C333  1  0.50000000  0.21861000  0.32121000  1.0 -0.2030127611
C  C334  1  0.78139000  0.50000000  0.32121000  1.0 -0.2030127611
C  C335  1  0.50000000  0.78139000  0.32121000  1.0 -0.2030127611
C  C336  1  0.21861000  0.50000000  0.32121000  1.0 -0.2030127611
C  C337  1  0.50000000  0.78139000  0.67879000  1.0 -0.2030127611
C  C338  1  0.21861000  0.50000000  0.67879000  1.0 -0.2030127611
C  C339  1  0.50000000  0.21861000  0.67879000  1.0 -0.2030127611
C  C340  1  0.78139000  0.50000000  0.67879000  1.0 -0.2030127611
C  C341  1  0.32121000  0.50000000  0.21861000  1.0 -0.2030127611
C  C342  1  0.50000000  0.67879000  0.78139000  1.0 -0.2030127611
C  C343  1  0.50000000  0.32121000  0.21861000  1.0 -0.2030127611
C  C344  1  0.50000000  0.32121000  0.78139000  1.0 -0.2030127611
C  C345  1  0.50000000  0.67879000  0.21861000  1.0 -0.2030127611
C  C346  1  0.32121000  0.50000000  0.78139000  1.0 -0.2030127611
C  C347  1  0.67879000  0.50000000  0.21861000  1.0 -0.2030127611
C  C348  1  0.67879000  0.50000000  0.78139000  1.0 -0.2030127611
C  C349  1  0.22005000  0.36141000  0.50000000  1.0 -0.0743755625
C  C350  1  0.63859000  0.22005000  0.50000000  1.0 -0.0743755625
C  C351  1  0.77995000  0.63859000  0.50000000  1.0 -0.0743755625
C  C352  1  0.36141000  0.77995000  0.50000000  1.0 -0.0743755625
C  C353  1  0.22005000  0.63859000  0.50000000  1.0 -0.0743755625
C  C354  1  0.36141000  0.22005000  0.50000000  1.0 -0.0743755625
C  C355  1  0.77995000  0.36141000  0.50000000  1.0 -0.0743755625
C  C356  1  0.63859000  0.77995000  0.50000000  1.0 -0.0743755625
C  C357  1  0.50000000  0.22005000  0.36141000  1.0 -0.0743755625
C  C358  1  0.77995000  0.50000000  0.36141000  1.0 -0.0743755625
C  C359  1  0.50000000  0.77995000  0.36141000  1.0 -0.0743755625
C  C360  1  0.22005000  0.50000000  0.36141000  1.0 -0.0743755625
C  C361  1  0.50000000  0.77995000  0.63859000  1.0 -0.0743755625
C  C362  1  0.22005000  0.50000000  0.63859000  1.0 -0.0743755625
C  C363  1  0.50000000  0.22005000  0.63859000  1.0 -0.0743755625
C  C364  1  0.77995000  0.50000000  0.63859000  1.0 -0.0743755625
C  C365  1  0.36141000  0.50000000  0.22005000  1.0 -0.0743755625
C  C366  1  0.50000000  0.63859000  0.77995000  1.0 -0.0743755625
C  C367  1  0.50000000  0.36141000  0.22005000  1.0 -0.0743755625
C  C368  1  0.50000000  0.36141000  0.77995000  1.0 -0.0743755625
C  C369  1  0.50000000  0.63859000  0.22005000  1.0 -0.0743755625
C  C370  1  0.36141000  0.50000000  0.77995000  1.0 -0.0743755625
C  C371  1  0.63859000  0.50000000  0.22005000  1.0 -0.0743755625
C  C372  1  0.63859000  0.50000000  0.77995000  1.0 -0.0743755625
N  N1  1  0.26052000  0.26052000  0.50000000  1.0 -0.2030127611
N  N2  1  0.73948000  0.26052000  0.50000000  1.0 -0.1933834479
N  N3  1  0.73948000  0.73948000  0.50000000  1.0 -0.1933834479
N  N4  1  0.26052000  0.73948000  0.50000000  1.0 -0.1933834479
N  N5  1  0.50000000  0.26052000  0.26052000  1.0 -0.2030127611
N  N6  1  0.73948000  0.50000000  0.26052000  1.0 -0.1933834479
N  N7  1  0.50000000  0.73948000  0.26052000  1.0 -0.1933834479
N  N8  1  0.26052000  0.50000000  0.26052000  1.0 -0.2030127611
N  N9  1  0.50000000  0.73948000  0.73948000  1.0 -0.1933834479
N  N10  1  0.26052000  0.50000000  0.73948000  1.0 -0.1933834479
N  N11  1  0.50000000  0.26052000  0.73948000  1.0 -0.1933834479
N  N12  1  0.73948000  0.50000000  0.73948000  1.0 -0.2030127611
O  O1  1  0.28931000  0.44260000  0.50000000  1.0 -0.5243890827
O  O2  1  0.55740000  0.28931000  0.50000000  1.0 -0.5252923177
O  O3  1  0.71069000  0.55740000  0.50000000  1.0 -0.5243890827
O  O4  1  0.44260000  0.71069000  0.50000000  1.0 -0.5243890827
O  O5  1  0.28931000  0.55740000  0.50000000  1.0 -0.5252923177
O  O6  1  0.44260000  0.28931000  0.50000000  1.0 -0.5252923177
O  O7  1  0.71069000  0.44260000  0.50000000  1.0 -0.5243890827
O  O8  1  0.55740000  0.71069000  0.50000000  1.0 -0.5243890827
O  O9  1  0.50000000  0.28931000  0.44260000  1.0 -0.5252923177
O  O10  1  0.71069000  0.50000000  0.44260000  1.0 -0.5243890827
O  O11  1  0.50000000  0.71069000  0.44260000  1.0 -0.5243890827
O  O12  1  0.28931000  0.50000000  0.44260000  1.0 -0.5243890827
O  O13  1  0.50000000  0.71069000  0.55740000  1.0 -0.5243890827
O  O14  1  0.28931000  0.50000000  0.55740000  1.0 -0.5252923177
O  O15  1  0.50000000  0.28931000  0.55740000  1.0 -0.5252923177
O  O16  1  0.71069000  0.50000000  0.55740000  1.0 -0.5243890827
O  O17  1  0.44260000  0.50000000  0.28931000  1.0 -0.5243890827
O  O18  1  0.50000000  0.55740000  0.71069000  1.0 -0.5243890827
O  O19  1  0.50000000  0.44260000  0.28931000  1.0 -0.5243890827
O  O20  1  0.50000000  0.44260000  0.71069000  1.0 -0.5243890827
O  O21  1  0.50000000  0.55740000  0.28931000  1.0 -0.5252923177
O  O22  1  0.44260000  0.50000000  0.71069000  1.0 -0.5243890827
O  O23  1  0.55740000  0.50000000  0.28931000  1.0 -0.5252923177
O  O24  1  0.55740000  0.50000000  0.71069000  1.0 -0.5243890827
O  O25  1  0.22335000  0.44266000  0.50000000  1.0 -0.5243890827
O  O26  1  0.55734000  0.22335000  0.50000000  1.0 -0.5252923177
O  O27  1  0.77665000  0.55734000  0.50000000  1.0 -0.5243890827
O  O28  1  0.44266000  0.77665000  0.50000000  1.0 -0.5243890827
O  O29  1  0.22335000  0.55734000  0.50000000  1.0 -0.5252923177
O  O30  1  0.44266000  0.22335000  0.50000000  1.0 -0.5243890827
O  O31  1  0.77665000  0.44266000  0.50000000  1.0 -0.5252923177
O  O32  1  0.55734000  0.77665000  0.50000000  1.0 -0.5243890827
O  O33  1  0.50000000  0.22335000  0.44266000  1.0 -0.5243890827
O  O34  1  0.77665000  0.50000000  0.44266000  1.0 -0.5243890827
O  O35  1  0.50000000  0.77665000  0.44266000  1.0 -0.5243890827
O  O36  1  0.22335000  0.50000000  0.44266000  1.0 -0.5243890827
O  O37  1  0.50000000  0.77665000  0.55734000  1.0 -0.5243890827
O  O38  1  0.22335000  0.50000000  0.55734000  1.0 -0.5252923177
O  O39  1  0.50000000  0.22335000  0.55734000  1.0 -0.5252923177
O  O40  1  0.77665000  0.50000000  0.55734000  1.0 -0.5243890827
O  O41  1  0.44266000  0.50000000  0.22335000  1.0 -0.5243890827
O  O42  1  0.50000000  0.55734000  0.77665000  1.0 -0.5243890827
O  O43  1  0.50000000  0.44266000  0.22335000  1.0 -0.5243890827
O  O44  1  0.50000000  0.44266000  0.77665000  1.0 -0.5243890827
O  O45  1  0.50000000  0.55734000  0.22335000  1.0 -0.5252923177
O  O46  1  0.44266000  0.50000000  0.77665000  1.0 -0.5243890827
O  O47  1  0.55734000  0.50000000  0.22335000  1.0 -0.5252923177
O  O48  1  0.55734000  0.50000000  0.77665000  1.0 -0.5243890827
O  O49  1  0.04065000  0.04065000  0.46645000  1.0 -0.5252923177
O  O50  1  0.95935000  0.04065000  0.46645000  1.0 -0.5252923177
O  O51  1  0.95935000  0.95935000  0.46645000  1.0 -0.5252923177
O  O52  1  0.04065000  0.95935000  0.46645000  1.0 -0.5252923177
O  O53  1  0.04065000  0.95935000  0.53355000  1.0 -0.5252923177
O  O54  1  0.04065000  0.04065000  0.53355000  1.0 -0.5252923177
O  O55  1  0.95935000  0.04065000  0.53355000  1.0 -0.5252923177
O  O56  1  0.95935000  0.95935000  0.53355000  1.0 -0.5252923177
O  O57  1  0.46645000  0.04065000  0.04065000  1.0 -0.5252923177
O  O58  1  0.95935000  0.46645000  0.04065000  1.0 -0.5252923177
O  O59  1  0.53355000  0.95935000  0.04065000  1.0 -0.5252923177
O  O60  1  0.04065000  0.53355000  0.04065000  1.0 -0.5252923177
O  O61  1  0.46645000  0.95935000  0.95935000  1.0 -0.5252923177
O  O62  1  0.04065000  0.46645000  0.95935000  1.0 -0.5252923177
O  O63  1  0.53355000  0.04065000  0.95935000  1.0 -0.5252923177
O  O64  1  0.95935000  0.53355000  0.95935000  1.0 -0.5252923177
O  O65  1  0.04065000  0.46645000  0.04065000  1.0 -0.5252923177
O  O66  1  0.53355000  0.95935000  0.95935000  1.0 -0.5252923177
O  O67  1  0.53355000  0.04065000  0.04065000  1.0 -0.5252923177
O  O68  1  0.46645000  0.04065000  0.95935000  1.0 -0.5252923177
O  O69  1  0.46645000  0.95935000  0.04065000  1.0 -0.5252923177
O  O70  1  0.04065000  0.53355000  0.95935000  1.0 -0.5252923177
O  O71  1  0.95935000  0.53355000  0.04065000  1.0 -0.5252923177
O  O72  1  0.95935000  0.46645000  0.95935000  1.0 -0.5252923177
