# DDEC6 charges by PACMAN v1.1 (https://github.com/mtap-research/PACMAN-charge/)
data_KUBQAA_ion_pacman
_symmetry_space_group_name_H-M   'P 1'
_cell_length_a   25.75170000
_cell_length_b   25.75170000
_cell_length_c   17.93980000
_cell_angle_alpha   78.83870000
_cell_angle_beta   101.16100000
_cell_angle_gamma   47.23780000
_symmetry_Int_Tables_number   1
_chemical_formula_structural   CuBPH22C28N3F4
_chemical_formula_sum   'Cu8 B8 P8 H176 C224 N24 F32'
_cell_volume   7647.32079989
_cell_formula_units_Z   8
loop_
 _symmetry_equiv_pos_site_id
 _symmetry_equiv_pos_as_xyz
  1  'x, y, z'
loop_
 _atom_site_type_symbol
 _atom_site_label
 _atom_site_symmetry_multiplicity
 _atom_site_fract_x
 _atom_site_fract_y
 _atom_site_fract_z
 _atom_site_occupancy
 _atom_site_charge
Cu  Cu1  1  0.02575000  0.83433000  0.98404000  1.0 0.0989233491
Cu  Cu2  1  0.16567000  0.97425000  0.48404000  1.0 0.0989233491
Cu  Cu3  1  0.47669000  0.17219000  0.23694000  1.0 0.0879350576
Cu  Cu4  1  0.82781000  0.52331000  0.73694000  1.0 0.0879350576
Cu  Cu5  1  0.90876000  0.72088000  0.20337000  1.0 0.0587042027
Cu  Cu6  1  0.27912000  0.09124000  0.70337000  1.0 0.0587042027
Cu  Cu7  1  0.56608000  0.29046000  0.45807000  1.0 0.0879350576
Cu  Cu8  1  0.70954000  0.43392000  0.95807000  1.0 0.0879350576
B  B1  1  0.37100000  0.66360000  0.78240000  1.0 1.0301856591
B  B2  1  0.33640000  0.62900000  0.28240000  1.0 1.0301856591
B  B3  1  0.88980000  0.05840000  0.38860000  1.0 1.0131356909
B  B4  1  0.94160000  0.11020000  0.88860000  1.0 1.0131356909
B  B5  1  0.14260000  0.40940000  0.72030000  1.0 1.0131356909
B  B6  1  0.59060000  0.85740000  0.22030000  1.0 1.0131356909
B  B7  1  0.62540000  0.84440000  0.75040000  1.0 1.0420716001
B  B8  1  0.15560000  0.37460000  0.25040000  1.0 1.0420716001
P  P1  1  0.90422000  0.89466000  0.92992000  1.0 0.2156270786
P  P2  1  0.10534000  0.09578000  0.42992000  1.0 0.2102488919
P  P3  1  0.85078000  0.84172000  0.15322000  1.0 0.2260021909
P  P4  1  0.15828000  0.14922000  0.65322000  1.0 0.2260021909
P  P5  1  0.59908000  0.10882000  0.28547000  1.0 0.1703999123
P  P6  1  0.89118000  0.40092000  0.78547000  1.0 0.1703999123
P  P7  1  0.63897000  0.16421000  0.51269000  1.0 0.1703999123
P  P8  1  0.83579000  0.36103000  0.01269000  1.0 0.1703999123
H  H1  1  0.01860000  0.95440000  0.90030000  1.0 0.1109362429
H  H2  1  0.04560000  0.98140000  0.40030000  1.0 0.1109362429
H  H3  1  0.05680000  0.97920000  0.80620000  1.0 0.1392736233
H  H4  1  0.02080000  0.94320000  0.30620000  1.0 0.1392736233
H  H5  1  0.17310000  0.76910000  0.80840000  1.0 0.1392736233
H  H6  1  0.23090000  0.82690000  0.30840000  1.0 0.1392736233
H  H7  1  0.12910000  0.74910000  0.89800000  1.0 0.1109362429
H  H8  1  0.25090000  0.87090000  0.39800000  1.0 0.1109362429
H  H9  1  0.15110000  0.00190000  0.63590000  1.0 0.0989233491
H  H10  1  0.99810000  0.84890000  0.13590000  1.0 0.0989233491
H  H11  1  0.14050000  0.96690000  0.75190000  1.0 0.1297334113
H  H12  1  0.03310000  0.85950000  0.25190000  1.0 0.1297334113
H  H13  1  0.13520000  0.83500000  0.66870000  1.0 0.1392736233
H  H14  1  0.16500000  0.86480000  0.16870000  1.0 0.1392736233
H  H15  1  0.15200000  0.87220000  0.55990000  1.0 0.1109362429
H  H16  1  0.12780000  0.84800000  0.05990000  1.0 0.1109362429
H  H17  1  0.03970000  0.70770000  0.97400000  1.0 0.0989233491
H  H18  1  0.29230000  0.96030000  0.47400000  1.0 0.0989233491
H  H19  1  0.13070000  0.57530000  0.02110000  1.0 0.1392736233
H  H20  1  0.42470000  0.86930000  0.52110000  1.0 0.1392736233
H  H21  1  0.29600000  0.55120000  0.15540000  1.0 0.1392736233
H  H22  1  0.44880000  0.70400000  0.65540000  1.0 0.1392736233
H  H23  1  0.19820000  0.68760000  0.10160000  1.0 0.1109362429
H  H24  1  0.31240000  0.80180000  0.60160000  1.0 0.1109362429
H  H25  1  0.30630000  0.31590000  0.18640000  1.0 0.1109362429
H  H26  1  0.68410000  0.69370000  0.68640000  1.0 0.1109362429
H  H27  1  0.21120000  0.45240000  0.13680000  1.0 0.1392736233
H  H28  1  0.54760000  0.78880000  0.63680000  1.0 0.1392736233
H  H29  1  0.38080000  0.43320000  0.13780000  1.0 0.1470005705
H  H30  1  0.56680000  0.61920000  0.63780000  1.0 0.1470005705
H  H31  1  0.46900000  0.30020000  0.18810000  1.0 0.0989233491
H  H32  1  0.69980000  0.53100000  0.68810000  1.0 0.0989233491
H  H33  1  0.36820000  0.26680000  0.04670000  1.0 0.1109362429
H  H34  1  0.73320000  0.63180000  0.54670000  1.0 0.1109362429
H  H35  1  0.32770000  0.25070000  0.93670000  1.0 0.1392736233
H  H36  1  0.74930000  0.67230000  0.43670000  1.0 0.1392736233
H  H37  1  0.44330000  0.03690000  0.10500000  1.0 0.1392736233
H  H38  1  0.96310000  0.55670000  0.60500000  1.0 0.1392736233
H  H39  1  0.47920000  0.05960000  0.21140000  1.0 0.1109362429
H  H40  1  0.94040000  0.52080000  0.71140000  1.0 0.1109362429
H  H41  1  0.25990000  0.20970000  0.73270000  1.0 0.1109362429
H  H42  1  0.79030000  0.74010000  0.23270000  1.0 0.1109362429
H  H43  1  0.29720000  0.23080000  0.84230000  1.0 0.1392736233
H  H44  1  0.76920000  0.70280000  0.34230000  1.0 0.1392736233
H  H45  1  0.41180000  0.02000000  0.00860000  1.0 0.1392736233
H  H46  1  0.98000000  0.58820000  0.50860000  1.0 0.1392736233
H  H47  1  0.38090000  0.99810000  0.89820000  1.0 0.1109362429
H  H48  1  0.00190000  0.61910000  0.39820000  1.0 0.1109362429
H  H49  1  0.02740000  0.71440000  0.18750000  1.0 0.0989233491
H  H50  1  0.28560000  0.97260000  0.68750000  1.0 0.0989233491
H  H51  1  0.16070000  0.63030000  0.24040000  1.0 0.1392736233
H  H52  1  0.36970000  0.83930000  0.74040000  1.0 0.1392736233
H  H53  1  0.19300000  0.45120000  0.33980000  1.0 0.1392736233
H  H54  1  0.54880000  0.80700000  0.83980000  1.0 0.1392736233
H  H55  1  0.06070000  0.54190000  0.30110000  1.0 0.1109362429
H  H56  1  0.45810000  0.93930000  0.80110000  1.0 0.1109362429
H  H57  1  0.41330000  0.46490000  0.38790000  1.0 0.1109362429
H  H58  1  0.53510000  0.58670000  0.88790000  1.0 0.1109362429
H  H59  1  0.28000000  0.55100000  0.33230000  1.0 0.1392736233
H  H60  1  0.44900000  0.72000000  0.83230000  1.0 0.1392736233
H  H61  1  0.31220000  0.37320000  0.34760000  1.0 0.1297334113
H  H62  1  0.62680000  0.68780000  0.84760000  1.0 0.1297334113
H  H63  1  0.44660000  0.29060000  0.39760000  1.0 0.0879350576
H  H64  1  0.70940000  0.55340000  0.89760000  1.0 0.0879350576
H  H65  1  0.35810000  0.17810000  0.24730000  1.0 0.1109362429
H  H66  1  0.82190000  0.64190000  0.74730000  1.0 0.1109362429
H  H67  1  0.30830000  0.17350000  0.33830000  1.0 0.1392736233
H  H68  1  0.82650000  0.69170000  0.83830000  1.0 0.1392736233
H  H69  1  0.47660000  0.12260000  0.51970000  1.0 0.1204355654
H  H70  1  0.87740000  0.52340000  0.01970000  1.0 0.1204355654
H  H71  1  0.52060000  0.12800000  0.42290000  1.0 0.0989233491
H  H72  1  0.87200000  0.47940000  0.92290000  1.0 0.0989233491
H  H73  1  0.20300000  0.20980000  0.52300000  1.0 0.0989233491
H  H74  1  0.79020000  0.79700000  0.02300000  1.0 0.0989233491
H  H75  1  0.24250000  0.22530000  0.41990000  1.0 0.1392736233
H  H76  1  0.77470000  0.75750000  0.91990000  1.0 0.1392736233
H  H77  1  0.45960000  0.06800000  0.60770000  1.0 0.1392736233
H  H78  1  0.93200000  0.54040000  0.10770000  1.0 0.1392736233
H  H79  1  0.41490000  0.05470000  0.69990000  1.0 0.1109362429
H  H80  1  0.94530000  0.58510000  0.19990000  1.0 0.1109362429
H  H81  1  0.48770000  0.37870000  0.55770000  1.0 0.0989233491
H  H82  1  0.62130000  0.51230000  0.05770000  1.0 0.0989233491
H  H83  1  0.51580000  0.40360000  0.66850000  1.0 0.1392736233
H  H84  1  0.59640000  0.48420000  0.16850000  1.0 0.1392736233
H  H85  1  0.71020000  0.31700000  0.64060000  1.0 0.1392736233
H  H86  1  0.68300000  0.28980000  0.14060000  1.0 0.1392736233
H  H87  1  0.68010000  0.28310000  0.54680000  1.0 0.1109362429
H  H88  1  0.71690000  0.31990000  0.04680000  1.0 0.1109362429
H  H89  1  0.78820000  0.31100000  0.89110000  1.0 0.0989233491
H  H90  1  0.68900000  0.21180000  0.39110000  1.0 0.0989233491
H  H91  1  0.75600000  0.28960000  0.78150000  1.0 0.1392736233
H  H92  1  0.71040000  0.24400000  0.28150000  1.0 0.1392736233
H  H93  1  0.52700000  0.47700000  0.71540000  1.0 0.1392736233
H  H94  1  0.52300000  0.47300000  0.21540000  1.0 0.1392736233
H  H95  1  0.56280000  0.50280000  0.81570000  1.0 0.1204355654
H  H96  1  0.49720000  0.43720000  0.31570000  1.0 0.1204355654
H  H97  1  0.88540000  0.01980000  0.90710000  1.0 0.1204355654
H  H98  1  0.98020000  0.11460000  0.40710000  1.0 0.1204355654
H  H99  1  0.77460000  0.16140000  0.84000000  1.0 0.1109362429
H  H100  1  0.83860000  0.22540000  0.34000000  1.0 0.1109362429
H  H101  1  0.64400000  0.22000000  0.78150000  1.0 0.1109362429
H  H102  1  0.78000000  0.35600000  0.28150000  1.0 0.1109362429
H  H103  1  0.62710000  0.14590000  0.78180000  1.0 0.1109362429
H  H104  1  0.85410000  0.37290000  0.28180000  1.0 0.1109362429
H  H105  1  0.73400000  0.00980000  0.84220000  1.0 0.1204355654
H  H106  1  0.99020000  0.26600000  0.34220000  1.0 0.1204355654
H  H107  1  0.92260000  0.88500000  0.78450000  1.0 0.1204355654
H  H108  1  0.11500000  0.07740000  0.28450000  1.0 0.1204355654
H  H109  1  0.89970000  0.85210000  0.68230000  1.0 0.1204355654
H  H110  1  0.14790000  0.10030000  0.18230000  1.0 0.1204355654
H  H111  1  0.83130000  0.82170000  0.69040000  1.0 0.1297334113
H  H112  1  0.17830000  0.16870000  0.19040000  1.0 0.1297334113
H  H113  1  0.82180000  0.79260000  0.81010000  1.0 0.1297334113
H  H114  1  0.20740000  0.17820000  0.31010000  1.0 0.1297334113
H  H115  1  0.82200000  0.85460000  0.89830000  1.0 0.1204355654
H  H116  1  0.14540000  0.17800000  0.39830000  1.0 0.1204355654
H  H117  1  0.72900000  0.99880000  0.00590000  1.0 0.1204355654
H  H118  1  0.00120000  0.27100000  0.50590000  1.0 0.1204355654
H  H119  1  0.58970000  0.10050000  0.94500000  1.0 0.1109362429
H  H120  1  0.89950000  0.41030000  0.44500000  1.0 0.1109362429
H  H121  1  0.52690000  0.09250000  0.01580000  1.0 0.1204355654
H  H122  1  0.90750000  0.47310000  0.51580000  1.0 0.1204355654
H  H123  1  0.59480000  0.97600000  0.12420000  1.0 0.1297334113
H  H124  1  0.02400000  0.40520000  0.62420000  1.0 0.1297334113
H  H125  1  0.73250000  0.88010000  0.19010000  1.0 0.1204355654
H  H126  1  0.11990000  0.26750000  0.69010000  1.0 0.1204355654
H  H127  1  0.80880000  0.98220000  0.15630000  1.0 0.1204355654
H  H128  1  0.01780000  0.19120000  0.65630000  1.0 0.1204355654
H  H129  1  0.85580000  0.99680000  0.26450000  1.0 0.1204355654
H  H130  1  0.00320000  0.14420000  0.76450000  1.0 0.1204355654
H  H131  1  0.96500000  0.89200000  0.38960000  1.0 0.1297334113
H  H132  1  0.10800000  0.03500000  0.88960000  1.0 0.1297334113
H  H133  1  0.03070000  0.76370000  0.41900000  1.0 0.1109362429
H  H134  1  0.23630000  0.96930000  0.91900000  1.0 0.1109362429
H  H135  1  0.98110000  0.74370000  0.31800000  1.0 0.0989233491
H  H136  1  0.25630000  0.01890000  0.81800000  1.0 0.0989233491
H  H137  1  0.61320000  0.98700000  0.29510000  1.0 0.1109362429
H  H138  1  0.01300000  0.38680000  0.79510000  1.0 0.1109362429
H  H139  1  0.71830000  0.84690000  0.36880000  1.0 0.1204355654
H  H140  1  0.15310000  0.28170000  0.86880000  1.0 0.1204355654
H  H141  1  0.84780000  0.77740000  0.44240000  1.0 0.1109362429
H  H142  1  0.22260000  0.15220000  0.94240000  1.0 0.1109362429
H  H143  1  0.87180000  0.84940000  0.43740000  1.0 0.1204355654
H  H144  1  0.15060000  0.12820000  0.93740000  1.0 0.1204355654
H  H145  1  0.77360000  0.98220000  0.37680000  1.0 0.1297334113
H  H146  1  0.01780000  0.22640000  0.87680000  1.0 0.1297334113
H  H147  1  0.70870000  0.11890000  0.29030000  1.0 0.1297334113
H  H148  1  0.88110000  0.29130000  0.79030000  1.0 0.1297334113
H  H149  1  0.72510000  0.16710000  0.19050000  1.0 0.1297334113
H  H150  1  0.83290000  0.27490000  0.69050000  1.0 0.1297334113
H  H151  1  0.65910000  0.20730000  0.05020000  1.0 0.1297334113
H  H152  1  0.79270000  0.34090000  0.55020000  1.0 0.1297334113
H  H153  1  0.57450000  0.20490000  0.01170000  1.0 0.1204355654
H  H154  1  0.79510000  0.42550000  0.51170000  1.0 0.1204355654
H  H155  1  0.53840000  0.17400000  0.10730000  1.0 0.1109362429
H  H156  1  0.82600000  0.46160000  0.60730000  1.0 0.1109362429
H  H157  1  0.52550000  0.23530000  0.57400000  1.0 0.1109362429
H  H158  1  0.76470000  0.47450000  0.07400000  1.0 0.1109362429
H  H159  1  0.48760000  0.20380000  0.65590000  1.0 0.1204355654
H  H160  1  0.79620000  0.51240000  0.15590000  1.0 0.1204355654
H  H161  1  0.54440000  0.07980000  0.70600000  1.0 0.1392736233
H  H162  1  0.92020000  0.45560000  0.20600000  1.0 0.1392736233
H  H163  1  0.65410000  0.98030000  0.69350000  1.0 0.1297334113
H  H164  1  0.01970000  0.34590000  0.19350000  1.0 0.1297334113
H  H165  1  0.70090000  0.01150000  0.60670000  1.0 0.1204355654
H  H166  1  0.98850000  0.29910000  0.10670000  1.0 0.1204355654
H  H167  1  0.74140000  0.12540000  0.66370000  1.0 0.1204355654
H  H168  1  0.87460000  0.25860000  0.16370000  1.0 0.1204355654
H  H169  1  0.86770000  0.05670000  0.73500000  1.0 0.1204355654
H  H170  1  0.94330000  0.13230000  0.23500000  1.0 0.1204355654
H  H171  1  0.95850000  0.96290000  0.68740000  1.0 0.1109362429
H  H172  1  0.03710000  0.04150000  0.18740000  1.0 0.1109362429
H  H173  1  0.91590000  0.96310000  0.56600000  1.0 0.1297334113
H  H174  1  0.03690000  0.08410000  0.06600000  1.0 0.1297334113
H  H175  1  0.77830000  0.04170000  0.49510000  1.0 0.1204355654
H  H176  1  0.95830000  0.22170000  0.99510000  1.0 0.1204355654
C  C1  1  0.04910000  0.91650000  0.88040000  1.0 0.0705265148
C  C2  1  0.08350000  0.95090000  0.38040000  1.0 0.0705265148
C  C3  1  0.07140000  0.93200000  0.82330000  1.0 -0.1688197343
C  C4  1  0.06800000  0.92860000  0.32330000  1.0 -0.1688197343
C  C5  1  0.11368000  0.88068000  0.79180000  1.0 0.0989233491
C  C6  1  0.11932000  0.88632000  0.29180000  1.0 0.0989233491
C  C7  1  0.13880000  0.80900000  0.82450000  1.0 -0.1603627757
C  C8  1  0.19100000  0.86120000  0.32450000  1.0 -0.1603627757
C  C9  1  0.11430000  0.79650000  0.87950000  1.0 0.0389954873
C  C10  1  0.20350000  0.88570000  0.37950000  1.0 0.0389954873
C  C11  1  0.14860000  0.96620000  0.64380000  1.0 0.0705265148
C  C12  1  0.03380000  0.85140000  0.14380000  1.0 0.0705265148
C  C13  1  0.14020000  0.94740000  0.71210000  1.0 -0.1897266445
C  C14  1  0.05260000  0.85980000  0.21210000  1.0 -0.1897266445
C  C15  1  0.13101000  0.89901000  0.72510000  1.0 0.1297334113
C  C16  1  0.10099000  0.86899000  0.22510000  1.0 0.1297334113
C  C17  1  0.13800000  0.87040000  0.66430000  1.0 -0.1797856482
C  C18  1  0.12960000  0.86200000  0.16430000  1.0 -0.1797856482
C  C19  1  0.14840000  0.89260000  0.59980000  1.0 0.0879350576
C  C20  1  0.10740000  0.85160000  0.09980000  1.0 0.0879350576
C  C21  1  0.09240000  0.67540000  0.01310000  1.0 0.0389954873
C  C22  1  0.32460000  0.90760000  0.51310000  1.0 0.0389954873
C  C23  1  0.14630000  0.59650000  0.04110000  1.0 -0.1797856482
C  C24  1  0.40350000  0.85370000  0.54110000  1.0 -0.1797856482
C  C25  1  0.22360000  0.54620000  0.09860000  1.0 0.1109362429
C  C26  1  0.45380000  0.77640000  0.59860000  1.0 0.1109362429
C  C27  1  0.24290000  0.58230000  0.11930000  1.0 -0.1797856482
C  C28  1  0.41770000  0.75710000  0.61930000  1.0 -0.1797856482
C  C29  1  0.18350000  0.66430000  0.08670000  1.0 0.0879350576
C  C30  1  0.33570000  0.81650000  0.58670000  1.0 0.0879350576
C  C31  1  0.32150000  0.34050000  0.17640000  1.0 0.0705265148
C  C32  1  0.65950000  0.67850000  0.67640000  1.0 0.0705265148
C  C33  1  0.26420000  0.42220000  0.14690000  1.0 -0.1688197343
C  C34  1  0.57780000  0.73580000  0.64690000  1.0 -0.1688197343
C  C35  1  0.28540000  0.45820000  0.13280000  1.0 0.1109362429
C  C36  1  0.54180000  0.71460000  0.63280000  1.0 0.1109362429
C  C37  1  0.36410000  0.41030000  0.14800000  1.0 -0.1897266445
C  C38  1  0.58970000  0.63590000  0.64800000  1.0 -0.1897266445
C  C39  1  0.41570000  0.33130000  0.17720000  1.0 0.0587042027
C  C40  1  0.66870000  0.58430000  0.67720000  1.0 0.0587042027
C  C41  1  0.38420000  0.21900000  0.05930000  1.0 0.0587042027
C  C42  1  0.78100000  0.61580000  0.55930000  1.0 0.0587042027
C  C43  1  0.35960000  0.20980000  0.99330000  1.0 -0.1797856482
C  C44  1  0.79020000  0.64040000  0.49330000  1.0 -0.1797856482
C  C45  1  0.38056000  0.14196000  0.00820000  1.0 0.1204355654
C  C46  1  0.85804000  0.61944000  0.50820000  1.0 0.1204355654
C  C47  1  0.42670000  0.08510000  0.09110000  1.0 -0.1688197343
C  C48  1  0.91490000  0.57330000  0.59110000  1.0 -0.1688197343
C  C49  1  0.44850000  0.09910000  0.15410000  1.0 0.0587042027
C  C50  1  0.90090000  0.55150000  0.65410000  1.0 0.0587042027
C  C51  1  0.29320000  0.16880000  0.78950000  1.0 0.0989233491
C  C52  1  0.83120000  0.70680000  0.28950000  1.0 0.0989233491
C  C53  1  0.31420000  0.18240000  0.85570000  1.0 -0.1688197343
C  C54  1  0.81760000  0.68580000  0.35570000  1.0 -0.1688197343
C  C55  1  0.35747000  0.12827000  0.93670000  1.0 0.1109362429
C  C56  1  0.87173000  0.64253000  0.43670000  1.0 0.1109362429
C  C57  1  0.38140000  0.05980000  0.95170000  1.0 -0.1688197343
C  C58  1  0.94020000  0.61860000  0.45170000  1.0 -0.1688197343
C  C59  1  0.36230000  0.04710000  0.88580000  1.0 0.0389954873
C  C60  1  0.95290000  0.63770000  0.38580000  1.0 0.0389954873
C  C61  1  0.06280000  0.66000000  0.22410000  1.0 0.0587042027
C  C62  1  0.34000000  0.93720000  0.72410000  1.0 0.0587042027
C  C63  1  0.14180000  0.61000000  0.25310000  1.0 -0.1797856482
C  C64  1  0.39000000  0.85820000  0.75310000  1.0 -0.1797856482
C  C65  1  0.19510000  0.52910000  0.30140000  1.0 0.1297334113
C  C66  1  0.47090000  0.80490000  0.80140000  1.0 0.1297334113
C  C67  1  0.16040000  0.50600000  0.31320000  1.0 -0.1797856482
C  C68  1  0.49400000  0.83960000  0.81320000  1.0 -0.1797856482
C  C69  1  0.08140000  0.56000000  0.28750000  1.0 0.0822288959
C  C70  1  0.44000000  0.91860000  0.78750000  1.0 0.0822288959
C  C71  1  0.39310000  0.44530000  0.37940000  1.0 0.0325622192
C  C72  1  0.55470000  0.60690000  0.87940000  1.0 0.0325622192
C  C73  1  0.31380000  0.49660000  0.34680000  1.0 -0.1466883303
C  C74  1  0.50340000  0.68620000  0.84680000  1.0 -0.1466883303
C  C75  1  0.28200000  0.47220000  0.33470000  1.0 0.0989233491
C  C76  1  0.52780000  0.71800000  0.83470000  1.0 0.0989233491
C  C77  1  0.33190000  0.39330000  0.35470000  1.0 -0.1897266445
C  C78  1  0.60670000  0.66810000  0.85470000  1.0 -0.1897266445
C  C79  1  0.41250000  0.34450000  0.38590000  1.0 0.0705265148
C  C80  1  0.65550000  0.58750000  0.88590000  1.0 0.0705265148
C  C81  1  0.38300000  0.16600000  0.30420000  1.0 0.0879350576
C  C82  1  0.83400000  0.61700000  0.80420000  1.0 0.0879350576
C  C83  1  0.35270000  0.16350000  0.35800000  1.0 -0.1797856482
C  C84  1  0.83650000  0.64730000  0.85800000  1.0 -0.1797856482
C  C85  1  0.38780000  0.14580000  0.44190000  1.0 0.1297334113
C  C86  1  0.85420000  0.61220000  0.94190000  1.0 0.1297334113
C  C87  1  0.45100000  0.13360000  0.46370000  1.0 -0.1797856482
C  C88  1  0.86640000  0.54900000  0.96370000  1.0 -0.1688197343
C  C89  1  0.47670000  0.13730000  0.40570000  1.0 0.0389954873
C  C90  1  0.86270000  0.52330000  0.90570000  1.0 0.0389954873
C  C91  1  0.25770000  0.17610000  0.53960000  1.0 0.0587042027
C  C92  1  0.82390000  0.74230000  0.03960000  1.0 0.0587042027
C  C93  1  0.28040000  0.18660000  0.47750000  1.0 -0.1797856482
C  C94  1  0.81340000  0.71960000  0.97750000  1.0 -0.1797856482
C  C95  1  0.36040000  0.13820000  0.50420000  1.0 0.1109362429
C  C96  1  0.86180000  0.63960000  0.00420000  1.0 0.1109362429
C  C97  1  0.40660000  0.09480000  0.58600000  1.0 -0.1688197343
C  C98  1  0.90520000  0.59340000  0.08600000  1.0 -0.1688197343
C  C99  1  0.37880000  0.08760000  0.64090000  1.0 0.0879350576
C  C100  1  0.91240000  0.62120000  0.14090000  1.0 0.0879350576
C  C101  1  0.53480000  0.36420000  0.57680000  1.0 0.0879350576
C  C102  1  0.63580000  0.46520000  0.07680000  1.0 0.0879350576
C  C103  1  0.54980000  0.38160000  0.64210000  1.0 -0.2160891996
C  C104  1  0.61840000  0.45020000  0.14210000  1.0 -0.2160891996
C  C105  1  0.61780000  0.36540000  0.66800000  1.0 0.1297334113
C  C106  1  0.63460000  0.38220000  0.16800000  1.0 0.1297334113
C  C107  1  0.66440000  0.32940000  0.62780000  1.0 -0.1897266445
C  C108  1  0.67060000  0.33560000  0.12780000  1.0 -0.1897266445
C  C109  1  0.64400000  0.31180000  0.56940000  1.0 0.0587042027
C  C110  1  0.68820000  0.35600000  0.06940000  1.0 0.0587042027
C  C111  1  0.73370000  0.34790000  0.85310000  1.0 0.0705265148
C  C112  1  0.65210000  0.26630000  0.35310000  1.0 0.0705265148
C  C113  1  0.71500000  0.33380000  0.78850000  1.0 -0.1688197343
C  C114  1  0.66620000  0.28500000  0.28850000  1.0 -0.1688197343
C  C115  1  0.63820000  0.38260000  0.73500000  1.0 0.0879350576
C  C116  1  0.61740000  0.36180000  0.23500000  1.0 0.0879350576
C  C117  1  0.58150000  0.44390000  0.74860000  1.0 -0.1688197343
C  C118  1  0.55610000  0.41850000  0.24860000  1.0 -0.1688197343
C  C119  1  0.60380000  0.45720000  0.81050000  1.0 0.0587042027
C  C120  1  0.54280000  0.39620000  0.31050000  1.0 0.0587042027
C  C121  1  0.88380000  0.87120000  0.01060000  1.0 -0.1603627757
C  C122  1  0.12880000  0.11620000  0.51060000  1.0 -0.1603627757
C  C123  1  0.87129000  0.86109000  0.07050000  1.0 -0.1797856482
C  C124  1  0.13891000  0.12871000  0.57050000  1.0 -0.1797856482
C  C125  1  0.62130000  0.12750000  0.37050000  1.0 -0.138776149
C  C126  1  0.87250000  0.37870000  0.87050000  1.0 -0.138776149
C  C127  1  0.63040000  0.13840000  0.42880000  1.0 -0.1466883303
C  C128  1  0.86160000  0.36960000  0.92880000  1.0 -0.1466883303
C  C129  1  0.81900000  0.00180000  0.87970000  1.0 -0.0109278057
C  C130  1  0.99820000  0.18100000  0.37970000  1.0 -0.0109278057
C  C131  1  0.83280000  0.04580000  0.88070000  1.0 -0.1095704269
C  C132  1  0.95420000  0.16720000  0.38070000  1.0 -0.1095704269
C  C133  1  0.76760000  0.12940000  0.84220000  1.0 -0.0736324446
C  C134  1  0.87060000  0.23240000  0.34220000  1.0 -0.0736324446
C  C135  1  0.68930000  0.16410000  0.80620000  1.0 -0.1095704269
C  C136  1  0.83590000  0.31070000  0.30620000  1.0 -0.1095704269
C  C137  1  0.67940000  0.12100000  0.80680000  1.0 -0.0825142024
C  C138  1  0.87900000  0.32060000  0.30680000  1.0 -0.0825142024
C  C139  1  0.74300000  0.04000000  0.84280000  1.0 -0.1201462311
C  C140  1  0.96000000  0.25700000  0.34280000  1.0 -0.1201462311
C  C141  1  0.88170000  0.86570000  0.85590000  1.0 -0.0205147232
C  C142  1  0.13430000  0.11830000  0.35590000  1.0 -0.0205147232
C  C143  1  0.89890000  0.86870000  0.78830000  1.0 -0.138776149
C  C144  1  0.13130000  0.10110000  0.28830000  1.0 -0.138776149
C  C145  1  0.88540000  0.85060000  0.72700000  1.0 -0.0736324446
C  C146  1  0.14940000  0.11460000  0.22700000  1.0 -0.0736324446
C  C147  1  0.84820000  0.82900000  0.73520000  1.0 -0.0902843768
C  C148  1  0.17100000  0.15180000  0.23520000  1.0 -0.0902843768
C  C149  1  0.83560000  0.81860000  0.80060000  1.0 -0.0736324446
C  C150  1  0.18140000  0.16440000  0.30060000  1.0 -0.0736324446
C  C151  1  0.84350000  0.84810000  0.85910000  1.0 -0.1095704269
C  C152  1  0.15190000  0.15650000  0.35910000  1.0 -0.1095704269
C  C153  1  0.74250000  0.92690000  0.10310000  1.0 -0.0109278057
C  C154  1  0.07310000  0.25750000  0.60310000  1.0 -0.0109278057
C  C155  1  0.70200000  0.99440000  0.03060000  1.0 -0.1201462311
C  C156  1  0.00560000  0.29800000  0.53060000  1.0 -0.1201462311
C  C157  1  0.62030000  0.05450000  0.99640000  1.0 -0.0995795087
C  C158  1  0.94550000  0.37970000  0.49640000  1.0 -0.0995795087
C  C159  1  0.58250000  0.04810000  0.03660000  1.0 -0.0902843768
C  C160  1  0.95190000  0.41750000  0.53660000  1.0 -0.0902843768
C  C161  1  0.62140000  0.98300000  0.10210000  1.0 -0.0632348911
C  C162  1  0.01700000  0.37860000  0.60210000  1.0 -0.0632348911
C  C163  1  0.70300000  0.92460000  0.13760000  1.0 -0.0995795087
C  C164  1  0.07540000  0.29700000  0.63760000  1.0 -0.0995795087
C  C165  1  0.88360000  0.86280000  0.22770000  1.0 -0.0255206761
C  C166  1  0.13720000  0.11640000  0.72770000  1.0 -0.0255206761
C  C167  1  0.85090000  0.93790000  0.21040000  1.0 -0.1095704269
C  C168  1  0.06210000  0.14910000  0.71040000  1.0 -0.1095704269
C  C169  1  0.88150000  0.94530000  0.27390000  1.0 -0.0825142024
C  C170  1  0.05470000  0.11850000  0.77390000  1.0 -0.0825142024
C  C171  1  0.94590000  0.88330000  0.34860000  1.0 -0.0902843768
C  C172  1  0.11670000  0.05410000  0.84860000  1.0 -0.0902843768
C  C173  1  0.98450000  0.80730000  0.36670000  1.0 -0.0902843768
C  C174  1  0.19270000  0.01550000  0.86670000  1.0 -0.0902843768
C  C175  1  0.95470000  0.79570000  0.30680000  1.0 -0.1201462311
C  C176  1  0.20430000  0.04530000  0.80680000  1.0 -0.1201462311
C  C177  1  0.68290000  0.99950000  0.33510000  1.0 -0.0109278057
C  C178  1  0.00050000  0.31710000  0.83510000  1.0 -0.0109278057
C  C179  1  0.66580000  0.95920000  0.32770000  1.0 -0.1095704269
C  C180  1  0.04080000  0.33420000  0.82770000  1.0 -0.1095704269
C  C181  1  0.72940000  0.87520000  0.37020000  1.0 -0.0825142024
C  C182  1  0.12480000  0.27060000  0.87020000  1.0 -0.0825142024
C  C183  1  0.80570000  0.83370000  0.41290000  1.0 -0.0902843768
C  C184  1  0.16630000  0.19430000  0.91290000  1.0 -0.0902843768
C  C185  1  0.81870000  0.87690000  0.41130000  1.0 -0.0825142024
C  C186  1  0.12310000  0.18130000  0.91130000  1.0 -0.0825142024
C  C187  1  0.76060000  0.95560000  0.37490000  1.0 -0.0995795087
C  C188  1  0.04440000  0.23940000  0.87490000  1.0 -0.0995795087
C  C189  1  0.62080000  0.14220000  0.21090000  1.0 -0.0205147232
C  C190  1  0.85780000  0.37920000  0.71090000  1.0 -0.0205147232
C  C191  1  0.67720000  0.13980000  0.23200000  1.0 -0.0995795087
C  C192  1  0.86020000  0.32280000  0.73200000  1.0 -0.0995795087
C  C193  1  0.68880000  0.16580000  0.17400000  1.0 -0.0995795087
C  C194  1  0.83420000  0.31120000  0.67400000  1.0 -0.0995795087
C  C195  1  0.64970000  0.19010000  0.09190000  1.0 -0.0902843768
C  C196  1  0.80990000  0.35030000  0.59190000  1.0 -0.0902843768
C  C197  1  0.59950000  0.19010000  0.07000000  1.0 -0.0995795087
C  C198  1  0.80990000  0.40050000  0.57000000  1.0 -0.0995795087
C  C199  1  0.57900000  0.16940000  0.12650000  1.0 -0.1201462311
C  C200  1  0.83060000  0.42100000  0.62650000  1.0 -0.1201462311
C  C201  1  0.61430000  0.12970000  0.58020000  1.0 -0.0205147232
C  C202  1  0.87030000  0.38570000  0.08020000  1.0 -0.0205147232
C  C203  1  0.55300000  0.18200000  0.59780000  1.0 -0.1466883303
C  C204  1  0.81800000  0.44700000  0.09780000  1.0 -0.1466883303
C  C205  1  0.52930000  0.16470000  0.64450000  1.0 -0.0825142024
C  C206  1  0.83530000  0.47070000  0.14450000  1.0 -0.0825142024
C  C207  1  0.56460000  0.09140000  0.67600000  1.0 -0.1095704269
C  C208  1  0.90860000  0.43540000  0.17600000  1.0 -0.1095704269
C  C209  1  0.62810000  0.03290000  0.66680000  1.0 -0.0825142024
C  C210  1  0.96710000  0.37190000  0.16680000  1.0 -0.0825142024
C  C211  1  0.65690000  0.05070000  0.61530000  1.0 -0.0995795087
C  C212  1  0.94930000  0.34310000  0.11530000  1.0 -0.0995795087
C  C213  1  0.74600000  0.09320000  0.57150000  1.0 -0.0205147232
C  C214  1  0.90680000  0.25400000  0.07150000  1.0 -0.0205147232
C  C215  1  0.77760000  0.09220000  0.64340000  1.0 -0.1201462311
C  C216  1  0.90780000  0.22240000  0.14340000  1.0 -0.1201462311
C  C217  1  0.85070000  0.05190000  0.68760000  1.0 -0.0825142024
C  C218  1  0.94810000  0.14930000  0.18760000  1.0 -0.0825142024
C  C219  1  0.90330000  0.99830000  0.65560000  1.0 -0.0902843768
C  C220  1  0.00170000  0.09670000  0.15560000  1.0 -0.0902843768
C  C221  1  0.88000000  0.99560000  0.58690000  1.0 -0.0902843768
C  C222  1  0.00440000  0.12000000  0.08690000  1.0 -0.0902843768
C  C223  1  0.79710000  0.04430000  0.54370000  1.0 -0.1201462311
C  C224  1  0.95570000  0.20290000  0.04370000  1.0 -0.1201462311
N  N1  1  0.06816000  0.85116000  0.90890000  1.0 -0.199515497
N  N2  1  0.14884000  0.93184000  0.40890000  1.0 -0.199515497
N  N3  1  0.15362000  0.94022000  0.58810000  1.0 -0.1897266445
N  N4  1  0.05978000  0.84638000  0.08810000  1.0 -0.1897266445
N  N5  1  0.10773000  0.71233000  0.03620000  1.0 -0.199515497
N  N6  1  0.28767000  0.89227000  0.53620000  1.0 -0.199515497
N  N7  1  0.39785000  0.29385000  0.19170000  1.0 -0.199515497
N  N8  1  0.70615000  0.60215000  0.69170000  1.0 -0.199515497
N  N9  1  0.42939000  0.16439000  0.14010000  1.0 -0.199515497
N  N10  1  0.83561000  0.57061000  0.64010000  1.0 -0.199515497
N  N11  1  0.31760000  0.10280000  0.80340000  1.0 -0.1897266445
N  N12  1  0.89720000  0.68240000  0.30340000  1.0 -0.1897266445
N  N13  1  0.03205000  0.63685000  0.24430000  1.0 -0.199515497
N  N14  1  0.36315000  0.96795000  0.74430000  1.0 -0.199515497
N  N15  1  0.44571000  0.36591000  0.40070000  1.0 -0.199515497
N  N16  1  0.63409000  0.55429000  0.90070000  1.0 -0.199515497
N  N17  1  0.44317000  0.15337000  0.32510000  1.0 -0.1897266445
N  N18  1  0.84663000  0.55683000  0.82510000  1.0 -0.1897266445
N  N19  1  0.30950000  0.12110000  0.61960000  1.0 -0.1797856482
N  N20  1  0.87890000  0.69050000  0.11960000  1.0 -0.1797856482
N  N21  1  0.57965000  0.33045000  0.54140000  1.0 -0.1897266445
N  N22  1  0.66955000  0.42035000  0.04140000  1.0 -0.1897266445
N  N23  1  0.67975000  0.41075000  0.86560000  1.0 -0.199515497
N  N24  1  0.58925000  0.32025000  0.36560000  1.0 -0.199515497
F  F1  1  0.30890000  0.67530000  0.77350000  1.0 -0.5288685169
F  F2  1  0.43160000  0.60220000  0.85480000  1.0 -0.4497197334
F  F3  1  0.34610000  0.73270000  0.77030000  1.0 -0.4905891673
F  F4  1  0.40410000  0.64170000  0.73050000  1.0 -0.4497197334
F  F5  1  0.32470000  0.69110000  0.27350000  1.0 -0.5288685169
F  F6  1  0.39780000  0.56840000  0.35480000  1.0 -0.4497197334
F  F7  1  0.26730000  0.65390000  0.27030000  1.0 -0.4905891673
F  F8  1  0.35830000  0.59590000  0.23050000  1.0 -0.4497197334
F  F9  1  0.88860000  0.07420000  0.30960000  1.0 -0.4697030888
F  F10  1  0.95460000  0.98440000  0.43710000  1.0 -0.4278259085
F  F11  1  0.82600000  0.07300000  0.37740000  1.0 -0.4596847401
F  F12  1  0.88610000  0.10310000  0.42080000  1.0 -0.4497197334
F  F13  1  0.92580000  0.11140000  0.80960000  1.0 -0.4697030888
F  F14  1  0.01560000  0.04540000  0.93710000  1.0 -0.4246437655
F  F15  1  0.92700000  0.17400000  0.87740000  1.0 -0.4596847401
F  F16  1  0.89690000  0.11390000  0.92080000  1.0 -0.4497197334
F  F17  1  0.20840000  0.37760000  0.78580000  1.0 -0.5377566026
F  F18  1  0.16080000  0.36040000  0.69050000  1.0 -0.4278259085
F  F19  1  0.10560000  0.47700000  0.65400000  1.0 -0.5129088865
F  F20  1  0.09230000  0.41890000  0.74420000  1.0 -0.4497197334
F  F21  1  0.62240000  0.79160000  0.28580000  1.0 -0.5288685169
F  F22  1  0.63960000  0.83920000  0.19050000  1.0 -0.4278259085
F  F23  1  0.52300000  0.89440000  0.15400000  1.0 -0.5129088865
F  F24  1  0.58110000  0.90770000  0.24420000  1.0 -0.4596847401
F  F25  1  0.68320000  0.83820000  0.76370000  1.0 -0.5129088865
F  F26  1  0.64460000  0.79180000  0.81690000  1.0 -0.4399779693
F  F27  1  0.61540000  0.82920000  0.68450000  1.0 -0.4697030888
F  F28  1  0.55620000  0.91320000  0.73950000  1.0 -0.4596847401
F  F29  1  0.16180000  0.31680000  0.26370000  1.0 -0.5129088865
F  F30  1  0.20820000  0.35540000  0.31690000  1.0 -0.4399779693
F  F31  1  0.17080000  0.38460000  0.18450000  1.0 -0.4697030888
F  F32  1  0.08680000  0.44380000  0.23950000  1.0 -0.4697030888
