# DDEC6 charges by PACMAN v1.1 (https://github.com/mtap-research/PACMAN-charge/)
data_KUCDOD_FSR_pacman
_symmetry_space_group_name_H-M   'P 1'
_cell_length_a   10.76430000
_cell_length_b   11.19030000
_cell_length_c   11.88050000
_cell_angle_alpha   101.00600000
_cell_angle_beta   110.54900000
_cell_angle_gamma   99.77900000
_symmetry_Int_Tables_number   1
_chemical_formula_structural   Cu5H26(C4O3)8
_chemical_formula_sum   'Cu5 H26 C32 O24'
_cell_volume   1270.94706631
_cell_formula_units_Z   1
loop_
 _symmetry_equiv_pos_site_id
 _symmetry_equiv_pos_as_xyz
  1  'x, y, z'
loop_
 _atom_site_type_symbol
 _atom_site_label
 _atom_site_symmetry_multiplicity
 _atom_site_fract_x
 _atom_site_fract_y
 _atom_site_fract_z
 _atom_site_occupancy
 _atom_site_charge
Cu  Cu1  1  0.64404000  0.51070000  0.01199000  1.0 0.5102625889
Cu  Cu2  1  0.35596000  0.48930000  0.98801000  1.0 0.5102625889
Cu  Cu3  1  0.50000000  0.00000000  0.00000000  1.0 0.9051625235
Cu  Cu4  1  0.56218000  0.38577000  0.21048000  1.0 0.894677828
Cu  Cu5  1  0.43782000  0.61423000  0.78952000  1.0 0.894677828
H  H1  1  0.70640000  0.44010000  0.05040000  1.0 0.1664405418
H  H2  1  0.29360000  0.55990000  0.94960000  1.0 0.1664405418
H  H3  1  0.39480000  0.07810000  0.13460000  1.0 0.3504540054
H  H4  1  0.60520000  0.92190000  0.86540000  1.0 0.3504540054
H  H5  1  0.35530000  0.12970000  0.03430000  1.0 0.3504540054
H  H6  1  0.64470000  0.87030000  0.96570000  1.0 0.3504540054
H  H7  1  0.57120000  0.27700000  0.37350000  1.0 0.4179431451
H  H8  1  0.42880000  0.72300000  0.62650000  1.0 0.4179431451
H  H9  1  0.71790000  0.36340000  0.40980000  1.0 0.4179431451
H  H10  1  0.28210000  0.63660000  0.59020000  1.0 0.4179431451
H  H11  1  0.47710000  0.32740000  0.99190000  1.0 0.3148089153
H  H12  1  0.52290000  0.67260000  0.00810000  1.0 0.3148089153
H  H13  1  0.43110000  0.42980000  0.02690000  1.0 0.1664405418
H  H14  1  0.56890000  0.57020000  0.97310000  1.0 0.1664405418
H  H15  1  0.16730000  0.25940000  0.49390000  1.0 0.1315879229
H  H16  1  0.83270000  0.74060000  0.50610000  1.0 0.1315879229
H  H17  1  0.10900000  0.88360000  0.40280000  1.0 0.1409755004
H  H18  1  0.89100000  0.11640000  0.59720000  1.0 0.1409755004
H  H19  1  0.24940000  0.89620000  0.60390000  1.0 0.0998430578
H  H20  1  0.75060000  0.10380000  0.39610000  1.0 0.0998430578
H  H21  1  0.85200000  0.17320000  0.25050000  1.0 0.1409755004
H  H22  1  0.14800000  0.82680000  0.74950000  1.0 0.1409755004
H  H23  1  0.02520000  0.41130000  0.09960000  1.0 0.1315879229
H  H24  1  0.97480000  0.58870000  0.90040000  1.0 0.1315879229
H  H25  1  0.22940000  0.17930000  0.25970000  1.0 0.1315879229
H  H26  1  0.77060000  0.82070000  0.74030000  1.0 0.1315879229
C  C1  1  0.39010000  0.08930000  0.80180000  1.0 0.5574140949
C  C2  1  0.60990000  0.91070000  0.19820000  1.0 0.5574140949
C  C3  1  0.29520000  0.08510000  0.67320000  1.0 -0.0711718249
C  C4  1  0.70480000  0.91490000  0.32680000  1.0 -0.0711718249
C  C5  1  0.26750000  0.19410000  0.63950000  1.0 0.0214531822
C  C6  1  0.73250000  0.80590000  0.36050000  1.0 0.0214531822
C  C7  1  0.18370000  0.18670000  0.51680000  1.0 -0.2581245797
C  C8  1  0.81630000  0.81330000  0.48320000  1.0 -0.2581245797
C  C9  1  0.12580000  0.07100000  0.43010000  1.0 0.2538138134
C  C10  1  0.87420000  0.92900000  0.56990000  1.0 0.2538138134
C  C11  1  0.14940000  0.96140000  0.46200000  1.0 -0.2106126818
C  C12  1  0.85060000  0.03860000  0.53800000  1.0 -0.2106126818
C  C13  1  0.23340000  0.96950000  0.58240000  1.0 -0.095050578
C  C14  1  0.76660000  0.03050000  0.41760000  1.0 -0.095050578
C  C15  1  0.31620000  0.32370000  0.73190000  1.0 0.5861020786
C  C16  1  0.68380000  0.67630000  0.26810000  1.0 0.5861020786
C  C17  1  0.03940000  0.16110000  0.25980000  1.0 0.2349496586
C  C18  1  0.96060000  0.83890000  0.74020000  1.0 0.2349496586
C  C19  1  0.92470000  0.20600000  0.23080000  1.0 -0.1975623715
C  C20  1  0.07530000  0.79400000  0.76920000  1.0 -0.1975623715
C  C21  1  0.91910000  0.30260000  0.17070000  1.0 -0.0071402952
C  C22  1  0.08090000  0.69740000  0.82930000  1.0 -0.0071402952
C  C23  1  0.02970000  0.34960000  0.14230000  1.0 -0.1461498635
C  C24  1  0.97030000  0.65040000  0.85770000  1.0 -0.1461498635
C  C25  1  0.14590000  0.30510000  0.17720000  1.0 0.0015704063
C  C26  1  0.85410000  0.69490000  0.82280000  1.0 0.0015704063
C  C27  1  0.15170000  0.20980000  0.23630000  1.0 -0.2106126818
C  C28  1  0.84830000  0.79020000  0.76370000  1.0 -0.2106126818
C  C29  1  0.26630000  0.35840000  0.14890000  1.0 0.5747970445
C  C30  1  0.73370000  0.64160000  0.85110000  1.0 0.5747970445
C  C31  1  0.79830000  0.35710000  0.14300000  1.0 0.5747970445
C  C32  1  0.20170000  0.64290000  0.85700000  1.0 0.5755267841
O  O1  1  0.38370000  0.98480000  0.82970000  1.0 -0.5851315754
O  O2  1  0.61630000  0.01520000  0.17030000  1.0 -0.5851315754
O  O3  1  0.47320000  0.19030000  0.87470000  1.0 -0.5595043498
O  O4  1  0.52680000  0.80970000  0.12530000  1.0 -0.5595043498
O  O5  1  0.26260000  0.33860000  0.81000000  1.0 -0.5478497344
O  O6  1  0.73740000  0.66140000  0.19000000  1.0 -0.5478497344
O  O7  1  0.39660000  0.40840000  0.71640000  1.0 -0.6020315784
O  O8  1  0.60340000  0.59160000  0.28360000  1.0 -0.6020315784
O  O9  1  0.03770000  0.05550000  0.30850000  1.0 -0.2269633757
O  O10  1  0.96230000  0.94450000  0.69150000  1.0 -0.2269633757
O  O11  1  0.72950000  0.34330000  0.20780000  1.0 -0.5595043498
O  O12  1  0.27050000  0.65670000  0.79220000  1.0 -0.5595043498
O  O13  1  0.77720000  0.41290000  0.05860000  1.0 -0.3881047564
O  O14  1  0.22280000  0.58710000  0.94140000  1.0 -0.3881047564
O  O15  1  0.24560000  0.42330000  0.07260000  1.0 -0.468304162
O  O16  1  0.75440000  0.57670000  0.92740000  1.0 -0.468304162
O  O17  1  0.37630000  0.33260000  0.20470000  1.0 -0.5702600973
O  O18  1  0.62370000  0.66740000  0.79530000  1.0 -0.5702600973
O  O19  1  0.36570000  0.06240000  0.05550000  1.0 -0.6397302049
O  O20  1  0.63430000  0.93760000  0.94450000  1.0 -0.6397302049
O  O21  1  0.62150000  0.35870000  0.37850000  1.0 -0.6975840824
O  O22  1  0.37850000  0.64130000  0.62150000  1.0 -0.6975840824
O  O23  1  0.50120000  0.40030000  0.04210000  1.0 -0.5824328559
O  O24  1  0.49880000  0.59970000  0.95790000  1.0 -0.5824328559
