# DDEC6 charges by PACMAN v1.1 (https://github.com/mtap-research/PACMAN-charge/)
data_KUCDES_FSR_pacman
_symmetry_space_group_name_H-M   'P 1'
_cell_length_a   26.29200000
_cell_length_b   26.29200000
_cell_length_c   26.29200000
_cell_angle_alpha   90.00000000
_cell_angle_beta   90.00000000
_cell_angle_gamma   90.00000000
_symmetry_Int_Tables_number   1
_chemical_formula_structural   LiBH20(C2N)8
_chemical_formula_sum   'Li24 B24 H480 C384 N192'
_cell_volume   18174.85148909
_cell_formula_units_Z   24
loop_
 _symmetry_equiv_pos_site_id
 _symmetry_equiv_pos_as_xyz
  1  'x, y, z'
loop_
 _atom_site_type_symbol
 _atom_site_label
 _atom_site_symmetry_multiplicity
 _atom_site_fract_x
 _atom_site_fract_y
 _atom_site_fract_z
 _atom_site_occupancy
 _atom_site_charge
Li  Li1  1  0.60960000  0.74464000  0.89129000  1.0 0.7051787913
Li  Li2  1  0.74464000  0.39040000  0.89129000  1.0 0.7051787913
Li  Li3  1  0.39040000  0.74464000  0.10871000  1.0 0.7044924438
Li  Li4  1  0.74464000  0.89129000  0.60960000  1.0 0.7051787913
Li  Li5  1  0.39040000  0.25536000  0.89129000  1.0 0.7044924438
Li  Li6  1  0.74464000  0.60960000  0.10871000  1.0 0.7051787913
Li  Li7  1  0.89129000  0.25536000  0.60960000  1.0 0.7051787913
Li  Li8  1  0.25536000  0.60960000  0.89129000  1.0 0.7044924438
Li  Li9  1  0.60960000  0.25536000  0.10871000  1.0 0.7044924438
Li  Li10  1  0.25536000  0.10871000  0.60960000  1.0 0.7044924438
Li  Li11  1  0.25536000  0.39040000  0.10871000  1.0 0.7044924438
Li  Li12  1  0.10871000  0.74464000  0.60960000  1.0 0.7044924438
Li  Li13  1  0.25536000  0.89129000  0.39040000  1.0 0.7044924438
Li  Li14  1  0.10871000  0.25536000  0.39040000  1.0 0.7044924438
Li  Li15  1  0.74464000  0.10871000  0.39040000  1.0 0.7051787913
Li  Li16  1  0.89129000  0.74464000  0.39040000  1.0 0.7051787913
Li  Li17  1  0.89129000  0.60960000  0.74464000  1.0 0.7051787913
Li  Li18  1  0.60960000  0.10871000  0.74464000  1.0 0.7051787913
Li  Li19  1  0.60960000  0.89129000  0.25536000  1.0 0.7051787913
Li  Li20  1  0.10871000  0.60960000  0.25536000  1.0 0.7044924438
Li  Li21  1  0.39040000  0.10871000  0.25536000  1.0 0.7044924438
Li  Li22  1  0.89129000  0.39040000  0.25536000  1.0 0.7051787913
Li  Li23  1  0.10871000  0.39040000  0.74464000  1.0 0.7044924438
Li  Li24  1  0.39040000  0.89129000  0.74464000  1.0 0.7044924438
B  B1  1  0.59999000  0.74894000  0.10198000  1.0 0.5090232879
B  B2  1  0.74894000  0.40001000  0.10198000  1.0 0.5090232879
B  B3  1  0.40001000  0.74894000  0.89802000  1.0 0.5090232879
B  B4  1  0.74894000  0.10198000  0.59999000  1.0 0.5090232879
B  B5  1  0.40001000  0.25106000  0.10198000  1.0 0.5090232879
B  B6  1  0.74894000  0.59999000  0.89802000  1.0 0.5090232879
B  B7  1  0.10198000  0.25106000  0.59999000  1.0 0.5090232879
B  B8  1  0.25106000  0.59999000  0.10198000  1.0 0.5090232879
B  B9  1  0.59999000  0.25106000  0.89802000  1.0 0.5090232879
B  B10  1  0.25106000  0.89802000  0.59999000  1.0 0.5090232879
B  B11  1  0.25106000  0.40001000  0.89802000  1.0 0.5090232879
B  B12  1  0.89802000  0.74894000  0.59999000  1.0 0.5090232879
B  B13  1  0.25106000  0.10198000  0.40001000  1.0 0.5090232879
B  B14  1  0.89802000  0.25106000  0.40001000  1.0 0.5090232879
B  B15  1  0.74894000  0.89802000  0.40001000  1.0 0.5090232879
B  B16  1  0.10198000  0.74894000  0.40001000  1.0 0.5090232879
B  B17  1  0.10198000  0.59999000  0.74894000  1.0 0.5090232879
B  B18  1  0.59999000  0.89802000  0.74894000  1.0 0.5090232879
B  B19  1  0.59999000  0.10198000  0.25106000  1.0 0.5090232879
B  B20  1  0.89802000  0.59999000  0.25106000  1.0 0.5090232879
B  B21  1  0.40001000  0.89802000  0.25106000  1.0 0.5090232879
B  B22  1  0.10198000  0.40001000  0.25106000  1.0 0.5090232879
B  B23  1  0.89802000  0.40001000  0.74894000  1.0 0.5090232879
B  B24  1  0.40001000  0.10198000  0.74894000  1.0 0.5090232879
H  H1  1  0.57540000  0.71780000  0.00020000  1.0 0.1071895594
H  H2  1  0.71780000  0.42460000  0.00020000  1.0 0.1071895594
H  H3  1  0.42460000  0.71780000  0.99980000  1.0 0.1071895594
H  H4  1  0.71780000  0.00020000  0.57540000  1.0 0.1071895594
H  H5  1  0.42460000  0.28220000  0.00020000  1.0 0.1071895594
H  H6  1  0.71780000  0.57540000  0.99980000  1.0 0.1071895594
H  H7  1  0.00020000  0.28220000  0.57540000  1.0 0.1071895594
H  H8  1  0.28220000  0.57540000  0.00020000  1.0 0.1071895594
H  H9  1  0.57540000  0.28220000  0.99980000  1.0 0.1071895594
H  H10  1  0.28220000  0.99980000  0.57540000  1.0 0.1071895594
H  H11  1  0.28220000  0.42460000  0.99980000  1.0 0.1071895594
H  H12  1  0.99980000  0.71780000  0.57540000  1.0 0.1071895594
H  H13  1  0.28220000  0.00020000  0.42460000  1.0 0.1071895594
H  H14  1  0.99980000  0.28220000  0.42460000  1.0 0.1071895594
H  H15  1  0.71780000  0.99980000  0.42460000  1.0 0.1071895594
H  H16  1  0.00020000  0.71780000  0.42460000  1.0 0.1071895594
H  H17  1  0.00020000  0.57540000  0.71780000  1.0 0.1071895594
H  H18  1  0.57540000  0.99980000  0.71780000  1.0 0.1071895594
H  H19  1  0.57540000  0.00020000  0.28220000  1.0 0.1071895594
H  H20  1  0.99980000  0.57540000  0.28220000  1.0 0.1071895594
H  H21  1  0.42460000  0.99980000  0.28220000  1.0 0.1071895594
H  H22  1  0.00020000  0.42460000  0.28220000  1.0 0.1071895594
H  H23  1  0.99980000  0.42460000  0.71780000  1.0 0.1071895594
H  H24  1  0.42460000  0.00020000  0.71780000  1.0 0.1071895594
H  H25  1  0.68670000  0.80190000  0.05980000  1.0 0.1305553353
H  H26  1  0.80190000  0.31330000  0.05980000  1.0 0.1305553353
H  H27  1  0.31330000  0.80190000  0.94020000  1.0 0.1305553353
H  H28  1  0.80190000  0.05980000  0.68670000  1.0 0.1305553353
H  H29  1  0.31330000  0.19810000  0.05980000  1.0 0.1305553353
H  H30  1  0.80190000  0.68670000  0.94020000  1.0 0.1305553353
H  H31  1  0.05980000  0.19810000  0.68670000  1.0 0.1305553353
H  H32  1  0.19810000  0.68670000  0.05980000  1.0 0.1305553353
H  H33  1  0.68670000  0.19810000  0.94020000  1.0 0.1305553353
H  H34  1  0.19810000  0.94020000  0.68670000  1.0 0.1305553353
H  H35  1  0.19810000  0.31330000  0.94020000  1.0 0.1305553353
H  H36  1  0.94020000  0.80190000  0.68670000  1.0 0.1305553353
H  H37  1  0.19810000  0.05980000  0.31330000  1.0 0.1305553353
H  H38  1  0.94020000  0.19810000  0.31330000  1.0 0.1305553353
H  H39  1  0.80190000  0.94020000  0.31330000  1.0 0.1305553353
H  H40  1  0.05980000  0.80190000  0.31330000  1.0 0.1305553353
H  H41  1  0.05980000  0.68670000  0.80190000  1.0 0.1305553353
H  H42  1  0.68670000  0.94020000  0.80190000  1.0 0.1305553353
H  H43  1  0.68670000  0.05980000  0.19810000  1.0 0.1305553353
H  H44  1  0.94020000  0.68670000  0.19810000  1.0 0.1305553353
H  H45  1  0.31330000  0.94020000  0.19810000  1.0 0.1305553353
H  H46  1  0.05980000  0.31330000  0.19810000  1.0 0.1305553353
H  H47  1  0.94020000  0.31330000  0.80190000  1.0 0.1305553353
H  H48  1  0.31330000  0.05980000  0.80190000  1.0 0.1305553353
H  H49  1  0.72850000  0.77740000  0.93330000  1.0 0.1305553353
H  H50  1  0.77740000  0.27150000  0.93330000  1.0 0.1305553353
H  H51  1  0.27150000  0.77740000  0.06670000  1.0 0.1305553353
H  H52  1  0.77740000  0.93330000  0.72850000  1.0 0.1305553353
H  H53  1  0.27150000  0.22260000  0.93330000  1.0 0.1305553353
H  H54  1  0.77740000  0.72850000  0.06670000  1.0 0.1305553353
H  H55  1  0.93330000  0.22260000  0.72850000  1.0 0.1305553353
H  H56  1  0.22260000  0.72850000  0.93330000  1.0 0.1305553353
H  H57  1  0.72850000  0.22260000  0.06670000  1.0 0.1305553353
H  H58  1  0.22260000  0.06670000  0.72850000  1.0 0.1305553353
H  H59  1  0.22260000  0.27150000  0.06670000  1.0 0.1305553353
H  H60  1  0.06670000  0.77740000  0.72850000  1.0 0.1305553353
H  H61  1  0.22260000  0.93330000  0.27150000  1.0 0.1305553353
H  H62  1  0.06670000  0.22260000  0.27150000  1.0 0.1305553353
H  H63  1  0.77740000  0.06670000  0.27150000  1.0 0.1305553353
H  H64  1  0.93330000  0.77740000  0.27150000  1.0 0.1305553353
H  H65  1  0.93330000  0.72850000  0.77740000  1.0 0.1305553353
H  H66  1  0.72850000  0.06670000  0.77740000  1.0 0.1305553353
H  H67  1  0.72850000  0.93330000  0.22260000  1.0 0.1305553353
H  H68  1  0.06670000  0.72850000  0.22260000  1.0 0.1305553353
H  H69  1  0.27150000  0.06670000  0.22260000  1.0 0.1305553353
H  H70  1  0.93330000  0.27150000  0.22260000  1.0 0.1305553353
H  H71  1  0.06670000  0.27150000  0.77740000  1.0 0.1305553353
H  H72  1  0.27150000  0.93330000  0.77740000  1.0 0.1305553353
H  H73  1  0.69880000  0.83050000  0.93190000  1.0 0.1486190666
H  H74  1  0.83050000  0.30120000  0.93190000  1.0 0.1486190666
H  H75  1  0.30120000  0.83050000  0.06810000  1.0 0.1486190666
H  H76  1  0.83050000  0.93190000  0.69880000  1.0 0.1486190666
H  H77  1  0.30120000  0.16950000  0.93190000  1.0 0.1486190666
H  H78  1  0.83050000  0.69880000  0.06810000  1.0 0.1486190666
H  H79  1  0.93190000  0.16950000  0.69880000  1.0 0.1486190666
H  H80  1  0.16950000  0.69880000  0.93190000  1.0 0.1486190666
H  H81  1  0.69880000  0.16950000  0.06810000  1.0 0.1486190666
H  H82  1  0.16950000  0.06810000  0.69880000  1.0 0.1486190666
H  H83  1  0.16950000  0.30120000  0.06810000  1.0 0.1486190666
H  H84  1  0.06810000  0.83050000  0.69880000  1.0 0.1486190666
H  H85  1  0.16950000  0.93190000  0.30120000  1.0 0.1486190666
H  H86  1  0.06810000  0.16950000  0.30120000  1.0 0.1486190666
H  H87  1  0.83050000  0.06810000  0.30120000  1.0 0.1486190666
H  H88  1  0.93190000  0.83050000  0.30120000  1.0 0.1486190666
H  H89  1  0.93190000  0.69880000  0.83050000  1.0 0.1486190666
H  H90  1  0.69880000  0.06810000  0.83050000  1.0 0.1486190666
H  H91  1  0.69880000  0.93190000  0.16950000  1.0 0.1486190666
H  H92  1  0.06810000  0.69880000  0.16950000  1.0 0.1486190666
H  H93  1  0.30120000  0.06810000  0.16950000  1.0 0.1486190666
H  H94  1  0.93190000  0.30120000  0.16950000  1.0 0.1486190666
H  H95  1  0.06810000  0.30120000  0.83050000  1.0 0.1486190666
H  H96  1  0.30120000  0.93190000  0.83050000  1.0 0.1486190666
H  H97  1  0.73890000  0.81920000  0.97630000  1.0 0.1305553353
H  H98  1  0.81920000  0.26110000  0.97630000  1.0 0.1305553353
H  H99  1  0.26110000  0.81920000  0.02370000  1.0 0.1305553353
H  H100  1  0.81920000  0.97630000  0.73890000  1.0 0.1305553353
H  H101  1  0.26110000  0.18080000  0.97630000  1.0 0.1305553353
H  H102  1  0.81920000  0.73890000  0.02370000  1.0 0.1305553353
H  H103  1  0.97630000  0.18080000  0.73890000  1.0 0.1305553353
H  H104  1  0.18080000  0.73890000  0.97630000  1.0 0.1305553353
H  H105  1  0.73890000  0.18080000  0.02370000  1.0 0.1305553353
H  H106  1  0.18080000  0.02370000  0.73890000  1.0 0.1305553353
H  H107  1  0.18080000  0.26110000  0.02370000  1.0 0.1305553353
H  H108  1  0.02370000  0.81920000  0.73890000  1.0 0.1305553353
H  H109  1  0.18080000  0.97630000  0.26110000  1.0 0.1305553353
H  H110  1  0.02370000  0.18080000  0.26110000  1.0 0.1305553353
H  H111  1  0.81920000  0.02370000  0.26110000  1.0 0.1305553353
H  H112  1  0.97630000  0.81920000  0.26110000  1.0 0.1305553353
H  H113  1  0.97630000  0.73890000  0.81920000  1.0 0.1305553353
H  H114  1  0.73890000  0.02370000  0.81920000  1.0 0.1305553353
H  H115  1  0.73890000  0.97630000  0.18080000  1.0 0.1305553353
H  H116  1  0.02370000  0.73890000  0.18080000  1.0 0.1305553353
H  H117  1  0.26110000  0.02370000  0.18080000  1.0 0.1305553353
H  H118  1  0.97630000  0.26110000  0.18080000  1.0 0.1305553353
H  H119  1  0.02370000  0.26110000  0.81920000  1.0 0.1305553353
H  H120  1  0.26110000  0.97630000  0.81920000  1.0 0.1305553353
H  H121  1  0.49810000  0.78090000  0.11900000  1.0 0.1071895594
H  H122  1  0.78090000  0.50190000  0.11900000  1.0 0.1071895594
H  H123  1  0.50190000  0.78090000  0.88100000  1.0 0.1071895594
H  H124  1  0.78090000  0.11900000  0.49810000  1.0 0.1071895594
H  H125  1  0.50190000  0.21910000  0.11900000  1.0 0.1071895594
H  H126  1  0.78090000  0.49810000  0.88100000  1.0 0.1071895594
H  H127  1  0.11900000  0.21910000  0.49810000  1.0 0.1071895594
H  H128  1  0.21910000  0.49810000  0.11900000  1.0 0.1071895594
H  H129  1  0.49810000  0.21910000  0.88100000  1.0 0.1071895594
H  H130  1  0.21910000  0.88100000  0.49810000  1.0 0.1071895594
H  H131  1  0.21910000  0.50190000  0.88100000  1.0 0.1071895594
H  H132  1  0.88100000  0.78090000  0.49810000  1.0 0.1071895594
H  H133  1  0.21910000  0.11900000  0.50190000  1.0 0.1071895594
H  H134  1  0.88100000  0.21910000  0.50190000  1.0 0.1071895594
H  H135  1  0.78090000  0.88100000  0.50190000  1.0 0.1071895594
H  H136  1  0.11900000  0.78090000  0.50190000  1.0 0.1071895594
H  H137  1  0.11900000  0.49810000  0.78090000  1.0 0.1071895594
H  H138  1  0.49810000  0.88100000  0.78090000  1.0 0.1071895594
H  H139  1  0.49810000  0.11900000  0.21910000  1.0 0.1071895594
H  H140  1  0.88100000  0.49810000  0.21910000  1.0 0.1071895594
H  H141  1  0.50190000  0.88100000  0.21910000  1.0 0.1071895594
H  H142  1  0.11900000  0.50190000  0.21910000  1.0 0.1071895594
H  H143  1  0.88100000  0.50190000  0.78090000  1.0 0.1071895594
H  H144  1  0.50190000  0.11900000  0.78090000  1.0 0.1071895594
H  H145  1  0.55820000  0.64960000  0.07670000  1.0 0.1305553353
H  H146  1  0.64960000  0.44180000  0.07670000  1.0 0.1305553353
H  H147  1  0.44180000  0.64960000  0.92330000  1.0 0.1305553353
H  H148  1  0.64960000  0.07670000  0.55820000  1.0 0.1305553353
H  H149  1  0.44180000  0.35040000  0.07670000  1.0 0.1305553353
H  H150  1  0.64960000  0.55820000  0.92330000  1.0 0.1305553353
H  H151  1  0.07670000  0.35040000  0.55820000  1.0 0.1305553353
H  H152  1  0.35040000  0.55820000  0.07670000  1.0 0.1305553353
H  H153  1  0.55820000  0.35040000  0.92330000  1.0 0.1305553353
H  H154  1  0.35040000  0.92330000  0.55820000  1.0 0.1305553353
H  H155  1  0.35040000  0.44180000  0.92330000  1.0 0.1305553353
H  H156  1  0.92330000  0.64960000  0.55820000  1.0 0.1305553353
H  H157  1  0.35040000  0.07670000  0.44180000  1.0 0.1305553353
H  H158  1  0.92330000  0.35040000  0.44180000  1.0 0.1305553353
H  H159  1  0.64960000  0.92330000  0.44180000  1.0 0.1305553353
H  H160  1  0.07670000  0.64960000  0.44180000  1.0 0.1305553353
H  H161  1  0.07670000  0.55820000  0.64960000  1.0 0.1305553353
H  H162  1  0.55820000  0.92330000  0.64960000  1.0 0.1305553353
H  H163  1  0.55820000  0.07670000  0.35040000  1.0 0.1305553353
H  H164  1  0.92330000  0.55820000  0.35040000  1.0 0.1305553353
H  H165  1  0.44180000  0.92330000  0.35040000  1.0 0.1305553353
H  H166  1  0.07670000  0.44180000  0.35040000  1.0 0.1305553353
H  H167  1  0.92330000  0.44180000  0.64960000  1.0 0.1305553353
H  H168  1  0.44180000  0.07670000  0.64960000  1.0 0.1305553353
H  H169  1  0.42880000  0.63180000  0.04780000  1.0 0.1394204915
H  H170  1  0.63180000  0.57120000  0.04780000  1.0 0.1394204915
H  H171  1  0.57120000  0.63180000  0.95220000  1.0 0.1394204915
H  H172  1  0.63180000  0.04780000  0.42880000  1.0 0.1394204915
H  H173  1  0.57120000  0.36820000  0.04780000  1.0 0.1394204915
H  H174  1  0.63180000  0.42880000  0.95220000  1.0 0.1394204915
H  H175  1  0.04780000  0.36820000  0.42880000  1.0 0.1394204915
H  H176  1  0.36820000  0.42880000  0.04780000  1.0 0.1394204915
H  H177  1  0.42880000  0.36820000  0.95220000  1.0 0.1394204915
H  H178  1  0.36820000  0.95220000  0.42880000  1.0 0.1394204915
H  H179  1  0.36820000  0.57120000  0.95220000  1.0 0.1394204915
H  H180  1  0.95220000  0.63180000  0.42880000  1.0 0.1394204915
H  H181  1  0.36820000  0.04780000  0.57120000  1.0 0.1394204915
H  H182  1  0.95220000  0.36820000  0.57120000  1.0 0.1394204915
H  H183  1  0.63180000  0.95220000  0.57120000  1.0 0.1394204915
H  H184  1  0.04780000  0.63180000  0.57120000  1.0 0.1394204915
H  H185  1  0.04780000  0.42880000  0.63180000  1.0 0.1394204915
H  H186  1  0.42880000  0.95220000  0.63180000  1.0 0.1394204915
H  H187  1  0.42880000  0.04780000  0.36820000  1.0 0.1394204915
H  H188  1  0.95220000  0.42880000  0.36820000  1.0 0.1394204915
H  H189  1  0.57120000  0.95220000  0.36820000  1.0 0.1394204915
H  H190  1  0.04780000  0.57120000  0.36820000  1.0 0.1394204915
H  H191  1  0.95220000  0.57120000  0.63180000  1.0 0.1394204915
H  H192  1  0.57120000  0.04780000  0.63180000  1.0 0.1394204915
H  H193  1  0.47160000  0.59510000  0.07070000  1.0 0.1394204915
H  H194  1  0.59510000  0.52840000  0.07070000  1.0 0.1394204915
H  H195  1  0.52840000  0.59510000  0.92930000  1.0 0.1394204915
H  H196  1  0.59510000  0.07070000  0.47160000  1.0 0.1394204915
H  H197  1  0.52840000  0.40490000  0.07070000  1.0 0.1394204915
H  H198  1  0.59510000  0.47160000  0.92930000  1.0 0.1394204915
H  H199  1  0.07070000  0.40490000  0.47160000  1.0 0.1394204915
H  H200  1  0.40490000  0.47160000  0.07070000  1.0 0.1394204915
H  H201  1  0.47160000  0.40490000  0.92930000  1.0 0.1394204915
H  H202  1  0.40490000  0.92930000  0.47160000  1.0 0.1394204915
H  H203  1  0.40490000  0.52840000  0.92930000  1.0 0.1394204915
H  H204  1  0.92930000  0.59510000  0.47160000  1.0 0.1394204915
H  H205  1  0.40490000  0.07070000  0.52840000  1.0 0.1394204915
H  H206  1  0.92930000  0.40490000  0.52840000  1.0 0.1394204915
H  H207  1  0.59510000  0.92930000  0.52840000  1.0 0.1394204915
H  H208  1  0.07070000  0.59510000  0.52840000  1.0 0.1394204915
H  H209  1  0.07070000  0.47160000  0.59510000  1.0 0.1394204915
H  H210  1  0.47160000  0.92930000  0.59510000  1.0 0.1394204915
H  H211  1  0.47160000  0.07070000  0.40490000  1.0 0.1394204915
H  H212  1  0.92930000  0.47160000  0.40490000  1.0 0.1394204915
H  H213  1  0.52840000  0.92930000  0.40490000  1.0 0.1394204915
H  H214  1  0.07070000  0.52840000  0.40490000  1.0 0.1394204915
H  H215  1  0.92930000  0.52840000  0.59510000  1.0 0.1394204915
H  H216  1  0.52840000  0.07070000  0.59510000  1.0 0.1394204915
H  H217  1  0.42870000  0.61820000  0.10710000  1.0 0.1486190666
H  H218  1  0.61820000  0.57130000  0.10710000  1.0 0.1486190666
H  H219  1  0.57130000  0.61820000  0.89290000  1.0 0.1486190666
H  H220  1  0.61820000  0.10710000  0.42870000  1.0 0.1486190666
H  H221  1  0.57130000  0.38180000  0.10710000  1.0 0.1486190666
H  H222  1  0.61820000  0.42870000  0.89290000  1.0 0.1486190666
H  H223  1  0.10710000  0.38180000  0.42870000  1.0 0.1486190666
H  H224  1  0.38180000  0.42870000  0.10710000  1.0 0.1486190666
H  H225  1  0.42870000  0.38180000  0.89290000  1.0 0.1486190666
H  H226  1  0.38180000  0.89290000  0.42870000  1.0 0.1486190666
H  H227  1  0.38180000  0.57130000  0.89290000  1.0 0.1486190666
H  H228  1  0.89290000  0.61820000  0.42870000  1.0 0.1486190666
H  H229  1  0.38180000  0.10710000  0.57130000  1.0 0.1486190666
H  H230  1  0.89290000  0.38180000  0.57130000  1.0 0.1486190666
H  H231  1  0.61820000  0.89290000  0.57130000  1.0 0.1486190666
H  H232  1  0.10710000  0.61820000  0.57130000  1.0 0.1486190666
H  H233  1  0.10710000  0.42870000  0.61820000  1.0 0.1486190666
H  H234  1  0.42870000  0.89290000  0.61820000  1.0 0.1486190666
H  H235  1  0.42870000  0.10710000  0.38180000  1.0 0.1486190666
H  H236  1  0.89290000  0.42870000  0.38180000  1.0 0.1486190666
H  H237  1  0.57130000  0.89290000  0.38180000  1.0 0.1486190666
H  H238  1  0.10710000  0.57130000  0.38180000  1.0 0.1486190666
H  H239  1  0.89290000  0.57130000  0.61820000  1.0 0.1486190666
H  H240  1  0.57130000  0.10710000  0.61820000  1.0 0.1486190666
H  H241  1  0.62330000  0.79090000  0.19860000  1.0 0.1071895594
H  H242  1  0.79090000  0.37670000  0.19860000  1.0 0.1071895594
H  H243  1  0.37670000  0.79090000  0.80140000  1.0 0.1071895594
H  H244  1  0.79090000  0.19860000  0.62330000  1.0 0.1071895594
H  H245  1  0.37670000  0.20910000  0.19860000  1.0 0.1071895594
H  H246  1  0.79090000  0.62330000  0.80140000  1.0 0.1071895594
H  H247  1  0.19860000  0.20910000  0.62330000  1.0 0.1071895594
H  H248  1  0.20910000  0.62330000  0.19860000  1.0 0.1071895594
H  H249  1  0.62330000  0.20910000  0.80140000  1.0 0.1071895594
H  H250  1  0.20910000  0.80140000  0.62330000  1.0 0.1071895594
H  H251  1  0.20910000  0.37670000  0.80140000  1.0 0.1071895594
H  H252  1  0.80140000  0.79090000  0.62330000  1.0 0.1071895594
H  H253  1  0.20910000  0.19860000  0.37670000  1.0 0.1071895594
H  H254  1  0.80140000  0.20910000  0.37670000  1.0 0.1071895594
H  H255  1  0.79090000  0.80140000  0.37670000  1.0 0.1071895594
H  H256  1  0.19860000  0.79090000  0.37670000  1.0 0.1071895594
H  H257  1  0.19860000  0.62330000  0.79090000  1.0 0.1071895594
H  H258  1  0.62330000  0.80140000  0.79090000  1.0 0.1071895594
H  H259  1  0.62330000  0.19860000  0.20910000  1.0 0.1071895594
H  H260  1  0.80140000  0.62330000  0.20910000  1.0 0.1071895594
H  H261  1  0.37670000  0.80140000  0.20910000  1.0 0.1071895594
H  H262  1  0.19860000  0.37670000  0.20910000  1.0 0.1071895594
H  H263  1  0.80140000  0.37670000  0.79090000  1.0 0.1071895594
H  H264  1  0.37670000  0.19860000  0.79090000  1.0 0.1071895594
H  H265  1  0.56520000  0.84860000  0.07180000  1.0 0.1394204915
H  H266  1  0.84860000  0.43480000  0.07180000  1.0 0.1394204915
H  H267  1  0.43480000  0.84860000  0.92820000  1.0 0.1394204915
H  H268  1  0.84860000  0.07180000  0.56520000  1.0 0.1394204915
H  H269  1  0.43480000  0.15140000  0.07180000  1.0 0.1394204915
H  H270  1  0.84860000  0.56520000  0.92820000  1.0 0.1394204915
H  H271  1  0.07180000  0.15140000  0.56520000  1.0 0.1394204915
H  H272  1  0.15140000  0.56520000  0.07180000  1.0 0.1394204915
H  H273  1  0.56520000  0.15140000  0.92820000  1.0 0.1394204915
H  H274  1  0.15140000  0.92820000  0.56520000  1.0 0.1394204915
H  H275  1  0.15140000  0.43480000  0.92820000  1.0 0.1394204915
H  H276  1  0.92820000  0.84860000  0.56520000  1.0 0.1394204915
H  H277  1  0.15140000  0.07180000  0.43480000  1.0 0.1394204915
H  H278  1  0.92820000  0.15140000  0.43480000  1.0 0.1394204915
H  H279  1  0.84860000  0.92820000  0.43480000  1.0 0.1394204915
H  H280  1  0.07180000  0.84860000  0.43480000  1.0 0.1394204915
H  H281  1  0.07180000  0.56520000  0.84860000  1.0 0.1394204915
H  H282  1  0.56520000  0.92820000  0.84860000  1.0 0.1394204915
H  H283  1  0.56520000  0.07180000  0.15140000  1.0 0.1394204915
H  H284  1  0.92820000  0.56520000  0.15140000  1.0 0.1394204915
H  H285  1  0.43480000  0.92820000  0.15140000  1.0 0.1394204915
H  H286  1  0.07180000  0.43480000  0.15140000  1.0 0.1394204915
H  H287  1  0.92820000  0.43480000  0.84860000  1.0 0.1394204915
H  H288  1  0.43480000  0.07180000  0.84860000  1.0 0.1394204915
H  H289  1  0.59770000  0.95890000  0.13190000  1.0 0.1589738816
H  H290  1  0.95890000  0.40230000  0.13190000  1.0 0.1589738816
H  H291  1  0.40230000  0.95890000  0.86810000  1.0 0.1589738816
H  H292  1  0.95890000  0.13190000  0.59770000  1.0 0.1589738816
H  H293  1  0.40230000  0.04110000  0.13190000  1.0 0.1589738816
H  H294  1  0.95890000  0.59770000  0.86810000  1.0 0.1589738816
H  H295  1  0.13190000  0.04110000  0.59770000  1.0 0.1589738816
H  H296  1  0.04110000  0.59770000  0.13190000  1.0 0.1589738816
H  H297  1  0.59770000  0.04110000  0.86810000  1.0 0.1589738816
H  H298  1  0.04110000  0.86810000  0.59770000  1.0 0.1589738816
H  H299  1  0.04110000  0.40230000  0.86810000  1.0 0.1589738816
H  H300  1  0.86810000  0.95890000  0.59770000  1.0 0.1589738816
H  H301  1  0.04110000  0.13190000  0.40230000  1.0 0.1589738816
H  H302  1  0.86810000  0.04110000  0.40230000  1.0 0.1589738816
H  H303  1  0.95890000  0.86810000  0.40230000  1.0 0.1589738816
H  H304  1  0.13190000  0.95890000  0.40230000  1.0 0.1589738816
H  H305  1  0.13190000  0.59770000  0.95890000  1.0 0.1589738816
H  H306  1  0.59770000  0.86810000  0.95890000  1.0 0.1589738816
H  H307  1  0.59770000  0.13190000  0.04110000  1.0 0.1589738816
H  H308  1  0.86810000  0.59770000  0.04110000  1.0 0.1589738816
H  H309  1  0.40230000  0.86810000  0.04110000  1.0 0.1589738816
H  H310  1  0.13190000  0.40230000  0.04110000  1.0 0.1589738816
H  H311  1  0.86810000  0.40230000  0.95890000  1.0 0.1589738816
H  H312  1  0.40230000  0.13190000  0.95890000  1.0 0.1589738816
H  H313  1  0.54580000  0.94230000  0.10490000  1.0 0.1394204915
H  H314  1  0.94230000  0.45420000  0.10490000  1.0 0.1394204915
H  H315  1  0.45420000  0.94230000  0.89510000  1.0 0.1394204915
H  H316  1  0.94230000  0.10490000  0.54580000  1.0 0.1394204915
H  H317  1  0.45420000  0.05770000  0.10490000  1.0 0.1394204915
H  H318  1  0.94230000  0.54580000  0.89510000  1.0 0.1394204915
H  H319  1  0.10490000  0.05770000  0.54580000  1.0 0.1394204915
H  H320  1  0.05770000  0.54580000  0.10490000  1.0 0.1394204915
H  H321  1  0.54580000  0.05770000  0.89510000  1.0 0.1394204915
H  H322  1  0.05770000  0.89510000  0.54580000  1.0 0.1394204915
H  H323  1  0.05770000  0.45420000  0.89510000  1.0 0.1394204915
H  H324  1  0.89510000  0.94230000  0.54580000  1.0 0.1394204915
H  H325  1  0.05770000  0.10490000  0.45420000  1.0 0.1394204915
H  H326  1  0.89510000  0.05770000  0.45420000  1.0 0.1394204915
H  H327  1  0.94230000  0.89510000  0.45420000  1.0 0.1394204915
H  H328  1  0.10490000  0.94230000  0.45420000  1.0 0.1394204915
H  H329  1  0.10490000  0.54580000  0.94230000  1.0 0.1394204915
H  H330  1  0.54580000  0.89510000  0.94230000  1.0 0.1394204915
H  H331  1  0.54580000  0.10490000  0.05770000  1.0 0.1394204915
H  H332  1  0.89510000  0.54580000  0.05770000  1.0 0.1394204915
H  H333  1  0.45420000  0.89510000  0.05770000  1.0 0.1394204915
H  H334  1  0.10490000  0.45420000  0.05770000  1.0 0.1394204915
H  H335  1  0.89510000  0.45420000  0.94230000  1.0 0.1394204915
H  H336  1  0.45420000  0.10490000  0.94230000  1.0 0.1394204915
H  H337  1  0.54780000  0.94920000  0.16530000  1.0 0.1394204915
H  H338  1  0.94920000  0.45220000  0.16530000  1.0 0.1394204915
H  H339  1  0.45220000  0.94920000  0.83470000  1.0 0.1394204915
H  H340  1  0.94920000  0.16530000  0.54780000  1.0 0.1394204915
H  H341  1  0.45220000  0.05080000  0.16530000  1.0 0.1394204915
H  H342  1  0.94920000  0.54780000  0.83470000  1.0 0.1394204915
H  H343  1  0.16530000  0.05080000  0.54780000  1.0 0.1394204915
H  H344  1  0.05080000  0.54780000  0.16530000  1.0 0.1394204915
H  H345  1  0.54780000  0.05080000  0.83470000  1.0 0.1394204915
H  H346  1  0.05080000  0.83470000  0.54780000  1.0 0.1394204915
H  H347  1  0.05080000  0.45220000  0.83470000  1.0 0.1394204915
H  H348  1  0.83470000  0.94920000  0.54780000  1.0 0.1394204915
H  H349  1  0.05080000  0.16530000  0.45220000  1.0 0.1394204915
H  H350  1  0.83470000  0.05080000  0.45220000  1.0 0.1394204915
H  H351  1  0.94920000  0.83470000  0.45220000  1.0 0.1394204915
H  H352  1  0.16530000  0.94920000  0.45220000  1.0 0.1394204915
H  H353  1  0.16530000  0.54780000  0.94920000  1.0 0.1394204915
H  H354  1  0.54780000  0.83470000  0.94920000  1.0 0.1394204915
H  H355  1  0.54780000  0.16530000  0.05080000  1.0 0.1394204915
H  H356  1  0.83470000  0.54780000  0.05080000  1.0 0.1394204915
H  H357  1  0.45220000  0.83470000  0.05080000  1.0 0.1394204915
H  H358  1  0.16530000  0.45220000  0.05080000  1.0 0.1394204915
H  H359  1  0.83470000  0.45220000  0.94920000  1.0 0.1394204915
H  H360  1  0.45220000  0.16530000  0.94920000  1.0 0.1394204915
H  H361  1  0.69190000  0.69810000  0.08210000  1.0 0.1071895594
H  H362  1  0.69810000  0.30810000  0.08210000  1.0 0.1071895594
H  H363  1  0.30810000  0.69810000  0.91790000  1.0 0.1071895594
H  H364  1  0.69810000  0.08210000  0.69190000  1.0 0.1071895594
H  H365  1  0.30810000  0.30190000  0.08210000  1.0 0.1071895594
H  H366  1  0.69810000  0.69190000  0.91790000  1.0 0.1071895594
H  H367  1  0.08210000  0.30190000  0.69190000  1.0 0.1071895594
H  H368  1  0.30190000  0.69190000  0.08210000  1.0 0.1071895594
H  H369  1  0.69190000  0.30190000  0.91790000  1.0 0.1071895594
H  H370  1  0.30190000  0.91790000  0.69190000  1.0 0.1071895594
H  H371  1  0.30190000  0.30810000  0.91790000  1.0 0.1071895594
H  H372  1  0.91790000  0.69810000  0.69190000  1.0 0.1071895594
H  H373  1  0.30190000  0.08210000  0.30810000  1.0 0.1071895594
H  H374  1  0.91790000  0.30190000  0.30810000  1.0 0.1071895594
H  H375  1  0.69810000  0.91790000  0.30810000  1.0 0.1071895594
H  H376  1  0.08210000  0.69810000  0.30810000  1.0 0.1071895594
H  H377  1  0.08210000  0.69190000  0.69810000  1.0 0.1071895594
H  H378  1  0.69190000  0.91790000  0.69810000  1.0 0.1071895594
H  H379  1  0.69190000  0.08210000  0.30190000  1.0 0.1071895594
H  H380  1  0.91790000  0.69190000  0.30190000  1.0 0.1071895594
H  H381  1  0.30810000  0.91790000  0.30190000  1.0 0.1071895594
H  H382  1  0.08210000  0.30810000  0.30190000  1.0 0.1071895594
H  H383  1  0.91790000  0.30810000  0.69810000  1.0 0.1071895594
H  H384  1  0.30810000  0.08210000  0.69810000  1.0 0.1071895594
H  H385  1  0.59830000  0.69530000  0.20050000  1.0 0.1305553353
H  H386  1  0.69530000  0.40170000  0.20050000  1.0 0.1305553353
H  H387  1  0.40170000  0.69530000  0.79950000  1.0 0.1305553353
H  H388  1  0.69530000  0.20050000  0.59830000  1.0 0.1305553353
H  H389  1  0.40170000  0.30470000  0.20050000  1.0 0.1305553353
H  H390  1  0.69530000  0.59830000  0.79950000  1.0 0.1305553353
H  H391  1  0.20050000  0.30470000  0.59830000  1.0 0.1305553353
H  H392  1  0.30470000  0.59830000  0.20050000  1.0 0.1305553353
H  H393  1  0.59830000  0.30470000  0.79950000  1.0 0.1305553353
H  H394  1  0.30470000  0.79950000  0.59830000  1.0 0.1305553353
H  H395  1  0.30470000  0.40170000  0.79950000  1.0 0.1305553353
H  H396  1  0.79950000  0.69530000  0.59830000  1.0 0.1305553353
H  H397  1  0.30470000  0.20050000  0.40170000  1.0 0.1305553353
H  H398  1  0.79950000  0.30470000  0.40170000  1.0 0.1305553353
H  H399  1  0.69530000  0.79950000  0.40170000  1.0 0.1305553353
H  H400  1  0.20050000  0.69530000  0.40170000  1.0 0.1305553353
H  H401  1  0.20050000  0.59830000  0.69530000  1.0 0.1305553353
H  H402  1  0.59830000  0.79950000  0.69530000  1.0 0.1305553353
H  H403  1  0.59830000  0.20050000  0.30470000  1.0 0.1305553353
H  H404  1  0.79950000  0.59830000  0.30470000  1.0 0.1305553353
H  H405  1  0.40170000  0.79950000  0.30470000  1.0 0.1305553353
H  H406  1  0.20050000  0.40170000  0.30470000  1.0 0.1305553353
H  H407  1  0.79950000  0.40170000  0.69530000  1.0 0.1305553353
H  H408  1  0.40170000  0.20050000  0.69530000  1.0 0.1305553353
H  H409  1  0.64600000  0.62770000  0.25510000  1.0 0.1305553353
H  H410  1  0.62770000  0.35400000  0.25510000  1.0 0.1305553353
H  H411  1  0.35400000  0.62770000  0.74490000  1.0 0.1305553353
H  H412  1  0.62770000  0.25510000  0.64600000  1.0 0.1305553353
H  H413  1  0.35400000  0.37230000  0.25510000  1.0 0.1305553353
H  H414  1  0.62770000  0.64600000  0.74490000  1.0 0.1305553353
H  H415  1  0.25510000  0.37230000  0.64600000  1.0 0.1305553353
H  H416  1  0.37230000  0.64600000  0.25510000  1.0 0.1305553353
H  H417  1  0.64600000  0.37230000  0.74490000  1.0 0.1305553353
H  H418  1  0.37230000  0.74490000  0.64600000  1.0 0.1305553353
H  H419  1  0.37230000  0.35400000  0.74490000  1.0 0.1305553353
H  H420  1  0.74490000  0.62770000  0.64600000  1.0 0.1305553353
H  H421  1  0.37230000  0.25510000  0.35400000  1.0 0.1305553353
H  H422  1  0.74490000  0.37230000  0.35400000  1.0 0.1305553353
H  H423  1  0.62770000  0.74490000  0.35400000  1.0 0.1305553353
H  H424  1  0.25510000  0.62770000  0.35400000  1.0 0.1305553353
H  H425  1  0.25510000  0.64600000  0.62770000  1.0 0.1305553353
H  H426  1  0.64600000  0.74490000  0.62770000  1.0 0.1305553353
H  H427  1  0.64600000  0.25510000  0.37230000  1.0 0.1305553353
H  H428  1  0.74490000  0.64600000  0.37230000  1.0 0.1305553353
H  H429  1  0.35400000  0.74490000  0.37230000  1.0 0.1305553353
H  H430  1  0.25510000  0.35400000  0.37230000  1.0 0.1305553353
H  H431  1  0.74490000  0.35400000  0.62770000  1.0 0.1305553353
H  H432  1  0.35400000  0.25510000  0.62770000  1.0 0.1305553353
H  H433  1  0.67680000  0.58870000  0.22000000  1.0 0.1394204915
H  H434  1  0.58870000  0.32320000  0.22000000  1.0 0.1394204915
H  H435  1  0.32320000  0.58870000  0.78000000  1.0 0.1394204915
H  H436  1  0.58870000  0.22000000  0.67680000  1.0 0.1394204915
H  H437  1  0.32320000  0.41130000  0.22000000  1.0 0.1394204915
H  H438  1  0.58870000  0.67680000  0.78000000  1.0 0.1394204915
H  H439  1  0.22000000  0.41130000  0.67680000  1.0 0.1394204915
H  H440  1  0.41130000  0.67680000  0.22000000  1.0 0.1394204915
H  H441  1  0.67680000  0.41130000  0.78000000  1.0 0.1394204915
H  H442  1  0.41130000  0.78000000  0.67680000  1.0 0.1394204915
H  H443  1  0.41130000  0.32320000  0.78000000  1.0 0.1394204915
H  H444  1  0.78000000  0.58870000  0.67680000  1.0 0.1394204915
H  H445  1  0.41130000  0.22000000  0.32320000  1.0 0.1394204915
H  H446  1  0.78000000  0.41130000  0.32320000  1.0 0.1394204915
H  H447  1  0.58870000  0.78000000  0.32320000  1.0 0.1394204915
H  H448  1  0.22000000  0.58870000  0.32320000  1.0 0.1394204915
H  H449  1  0.22000000  0.67680000  0.58870000  1.0 0.1394204915
H  H450  1  0.67680000  0.78000000  0.58870000  1.0 0.1394204915
H  H451  1  0.67680000  0.22000000  0.41130000  1.0 0.1394204915
H  H452  1  0.78000000  0.67680000  0.41130000  1.0 0.1394204915
H  H453  1  0.32320000  0.78000000  0.41130000  1.0 0.1394204915
H  H454  1  0.22000000  0.32320000  0.41130000  1.0 0.1394204915
H  H455  1  0.78000000  0.32320000  0.58870000  1.0 0.1394204915
H  H456  1  0.32320000  0.22000000  0.58870000  1.0 0.1394204915
H  H457  1  0.70590000  0.63470000  0.24730000  1.0 0.1305553353
H  H458  1  0.63470000  0.29410000  0.24730000  1.0 0.1305553353
H  H459  1  0.29410000  0.63470000  0.75270000  1.0 0.1305553353
H  H460  1  0.63470000  0.24730000  0.70590000  1.0 0.1305553353
H  H461  1  0.29410000  0.36530000  0.24730000  1.0 0.1305553353
H  H462  1  0.63470000  0.70590000  0.75270000  1.0 0.1305553353
H  H463  1  0.24730000  0.36530000  0.70590000  1.0 0.1305553353
H  H464  1  0.36530000  0.70590000  0.24730000  1.0 0.1305553353
H  H465  1  0.70590000  0.36530000  0.75270000  1.0 0.1305553353
H  H466  1  0.36530000  0.75270000  0.70590000  1.0 0.1305553353
H  H467  1  0.36530000  0.29410000  0.75270000  1.0 0.1305553353
H  H468  1  0.75270000  0.63470000  0.70590000  1.0 0.1305553353
H  H469  1  0.36530000  0.24730000  0.29410000  1.0 0.1305553353
H  H470  1  0.75270000  0.36530000  0.29410000  1.0 0.1305553353
H  H471  1  0.63470000  0.75270000  0.29410000  1.0 0.1305553353
H  H472  1  0.24730000  0.63470000  0.29410000  1.0 0.1305553353
H  H473  1  0.24730000  0.70590000  0.63470000  1.0 0.1305553353
H  H474  1  0.70590000  0.75270000  0.63470000  1.0 0.1305553353
H  H475  1  0.70590000  0.24730000  0.36530000  1.0 0.1305553353
H  H476  1  0.75270000  0.70590000  0.36530000  1.0 0.1305553353
H  H477  1  0.29410000  0.75270000  0.36530000  1.0 0.1305553353
H  H478  1  0.24730000  0.29410000  0.36530000  1.0 0.1305553353
H  H479  1  0.75270000  0.29410000  0.63470000  1.0 0.1305553353
H  H480  1  0.29410000  0.24730000  0.63470000  1.0 0.1305553353
C  C1  1  0.60470000  0.73868000  0.00334000  1.0 0.1177806081
C  C2  1  0.73868000  0.39530000  0.00334000  1.0 0.1177806081
C  C3  1  0.39530000  0.73868000  0.99666000  1.0 0.1177806081
C  C4  1  0.73868000  0.00334000  0.60470000  1.0 0.1177806081
C  C5  1  0.39530000  0.26132000  0.00334000  1.0 0.1177806081
C  C6  1  0.73868000  0.60470000  0.99666000  1.0 0.1177806081
C  C7  1  0.00334000  0.26132000  0.60470000  1.0 0.1177806081
C  C8  1  0.26132000  0.60470000  0.00334000  1.0 0.1177806081
C  C9  1  0.60470000  0.26132000  0.99666000  1.0 0.1177806081
C  C10  1  0.26132000  0.99666000  0.60470000  1.0 0.1177806081
C  C11  1  0.26132000  0.39530000  0.99666000  1.0 0.1177806081
C  C12  1  0.99666000  0.73868000  0.60470000  1.0 0.1177806081
C  C13  1  0.26132000  0.00334000  0.39530000  1.0 0.1177806081
C  C14  1  0.99666000  0.26132000  0.39530000  1.0 0.1177806081
C  C15  1  0.73868000  0.99666000  0.39530000  1.0 0.1177806081
C  C16  1  0.00334000  0.73868000  0.39530000  1.0 0.1177806081
C  C17  1  0.00334000  0.60470000  0.73868000  1.0 0.1177806081
C  C18  1  0.60470000  0.99666000  0.73868000  1.0 0.1177806081
C  C19  1  0.60470000  0.00334000  0.26132000  1.0 0.1177806081
C  C20  1  0.99666000  0.60470000  0.26132000  1.0 0.1177806081
C  C21  1  0.39530000  0.99666000  0.26132000  1.0 0.1177806081
C  C22  1  0.00334000  0.39530000  0.26132000  1.0 0.1177806081
C  C23  1  0.99666000  0.39530000  0.73868000  1.0 0.1177806081
C  C24  1  0.39530000  0.00334000  0.73868000  1.0 0.1177806081
C  C25  1  0.67209000  0.78211000  0.98536000  1.0 0.220059744
C  C26  1  0.78211000  0.32791000  0.98536000  1.0 0.220059744
C  C27  1  0.32791000  0.78211000  0.01464000  1.0 0.220059744
C  C28  1  0.78211000  0.98536000  0.67209000  1.0 0.220059744
C  C29  1  0.32791000  0.21789000  0.98536000  1.0 0.220059744
C  C30  1  0.78211000  0.67209000  0.01464000  1.0 0.220059744
C  C31  1  0.98536000  0.21789000  0.67209000  1.0 0.220059744
C  C32  1  0.21789000  0.67209000  0.98536000  1.0 0.220059744
C  C33  1  0.67209000  0.21789000  0.01464000  1.0 0.220059744
C  C34  1  0.21789000  0.01464000  0.67209000  1.0 0.220059744
C  C35  1  0.21789000  0.32791000  0.01464000  1.0 0.220059744
C  C36  1  0.01464000  0.78211000  0.67209000  1.0 0.220059744
C  C37  1  0.21789000  0.98536000  0.32791000  1.0 0.220059744
C  C38  1  0.01464000  0.21789000  0.32791000  1.0 0.220059744
C  C39  1  0.78211000  0.01464000  0.32791000  1.0 0.220059744
C  C40  1  0.98536000  0.78211000  0.32791000  1.0 0.220059744
C  C41  1  0.98536000  0.67209000  0.78211000  1.0 0.220059744
C  C42  1  0.67209000  0.01464000  0.78211000  1.0 0.220059744
C  C43  1  0.67209000  0.98536000  0.21789000  1.0 0.220059744
C  C44  1  0.01464000  0.67209000  0.21789000  1.0 0.220059744
C  C45  1  0.32791000  0.01464000  0.21789000  1.0 0.220059744
C  C46  1  0.98536000  0.32791000  0.21789000  1.0 0.220059744
C  C47  1  0.01464000  0.32791000  0.78211000  1.0 0.220059744
C  C48  1  0.32791000  0.98536000  0.78211000  1.0 0.220059744
C  C49  1  0.66533000  0.78459000  0.03631000  1.0 -0.1759832406
C  C50  1  0.78459000  0.33467000  0.03631000  1.0 -0.1759832406
C  C51  1  0.33467000  0.78459000  0.96369000  1.0 -0.1759832406
C  C52  1  0.78459000  0.03631000  0.66533000  1.0 -0.1759832406
C  C53  1  0.33467000  0.21541000  0.03631000  1.0 -0.1759832406
C  C54  1  0.78459000  0.66533000  0.96369000  1.0 -0.1759832406
C  C55  1  0.03631000  0.21541000  0.66533000  1.0 -0.1759832406
C  C56  1  0.21541000  0.66533000  0.03631000  1.0 -0.1759832406
C  C57  1  0.66533000  0.21541000  0.96369000  1.0 -0.1759832406
C  C58  1  0.21541000  0.96369000  0.66533000  1.0 -0.1759832406
C  C59  1  0.21541000  0.33467000  0.96369000  1.0 -0.1759832406
C  C60  1  0.96369000  0.78459000  0.66533000  1.0 -0.1759832406
C  C61  1  0.21541000  0.03631000  0.33467000  1.0 -0.1759832406
C  C62  1  0.96369000  0.21541000  0.33467000  1.0 -0.1759832406
C  C63  1  0.78459000  0.96369000  0.33467000  1.0 -0.1759832406
C  C64  1  0.03631000  0.78459000  0.33467000  1.0 -0.1759832406
C  C65  1  0.03631000  0.66533000  0.78459000  1.0 -0.1759832406
C  C66  1  0.66533000  0.96369000  0.78459000  1.0 -0.1759832406
C  C67  1  0.66533000  0.03631000  0.21541000  1.0 -0.1759832406
C  C68  1  0.96369000  0.66533000  0.21541000  1.0 -0.1759832406
C  C69  1  0.33467000  0.96369000  0.21541000  1.0 -0.1759832406
C  C70  1  0.03631000  0.33467000  0.21541000  1.0 -0.1759832406
C  C71  1  0.96369000  0.33467000  0.78459000  1.0 -0.1759832406
C  C72  1  0.33467000  0.03631000  0.78459000  1.0 -0.1759832406
C  C73  1  0.71301000  0.80416000  0.95410000  1.0 -0.4609933299
C  C74  1  0.80416000  0.28699000  0.95410000  1.0 -0.4609933299
C  C75  1  0.28699000  0.80416000  0.04590000  1.0 -0.4609933299
C  C76  1  0.80416000  0.95410000  0.71301000  1.0 -0.4609933299
C  C77  1  0.28699000  0.19584000  0.95410000  1.0 -0.4609933299
C  C78  1  0.80416000  0.71301000  0.04590000  1.0 -0.4609933299
C  C79  1  0.95410000  0.19584000  0.71301000  1.0 -0.4609933299
C  C80  1  0.19584000  0.71301000  0.95410000  1.0 -0.4609933299
C  C81  1  0.71301000  0.19584000  0.04590000  1.0 -0.4609933299
C  C82  1  0.19584000  0.04590000  0.71301000  1.0 -0.4609933299
C  C83  1  0.19584000  0.28699000  0.04590000  1.0 -0.4609933299
C  C84  1  0.04590000  0.80416000  0.71301000  1.0 -0.4609933299
C  C85  1  0.19584000  0.95410000  0.28699000  1.0 -0.4609933299
C  C86  1  0.04590000  0.19584000  0.28699000  1.0 -0.4609933299
C  C87  1  0.80416000  0.04590000  0.28699000  1.0 -0.4609933299
C  C88  1  0.95410000  0.80416000  0.28699000  1.0 -0.4609933299
C  C89  1  0.95410000  0.71301000  0.80416000  1.0 -0.4609933299
C  C90  1  0.71301000  0.04590000  0.80416000  1.0 -0.4609933299
C  C91  1  0.71301000  0.95410000  0.19584000  1.0 -0.4609933299
C  C92  1  0.04590000  0.71301000  0.19584000  1.0 -0.4609933299
C  C93  1  0.28699000  0.04590000  0.19584000  1.0 -0.4609933299
C  C94  1  0.95410000  0.28699000  0.19584000  1.0 -0.4609933299
C  C95  1  0.04590000  0.28699000  0.80416000  1.0 -0.4609933299
C  C96  1  0.28699000  0.95410000  0.80416000  1.0 -0.4609933299
C  C97  1  0.50132000  0.74646000  0.10859000  1.0 0.1486190666
C  C98  1  0.74646000  0.49868000  0.10859000  1.0 0.1486190666
C  C99  1  0.49868000  0.74646000  0.89141000  1.0 0.1486190666
C  C100  1  0.74646000  0.10859000  0.50132000  1.0 0.1486190666
C  C101  1  0.49868000  0.25354000  0.10859000  1.0 0.1486190666
C  C102  1  0.74646000  0.50132000  0.89141000  1.0 0.1486190666
C  C103  1  0.10859000  0.25354000  0.50132000  1.0 0.1486190666
C  C104  1  0.25354000  0.50132000  0.10859000  1.0 0.1394204915
C  C105  1  0.50132000  0.25354000  0.89141000  1.0 0.1486190666
C  C106  1  0.25354000  0.89141000  0.50132000  1.0 0.1394204915
C  C107  1  0.25354000  0.49868000  0.89141000  1.0 0.1486190666
C  C108  1  0.89141000  0.74646000  0.50132000  1.0 0.1486190666
C  C109  1  0.25354000  0.10859000  0.49868000  1.0 0.1486190666
C  C110  1  0.89141000  0.25354000  0.49868000  1.0 0.1486190666
C  C111  1  0.74646000  0.89141000  0.49868000  1.0 0.1486190666
C  C112  1  0.10859000  0.74646000  0.49868000  1.0 0.1486190666
C  C113  1  0.10859000  0.50132000  0.74646000  1.0 0.1486190666
C  C114  1  0.50132000  0.89141000  0.74646000  1.0 0.1486190666
C  C115  1  0.50132000  0.10859000  0.25354000  1.0 0.1486190666
C  C116  1  0.89141000  0.50132000  0.25354000  1.0 0.1486190666
C  C117  1  0.49868000  0.89141000  0.25354000  1.0 0.1486190666
C  C118  1  0.10859000  0.49868000  0.25354000  1.0 0.1394204915
C  C119  1  0.89141000  0.49868000  0.74646000  1.0 0.1486190666
C  C120  1  0.49868000  0.10859000  0.74646000  1.0 0.1486190666
C  C121  1  0.48341000  0.67014000  0.08795000  1.0 0.220059744
C  C122  1  0.67014000  0.51659000  0.08795000  1.0 0.220059744
C  C123  1  0.51659000  0.67014000  0.91205000  1.0 0.220059744
C  C124  1  0.67014000  0.08795000  0.48341000  1.0 0.220059744
C  C125  1  0.51659000  0.32986000  0.08795000  1.0 0.220059744
C  C126  1  0.67014000  0.48341000  0.91205000  1.0 0.220059744
C  C127  1  0.08795000  0.32986000  0.48341000  1.0 0.220059744
C  C128  1  0.32986000  0.48341000  0.08795000  1.0 0.220059744
C  C129  1  0.48341000  0.32986000  0.91205000  1.0 0.220059744
C  C130  1  0.32986000  0.91205000  0.48341000  1.0 0.220059744
C  C131  1  0.32986000  0.51659000  0.91205000  1.0 0.220059744
C  C132  1  0.91205000  0.67014000  0.48341000  1.0 0.220059744
C  C133  1  0.32986000  0.08795000  0.51659000  1.0 0.220059744
C  C134  1  0.91205000  0.32986000  0.51659000  1.0 0.220059744
C  C135  1  0.67014000  0.91205000  0.51659000  1.0 0.220059744
C  C136  1  0.08795000  0.67014000  0.51659000  1.0 0.220059744
C  C137  1  0.08795000  0.48341000  0.67014000  1.0 0.220059744
C  C138  1  0.48341000  0.91205000  0.67014000  1.0 0.220059744
C  C139  1  0.48341000  0.08795000  0.32986000  1.0 0.220059744
C  C140  1  0.91205000  0.48341000  0.32986000  1.0 0.220059744
C  C141  1  0.51659000  0.91205000  0.32986000  1.0 0.220059744
C  C142  1  0.08795000  0.51659000  0.32986000  1.0 0.220059744
C  C143  1  0.91205000  0.51659000  0.67014000  1.0 0.220059744
C  C144  1  0.51659000  0.08795000  0.67014000  1.0 0.220059744
C  C145  1  0.53456000  0.67547000  0.08558000  1.0 -0.1705379695
C  C146  1  0.67547000  0.46544000  0.08558000  1.0 -0.1705379695
C  C147  1  0.46544000  0.67547000  0.91442000  1.0 -0.1705379695
C  C148  1  0.67547000  0.08558000  0.53456000  1.0 -0.1705379695
C  C149  1  0.46544000  0.32453000  0.08558000  1.0 -0.1705379695
C  C150  1  0.67547000  0.53456000  0.91442000  1.0 -0.1705379695
C  C151  1  0.08558000  0.32453000  0.53456000  1.0 -0.1705379695
C  C152  1  0.32453000  0.53456000  0.08558000  1.0 -0.1705379695
C  C153  1  0.53456000  0.32453000  0.91442000  1.0 -0.1705379695
C  C154  1  0.32453000  0.91442000  0.53456000  1.0 -0.1705379695
C  C155  1  0.32453000  0.46544000  0.91442000  1.0 -0.1705379695
C  C156  1  0.91442000  0.67547000  0.53456000  1.0 -0.1705379695
C  C157  1  0.32453000  0.08558000  0.46544000  1.0 -0.1705379695
C  C158  1  0.91442000  0.32453000  0.46544000  1.0 -0.1705379695
C  C159  1  0.67547000  0.91442000  0.46544000  1.0 -0.1705379695
C  C160  1  0.08558000  0.67547000  0.46544000  1.0 -0.1705379695
C  C161  1  0.08558000  0.53456000  0.67547000  1.0 -0.1705379695
C  C162  1  0.53456000  0.91442000  0.67547000  1.0 -0.1705379695
C  C163  1  0.53456000  0.08558000  0.32453000  1.0 -0.1705379695
C  C164  1  0.91442000  0.53456000  0.32453000  1.0 -0.1705379695
C  C165  1  0.46544000  0.91442000  0.32453000  1.0 -0.1705379695
C  C166  1  0.08558000  0.46544000  0.32453000  1.0 -0.1705379695
C  C167  1  0.91442000  0.46544000  0.67547000  1.0 -0.1705379695
C  C168  1  0.46544000  0.08558000  0.67547000  1.0 -0.1705379695
C  C169  1  0.45026000  0.62489000  0.07747000  1.0 -0.4893753849
C  C170  1  0.62489000  0.54974000  0.07747000  1.0 -0.4893753849
C  C171  1  0.54974000  0.62489000  0.92253000  1.0 -0.4893753849
C  C172  1  0.62489000  0.07747000  0.45026000  1.0 -0.4893753849
C  C173  1  0.54974000  0.37511000  0.07747000  1.0 -0.4893753849
C  C174  1  0.62489000  0.45026000  0.92253000  1.0 -0.4893753849
C  C175  1  0.07747000  0.37511000  0.45026000  1.0 -0.4893753849
C  C176  1  0.37511000  0.45026000  0.07747000  1.0 -0.4893753849
C  C177  1  0.45026000  0.37511000  0.92253000  1.0 -0.4893753849
C  C178  1  0.37511000  0.92253000  0.45026000  1.0 -0.4893753849
C  C179  1  0.37511000  0.54974000  0.92253000  1.0 -0.4893753849
C  C180  1  0.92253000  0.62489000  0.45026000  1.0 -0.4893753849
C  C181  1  0.37511000  0.07747000  0.54974000  1.0 -0.4893753849
C  C182  1  0.92253000  0.37511000  0.54974000  1.0 -0.4893753849
C  C183  1  0.62489000  0.92253000  0.54974000  1.0 -0.4893753849
C  C184  1  0.07747000  0.62489000  0.54974000  1.0 -0.4893753849
C  C185  1  0.07747000  0.45026000  0.62489000  1.0 -0.4893753849
C  C186  1  0.45026000  0.92253000  0.62489000  1.0 -0.4893753849
C  C187  1  0.45026000  0.07747000  0.37511000  1.0 -0.4893753849
C  C188  1  0.92253000  0.45026000  0.37511000  1.0 -0.4893753849
C  C189  1  0.54974000  0.92253000  0.37511000  1.0 -0.4893753849
C  C190  1  0.07747000  0.54974000  0.37511000  1.0 -0.4893753849
C  C191  1  0.92253000  0.54974000  0.62489000  1.0 -0.4893753849
C  C192  1  0.54974000  0.07747000  0.62489000  1.0 -0.4893753849
C  C193  1  0.60941000  0.81418000  0.17475000  1.0 0.1394204915
C  C194  1  0.81418000  0.39059000  0.17475000  1.0 0.1394204915
C  C195  1  0.39059000  0.81418000  0.82525000  1.0 0.1394204915
C  C196  1  0.81418000  0.17475000  0.60941000  1.0 0.1394204915
C  C197  1  0.39059000  0.18582000  0.17475000  1.0 0.1394204915
C  C198  1  0.81418000  0.60941000  0.82525000  1.0 0.1394204915
C  C199  1  0.17475000  0.18582000  0.60941000  1.0 0.1394204915
C  C200  1  0.18582000  0.60941000  0.17475000  1.0 0.1394204915
C  C201  1  0.60941000  0.18582000  0.82525000  1.0 0.1394204915
C  C202  1  0.18582000  0.82525000  0.60941000  1.0 0.1394204915
C  C203  1  0.18582000  0.39059000  0.82525000  1.0 0.1394204915
C  C204  1  0.82525000  0.81418000  0.60941000  1.0 0.1394204915
C  C205  1  0.18582000  0.17475000  0.39059000  1.0 0.1394204915
C  C206  1  0.82525000  0.18582000  0.39059000  1.0 0.1394204915
C  C207  1  0.81418000  0.82525000  0.39059000  1.0 0.1394204915
C  C208  1  0.17475000  0.81418000  0.39059000  1.0 0.1394204915
C  C209  1  0.17475000  0.60941000  0.81418000  1.0 0.1394204915
C  C210  1  0.60941000  0.82525000  0.81418000  1.0 0.1394204915
C  C211  1  0.60941000  0.17475000  0.18582000  1.0 0.1394204915
C  C212  1  0.82525000  0.60941000  0.18582000  1.0 0.1394204915
C  C213  1  0.39059000  0.82525000  0.18582000  1.0 0.1394204915
C  C214  1  0.17475000  0.39059000  0.18582000  1.0 0.1394204915
C  C215  1  0.82525000  0.39059000  0.81418000  1.0 0.1394204915
C  C216  1  0.39059000  0.17475000  0.81418000  1.0 0.1394204915
C  C217  1  0.58142000  0.88368000  0.14106000  1.0 0.2385565579
C  C218  1  0.88368000  0.41858000  0.14106000  1.0 0.2385565579
C  C219  1  0.41858000  0.88368000  0.85894000  1.0 0.2385565579
C  C220  1  0.88368000  0.14106000  0.58142000  1.0 0.2385565579
C  C221  1  0.41858000  0.11632000  0.14106000  1.0 0.2385565579
C  C222  1  0.88368000  0.58142000  0.85894000  1.0 0.2385565579
C  C223  1  0.14106000  0.11632000  0.58142000  1.0 0.2385565579
C  C224  1  0.11632000  0.58142000  0.14106000  1.0 0.2385565579
C  C225  1  0.58142000  0.11632000  0.85894000  1.0 0.2385565579
C  C226  1  0.11632000  0.85894000  0.58142000  1.0 0.2385565579
C  C227  1  0.11632000  0.41858000  0.85894000  1.0 0.2385565579
C  C228  1  0.85894000  0.88368000  0.58142000  1.0 0.2385565579
C  C229  1  0.11632000  0.14106000  0.41858000  1.0 0.2385565579
C  C230  1  0.85894000  0.11632000  0.41858000  1.0 0.2385565579
C  C231  1  0.88368000  0.85894000  0.41858000  1.0 0.2385565579
C  C232  1  0.14106000  0.88368000  0.41858000  1.0 0.2385565579
C  C233  1  0.14106000  0.58142000  0.88368000  1.0 0.2385565579
C  C234  1  0.58142000  0.85894000  0.88368000  1.0 0.2385565579
C  C235  1  0.58142000  0.14106000  0.11632000  1.0 0.2385565579
C  C236  1  0.85894000  0.58142000  0.11632000  1.0 0.2385565579
C  C237  1  0.41858000  0.85894000  0.11632000  1.0 0.2385565579
C  C238  1  0.14106000  0.41858000  0.11632000  1.0 0.2385565579
C  C239  1  0.85894000  0.41858000  0.88368000  1.0 0.2385565579
C  C240  1  0.41858000  0.14106000  0.88368000  1.0 0.2385565579
C  C241  1  0.57793000  0.84530000  0.10542000  1.0 -0.19003409
C  C242  1  0.84530000  0.42207000  0.10542000  1.0 -0.19003409
C  C243  1  0.42207000  0.84530000  0.89458000  1.0 -0.19003409
C  C244  1  0.84530000  0.10542000  0.57793000  1.0 -0.19003409
C  C245  1  0.42207000  0.15470000  0.10542000  1.0 -0.19003409
C  C246  1  0.84530000  0.57793000  0.89458000  1.0 -0.19003409
C  C247  1  0.10542000  0.15470000  0.57793000  1.0 -0.19003409
C  C248  1  0.15470000  0.57793000  0.10542000  1.0 -0.19003409
C  C249  1  0.57793000  0.15470000  0.89458000  1.0 -0.19003409
C  C250  1  0.15470000  0.89458000  0.57793000  1.0 -0.19003409
C  C251  1  0.15470000  0.42207000  0.89458000  1.0 -0.19003409
C  C252  1  0.89458000  0.84530000  0.57793000  1.0 -0.19003409
C  C253  1  0.15470000  0.10542000  0.42207000  1.0 -0.19003409
C  C254  1  0.89458000  0.15470000  0.42207000  1.0 -0.19003409
C  C255  1  0.84530000  0.89458000  0.42207000  1.0 -0.19003409
C  C256  1  0.10542000  0.84530000  0.42207000  1.0 -0.19003409
C  C257  1  0.10542000  0.57793000  0.84530000  1.0 -0.19003409
C  C258  1  0.57793000  0.89458000  0.84530000  1.0 -0.19003409
C  C259  1  0.57793000  0.10542000  0.15470000  1.0 -0.19003409
C  C260  1  0.89458000  0.57793000  0.15470000  1.0 -0.19003409
C  C261  1  0.42207000  0.89458000  0.15470000  1.0 -0.19003409
C  C262  1  0.10542000  0.42207000  0.15470000  1.0 -0.19003409
C  C263  1  0.89458000  0.42207000  0.84530000  1.0 -0.19003409
C  C264  1  0.42207000  0.10542000  0.84530000  1.0 -0.19003409
C  C265  1  0.56694000  0.93819000  0.13529000  1.0 -0.4957606145
C  C266  1  0.93819000  0.43306000  0.13529000  1.0 -0.4957606145
C  C267  1  0.43306000  0.93819000  0.86471000  1.0 -0.4957606145
C  C268  1  0.93819000  0.13529000  0.56694000  1.0 -0.4893753849
C  C269  1  0.43306000  0.06181000  0.13529000  1.0 -0.4957606145
C  C270  1  0.93819000  0.56694000  0.86471000  1.0 -0.4957606145
C  C271  1  0.13529000  0.06181000  0.56694000  1.0 -0.4893753849
C  C272  1  0.06181000  0.56694000  0.13529000  1.0 -0.4957606145
C  C273  1  0.56694000  0.06181000  0.86471000  1.0 -0.4893753849
C  C274  1  0.06181000  0.86471000  0.56694000  1.0 -0.4957606145
C  C275  1  0.06181000  0.43306000  0.86471000  1.0 -0.4893753849
C  C276  1  0.86471000  0.93819000  0.56694000  1.0 -0.4957606145
C  C277  1  0.06181000  0.13529000  0.43306000  1.0 -0.4893753849
C  C278  1  0.86471000  0.06181000  0.43306000  1.0 -0.4893753849
C  C279  1  0.93819000  0.86471000  0.43306000  1.0 -0.4957606145
C  C280  1  0.13529000  0.93819000  0.43306000  1.0 -0.4957606145
C  C281  1  0.13529000  0.56694000  0.93819000  1.0 -0.4893753849
C  C282  1  0.56694000  0.86471000  0.93819000  1.0 -0.4957606145
C  C283  1  0.56694000  0.13529000  0.06181000  1.0 -0.4957606145
C  C284  1  0.86471000  0.56694000  0.06181000  1.0 -0.4957606145
C  C285  1  0.43306000  0.86471000  0.06181000  1.0 -0.4957606145
C  C286  1  0.13529000  0.43306000  0.06181000  1.0 -0.4957606145
C  C287  1  0.86471000  0.43306000  0.93819000  1.0 -0.4957606145
C  C288  1  0.43306000  0.13529000  0.93819000  1.0 -0.4893753849
C  C289  1  0.67719000  0.69029000  0.11415000  1.0 0.1486190666
C  C290  1  0.69029000  0.32281000  0.11415000  1.0 0.1486190666
C  C291  1  0.32281000  0.69029000  0.88585000  1.0 0.1486190666
C  C292  1  0.69029000  0.11415000  0.67719000  1.0 0.1486190666
C  C293  1  0.32281000  0.30971000  0.11415000  1.0 0.1486190666
C  C294  1  0.69029000  0.67719000  0.88585000  1.0 0.1486190666
C  C295  1  0.11415000  0.30971000  0.67719000  1.0 0.1486190666
C  C296  1  0.30971000  0.67719000  0.11415000  1.0 0.1486190666
C  C297  1  0.67719000  0.30971000  0.88585000  1.0 0.1486190666
C  C298  1  0.30971000  0.88585000  0.67719000  1.0 0.1486190666
C  C299  1  0.30971000  0.32281000  0.88585000  1.0 0.1486190666
C  C300  1  0.88585000  0.69029000  0.67719000  1.0 0.1486190666
C  C301  1  0.30971000  0.11415000  0.32281000  1.0 0.1486190666
C  C302  1  0.88585000  0.30971000  0.32281000  1.0 0.1486190666
C  C303  1  0.69029000  0.88585000  0.32281000  1.0 0.1486190666
C  C304  1  0.11415000  0.69029000  0.32281000  1.0 0.1486190666
C  C305  1  0.11415000  0.67719000  0.69029000  1.0 0.1486190666
C  C306  1  0.67719000  0.88585000  0.69029000  1.0 0.1486190666
C  C307  1  0.67719000  0.11415000  0.30971000  1.0 0.1486190666
C  C308  1  0.88585000  0.67719000  0.30971000  1.0 0.1486190666
C  C309  1  0.32281000  0.88585000  0.30971000  1.0 0.1486190666
C  C310  1  0.11415000  0.32281000  0.30971000  1.0 0.1486190666
C  C311  1  0.88585000  0.32281000  0.69029000  1.0 0.1486190666
C  C312  1  0.32281000  0.11415000  0.69029000  1.0 0.1486190666
C  C313  1  0.66457000  0.65661000  0.18676000  1.0 0.2256603181
C  C314  1  0.65661000  0.33543000  0.18676000  1.0 0.2256603181
C  C315  1  0.33543000  0.65661000  0.81324000  1.0 0.2256603181
C  C316  1  0.65661000  0.18676000  0.66457000  1.0 0.2256603181
C  C317  1  0.33543000  0.34339000  0.18676000  1.0 0.2256603181
C  C318  1  0.65661000  0.66457000  0.81324000  1.0 0.2256603181
C  C319  1  0.18676000  0.34339000  0.66457000  1.0 0.2256603181
C  C320  1  0.34339000  0.66457000  0.18676000  1.0 0.2256603181
C  C321  1  0.66457000  0.34339000  0.81324000  1.0 0.2256603181
C  C322  1  0.34339000  0.81324000  0.66457000  1.0 0.2256603181
C  C323  1  0.34339000  0.33543000  0.81324000  1.0 0.2256603181
C  C324  1  0.81324000  0.65661000  0.66457000  1.0 0.2256603181
C  C325  1  0.34339000  0.18676000  0.33543000  1.0 0.2256603181
C  C326  1  0.81324000  0.34339000  0.33543000  1.0 0.2256603181
C  C327  1  0.65661000  0.81324000  0.33543000  1.0 0.2256603181
C  C328  1  0.18676000  0.65661000  0.33543000  1.0 0.2256603181
C  C329  1  0.18676000  0.66457000  0.65661000  1.0 0.2256603181
C  C330  1  0.66457000  0.81324000  0.65661000  1.0 0.2256603181
C  C331  1  0.66457000  0.18676000  0.34339000  1.0 0.2256603181
C  C332  1  0.81324000  0.66457000  0.34339000  1.0 0.2256603181
C  C333  1  0.33543000  0.81324000  0.34339000  1.0 0.2256603181
C  C334  1  0.18676000  0.33543000  0.34339000  1.0 0.2256603181
C  C335  1  0.81324000  0.33543000  0.65661000  1.0 0.2256603181
C  C336  1  0.33543000  0.18676000  0.65661000  1.0 0.2256603181
C  C337  1  0.62611000  0.68908000  0.17827000  1.0 -0.199936254
C  C338  1  0.68908000  0.37389000  0.17827000  1.0 -0.199936254
C  C339  1  0.37389000  0.68908000  0.82173000  1.0 -0.199936254
C  C340  1  0.68908000  0.17827000  0.62611000  1.0 -0.199936254
C  C341  1  0.37389000  0.31092000  0.17827000  1.0 -0.199936254
C  C342  1  0.68908000  0.62611000  0.82173000  1.0 -0.199936254
C  C343  1  0.17827000  0.31092000  0.62611000  1.0 -0.199936254
C  C344  1  0.31092000  0.62611000  0.17827000  1.0 -0.199936254
C  C345  1  0.62611000  0.31092000  0.82173000  1.0 -0.199936254
C  C346  1  0.31092000  0.82173000  0.62611000  1.0 -0.199936254
C  C347  1  0.31092000  0.37389000  0.82173000  1.0 -0.199936254
C  C348  1  0.82173000  0.68908000  0.62611000  1.0 -0.199936254
C  C349  1  0.31092000  0.17827000  0.37389000  1.0 -0.199936254
C  C350  1  0.82173000  0.31092000  0.37389000  1.0 -0.199936254
C  C351  1  0.68908000  0.82173000  0.37389000  1.0 -0.199936254
C  C352  1  0.17827000  0.68908000  0.37389000  1.0 -0.199936254
C  C353  1  0.17827000  0.62611000  0.68908000  1.0 -0.199936254
C  C354  1  0.62611000  0.82173000  0.68908000  1.0 -0.199936254
C  C355  1  0.62611000  0.17827000  0.31092000  1.0 -0.199936254
C  C356  1  0.82173000  0.62611000  0.31092000  1.0 -0.199936254
C  C357  1  0.37389000  0.82173000  0.31092000  1.0 -0.199936254
C  C358  1  0.17827000  0.37389000  0.31092000  1.0 -0.199936254
C  C359  1  0.82173000  0.37389000  0.68908000  1.0 -0.199936254
C  C360  1  0.37389000  0.17827000  0.68908000  1.0 -0.199936254
C  C361  1  0.67411000  0.62427000  0.23093000  1.0 -0.4609933299
C  C362  1  0.62427000  0.32589000  0.23093000  1.0 -0.4609933299
C  C363  1  0.32589000  0.62427000  0.76907000  1.0 -0.4609933299
C  C364  1  0.62427000  0.23093000  0.67411000  1.0 -0.4609933299
C  C365  1  0.32589000  0.37573000  0.23093000  1.0 -0.4609933299
C  C366  1  0.62427000  0.67411000  0.76907000  1.0 -0.4609933299
C  C367  1  0.23093000  0.37573000  0.67411000  1.0 -0.4609933299
C  C368  1  0.37573000  0.67411000  0.23093000  1.0 -0.4609933299
C  C369  1  0.67411000  0.37573000  0.76907000  1.0 -0.4609933299
C  C370  1  0.37573000  0.76907000  0.67411000  1.0 -0.4609933299
C  C371  1  0.37573000  0.32589000  0.76907000  1.0 -0.4609933299
C  C372  1  0.76907000  0.62427000  0.67411000  1.0 -0.4609933299
C  C373  1  0.37573000  0.23093000  0.32589000  1.0 -0.4609933299
C  C374  1  0.76907000  0.37573000  0.32589000  1.0 -0.4609933299
C  C375  1  0.62427000  0.76907000  0.32589000  1.0 -0.4609933299
C  C376  1  0.23093000  0.62427000  0.32589000  1.0 -0.4609933299
C  C377  1  0.23093000  0.67411000  0.62427000  1.0 -0.4609933299
C  C378  1  0.67411000  0.76907000  0.62427000  1.0 -0.4609933299
C  C379  1  0.67411000  0.23093000  0.37573000  1.0 -0.4609933299
C  C380  1  0.76907000  0.67411000  0.37573000  1.0 -0.4609933299
C  C381  1  0.32589000  0.76907000  0.37573000  1.0 -0.4609933299
C  C382  1  0.23093000  0.32589000  0.37573000  1.0 -0.4609933299
C  C383  1  0.76907000  0.32589000  0.62427000  1.0 -0.4609933299
C  C384  1  0.32589000  0.23093000  0.62427000  1.0 -0.4609933299
N  N1  1  0.62182000  0.75752000  0.04809000  1.0 -0.2216214132
N  N2  1  0.75752000  0.37818000  0.04809000  1.0 -0.2216214132
N  N3  1  0.37818000  0.75752000  0.95191000  1.0 -0.2216214132
N  N4  1  0.75752000  0.04809000  0.62182000  1.0 -0.2216214132
N  N5  1  0.37818000  0.24248000  0.04809000  1.0 -0.2216214132
N  N6  1  0.75752000  0.62182000  0.95191000  1.0 -0.2216214132
N  N7  1  0.04809000  0.24248000  0.62182000  1.0 -0.2216214132
N  N8  1  0.24248000  0.62182000  0.04809000  1.0 -0.2216214132
N  N9  1  0.62182000  0.24248000  0.95191000  1.0 -0.2216214132
N  N10  1  0.24248000  0.95191000  0.62182000  1.0 -0.2216214132
N  N11  1  0.24248000  0.37818000  0.95191000  1.0 -0.2216214132
N  N12  1  0.95191000  0.75752000  0.62182000  1.0 -0.2216214132
N  N13  1  0.24248000  0.04809000  0.37818000  1.0 -0.2216214132
N  N14  1  0.95191000  0.24248000  0.37818000  1.0 -0.2216214132
N  N15  1  0.75752000  0.95191000  0.37818000  1.0 -0.2216214132
N  N16  1  0.04809000  0.75752000  0.37818000  1.0 -0.2216214132
N  N17  1  0.04809000  0.62182000  0.75752000  1.0 -0.2216214132
N  N18  1  0.62182000  0.95191000  0.75752000  1.0 -0.2216214132
N  N19  1  0.62182000  0.04809000  0.24248000  1.0 -0.2216214132
N  N20  1  0.95191000  0.62182000  0.24248000  1.0 -0.2216214132
N  N21  1  0.37818000  0.95191000  0.24248000  1.0 -0.2216214132
N  N22  1  0.04809000  0.37818000  0.24248000  1.0 -0.2216214132
N  N23  1  0.95191000  0.37818000  0.75752000  1.0 -0.2216214132
N  N24  1  0.37818000  0.04809000  0.75752000  1.0 -0.2216214132
N  N25  1  0.63373000  0.75276000  0.96430000  1.0 -0.4609933299
N  N26  1  0.75276000  0.36627000  0.96430000  1.0 -0.4609933299
N  N27  1  0.36627000  0.75276000  0.03570000  1.0 -0.4609933299
N  N28  1  0.75276000  0.96430000  0.63373000  1.0 -0.4609933299
N  N29  1  0.36627000  0.24724000  0.96430000  1.0 -0.4609933299
N  N30  1  0.75276000  0.63373000  0.03570000  1.0 -0.4609933299
N  N31  1  0.96430000  0.24724000  0.63373000  1.0 -0.4609933299
N  N32  1  0.24724000  0.63373000  0.96430000  1.0 -0.4609933299
N  N33  1  0.63373000  0.24724000  0.03570000  1.0 -0.4609933299
N  N34  1  0.24724000  0.03570000  0.63373000  1.0 -0.4609933299
N  N35  1  0.24724000  0.36627000  0.03570000  1.0 -0.4609933299
N  N36  1  0.03570000  0.75276000  0.63373000  1.0 -0.4609933299
N  N37  1  0.24724000  0.96430000  0.36627000  1.0 -0.4609933299
N  N38  1  0.03570000  0.24724000  0.36627000  1.0 -0.4609933299
N  N39  1  0.75276000  0.03570000  0.36627000  1.0 -0.4609933299
N  N40  1  0.96430000  0.75276000  0.36627000  1.0 -0.4609933299
N  N41  1  0.96430000  0.63373000  0.75276000  1.0 -0.4609933299
N  N42  1  0.63373000  0.03570000  0.75276000  1.0 -0.4609933299
N  N43  1  0.63373000  0.96430000  0.24724000  1.0 -0.4609933299
N  N44  1  0.03570000  0.63373000  0.24724000  1.0 -0.4609933299
N  N45  1  0.36627000  0.03570000  0.24724000  1.0 -0.4609933299
N  N46  1  0.96430000  0.36627000  0.24724000  1.0 -0.4609933299
N  N47  1  0.03570000  0.36627000  0.75276000  1.0 -0.4609933299
N  N48  1  0.36627000  0.96430000  0.75276000  1.0 -0.4609933299
N  N49  1  0.54629000  0.72468000  0.09824000  1.0 -0.199936254
N  N50  1  0.72468000  0.45371000  0.09824000  1.0 -0.199936254
N  N51  1  0.45371000  0.72468000  0.90176000  1.0 -0.199936254
N  N52  1  0.72468000  0.09824000  0.54629000  1.0 -0.199936254
N  N53  1  0.45371000  0.27532000  0.09824000  1.0 -0.199936254
N  N54  1  0.72468000  0.54629000  0.90176000  1.0 -0.199936254
N  N55  1  0.09824000  0.27532000  0.54629000  1.0 -0.199936254
N  N56  1  0.27532000  0.54629000  0.09824000  1.0 -0.199936254
N  N57  1  0.54629000  0.27532000  0.90176000  1.0 -0.199936254
N  N58  1  0.27532000  0.90176000  0.54629000  1.0 -0.199936254
N  N59  1  0.27532000  0.45371000  0.90176000  1.0 -0.199936254
N  N60  1  0.90176000  0.72468000  0.54629000  1.0 -0.199936254
N  N61  1  0.27532000  0.09824000  0.45371000  1.0 -0.199936254
N  N62  1  0.90176000  0.27532000  0.45371000  1.0 -0.199936254
N  N63  1  0.72468000  0.90176000  0.45371000  1.0 -0.199936254
N  N64  1  0.09824000  0.72468000  0.45371000  1.0 -0.199936254
N  N65  1  0.09824000  0.54629000  0.72468000  1.0 -0.199936254
N  N66  1  0.54629000  0.90176000  0.72468000  1.0 -0.199936254
N  N67  1  0.54629000  0.09824000  0.27532000  1.0 -0.199936254
N  N68  1  0.90176000  0.54629000  0.27532000  1.0 -0.199936254
N  N69  1  0.45371000  0.90176000  0.27532000  1.0 -0.199936254
N  N70  1  0.09824000  0.45371000  0.27532000  1.0 -0.199936254
N  N71  1  0.90176000  0.45371000  0.72468000  1.0 -0.199936254
N  N72  1  0.45371000  0.09824000  0.72468000  1.0 -0.199936254
N  N73  1  0.46214000  0.71594000  0.10300000  1.0 -0.450697726
N  N74  1  0.71594000  0.53786000  0.10300000  1.0 -0.450697726
N  N75  1  0.53786000  0.71594000  0.89700000  1.0 -0.450697726
N  N76  1  0.71594000  0.10300000  0.46214000  1.0 -0.450697726
N  N77  1  0.53786000  0.28406000  0.10300000  1.0 -0.450697726
N  N78  1  0.71594000  0.46214000  0.89700000  1.0 -0.450697726
N  N79  1  0.10300000  0.28406000  0.46214000  1.0 -0.450697726
N  N80  1  0.28406000  0.46214000  0.10300000  1.0 -0.450697726
N  N81  1  0.46214000  0.28406000  0.89700000  1.0 -0.450697726
N  N82  1  0.28406000  0.89700000  0.46214000  1.0 -0.450697726
N  N83  1  0.28406000  0.53786000  0.89700000  1.0 -0.450697726
N  N84  1  0.89700000  0.71594000  0.46214000  1.0 -0.450697726
N  N85  1  0.28406000  0.10300000  0.53786000  1.0 -0.450697726
N  N86  1  0.89700000  0.28406000  0.53786000  1.0 -0.450697726
N  N87  1  0.71594000  0.89700000  0.53786000  1.0 -0.450697726
N  N88  1  0.10300000  0.71594000  0.53786000  1.0 -0.450697726
N  N89  1  0.10300000  0.46214000  0.71594000  1.0 -0.450697726
N  N90  1  0.46214000  0.89700000  0.71594000  1.0 -0.450697726
N  N91  1  0.46214000  0.10300000  0.28406000  1.0 -0.450697726
N  N92  1  0.89700000  0.46214000  0.28406000  1.0 -0.450697726
N  N93  1  0.53786000  0.89700000  0.28406000  1.0 -0.450697726
N  N94  1  0.10300000  0.53786000  0.28406000  1.0 -0.450697726
N  N95  1  0.89700000  0.53786000  0.71594000  1.0 -0.450697726
N  N96  1  0.53786000  0.10300000  0.71594000  1.0 -0.450697726
N  N97  1  0.59650000  0.80094000  0.12766000  1.0 -0.199936254
N  N98  1  0.80094000  0.40350000  0.12766000  1.0 -0.199936254
N  N99  1  0.40350000  0.80094000  0.87234000  1.0 -0.199936254
N  N100  1  0.80094000  0.12766000  0.59650000  1.0 -0.199936254
N  N101  1  0.40350000  0.19906000  0.12766000  1.0 -0.199936254
N  N102  1  0.80094000  0.59650000  0.87234000  1.0 -0.199936254
N  N103  1  0.12766000  0.19906000  0.59650000  1.0 -0.199936254
N  N104  1  0.19906000  0.59650000  0.12766000  1.0 -0.199936254
N  N105  1  0.59650000  0.19906000  0.87234000  1.0 -0.199936254
N  N106  1  0.19906000  0.87234000  0.59650000  1.0 -0.199936254
N  N107  1  0.19906000  0.40350000  0.87234000  1.0 -0.199936254
N  N108  1  0.87234000  0.80094000  0.59650000  1.0 -0.199936254
N  N109  1  0.19906000  0.12766000  0.40350000  1.0 -0.199936254
N  N110  1  0.87234000  0.19906000  0.40350000  1.0 -0.199936254
N  N111  1  0.80094000  0.87234000  0.40350000  1.0 -0.199936254
N  N112  1  0.12766000  0.80094000  0.40350000  1.0 -0.199936254
N  N113  1  0.12766000  0.59650000  0.80094000  1.0 -0.199936254
N  N114  1  0.59650000  0.87234000  0.80094000  1.0 -0.199936254
N  N115  1  0.59650000  0.12766000  0.19906000  1.0 -0.199936254
N  N116  1  0.87234000  0.59650000  0.19906000  1.0 -0.199936254
N  N117  1  0.40350000  0.87234000  0.19906000  1.0 -0.199936254
N  N118  1  0.12766000  0.40350000  0.19906000  1.0 -0.199936254
N  N119  1  0.87234000  0.40350000  0.80094000  1.0 -0.199936254
N  N120  1  0.40350000  0.12766000  0.80094000  1.0 -0.199936254
N  N121  1  0.60121000  0.86293000  0.18538000  1.0 -0.4658520878
N  N122  1  0.86293000  0.39879000  0.18538000  1.0 -0.4658520878
N  N123  1  0.39879000  0.86293000  0.81462000  1.0 -0.4658520878
N  N124  1  0.86293000  0.18538000  0.60121000  1.0 -0.4658520878
N  N125  1  0.39879000  0.13707000  0.18538000  1.0 -0.4658520878
N  N126  1  0.86293000  0.60121000  0.81462000  1.0 -0.4658520878
N  N127  1  0.18538000  0.13707000  0.60121000  1.0 -0.4658520878
N  N128  1  0.13707000  0.60121000  0.18538000  1.0 -0.4658520878
N  N129  1  0.60121000  0.13707000  0.81462000  1.0 -0.4658520878
N  N130  1  0.13707000  0.81462000  0.60121000  1.0 -0.4658520878
N  N131  1  0.13707000  0.39879000  0.81462000  1.0 -0.4658520878
N  N132  1  0.81462000  0.86293000  0.60121000  1.0 -0.4658520878
N  N133  1  0.13707000  0.18538000  0.39879000  1.0 -0.4658520878
N  N134  1  0.81462000  0.13707000  0.39879000  1.0 -0.4658520878
N  N135  1  0.86293000  0.81462000  0.39879000  1.0 -0.4658520878
N  N136  1  0.18538000  0.86293000  0.39879000  1.0 -0.4658520878
N  N137  1  0.18538000  0.60121000  0.86293000  1.0 -0.4658520878
N  N138  1  0.60121000  0.81462000  0.86293000  1.0 -0.4658520878
N  N139  1  0.60121000  0.18538000  0.13707000  1.0 -0.4658520878
N  N140  1  0.81462000  0.60121000  0.13707000  1.0 -0.4658520878
N  N141  1  0.39879000  0.81462000  0.13707000  1.0 -0.4658520878
N  N142  1  0.18538000  0.39879000  0.13707000  1.0 -0.4658520878
N  N143  1  0.81462000  0.39879000  0.86293000  1.0 -0.4658520878
N  N144  1  0.39879000  0.18538000  0.86293000  1.0 -0.4658520878
N  N145  1  0.63427000  0.71222000  0.13078000  1.0 -0.2216214132
N  N146  1  0.71222000  0.36573000  0.13078000  1.0 -0.2216214132
N  N147  1  0.36573000  0.71222000  0.86922000  1.0 -0.2216214132
N  N148  1  0.71222000  0.13078000  0.63427000  1.0 -0.2216214132
N  N149  1  0.36573000  0.28778000  0.13078000  1.0 -0.2216214132
N  N150  1  0.71222000  0.63427000  0.86922000  1.0 -0.2216214132
N  N151  1  0.13078000  0.28778000  0.63427000  1.0 -0.2216214132
N  N152  1  0.28778000  0.63427000  0.13078000  1.0 -0.2216214132
N  N153  1  0.63427000  0.28778000  0.86922000  1.0 -0.2216214132
N  N154  1  0.28778000  0.86922000  0.63427000  1.0 -0.2216214132
N  N155  1  0.28778000  0.36573000  0.86922000  1.0 -0.2216214132
N  N156  1  0.86922000  0.71222000  0.63427000  1.0 -0.2216214132
N  N157  1  0.28778000  0.13078000  0.36573000  1.0 -0.2216214132
N  N158  1  0.86922000  0.28778000  0.36573000  1.0 -0.2216214132
N  N159  1  0.71222000  0.86922000  0.36573000  1.0 -0.2216214132
N  N160  1  0.13078000  0.71222000  0.36573000  1.0 -0.2216214132
N  N161  1  0.13078000  0.63427000  0.71222000  1.0 -0.2216214132
N  N162  1  0.63427000  0.86922000  0.71222000  1.0 -0.2216214132
N  N163  1  0.63427000  0.13078000  0.28778000  1.0 -0.2216214132
N  N164  1  0.86922000  0.63427000  0.28778000  1.0 -0.2216214132
N  N165  1  0.36573000  0.86922000  0.28778000  1.0 -0.2216214132
N  N166  1  0.13078000  0.36573000  0.28778000  1.0 -0.2216214132
N  N167  1  0.86922000  0.36573000  0.71222000  1.0 -0.2216214132
N  N168  1  0.36573000  0.13078000  0.71222000  1.0 -0.2216214132
N  N169  1  0.69725000  0.65709000  0.14561000  1.0 -0.4446923495
N  N170  1  0.65709000  0.30275000  0.14561000  1.0 -0.4446923495
N  N171  1  0.30275000  0.65709000  0.85439000  1.0 -0.4446923495
N  N172  1  0.65709000  0.14561000  0.69725000  1.0 -0.4446923495
N  N173  1  0.30275000  0.34291000  0.14561000  1.0 -0.4446923495
N  N174  1  0.65709000  0.69725000  0.85439000  1.0 -0.4446923495
N  N175  1  0.14561000  0.34291000  0.69725000  1.0 -0.4446923495
N  N176  1  0.34291000  0.69725000  0.14561000  1.0 -0.4446923495
N  N177  1  0.69725000  0.34291000  0.85439000  1.0 -0.4446923495
N  N178  1  0.34291000  0.85439000  0.69725000  1.0 -0.4446923495
N  N179  1  0.34291000  0.30275000  0.85439000  1.0 -0.4446923495
N  N180  1  0.85439000  0.65709000  0.69725000  1.0 -0.4446923495
N  N181  1  0.34291000  0.14561000  0.30275000  1.0 -0.4446923495
N  N182  1  0.85439000  0.34291000  0.30275000  1.0 -0.4446923495
N  N183  1  0.65709000  0.85439000  0.30275000  1.0 -0.4446923495
N  N184  1  0.14561000  0.65709000  0.30275000  1.0 -0.4446923495
N  N185  1  0.14561000  0.69725000  0.65709000  1.0 -0.4446923495
N  N186  1  0.69725000  0.85439000  0.65709000  1.0 -0.4446923495
N  N187  1  0.69725000  0.14561000  0.34291000  1.0 -0.4446923495
N  N188  1  0.85439000  0.69725000  0.34291000  1.0 -0.4446923495
N  N189  1  0.30275000  0.85439000  0.34291000  1.0 -0.4446923495
N  N190  1  0.14561000  0.30275000  0.34291000  1.0 -0.4446923495
N  N191  1  0.85439000  0.30275000  0.65709000  1.0 -0.4446923495
N  N192  1  0.30275000  0.14561000  0.65709000  1.0 -0.4446923495
