# DDEC6 charges by PACMAN v1.1 (https://github.com/mtap-research/PACMAN-charge/)
data_KUFVAK_ASR_pacman
_symmetry_space_group_name_H-M   'P 1'
_cell_length_a   14.46000000
_cell_length_b   13.06300000
_cell_length_c   22.05400000
_cell_angle_alpha   90.00000000
_cell_angle_beta   125.16000000
_cell_angle_gamma   90.00000000
_symmetry_Int_Tables_number   1
_chemical_formula_structural   MnH3(C2O)4
_chemical_formula_sum   'Mn8 H24 C64 O32'
_cell_volume   3405.73918036
_cell_formula_units_Z   8
loop_
 _symmetry_equiv_pos_site_id
 _symmetry_equiv_pos_as_xyz
  1  'x, y, z'
loop_
 _atom_site_type_symbol
 _atom_site_label
 _atom_site_symmetry_multiplicity
 _atom_site_fract_x
 _atom_site_fract_y
 _atom_site_fract_z
 _atom_site_occupancy
 _atom_site_charge
Mn  Mn1  1  0.77267000  0.44228000  0.27293000  1.0 0.9914984929
Mn  Mn2  1  0.22733000  0.94228000  0.22707000  1.0 0.9914984929
Mn  Mn3  1  0.22733000  0.55772000  0.72707000  1.0 0.9914984929
Mn  Mn4  1  0.77267000  0.05772000  0.77293000  1.0 0.9914984929
Mn  Mn5  1  0.70493000  0.27085000  0.13121000  1.0 1.0691635239
Mn  Mn6  1  0.29507000  0.77085000  0.36879000  1.0 1.0691635239
Mn  Mn7  1  0.29507000  0.72915000  0.86879000  1.0 1.0691635239
Mn  Mn8  1  0.70493000  0.22915000  0.63121000  1.0 1.0691635239
H  H1  1  0.71170000  0.55820000  0.01970000  1.0 0.1142595686
H  H2  1  0.28830000  0.05820000  0.48030000  1.0 0.1142595686
H  H3  1  0.28830000  0.44180000  0.98030000  1.0 0.1142595686
H  H4  1  0.71170000  0.94180000  0.51970000  1.0 0.1142595686
H  H5  1  0.91520000  0.79180000  0.05230000  1.0 0.118508451
H  H6  1  0.08480000  0.29180000  0.44770000  1.0 0.118508451
H  H7  1  0.08480000  0.20820000  0.94770000  1.0 0.118508451
H  H8  1  0.91520000  0.70820000  0.55230000  1.0 0.118508451
H  H9  1  0.99640000  0.60890000  0.22200000  1.0 0.1312625523
H  H10  1  0.00360000  0.10890000  0.27800000  1.0 0.1312625523
H  H11  1  0.00360000  0.39110000  0.77800000  1.0 0.1312625523
H  H12  1  0.99640000  0.89110000  0.72200000  1.0 0.1312625523
H  H13  1  0.57970000  0.63880000  0.92480000  1.0 0.1142595686
H  H14  1  0.42030000  0.13880000  0.57520000  1.0 0.1142595686
H  H15  1  0.42030000  0.36120000  0.07520000  1.0 0.1142595686
H  H16  1  0.57970000  0.86120000  0.42480000  1.0 0.1142595686
H  H17  1  0.51160000  0.79210000  0.74590000  1.0 0.1312625523
H  H18  1  0.48840000  0.29210000  0.75410000  1.0 0.1312625523
H  H19  1  0.48840000  0.20790000  0.25410000  1.0 0.1312625523
H  H20  1  0.51160000  0.70790000  0.24590000  1.0 0.1312625523
H  H21  1  0.81970000  0.80980000  0.93740000  1.0 0.1142595686
H  H22  1  0.18030000  0.30980000  0.56260000  1.0 0.1142595686
H  H23  1  0.18030000  0.19020000  0.06260000  1.0 0.1142595686
H  H24  1  0.81970000  0.69020000  0.43740000  1.0 0.1142595686
C  C1  1  0.81660000  0.48590000  0.15570000  1.0 0.5904274064
C  C2  1  0.18340000  0.98590000  0.34430000  1.0 0.5904274064
C  C3  1  0.18340000  0.51410000  0.84430000  1.0 0.5904274064
C  C4  1  0.81660000  0.01410000  0.65570000  1.0 0.5904274064
C  C5  1  0.84870000  0.57100000  0.12520000  1.0 -0.0205937435
C  C6  1  0.15130000  0.07100000  0.37480000  1.0 -0.0205937435
C  C7  1  0.15130000  0.42900000  0.87480000  1.0 -0.0205937435
C  C8  1  0.84870000  0.92900000  0.62520000  1.0 -0.0205937435
C  C9  1  0.77590000  0.59760000  0.05100000  1.0 -0.1381948662
C  C10  1  0.22410000  0.09760000  0.44900000  1.0 -0.1381948662
C  C11  1  0.22410000  0.40240000  0.94900000  1.0 -0.1381948662
C  C12  1  0.77590000  0.90240000  0.55100000  1.0 -0.1381948662
C  C13  1  0.79730000  0.68250000  0.02210000  1.0 0.0604310132
C  C14  1  0.20270000  0.18250000  0.47790000  1.0 0.0604310132
C  C15  1  0.20270000  0.31750000  0.97790000  1.0 0.0604310132
C  C16  1  0.79730000  0.81750000  0.52210000  1.0 0.0604310132
C  C17  1  0.89830000  0.73550000  0.07010000  1.0 -0.1336332855
C  C18  1  0.10170000  0.23550000  0.42990000  1.0 -0.1336332855
C  C19  1  0.10170000  0.26450000  0.92990000  1.0 -0.1336332855
C  C20  1  0.89830000  0.76450000  0.57010000  1.0 -0.1336332855
C  C21  1  0.97440000  0.70630000  0.14400000  1.0 -0.0205937435
C  C22  1  0.02560000  0.20630000  0.35600000  1.0 -0.0205937435
C  C23  1  0.02560000  0.29370000  0.85600000  1.0 -0.0205937435
C  C24  1  0.97440000  0.79370000  0.64400000  1.0 -0.0205937435
C  C25  1  0.08180000  0.76660000  0.19260000  1.0 0.5904274064
C  C26  1  0.91820000  0.26660000  0.30740000  1.0 0.5904274064
C  C27  1  0.91820000  0.23340000  0.80740000  1.0 0.5904274064
C  C28  1  0.08180000  0.73340000  0.69260000  1.0 0.5904274064
C  C29  1  0.94810000  0.62610000  0.17210000  1.0 -0.0962112655
C  C30  1  0.05190000  0.12610000  0.32790000  1.0 -0.0962112655
C  C31  1  0.05190000  0.37390000  0.82790000  1.0 -0.0962112655
C  C32  1  0.94810000  0.87390000  0.67210000  1.0 -0.0962112655
C  C33  1  0.71570000  0.71620000  0.94460000  1.0 0.0604310132
C  C34  1  0.28430000  0.21620000  0.55540000  1.0 0.0604310132
C  C35  1  0.28430000  0.28380000  0.05540000  1.0 0.0604310132
C  C36  1  0.71570000  0.78380000  0.44460000  1.0 0.0604310132
C  C37  1  0.60380000  0.68160000  0.90280000  1.0 -0.1500980032
C  C38  1  0.39620000  0.18160000  0.59720000  1.0 -0.1500980032
C  C39  1  0.39620000  0.31840000  0.09720000  1.0 -0.1500980032
C  C40  1  0.60380000  0.81840000  0.40280000  1.0 -0.1500980032
C  C41  1  0.52780000  0.70990000  0.82920000  1.0 -0.0257743054
C  C42  1  0.47220000  0.20990000  0.67080000  1.0 -0.0257743054
C  C43  1  0.47220000  0.29010000  0.17080000  1.0 -0.0257743054
C  C44  1  0.52780000  0.79010000  0.32920000  1.0 -0.0257743054
C  C45  1  0.41160000  0.66750000  0.78680000  1.0 0.5656734782
C  C46  1  0.58840000  0.16750000  0.71320000  1.0 0.5656734782
C  C47  1  0.58840000  0.33250000  0.21320000  1.0 0.5656734782
C  C48  1  0.41160000  0.83250000  0.28680000  1.0 0.5656734782
C  C49  1  0.56150000  0.77520000  0.79580000  1.0 -0.0894532872
C  C50  1  0.43850000  0.27520000  0.70420000  1.0 -0.0894532872
C  C51  1  0.43850000  0.22480000  0.20420000  1.0 -0.0894532872
C  C52  1  0.56150000  0.72480000  0.29580000  1.0 -0.0894532872
C  C53  1  0.67080000  0.81570000  0.83770000  1.0 -0.0205937435
C  C54  1  0.32920000  0.31570000  0.66230000  1.0 -0.0205937435
C  C55  1  0.32920000  0.18430000  0.16230000  1.0 -0.0205937435
C  C56  1  0.67080000  0.68430000  0.33770000  1.0 -0.0205937435
C  C57  1  0.70490000  0.89620000  0.80610000  1.0 0.5340504178
C  C58  1  0.29510000  0.39620000  0.69390000  1.0 0.5340504178
C  C59  1  0.29510000  0.10380000  0.19390000  1.0 0.5353512692
C  C60  1  0.70490000  0.60380000  0.30610000  1.0 0.5340504178
C  C61  1  0.74620000  0.78440000  0.91040000  1.0 -0.1336332855
C  C62  1  0.25380000  0.28440000  0.58960000  1.0 -0.1336332855
C  C63  1  0.25380000  0.21560000  0.08960000  1.0 -0.1336332855
C  C64  1  0.74620000  0.71560000  0.41040000  1.0 -0.1336332855
O  O1  1  0.76320000  0.41090000  0.11455000  1.0 -0.5732114685
O  O2  1  0.23680000  0.91090000  0.38545000  1.0 -0.5732114685
O  O3  1  0.23680000  0.58910000  0.88545000  1.0 -0.5732114685
O  O4  1  0.76320000  0.08910000  0.61455000  1.0 -0.5732114685
O  O5  1  0.84480000  0.49790000  0.22070000  1.0 -0.5312453431
O  O6  1  0.15520000  0.99790000  0.27930000  1.0 -0.5312453431
O  O7  1  0.15520000  0.50210000  0.77930000  1.0 -0.5312453431
O  O8  1  0.84480000  0.00210000  0.72070000  1.0 -0.5312453431
O  O9  1  0.14670000  0.74060000  0.25856000  1.0 -0.579110868
O  O10  1  0.85330000  0.24060000  0.24144000  1.0 -0.579110868
O  O11  1  0.85330000  0.25940000  0.74144000  1.0 -0.579110868
O  O12  1  0.14670000  0.75940000  0.75856000  1.0 -0.579110868
O  O13  1  0.09710000  0.84000000  0.16240000  1.0 -0.5211032999
O  O14  1  0.90290000  0.34000000  0.33760000  1.0 -0.5211032999
O  O15  1  0.90290000  0.16000000  0.83760000  1.0 -0.5211032999
O  O16  1  0.09710000  0.66000000  0.66240000  1.0 -0.5211032999
O  O17  1  0.79700000  0.94310000  0.85024000  1.0 -0.5312453431
O  O18  1  0.20300000  0.44310000  0.64976000  1.0 -0.5312453431
O  O19  1  0.20300000  0.05690000  0.14976000  1.0 -0.5312453431
O  O20  1  0.79700000  0.55690000  0.35024000  1.0 -0.5312453431
O  O21  1  0.64310000  0.91820000  0.73892000  1.0 -0.5312453431
O  O22  1  0.35690000  0.41820000  0.76108000  1.0 -0.5312453431
O  O23  1  0.35690000  0.08180000  0.26108000  1.0 -0.5312453431
O  O24  1  0.64310000  0.58180000  0.23892000  1.0 -0.5312453431
O  O25  1  0.35590000  0.65650000  0.71820000  1.0 -0.4853790176
O  O26  1  0.64410000  0.15650000  0.78180000  1.0 -0.4840186509
O  O27  1  0.64410000  0.34350000  0.28180000  1.0 -0.4840186509
O  O28  1  0.35590000  0.84350000  0.21820000  1.0 -0.4840186509
O  O29  1  0.37130000  0.63790000  0.82272000  1.0 -0.6059402895
O  O30  1  0.62870000  0.13790000  0.67728000  1.0 -0.6059402895
O  O31  1  0.62870000  0.36210000  0.17728000  1.0 -0.6059402895
O  O32  1  0.37130000  0.86210000  0.32272000  1.0 -0.6059402895
