# DDEC6 charges by PACMAN v1.1 (https://github.com/mtap-research/PACMAN-charge/)
data_KUJJUX_ASR_pacman
_symmetry_space_group_name_H-M   'P 1'
_cell_length_a   16.13300000
_cell_length_b   19.04700000
_cell_length_c   19.97100000
_cell_angle_alpha   91.20000000
_cell_angle_beta   98.25000000
_cell_angle_gamma   89.84000000
_symmetry_Int_Tables_number   1
_chemical_formula_structural   Zn4H83C104N23O16
_chemical_formula_sum   'Zn8 H166 C208 N46 O32'
_cell_volume   6071.95433086
_cell_formula_units_Z   2
loop_
 _symmetry_equiv_pos_site_id
 _symmetry_equiv_pos_as_xyz
  1  'x, y, z'
loop_
 _atom_site_type_symbol
 _atom_site_label
 _atom_site_symmetry_multiplicity
 _atom_site_fract_x
 _atom_site_fract_y
 _atom_site_fract_z
 _atom_site_occupancy
 _atom_site_charge
Zn  Zn1  1  0.15860000  0.94690000  0.68324000  1.0 0.8002159314
Zn  Zn2  1  0.35242000  0.05788000  0.66305000  1.0 0.805366786
Zn  Zn3  1  0.85223000  0.44744000  0.66316000  1.0 0.8002159314
Zn  Zn4  1  0.65997000  0.55772000  0.68358000  1.0 0.7939619141
Zn  Zn5  1  0.84140000  0.05310000  0.31676000  1.0 0.8002159314
Zn  Zn6  1  0.64758000  0.94212000  0.33695000  1.0 0.805366786
Zn  Zn7  1  0.14777000  0.55256000  0.33684000  1.0 0.8002159314
Zn  Zn8  1  0.34003000  0.44228000  0.31642000  1.0 0.7939619141
H  H1  1  0.26620000  0.28550000  0.65350000  1.0 0.1683846859
H  H2  1  0.28060000  0.20640000  0.65590000  1.0 0.2199103675
H  H3  1  0.24340000  0.72120000  0.68860000  1.0 0.1683846859
H  H4  1  0.23150000  0.80060000  0.68790000  1.0 0.2199103675
H  H5  1  0.62270000  0.11380000  0.64010000  1.0 0.2006363215
H  H6  1  0.70510000  0.15330000  0.64230000  1.0 0.1614740843
H  H7  1  0.73380000  0.70790000  0.69200000  1.0 0.299705209
H  H8  1  0.74820000  0.78700000  0.69180000  1.0 0.2860020267
H  H9  1  0.93620000  0.22820000  0.68850000  1.0 0.1212849193
H  H10  1  0.01140000  0.12560000  0.68820000  1.0 0.1212849193
H  H11  1  0.36670000  0.66750000  0.68630000  1.0 0.0463174012
H  H12  1  0.58080000  0.77740000  0.68020000  1.0 0.1212849193
H  H13  1  0.50700000  0.88030000  0.67870000  1.0 0.1212849193
H  H14  1  0.29440000  0.15520000  0.77120000  1.0 0.1107727259
H  H15  1  0.28880000  0.16400000  0.88460000  1.0 0.1306798872
H  H16  1  0.39680000  0.97890000  0.91300000  1.0 0.1397270616
H  H17  1  0.41200000  0.97400000  0.79820000  1.0 0.1107727259
H  H18  1  0.29710000  0.13670000  0.99920000  1.0 0.0994202519
H  H19  1  0.24100000  0.13220000  0.08220000  1.0 0.1212849193
H  H20  1  0.23820000  0.15690000  0.19920000  1.0 0.1306798872
H  H21  1  0.40690000  0.00280000  0.23620000  1.0 0.1306798872
H  H22  1  0.42920000  0.00180000  0.12550000  1.0 0.1306798872
H  H23  1  0.37440000  0.00600000  0.32530000  1.0 0.0994202519
H  H24  1  0.27330000  0.13840000  0.41970000  1.0 0.1397270616
H  H25  1  0.27650000  0.13720000  0.53570000  1.0 0.1107727259
H  H26  1  0.41630000  0.96990000  0.54990000  1.0 0.1107727259
H  H27  1  0.41480000  0.96540000  0.43400000  1.0 0.1397270616
H  H28  1  0.08470000  0.03130000  0.55770000  1.0 0.1107727259
H  H29  1  0.07650000  0.03380000  0.44210000  1.0 0.1397270616
H  H30  1  0.21430000  0.85480000  0.45040000  1.0 0.1397270616
H  H31  1  0.21740000  0.85980000  0.56670000  1.0 0.1107727259
H  H32  1  0.10870000  0.98470000  0.33640000  1.0 0.0994202519
H  H33  1  0.08230000  0.99350000  0.24460000  1.0 0.1306798872
H  H34  1  0.07020000  0.00030000  0.12360000  1.0 0.1212849193
H  H35  1  0.22980000  0.84640000  0.12150000  1.0 0.1212849193
H  H36  1  0.24260000  0.83510000  0.23710000  1.0 0.1212849193
H  H37  1  0.22290000  0.88340000  0.02780000  1.0 0.0994202519
H  H38  1  0.10480000  0.02310000  0.92500000  1.0 0.1397270616
H  H39  1  0.09880000  0.03190000  0.80610000  1.0 0.1107727259
H  H40  1  0.23720000  0.86090000  0.80330000  1.0 0.1107727259
H  H41  1  0.24710000  0.85390000  0.91920000  1.0 0.1306798872
H  H42  1  0.51310000  0.38100000  0.68860000  1.0 0.1212849193
H  H43  1  0.43550000  0.27820000  0.68770000  1.0 0.1212849193
H  H44  1  0.77540000  0.36300000  0.53470000  1.0 0.1107727259
H  H45  1  0.77190000  0.35890000  0.41790000  1.0 0.1397270616
H  H46  1  0.91490000  0.53140000  0.43520000  1.0 0.1306798872
H  H47  1  0.91480000  0.53120000  0.55040000  1.0 0.1107727259
H  H48  1  0.87970000  0.48440000  0.32350000  1.0 0.0994202519
H  H49  1  0.74960000  0.32300000  0.20310000  1.0 0.1306798872
H  H50  1  0.76130000  0.32100000  0.08690000  1.0 0.1212849193
H  H51  1  0.88670000  0.50430000  0.11360000  1.0 0.1107727259
H  H52  1  0.88770000  0.49940000  0.23110000  1.0 0.1306798872
H  H53  1  0.89520000  0.48730000  0.01740000  1.0 0.0787193556
H  H54  1  0.79450000  0.35760000  0.89200000  1.0 0.1397270616
H  H55  1  0.79520000  0.36070000  0.77580000  1.0 0.1107727259
H  H56  1  0.92800000  0.53210000  0.79530000  1.0 0.1107727259
H  H57  1  0.92810000  0.53630000  0.91200000  1.0 0.1306798872
H  H58  1  0.71930000  0.64290000  0.56800000  1.0 0.1107727259
H  H59  1  0.71460000  0.64500000  0.45150000  1.0 0.1306798872
H  H60  1  0.57460000  0.46730000  0.44200000  1.0 0.1397270616
H  H61  1  0.58810000  0.46960000  0.55780000  1.0 0.1107727259
H  H62  1  0.60310000  0.51370000  0.33510000  1.0 0.0994202519
H  H63  1  0.70800000  0.67760000  0.23810000  1.0 0.1212849193
H  H64  1  0.69880000  0.66870000  0.12190000  1.0 0.1107727259
H  H65  1  0.61080000  0.47290000  0.12680000  1.0 0.1212849193
H  H66  1  0.60780000  0.48870000  0.24540000  1.0 0.1306798872
H  H67  1  0.72130000  0.60900000  0.03430000  1.0 0.0994202519
H  H68  1  0.75210000  0.64680000  0.92400000  1.0 0.1306798872
H  H69  1  0.74890000  0.63510000  0.80860000  1.0 0.1107727259
H  H70  1  0.58200000  0.48670000  0.79770000  1.0 0.1107727259
H  H71  1  0.59340000  0.48660000  0.92010000  1.0 0.149045931
H  H72  1  0.86650000  0.84100000  0.68720000  1.0 0.1306798872
H  H73  1  0.08110000  0.72760000  0.68430000  1.0 0.1212849193
H  H74  1  0.00670000  0.62480000  0.68230000  1.0 0.1107727259
H  H75  1  0.20340000  0.35120000  0.64020000  1.0 0.2644752579
H  H76  1  0.12350000  0.39120000  0.64880000  1.0 0.3070321472
H  H77  1  0.30170000  0.64960000  0.69310000  1.0 0.149045931
H  H78  1  0.38330000  0.61000000  0.68970000  1.0 0.2199103675
H  H79  1  0.76730000  0.21910000  0.65690000  1.0 0.271519752
H  H80  1  0.77980000  0.29850000  0.65940000  1.0 0.3070321472
H  H81  1  0.21910000  0.23270000  0.65470000  1.0 0.0907452749
H  H82  1  0.29350000  0.77150000  0.68660000  1.0 0.0907452749
H  H83  1  0.64200000  0.16580000  0.65770000  1.0 0.0274072241
H  H84  1  0.73380000  0.71450000  0.34650000  1.0 0.1683846859
H  H85  1  0.71940000  0.79360000  0.34410000  1.0 0.2199103675
H  H86  1  0.75660000  0.27880000  0.31140000  1.0 0.1683846859
H  H87  1  0.76850000  0.19940000  0.31210000  1.0 0.2199103675
H  H88  1  0.37730000  0.88620000  0.35990000  1.0 0.2006363215
H  H89  1  0.29490000  0.84670000  0.35770000  1.0 0.1614740843
H  H90  1  0.26620000  0.29210000  0.30800000  1.0 0.299705209
H  H91  1  0.25180000  0.21300000  0.30820000  1.0 0.2860020267
H  H92  1  0.06380000  0.77180000  0.31150000  1.0 0.1212849193
H  H93  1  0.98860000  0.87440000  0.31180000  1.0 0.1212849193
H  H94  1  0.63330000  0.33250000  0.31370000  1.0 0.0463174012
H  H95  1  0.41920000  0.22260000  0.31980000  1.0 0.1212849193
H  H96  1  0.49300000  0.11970000  0.32130000  1.0 0.1212849193
H  H97  1  0.70560000  0.84480000  0.22880000  1.0 0.1107727259
H  H98  1  0.71120000  0.83600000  0.11540000  1.0 0.1306798872
H  H99  1  0.60320000  0.02110000  0.08700000  1.0 0.1397270616
H  H100  1  0.58800000  0.02600000  0.20180000  1.0 0.1107727259
H  H101  1  0.70290000  0.86330000  0.00080000  1.0 0.0994202519
H  H102  1  0.75900000  0.86780000  0.91780000  1.0 0.1212849193
H  H103  1  0.76180000  0.84310000  0.80080000  1.0 0.1306798872
H  H104  1  0.59310000  0.99720000  0.76380000  1.0 0.1306798872
H  H105  1  0.57080000  0.99820000  0.87450000  1.0 0.1306798872
H  H106  1  0.62560000  0.99400000  0.67470000  1.0 0.0994202519
H  H107  1  0.72670000  0.86160000  0.58030000  1.0 0.1397270616
H  H108  1  0.72350000  0.86280000  0.46430000  1.0 0.1107727259
H  H109  1  0.58370000  0.03010000  0.45010000  1.0 0.1107727259
H  H110  1  0.58520000  0.03460000  0.56600000  1.0 0.1397270616
H  H111  1  0.91530000  0.96870000  0.44230000  1.0 0.1107727259
H  H112  1  0.92350000  0.96620000  0.55790000  1.0 0.1397270616
H  H113  1  0.78570000  0.14520000  0.54960000  1.0 0.1397270616
H  H114  1  0.78260000  0.14020000  0.43330000  1.0 0.1107727259
H  H115  1  0.89130000  0.01530000  0.66360000  1.0 0.0994202519
H  H116  1  0.91770000  0.00650000  0.75540000  1.0 0.1306798872
H  H117  1  0.92980000  0.99970000  0.87640000  1.0 0.1212849193
H  H118  1  0.77020000  0.15360000  0.87850000  1.0 0.1212849193
H  H119  1  0.75740000  0.16490000  0.76290000  1.0 0.1212849193
H  H120  1  0.77710000  0.11660000  0.97220000  1.0 0.0994202519
H  H121  1  0.89520000  0.97690000  0.07500000  1.0 0.1397270616
H  H122  1  0.90120000  0.96810000  0.19390000  1.0 0.1107727259
H  H123  1  0.76280000  0.13910000  0.19670000  1.0 0.1107727259
H  H124  1  0.75290000  0.14610000  0.08080000  1.0 0.1306798872
H  H125  1  0.48690000  0.61900000  0.31140000  1.0 0.1212849193
H  H126  1  0.56450000  0.72180000  0.31230000  1.0 0.1212849193
H  H127  1  0.22460000  0.63700000  0.46530000  1.0 0.1107727259
H  H128  1  0.22810000  0.64110000  0.58210000  1.0 0.1397270616
H  H129  1  0.08510000  0.46860000  0.56480000  1.0 0.1397270616
H  H130  1  0.08520000  0.46880000  0.44960000  1.0 0.1107727259
H  H131  1  0.12030000  0.51560000  0.67650000  1.0 0.0994202519
H  H132  1  0.25040000  0.67700000  0.79690000  1.0 0.1306798872
H  H133  1  0.23870000  0.67900000  0.91310000  1.0 0.1212849193
H  H134  1  0.11330000  0.49570000  0.88640000  1.0 0.1107727259
H  H135  1  0.11230000  0.50060000  0.76890000  1.0 0.1306798872
H  H136  1  0.10480000  0.51270000  0.98260000  1.0 0.0787193556
H  H137  1  0.20550000  0.64240000  0.10800000  1.0 0.1397270616
H  H138  1  0.20480000  0.63930000  0.22420000  1.0 0.1107727259
H  H139  1  0.07200000  0.46790000  0.20470000  1.0 0.1107727259
H  H140  1  0.07190000  0.46370000  0.08800000  1.0 0.1306798872
H  H141  1  0.28070000  0.35710000  0.43200000  1.0 0.1107727259
H  H142  1  0.28540000  0.35500000  0.54850000  1.0 0.1306798872
H  H143  1  0.42540000  0.53270000  0.55800000  1.0 0.1397270616
H  H144  1  0.41190000  0.53040000  0.44220000  1.0 0.1107727259
H  H145  1  0.39690000  0.48630000  0.66490000  1.0 0.0994202519
H  H146  1  0.29200000  0.32240000  0.76190000  1.0 0.1212849193
H  H147  1  0.30120000  0.33130000  0.87810000  1.0 0.1107727259
H  H148  1  0.38920000  0.52710000  0.87320000  1.0 0.1212849193
H  H149  1  0.39220000  0.51130000  0.75460000  1.0 0.1306798872
H  H150  1  0.27870000  0.39100000  0.96570000  1.0 0.0994202519
H  H151  1  0.24790000  0.35320000  0.07600000  1.0 0.1306798872
H  H152  1  0.25110000  0.36490000  0.19140000  1.0 0.1107727259
H  H153  1  0.41800000  0.51330000  0.20230000  1.0 0.1107727259
H  H154  1  0.40660000  0.51340000  0.07990000  1.0 0.149045931
H  H155  1  0.13350000  0.15900000  0.31280000  1.0 0.1306798872
H  H156  1  0.91890000  0.27240000  0.31570000  1.0 0.1212849193
H  H157  1  0.99330000  0.37520000  0.31770000  1.0 0.1107727259
H  H158  1  0.79660000  0.64880000  0.35980000  1.0 0.2644752579
H  H159  1  0.87650000  0.60880000  0.35120000  1.0 0.3070321472
H  H160  1  0.69830000  0.35040000  0.30690000  1.0 0.149045931
H  H161  1  0.61670000  0.39000000  0.31030000  1.0 0.2199103675
H  H162  1  0.23270000  0.78090000  0.34310000  1.0 0.271519752
H  H163  1  0.22020000  0.70150000  0.34060000  1.0 0.3070321472
H  H164  1  0.78090000  0.76730000  0.34530000  1.0 0.0907452749
H  H165  1  0.70650000  0.22850000  0.31340000  1.0 0.0907452749
H  H166  1  0.35800000  0.83420000  0.34230000  1.0 0.0274072241
C  C1  1  0.16550000  0.10090000  0.66990000  1.0 0.5600599961
C  C2  1  0.12140000  0.16810000  0.67240000  1.0 -0.1205507739
C  C3  1  0.16210000  0.23230000  0.66170000  1.0 0.0274072241
C  C4  1  0.11670000  0.29410000  0.66180000  1.0 0.2123706655
C  C5  1  0.03230000  0.29390000  0.67150000  1.0 -0.1379161051
C  C6  1  0.99330000  0.22930000  0.68170000  1.0 -0.1205507739
C  C7  1  0.03810000  0.16880000  0.68170000  1.0 -0.1140080487
C  C8  1  0.98130000  0.36040000  0.66950000  1.0 0.5600599961
C  C9  1  0.34700000  0.90590000  0.68090000  1.0 0.5600599961
C  C10  1  0.39190000  0.83790000  0.68410000  1.0 -0.1205507739
C  C11  1  0.35210000  0.77280000  0.68550000  1.0 0.0621128665
C  C12  1  0.39530000  0.71090000  0.68520000  1.0 0.0994202519
C  C13  1  0.48200000  0.71140000  0.68340000  1.0 -0.092532104
C  C14  1  0.52220000  0.77610000  0.68140000  1.0 -0.1205507739
C  C15  1  0.47840000  0.83710000  0.68100000  1.0 -0.1140080487
C  C16  1  0.53180000  0.64570000  0.68100000  1.0 0.5411521114
C  C17  1  0.31730000  0.11850000  0.79960000  1.0 0.0787193556
C  C18  1  0.31350000  0.12310000  0.86780000  1.0 -0.2198220649
C  C19  1  0.34280000  0.07320000  0.91310000  1.0 0.0787193556
C  C20  1  0.37700000  0.01690000  0.88510000  1.0 -0.1895449294
C  C21  1  0.38420000  0.01310000  0.81520000  1.0 0.0907452749
C  C22  1  0.32360000  0.09530000  0.98560000  1.0 0.0787193556
C  C23  1  0.33520000  0.06380000  0.09330000  1.0 0.1212849193
C  C24  1  0.27870000  0.10840000  0.11500000  1.0 -0.1983019857
C  C25  1  0.27320000  0.12110000  0.18480000  1.0 -0.1614961265
C  C26  1  0.32070000  0.07940000  0.22980000  1.0 0.1869838255
C  C27  1  0.37500000  0.03340000  0.20540000  1.0 -0.1697797803
C  C28  1  0.38520000  0.02960000  0.13900000  1.0 -0.1477326119
C  C29  1  0.34630000  0.04520000  0.34180000  1.0 0.0621128665
C  C30  1  0.34370000  0.05140000  0.41370000  1.0 0.1107727259
C  C31  1  0.30300000  0.10240000  0.44520000  1.0 -0.1808974428
C  C32  1  0.30550000  0.10120000  0.51490000  1.0 0.0787193556
C  C33  1  0.38580000  0.00460000  0.52320000  1.0 0.0621128665
C  C34  1  0.38560000  0.00190000  0.45380000  1.0 -0.1895449294
C  C35  1  0.11180000  0.99510000  0.53550000  1.0 0.0621128665
C  C36  1  0.10600000  0.99700000  0.46660000  1.0 -0.1895449294
C  C37  1  0.14410000  0.94430000  0.43340000  1.0 0.1212849193
C  C38  1  0.18710000  0.89180000  0.47120000  1.0 -0.1808974428
C  C39  1  0.18850000  0.89590000  0.54070000  1.0 0.0787193556
C  C40  1  0.13920000  0.94720000  0.35890000  1.0 0.0687773363
C  C41  1  0.16410000  0.91250000  0.25270000  1.0 0.1683846859
C  C42  1  0.11350000  0.96250000  0.22000000  1.0 -0.1697797803
C  C43  1  0.10800000  0.96770000  0.14680000  1.0 -0.1614961265
C  C44  1  0.15340000  0.92870000  0.11290000  1.0 0.149045931
C  C45  1  0.20010000  0.87820000  0.14670000  1.0 -0.1983019857
C  C46  1  0.20720000  0.87040000  0.21580000  1.0 -0.1477326119
C  C47  1  0.18390000  0.91720000  0.00820000  1.0 0.0787193556
C  C48  1  0.17550000  0.93390000  0.93220000  1.0 0.0787193556
C  C49  1  0.13190000  0.98920000  0.90010000  1.0 -0.1983019857
C  C50  1  0.12860000  0.99420000  0.82900000  1.0 0.1107727259
C  C51  1  0.20950000  0.89500000  0.82760000  1.0 0.0687773363
C  C52  1  0.21430000  0.89020000  0.89670000  1.0 -0.1808974428
C  C53  1  0.48140000  0.14470000  0.66920000  1.0 0.5411521114
C  C54  1  0.61590000  0.20990000  0.66330000  1.0 0.1212849193
C  C55  1  0.66360000  0.27110000  0.66350000  1.0 0.1614740843
C  C56  1  0.62300000  0.33570000  0.67280000  1.0 -0.1477326119
C  C57  1  0.53910000  0.33710000  0.68180000  1.0 -0.1205507739
C  C58  1  0.49260000  0.27630000  0.68120000  1.0 -0.1379161051
C  C59  1  0.53130000  0.21120000  0.67090000  1.0 -0.1044508351
C  C60  1  0.66650000  0.40360000  0.67030000  1.0 0.5692514496
C  C61  1  0.80430000  0.39800000  0.51400000  1.0 0.0687773363
C  C62  1  0.80220000  0.39520000  0.44400000  1.0 -0.1808974428
C  C63  1  0.84420000  0.44520000  0.41260000  1.0 0.1107727259
C  C64  1  0.88540000  0.49550000  0.45420000  1.0 -0.2096909771
C  C65  1  0.88490000  0.49530000  0.52340000  1.0 0.0907452749
C  C66  1  0.84870000  0.44790000  0.34000000  1.0 0.0687773363
C  C67  1  0.82160000  0.40940000  0.22770000  1.0 0.1763443963
C  C68  1  0.78100000  0.35830000  0.18510000  1.0 -0.1614961265
C  C69  1  0.78550000  0.35820000  0.11550000  1.0 -0.1614961265
C  C70  1  0.82560000  0.41290000  0.08920000  1.0 0.1869838255
C  C71  1  0.86130000  0.46560000  0.13200000  1.0 -0.1895449294
C  C72  1  0.86090000  0.46350000  0.20210000  1.0 -0.1697797803
C  C73  1  0.86340000  0.45220000  0.99070000  1.0 0.0463174012
C  C74  1  0.85870000  0.44870000  0.91480000  1.0 0.1107727259
C  C75  1  0.82110000  0.39540000  0.87330000  1.0 -0.1895449294
C  C76  1  0.82260000  0.39740000  0.80340000  1.0 0.0994202519
C  C77  1  0.89870000  0.49650000  0.81500000  1.0 0.0787193556
C  C78  1  0.89950000  0.49950000  0.88540000  1.0 -0.2096909771
C  C79  1  0.69030000  0.60630000  0.54150000  1.0 0.0687773363
C  C80  1  0.68780000  0.60870000  0.47220000  1.0 -0.1895449294
C  C81  1  0.64320000  0.55410000  0.43330000  1.0 0.1212849193
C  C82  1  0.60600000  0.50390000  0.46690000  1.0 -0.1895449294
C  C83  1  0.61360000  0.50590000  0.53600000  1.0 0.0787193556
C  C84  1  0.63620000  0.55000000  0.35880000  1.0 0.0621128665
C  C85  1  0.66250000  0.58340000  0.25420000  1.0 0.1763443963
C  C86  1  0.68650000  0.63550000  0.21590000  1.0 -0.1614961265
C  C87  1  0.68140000  0.63070000  0.14660000  1.0 -0.1895449294
C  C88  1  0.65050000  0.56960000  0.11300000  1.0 0.1683846859
C  C89  1  0.62790000  0.51620000  0.14880000  1.0 -0.1697797803
C  C90  1  0.62980000  0.52470000  0.22080000  1.0 -0.1808974428
C  C91  1  0.67960000  0.57840000  0.01130000  1.0 0.0787193556
C  C92  1  0.67500000  0.57020000  0.93290000  1.0 0.0907452749
C  C93  1  0.71790000  0.61150000  0.89990000  1.0 -0.1895449294
C  C94  1  0.71480000  0.60510000  0.83050000  1.0 0.0787193556
C  C95  1  0.61980000  0.51810000  0.82410000  1.0 0.1107727259
C  C96  1  0.62390000  0.51910000  0.89770000  1.0 -0.1983019857
C  C97  1  0.84680000  0.60110000  0.68300000  1.0 0.5753957348
C  C98  1  0.89160000  0.66880000  0.68600000  1.0 -0.1697797803
C  C99  1  0.85120000  0.73250000  0.68770000  1.0 0.2860020267
C  C100  1  0.89480000  0.79730000  0.68630000  1.0 -0.2719789727
C  C101  1  0.98210000  0.79370000  0.68370000  1.0 0.0166964678
C  C102  1  0.02210000  0.72930000  0.68400000  1.0 -0.1477326119
C  C103  1  0.97820000  0.66840000  0.68390000  1.0 -0.092532104
C  C104  1  0.03030000  0.86040000  0.68090000  1.0 0.5411521114
C  C105  1  0.83450000  0.89910000  0.33010000  1.0 0.5600599961
C  C106  1  0.87860000  0.83190000  0.32760000  1.0 -0.1205507739
C  C107  1  0.83790000  0.76770000  0.33830000  1.0 0.0274072241
C  C108  1  0.88330000  0.70590000  0.33820000  1.0 0.2123706655
C  C109  1  0.96770000  0.70610000  0.32850000  1.0 -0.1379161051
C  C110  1  0.00670000  0.77070000  0.31830000  1.0 -0.1205507739
C  C111  1  0.96190000  0.83120000  0.31830000  1.0 -0.1140080487
C  C112  1  0.01870000  0.63960000  0.33050000  1.0 0.5600599961
C  C113  1  0.65300000  0.09410000  0.31910000  1.0 0.5600599961
C  C114  1  0.60810000  0.16210000  0.31590000  1.0 -0.1205507739
C  C115  1  0.64790000  0.22720000  0.31450000  1.0 0.0621128665
C  C116  1  0.60470000  0.28910000  0.31480000  1.0 0.0994202519
C  C117  1  0.51800000  0.28860000  0.31660000  1.0 -0.092532104
C  C118  1  0.47780000  0.22390000  0.31860000  1.0 -0.1205507739
C  C119  1  0.52160000  0.16290000  0.31900000  1.0 -0.1140080487
C  C120  1  0.46820000  0.35430000  0.31900000  1.0 0.5411521114
C  C121  1  0.68270000  0.88150000  0.20040000  1.0 0.0787193556
C  C122  1  0.68650000  0.87690000  0.13220000  1.0 -0.2198220649
C  C123  1  0.65720000  0.92680000  0.08690000  1.0 0.0787193556
C  C124  1  0.62300000  0.98310000  0.11490000  1.0 -0.1895449294
C  C125  1  0.61580000  0.98690000  0.18480000  1.0 0.0907452749
C  C126  1  0.67640000  0.90470000  0.01440000  1.0 0.0787193556
C  C127  1  0.66480000  0.93620000  0.90670000  1.0 0.1212849193
C  C128  1  0.72130000  0.89160000  0.88500000  1.0 -0.1983019857
C  C129  1  0.72680000  0.87890000  0.81520000  1.0 -0.1614961265
C  C130  1  0.67930000  0.92060000  0.77020000  1.0 0.1869838255
C  C131  1  0.62500000  0.96660000  0.79460000  1.0 -0.1697797803
C  C132  1  0.61480000  0.97040000  0.86100000  1.0 -0.1477326119
C  C133  1  0.65370000  0.95480000  0.65820000  1.0 0.0621128665
C  C134  1  0.65630000  0.94860000  0.58630000  1.0 0.1107727259
C  C135  1  0.69700000  0.89760000  0.55480000  1.0 -0.1808974428
C  C136  1  0.69450000  0.89880000  0.48510000  1.0 0.0787193556
C  C137  1  0.61420000  0.99540000  0.47680000  1.0 0.0621128665
C  C138  1  0.61440000  0.99810000  0.54620000  1.0 -0.1895449294
C  C139  1  0.88820000  0.00490000  0.46450000  1.0 0.0621128665
C  C140  1  0.89400000  0.00300000  0.53340000  1.0 -0.1895449294
C  C141  1  0.85590000  0.05570000  0.56660000  1.0 0.1212849193
C  C142  1  0.81290000  0.10820000  0.52880000  1.0 -0.1808974428
C  C143  1  0.81150000  0.10410000  0.45930000  1.0 0.0787193556
C  C144  1  0.86080000  0.05280000  0.64110000  1.0 0.0687773363
C  C145  1  0.83590000  0.08750000  0.74730000  1.0 0.1683846859
C  C146  1  0.88650000  0.03750000  0.78000000  1.0 -0.1697797803
C  C147  1  0.89200000  0.03230000  0.85320000  1.0 -0.1614961265
C  C148  1  0.84660000  0.07130000  0.88710000  1.0 0.149045931
C  C149  1  0.79990000  0.12180000  0.85330000  1.0 -0.1983019857
C  C150  1  0.79280000  0.12960000  0.78420000  1.0 -0.1477326119
C  C151  1  0.81610000  0.08280000  0.99180000  1.0 0.0787193556
C  C152  1  0.82450000  0.06610000  0.06780000  1.0 0.0787193556
C  C153  1  0.86810000  0.01080000  0.09990000  1.0 -0.1983019857
C  C154  1  0.87140000  0.00580000  0.17100000  1.0 0.1107727259
C  C155  1  0.79050000  0.10500000  0.17240000  1.0 0.0687773363
C  C156  1  0.78570000  0.10980000  0.10330000  1.0 -0.1808974428
C  C157  1  0.51860000  0.85530000  0.33080000  1.0 0.5411521114
C  C158  1  0.38410000  0.79010000  0.33670000  1.0 0.1212849193
C  C159  1  0.33640000  0.72890000  0.33650000  1.0 0.1614740843
C  C160  1  0.37700000  0.66430000  0.32720000  1.0 -0.1477326119
C  C161  1  0.46090000  0.66290000  0.31820000  1.0 -0.1205507739
C  C162  1  0.50740000  0.72370000  0.31880000  1.0 -0.1379161051
C  C163  1  0.46870000  0.78880000  0.32910000  1.0 -0.1044508351
C  C164  1  0.33350000  0.59640000  0.32970000  1.0 0.5692514496
C  C165  1  0.19570000  0.60200000  0.48600000  1.0 0.0687773363
C  C166  1  0.19780000  0.60480000  0.55600000  1.0 -0.1808974428
C  C167  1  0.15580000  0.55480000  0.58740000  1.0 0.1107727259
C  C168  1  0.11460000  0.50450000  0.54580000  1.0 -0.2096909771
C  C169  1  0.11510000  0.50470000  0.47660000  1.0 0.0907452749
C  C170  1  0.15130000  0.55210000  0.66000000  1.0 0.0687773363
C  C171  1  0.17840000  0.59060000  0.77230000  1.0 0.1763443963
C  C172  1  0.21900000  0.64170000  0.81490000  1.0 -0.1614961265
C  C173  1  0.21450000  0.64180000  0.88450000  1.0 -0.1614961265
C  C174  1  0.17440000  0.58710000  0.91080000  1.0 0.1869838255
C  C175  1  0.13870000  0.53440000  0.86800000  1.0 -0.1895449294
C  C176  1  0.13910000  0.53650000  0.79790000  1.0 -0.1697797803
C  C177  1  0.13660000  0.54780000  0.00930000  1.0 0.0463174012
C  C178  1  0.14130000  0.55130000  0.08520000  1.0 0.1107727259
C  C179  1  0.17890000  0.60460000  0.12670000  1.0 -0.1895449294
C  C180  1  0.17740000  0.60260000  0.19660000  1.0 0.0994202519
C  C181  1  0.10130000  0.50350000  0.18500000  1.0 0.0787193556
C  C182  1  0.10050000  0.50050000  0.11460000  1.0 -0.2096909771
C  C183  1  0.30970000  0.39370000  0.45850000  1.0 0.0687773363
C  C184  1  0.31220000  0.39130000  0.52780000  1.0 -0.1895449294
C  C185  1  0.35680000  0.44590000  0.56670000  1.0 0.1212849193
C  C186  1  0.39400000  0.49610000  0.53310000  1.0 -0.1895449294
C  C187  1  0.38640000  0.49410000  0.46400000  1.0 0.0787193556
C  C188  1  0.36380000  0.45000000  0.64120000  1.0 0.0621128665
C  C189  1  0.33750000  0.41660000  0.74580000  1.0 0.1763443963
C  C190  1  0.31350000  0.36450000  0.78410000  1.0 -0.1614961265
C  C191  1  0.31860000  0.36930000  0.85340000  1.0 -0.1895449294
C  C192  1  0.34950000  0.43040000  0.88700000  1.0 0.1683846859
C  C193  1  0.37210000  0.48380000  0.85120000  1.0 -0.1697797803
C  C194  1  0.37020000  0.47530000  0.77920000  1.0 -0.1808974428
C  C195  1  0.32040000  0.42160000  0.98870000  1.0 0.0787193556
C  C196  1  0.32500000  0.42980000  0.06710000  1.0 0.0907452749
C  C197  1  0.28210000  0.38850000  0.10010000  1.0 -0.1895449294
C  C198  1  0.28520000  0.39490000  0.16950000  1.0 0.0787193556
C  C199  1  0.38020000  0.48190000  0.17590000  1.0 0.1107727259
C  C200  1  0.37610000  0.48090000  0.10230000  1.0 -0.1983019857
C  C201  1  0.15320000  0.39890000  0.31700000  1.0 0.5753957348
C  C202  1  0.10840000  0.33120000  0.31400000  1.0 -0.1697797803
C  C203  1  0.14880000  0.26750000  0.31230000  1.0 0.2860020267
C  C204  1  0.10520000  0.20270000  0.31370000  1.0 -0.2719789727
C  C205  1  0.01790000  0.20630000  0.31630000  1.0 0.0166964678
C  C206  1  0.97790000  0.27070000  0.31600000  1.0 -0.1477326119
C  C207  1  0.02180000  0.33160000  0.31610000  1.0 -0.092532104
C  C208  1  0.96970000  0.13960000  0.31910000  1.0 0.5411521114
N  N1  1  0.24680000  0.24270000  0.65640000  1.0 -0.4727349861
N  N2  1  0.26440000  0.76370000  0.68760000  1.0 -0.4780242128
N  N3  1  0.35280000  0.06310000  0.77230000  1.0 -0.2289402885
N  N4  1  0.34890000  0.05020000  0.01730000  1.0 -0.2289402885
N  N5  1  0.31220000  0.09030000  0.29910000  1.0 -0.2799139006
N  N6  1  0.34510000  0.05380000  0.55410000  1.0 -0.2096909771
N  N7  1  0.15300000  0.94570000  0.57400000  1.0 -0.2289402885
N  N8  1  0.17270000  0.90330000  0.32360000  1.0 -0.2719789727
N  N9  1  0.14330000  0.94570000  0.03830000  1.0 -0.2289402885
N  N10  1  0.16640000  0.94700000  0.79360000  1.0 -0.2096909771
N  N11  1  0.65170000  0.15300000  0.64680000  1.0 -0.4338366969
N  N12  1  0.84540000  0.44830000  0.55340000  1.0 -0.2198220649
N  N13  1  0.81220000  0.40280000  0.29890000  1.0 -0.2646745725
N  N14  1  0.82410000  0.40790000  0.01620000  1.0 -0.2719789727
N  N15  1  0.85940000  0.44700000  0.77360000  1.0 -0.2198220649
N  N16  1  0.65470000  0.55600000  0.57420000  1.0 -0.2289402885
N  N17  1  0.67280000  0.59310000  0.32520000  1.0 -0.2918961032
N  N18  1  0.64030000  0.55280000  0.04070000  1.0 -0.2414709164
N  N19  1  0.66620000  0.55900000  0.79360000  1.0 -0.1983019857
N  N20  1  0.76770000  0.74380000  0.69090000  1.0 -0.6037708206
N  N21  1  0.15140000  0.35140000  0.64890000  1.0 -0.4968697561
N  N22  1  0.35560000  0.64980000  0.68990000  1.0 -0.4546897395
N  N23  1  0.74670000  0.26180000  0.65940000  1.0 -0.5585736318
N  N24  1  0.75320000  0.75730000  0.34360000  1.0 -0.4727349861
N  N25  1  0.73560000  0.23630000  0.31240000  1.0 -0.4780242128
N  N26  1  0.64720000  0.93690000  0.22770000  1.0 -0.2289402885
N  N27  1  0.65110000  0.94980000  0.98270000  1.0 -0.2289402885
N  N28  1  0.68780000  0.90970000  0.70090000  1.0 -0.2799139006
N  N29  1  0.65490000  0.94620000  0.44590000  1.0 -0.2096909771
N  N30  1  0.84700000  0.05430000  0.42600000  1.0 -0.2289402885
N  N31  1  0.82730000  0.09670000  0.67640000  1.0 -0.2719789727
N  N32  1  0.85670000  0.05430000  0.96170000  1.0 -0.2289402885
N  N33  1  0.83360000  0.05300000  0.20640000  1.0 -0.2096909771
N  N34  1  0.34830000  0.84700000  0.35320000  1.0 -0.4338366969
N  N35  1  0.15460000  0.55170000  0.44660000  1.0 -0.2198220649
N  N36  1  0.18780000  0.59720000  0.70110000  1.0 -0.2646745725
N  N37  1  0.17590000  0.59210000  0.98380000  1.0 -0.2719789727
N  N38  1  0.14060000  0.55300000  0.22640000  1.0 -0.2198220649
N  N39  1  0.34530000  0.44400000  0.42580000  1.0 -0.2289402885
N  N40  1  0.32720000  0.40690000  0.67480000  1.0 -0.2918961032
N  N41  1  0.35970000  0.44720000  0.95930000  1.0 -0.2414709164
N  N42  1  0.33380000  0.44100000  0.20640000  1.0 -0.1983019857
N  N43  1  0.23230000  0.25620000  0.30910000  1.0 -0.6037708206
N  N44  1  0.84860000  0.64860000  0.35110000  1.0 -0.4968697561
N  N45  1  0.64440000  0.35020000  0.31010000  1.0 -0.4546897395
N  N46  1  0.25330000  0.73820000  0.34060000  1.0 -0.5585736318
O  O1  1  0.27410000  0.90710000  0.69520000  1.0 -0.5497246391
O  O2  1  0.38710000  0.95860000  0.66650000  1.0 -0.5411428627
O  O3  1  0.49700000  0.58680000  0.67930000  1.0 -0.5411428627
O  O4  1  0.60810000  0.65310000  0.68120000  1.0 -0.5190454407
O  O5  1  0.12850000  0.04730000  0.68760000  1.0 -0.5411428627
O  O6  1  0.23590000  0.09760000  0.64890000  1.0 -0.5497246391
O  O7  1  0.90250000  0.35170000  0.66790000  1.0 -0.5497246391
O  O8  1  0.01500000  0.41880000  0.66666667  1.0 -0.5497246391
O  O9  1  0.40330000  0.15380000  0.66910000  1.0 -0.5304014765
O  O10  1  0.51390000  0.08610000  0.66700000  1.0 -0.5304014765
O  O11  1  0.73730000  0.40510000  0.65180000  1.0 -0.5497246391
O  O12  1  0.62780000  0.45850000  0.68580000  1.0 -0.5497246391
O  O13  1  0.88470000  0.54710000  0.66560000  1.0 -0.5497246391
O  O14  1  0.77370000  0.59960000  0.69790000  1.0 -0.5585736318
O  O15  1  0.10850000  0.85120000  0.68050000  1.0 -0.5411428627
O  O16  1  0.99740000  0.91760000  0.67860000  1.0 -0.5304014765
O  O17  1  0.72590000  0.09290000  0.30480000  1.0 -0.5411428627
O  O18  1  0.61290000  0.04140000  0.33350000  1.0 -0.5411428627
O  O19  1  0.50300000  0.41320000  0.32070000  1.0 -0.5411428627
O  O20  1  0.39190000  0.34690000  0.31880000  1.0 -0.5190454407
O  O21  1  0.87150000  0.95270000  0.31240000  1.0 -0.5411428627
O  O22  1  0.76410000  0.90240000  0.35110000  1.0 -0.5497246391
O  O23  1  0.09750000  0.64830000  0.33210000  1.0 -0.5497246391
O  O24  1  0.98500000  0.58120000  0.33333333  1.0 -0.5497246391
O  O25  1  0.59670000  0.84620000  0.33090000  1.0 -0.5304014765
O  O26  1  0.48610000  0.91390000  0.33300000  1.0 -0.5304014765
O  O27  1  0.26270000  0.59490000  0.34820000  1.0 -0.5497246391
O  O28  1  0.37220000  0.54150000  0.31420000  1.0 -0.5497246391
O  O29  1  0.11530000  0.45290000  0.33440000  1.0 -0.5497246391
O  O30  1  0.22630000  0.40040000  0.30210000  1.0 -0.5585736318
O  O31  1  0.89150000  0.14880000  0.31950000  1.0 -0.5411428627
O  O32  1  0.00260000  0.08240000  0.32140000  1.0 -0.5304014765
