# DDEC6 charges by PACMAN v1.1 (https://github.com/mtap-research/PACMAN-charge/)
data_KUKZOH_FSR_pacman
_symmetry_space_group_name_H-M   'P 1'
_cell_length_a   18.51780000
_cell_length_b   18.51780000
_cell_length_c   27.53270000
_cell_angle_alpha   84.50050000
_cell_angle_beta   95.49950000
_cell_angle_gamma   89.32680000
_symmetry_Int_Tables_number   1
_chemical_formula_structural   Zn4H30C48(N4O5)3
_chemical_formula_sum   'Zn16 H120 C192 N48 O60'
_cell_volume   9352.40512314
_cell_formula_units_Z   4
loop_
 _symmetry_equiv_pos_site_id
 _symmetry_equiv_pos_as_xyz
  1  'x, y, z'
loop_
 _atom_site_type_symbol
 _atom_site_label
 _atom_site_symmetry_multiplicity
 _atom_site_fract_x
 _atom_site_fract_y
 _atom_site_fract_z
 _atom_site_occupancy
 _atom_site_charge
Zn  Zn1  1  0.52417000  0.03871000  0.66981000  1.0 0.9401732453
Zn  Zn2  1  0.96129000  0.47583000  0.16981000  1.0 0.9401732453
Zn  Zn3  1  0.38196000  0.97314000  0.70383000  1.0 0.9346377619
Zn  Zn4  1  0.02686000  0.61804000  0.20383000  1.0 0.9346377619
Zn  Zn5  1  0.49448000  0.04000000  0.78301000  1.0 1.1833868989
Zn  Zn6  1  0.96000000  0.50552000  0.28301000  1.0 1.187159396
Zn  Zn7  1  0.39626000  0.13918000  0.69771000  1.0 0.9534077116
Zn  Zn8  1  0.86082000  0.60374000  0.19771000  1.0 0.9534077116
Zn  Zn9  1  0.03871000  0.52417000  0.83019000  1.0 0.9401732453
Zn  Zn10  1  0.47583000  0.96129000  0.33019000  1.0 0.9401732453
Zn  Zn11  1  0.97314000  0.38196000  0.79617000  1.0 0.9401732453
Zn  Zn12  1  0.61804000  0.02686000  0.29617000  1.0 0.9401732453
Zn  Zn13  1  0.04000000  0.49448000  0.71699000  1.0 1.1833868989
Zn  Zn14  1  0.50552000  0.96000000  0.21699000  1.0 1.187159396
Zn  Zn15  1  0.13918000  0.39626000  0.80229000  1.0 0.9534077116
Zn  Zn16  1  0.60374000  0.86082000  0.30229000  1.0 0.9534077116
H  H1  1  0.56740000  0.85800000  0.58580000  1.0 0.1292957214
H  H2  1  0.14200000  0.43260000  0.08580000  1.0 0.1292957214
H  H3  1  0.59350000  0.74650000  0.55790000  1.0 0.1292957214
H  H4  1  0.25350000  0.40650000  0.05790000  1.0 0.1292957214
H  H5  1  0.45220000  0.65160000  0.64720000  1.0 0.1292957214
H  H6  1  0.34840000  0.54780000  0.14720000  1.0 0.1292957214
H  H7  1  0.42590000  0.76470000  0.67260000  1.0 0.1212656311
H  H8  1  0.23530000  0.57410000  0.17260000  1.0 0.1212656311
H  H9  1  0.02870000  0.80510000  0.10420000  1.0 0.1212656311
H  H10  1  0.19490000  0.97130000  0.60420000  1.0 0.1212656311
H  H11  1  0.01880000  0.89260000  0.03690000  1.0 0.1212656311
H  H12  1  0.10740000  0.98120000  0.53690000  1.0 0.1212656311
H  H13  1  0.79970000  0.87830000  0.02940000  1.0 0.1292957214
H  H14  1  0.12170000  0.20030000  0.52940000  1.0 0.1292957214
H  H15  1  0.81080000  0.79080000  0.09590000  1.0 0.1212656311
H  H16  1  0.20920000  0.18920000  0.59590000  1.0 0.1212656311
H  H17  1  0.46370000  0.32430000  0.61960000  1.0 0.1212656311
H  H18  1  0.67570000  0.53630000  0.11960000  1.0 0.1212656311
H  H19  1  0.50550000  0.42390000  0.57350000  1.0 0.1292957214
H  H20  1  0.57610000  0.49450000  0.07350000  1.0 0.1292957214
H  H21  1  0.62870000  0.28850000  0.50660000  1.0 0.1292957214
H  H22  1  0.71150000  0.37130000  0.00660000  1.0 0.1292957214
H  H23  1  0.58840000  0.19100000  0.55380000  1.0 0.1292957214
H  H24  1  0.80900000  0.41160000  0.05380000  1.0 0.1292957214
H  H25  1  0.21020000  0.93240000  0.78450000  1.0 0.1292957214
H  H26  1  0.06760000  0.78980000  0.28450000  1.0 0.1292957214
H  H27  1  0.11840000  0.92200000  0.83660000  1.0 0.1212656311
H  H28  1  0.07800000  0.88160000  0.33660000  1.0 0.1212656311
H  H29  1  0.25590000  0.97410000  0.94770000  1.0 0.1292957214
H  H30  1  0.02590000  0.74410000  0.44770000  1.0 0.1292957214
H  H31  1  0.34670000  0.99310000  0.89420000  1.0 0.1292957214
H  H32  1  0.00690000  0.65330000  0.39420000  1.0 0.1292957214
H  H33  1  0.69340000  0.06320000  0.82800000  1.0 0.1292957214
H  H34  1  0.93680000  0.30660000  0.32800000  1.0 0.1292957214
H  H35  1  0.81140000  0.05440000  0.86520000  1.0 0.1292957214
H  H36  1  0.94560000  0.18860000  0.36520000  1.0 0.1292957214
H  H37  1  0.88430000  0.02790000  0.73410000  1.0 0.1212656311
H  H38  1  0.97210000  0.11570000  0.23410000  1.0 0.1212656311
H  H39  1  0.76510000  0.03710000  0.69690000  1.0 0.1212656311
H  H40  1  0.96290000  0.23490000  0.19690000  1.0 0.1212656311
H  H41  1  0.74060000  0.70880000  0.30640000  1.0 0.1292957214
H  H42  1  0.29120000  0.25940000  0.80640000  1.0 0.1292957214
H  H43  1  0.68180000  0.73200000  0.37440000  1.0 0.1292957214
H  H44  1  0.26800000  0.31820000  0.87440000  1.0 0.1292957214
H  H45  1  0.74630000  0.53270000  0.44060000  1.0 0.1212656311
H  H46  1  0.46730000  0.25370000  0.94060000  1.0 0.1212656311
H  H47  1  0.80470000  0.51110000  0.37230000  1.0 0.1292957214
H  H48  1  0.48890000  0.19530000  0.87230000  1.0 0.1292957214
H  H49  1  0.51570000  0.58370000  0.60460000  1.0 0.2927766485
H  H50  1  0.41630000  0.48430000  0.10460000  1.0 0.2927766485
H  H51  1  0.85360000  0.95680000  0.97490000  1.0 0.2927766485
H  H52  1  0.04320000  0.14640000  0.47490000  1.0 0.2927766485
H  H53  1  0.62840000  0.41060000  0.48480000  1.0 0.2989509247
H  H54  1  0.58940000  0.37160000  0.98480000  1.0 0.2989509247
H  H55  1  0.14060000  0.92380000  0.96060000  1.0 0.2927766485
H  H56  1  0.07620000  0.85940000  0.46060000  1.0 0.2927766485
H  H57  1  0.96460000  0.03780000  0.80360000  1.0 0.2989509247
H  H58  1  0.96220000  0.03540000  0.30360000  1.0 0.2989509247
H  H59  1  0.67440000  0.69820000  0.46110000  1.0 0.3079059639
H  H60  1  0.30180000  0.32560000  0.96110000  1.0 0.3079059639
H  H61  1  0.85800000  0.56740000  0.91420000  1.0 0.1292957214
H  H62  1  0.43260000  0.14200000  0.41420000  1.0 0.1292957214
H  H63  1  0.74650000  0.59350000  0.94210000  1.0 0.1292957214
H  H64  1  0.40650000  0.25350000  0.44210000  1.0 0.1292957214
H  H65  1  0.65160000  0.45220000  0.85280000  1.0 0.1292957214
H  H66  1  0.54780000  0.34840000  0.35280000  1.0 0.1292957214
H  H67  1  0.76470000  0.42590000  0.82740000  1.0 0.1212656311
H  H68  1  0.57410000  0.23530000  0.32740000  1.0 0.1212656311
H  H69  1  0.80510000  0.02870000  0.39580000  1.0 0.1212656311
H  H70  1  0.97130000  0.19490000  0.89580000  1.0 0.1212656311
H  H71  1  0.89260000  0.01880000  0.46310000  1.0 0.1212656311
H  H72  1  0.98120000  0.10740000  0.96310000  1.0 0.1212656311
H  H73  1  0.87830000  0.79970000  0.47060000  1.0 0.1292957214
H  H74  1  0.20030000  0.12170000  0.97060000  1.0 0.1292957214
H  H75  1  0.79080000  0.81080000  0.40410000  1.0 0.1212656311
H  H76  1  0.18920000  0.20920000  0.90410000  1.0 0.1212656311
H  H77  1  0.32430000  0.46370000  0.88040000  1.0 0.1212656311
H  H78  1  0.53630000  0.67570000  0.38040000  1.0 0.1212656311
H  H79  1  0.42390000  0.50550000  0.92650000  1.0 0.1292957214
H  H80  1  0.49450000  0.57610000  0.42650000  1.0 0.1292957214
H  H81  1  0.28850000  0.62870000  0.99340000  1.0 0.1292957214
H  H82  1  0.37130000  0.71150000  0.49340000  1.0 0.1292957214
H  H83  1  0.19100000  0.58840000  0.94620000  1.0 0.1292957214
H  H84  1  0.41160000  0.80900000  0.44620000  1.0 0.1292957214
H  H85  1  0.93240000  0.21020000  0.71550000  1.0 0.1292957214
H  H86  1  0.78980000  0.06760000  0.21550000  1.0 0.1292957214
H  H87  1  0.92200000  0.11840000  0.66340000  1.0 0.1212656311
H  H88  1  0.88160000  0.07800000  0.16340000  1.0 0.1212656311
H  H89  1  0.97410000  0.25590000  0.55230000  1.0 0.1292957214
H  H90  1  0.74410000  0.02590000  0.05230000  1.0 0.1292957214
H  H91  1  0.99310000  0.34670000  0.60580000  1.0 0.1292957214
H  H92  1  0.65330000  0.00690000  0.10580000  1.0 0.1292957214
H  H93  1  0.06320000  0.69340000  0.67200000  1.0 0.1292957214
H  H94  1  0.30660000  0.93680000  0.17200000  1.0 0.1292957214
H  H95  1  0.05440000  0.81140000  0.63480000  1.0 0.1292957214
H  H96  1  0.18860000  0.94560000  0.13480000  1.0 0.1292957214
H  H97  1  0.02790000  0.88430000  0.76590000  1.0 0.1212656311
H  H98  1  0.11570000  0.97210000  0.26590000  1.0 0.1212656311
H  H99  1  0.03710000  0.76510000  0.80310000  1.0 0.1212656311
H  H100  1  0.23490000  0.96290000  0.30310000  1.0 0.1212656311
H  H101  1  0.70880000  0.74060000  0.19360000  1.0 0.1292957214
H  H102  1  0.25940000  0.29120000  0.69360000  1.0 0.1292957214
H  H103  1  0.73200000  0.68180000  0.12560000  1.0 0.1292957214
H  H104  1  0.31820000  0.26800000  0.62560000  1.0 0.1292957214
H  H105  1  0.53270000  0.74630000  0.05940000  1.0 0.1212656311
H  H106  1  0.25370000  0.46730000  0.55940000  1.0 0.1212656311
H  H107  1  0.51110000  0.80470000  0.12770000  1.0 0.1292957214
H  H108  1  0.19530000  0.48890000  0.62770000  1.0 0.1292957214
H  H109  1  0.58370000  0.51570000  0.89540000  1.0 0.2927766485
H  H110  1  0.48430000  0.41630000  0.39540000  1.0 0.2927766485
H  H111  1  0.95680000  0.85360000  0.52510000  1.0 0.2927766485
H  H112  1  0.14640000  0.04320000  0.02510000  1.0 0.2927766485
H  H113  1  0.41060000  0.62840000  0.01520000  1.0 0.2989509247
H  H114  1  0.37160000  0.58940000  0.51520000  1.0 0.2989509247
H  H115  1  0.92380000  0.14060000  0.53940000  1.0 0.2927766485
H  H116  1  0.85940000  0.07620000  0.03940000  1.0 0.2927766485
H  H117  1  0.03780000  0.96460000  0.69640000  1.0 0.2989509247
H  H118  1  0.03540000  0.96220000  0.19640000  1.0 0.2989509247
H  H119  1  0.69820000  0.67440000  0.03890000  1.0 0.3079059639
H  H120  1  0.32560000  0.30180000  0.53890000  1.0 0.3079059639
C  C1  1  0.47437000  0.89303000  0.64808000  1.0 0.5956433781
C  C2  1  0.10697000  0.52563000  0.14808000  1.0 0.5899403952
C  C3  1  0.49379000  0.82183000  0.63135000  1.0 -0.0619100537
C  C4  1  0.17817000  0.50621000  0.13135000  1.0 -0.0688979086
C  C5  1  0.54350000  0.81590000  0.59780000  1.0 -0.0688979086
C  C6  1  0.18410000  0.45650000  0.09780000  1.0 -0.0688979086
C  C7  1  0.55930000  0.74970000  0.58130000  1.0 -0.1971082679
C  C8  1  0.25030000  0.44070000  0.08130000  1.0 -0.1971082679
C  C9  1  0.52429000  0.68749000  0.59934000  1.0 0.2402773153
C  C10  1  0.31251000  0.47571000  0.09934000  1.0 0.2402773153
C  C11  1  0.47528000  0.69348000  0.63403000  1.0 -0.2326383225
C  C12  1  0.30652000  0.52472000  0.13403000  1.0 -0.2326383225
C  C13  1  0.46012000  0.76078000  0.64933000  1.0 -0.0688979086
C  C14  1  0.23922000  0.53988000  0.14933000  1.0 -0.0688979086
C  C15  1  0.57220000  0.59400000  0.54985000  1.0 0.5300899128
C  C16  1  0.40600000  0.42780000  0.04985000  1.0 0.5300899128
C  C17  1  0.92894000  0.72406000  0.14298000  1.0 0.5899403952
C  C18  1  0.27594000  0.07106000  0.64298000  1.0 0.5899403952
C  C19  1  0.92100000  0.78680000  0.10518000  1.0 -0.0619100537
C  C20  1  0.21320000  0.07900000  0.60518000  1.0 -0.0619100537
C  C21  1  0.98210000  0.81890000  0.08818000  1.0 -0.0688979086
C  C22  1  0.18110000  0.01790000  0.58818000  1.0 -0.0688979086
C  C23  1  0.97640000  0.87100000  0.04820000  1.0 -0.1917699508
C  C24  1  0.12900000  0.02360000  0.54820000  1.0 -0.1971082679
C  C25  1  0.90890000  0.89110000  0.02481000  1.0 0.2402773153
C  C26  1  0.10890000  0.09110000  0.52481000  1.0 0.2402773153
C  C27  1  0.84640000  0.86220000  0.04385000  1.0 -0.2188153268
C  C28  1  0.13780000  0.15360000  0.54385000  1.0 -0.2188153268
C  C29  1  0.85320000  0.81060000  0.08336000  1.0 -0.0775854632
C  C30  1  0.18940000  0.14680000  0.58336000  1.0 -0.0775854632
C  C31  1  0.49566000  0.18526000  0.62388000  1.0 0.5899403952
C  C32  1  0.81474000  0.50434000  0.12388000  1.0 0.5899403952
C  C33  1  0.52338000  0.24758000  0.59253000  1.0 -0.0419153038
C  C34  1  0.75242000  0.47662000  0.09253000  1.0 -0.0419153038
C  C35  1  0.49865000  0.31725000  0.59730000  1.0 -0.085246817
C  C36  1  0.68275000  0.50135000  0.09730000  1.0 -0.085246817
C  C37  1  0.52380000  0.37660000  0.57020000  1.0 -0.1917699508
C  C38  1  0.62340000  0.47620000  0.07020000  1.0 -0.1917699508
C  C39  1  0.57615000  0.36715000  0.53793000  1.0 0.2460395802
C  C40  1  0.63285000  0.42385000  0.03793000  1.0 0.2460395802
C  C41  1  0.59693000  0.29631000  0.53080000  1.0 -0.2188153268
C  C42  1  0.70369000  0.40307000  0.03080000  1.0 -0.2188153268
C  C43  1  0.57200000  0.23862000  0.55825000  1.0 -0.0775854632
C  C44  1  0.76138000  0.42800000  0.05825000  1.0 -0.0775854632
C  C45  1  0.60260000  0.49640000  0.51350000  1.0 0.5300899128
C  C46  1  0.50360000  0.39740000  0.01350000  1.0 0.5300899128
C  C47  1  0.34630000  0.96870000  0.80050000  1.0 0.5899403952
C  C48  1  0.03130000  0.65370000  0.30050000  1.0 0.5899403952
C  C49  1  0.28750000  0.96030000  0.83398000  1.0 -0.0419153038
C  C50  1  0.03970000  0.71250000  0.33398000  1.0 -0.0419153038
C  C51  1  0.22040000  0.94160000  0.81777000  1.0 -0.0775854632
C  C52  1  0.05840000  0.77960000  0.31777000  1.0 -0.0775854632
C  C53  1  0.16560000  0.93540000  0.84880000  1.0 -0.1917699508
C  C54  1  0.06460000  0.83440000  0.34880000  1.0 -0.1917699508
C  C55  1  0.17910000  0.94830000  0.89743000  1.0 0.2243046419
C  C56  1  0.05170000  0.82090000  0.39743000  1.0 0.2243046419
C  C57  1  0.24570000  0.96690000  0.91409000  1.0 -0.2188153268
C  C58  1  0.03310000  0.75430000  0.41409000  1.0 -0.2188153268
C  C59  1  0.30060000  0.97620000  0.88260000  1.0 -0.0688979086
C  C60  1  0.02380000  0.69940000  0.38260000  1.0 -0.0688979086
C  C61  1  0.64075000  0.05255000  0.73780000  1.0 0.5781720348
C  C62  1  0.94745000  0.35925000  0.23780000  1.0 0.5781720348
C  C63  1  0.71715000  0.04905000  0.75880000  1.0 -0.0619100537
C  C64  1  0.95095000  0.28285000  0.25880000  1.0 -0.0619100537
C  C65  1  0.73220000  0.05500000  0.80890000  1.0 -0.0688979086
C  C66  1  0.94500000  0.26780000  0.30890000  1.0 -0.0688979086
C  C67  1  0.80240000  0.04900000  0.83120000  1.0 -0.1917699508
C  C68  1  0.95100000  0.19760000  0.33120000  1.0 -0.1917699508
C  C69  1  0.86020000  0.03500000  0.80386000  1.0 0.2402773153
C  C70  1  0.96500000  0.13980000  0.30386000  1.0 0.2460395802
C  C71  1  0.84550000  0.03330000  0.75363000  1.0 -0.2326383225
C  C72  1  0.96670000  0.15450000  0.25363000  1.0 -0.2326383225
C  C73  1  0.77422000  0.03958000  0.73120000  1.0 -0.0688979086
C  C74  1  0.96042000  0.22578000  0.23120000  1.0 -0.0688979086
C  C75  1  0.95810000  0.99890000  0.87037000  1.0 0.5236755294
C  C76  1  0.00110000  0.04190000  0.37037000  1.0 0.5300899128
C  C77  1  0.94430000  0.95570000  0.94730000  1.0 0.5300899128
C  C78  1  0.04430000  0.05570000  0.44730000  1.0 0.5300899128
C  C79  1  0.05380000  0.95560000  0.92000000  1.0 0.5236755294
C  C80  1  0.04440000  0.94620000  0.42000000  1.0 0.5236755294
C  C81  1  0.81666000  0.58934000  0.28977000  1.0 0.5899403952
C  C82  1  0.41066000  0.18334000  0.78977000  1.0 0.5899403952
C  C83  1  0.77807000  0.60645000  0.33232000  1.0 -0.0458647262
C  C84  1  0.39355000  0.22193000  0.83232000  1.0 -0.0458647262
C  C85  1  0.74145000  0.67297000  0.33358000  1.0 -0.0688979086
C  C86  1  0.32703000  0.25855000  0.83358000  1.0 -0.0688979086
C  C87  1  0.70658000  0.68688000  0.37403000  1.0 -0.2144090466
C  C88  1  0.31312000  0.29342000  0.87403000  1.0 -0.2188153268
C  C89  1  0.70771000  0.63489000  0.41418000  1.0 0.2460395802
C  C90  1  0.36511000  0.29229000  0.91418000  1.0 0.2460395802
C  C91  1  0.74488000  0.56852000  0.41343000  1.0 -0.1971082679
C  C92  1  0.43148000  0.25512000  0.91343000  1.0 -0.1971082679
C  C93  1  0.77934000  0.55588000  0.37261000  1.0 -0.0775854632
C  C94  1  0.44412000  0.22066000  0.87261000  1.0 -0.0775854632
C  C95  1  0.64050000  0.60630000  0.48723000  1.0 0.5300899128
C  C96  1  0.39370000  0.35950000  0.98723000  1.0 0.5300899128
C  C97  1  0.89303000  0.47437000  0.85192000  1.0 0.5956433781
C  C98  1  0.52563000  0.10697000  0.35192000  1.0 0.5956433781
C  C99  1  0.82183000  0.49379000  0.86865000  1.0 -0.0619100537
C  C100  1  0.50621000  0.17817000  0.36865000  1.0 -0.0688979086
C  C101  1  0.81590000  0.54350000  0.90220000  1.0 -0.0688979086
C  C102  1  0.45650000  0.18410000  0.40220000  1.0 -0.0688979086
C  C103  1  0.74970000  0.55930000  0.91870000  1.0 -0.1971082679
C  C104  1  0.44070000  0.25030000  0.41870000  1.0 -0.1971082679
C  C105  1  0.68749000  0.52429000  0.90066000  1.0 0.2402773153
C  C106  1  0.47571000  0.31251000  0.40066000  1.0 0.2402773153
C  C107  1  0.69348000  0.47528000  0.86597000  1.0 -0.2326383225
C  C108  1  0.52472000  0.30652000  0.36597000  1.0 -0.2326383225
C  C109  1  0.76078000  0.46012000  0.85067000  1.0 -0.0688979086
C  C110  1  0.53988000  0.23922000  0.35067000  1.0 -0.0688979086
C  C111  1  0.59400000  0.57220000  0.95015000  1.0 0.5300899128
C  C112  1  0.42780000  0.40600000  0.45015000  1.0 0.5300899128
C  C113  1  0.72406000  0.92894000  0.35702000  1.0 0.5899403952
C  C114  1  0.07106000  0.27594000  0.85702000  1.0 0.5899403952
C  C115  1  0.78680000  0.92100000  0.39482000  1.0 -0.0619100537
C  C116  1  0.07900000  0.21320000  0.89482000  1.0 -0.0619100537
C  C117  1  0.81890000  0.98210000  0.41182000  1.0 -0.0688979086
C  C118  1  0.01790000  0.18110000  0.91182000  1.0 -0.0688979086
C  C119  1  0.87100000  0.97640000  0.45180000  1.0 -0.1917699508
C  C120  1  0.02360000  0.12900000  0.95180000  1.0 -0.1971082679
C  C121  1  0.89110000  0.90890000  0.47519000  1.0 0.2402773153
C  C122  1  0.09110000  0.10890000  0.97519000  1.0 0.2402773153
C  C123  1  0.86220000  0.84640000  0.45615000  1.0 -0.2188153268
C  C124  1  0.15360000  0.13780000  0.95615000  1.0 -0.2188153268
C  C125  1  0.81060000  0.85320000  0.41664000  1.0 -0.0775854632
C  C126  1  0.14680000  0.18940000  0.91664000  1.0 -0.0775854632
C  C127  1  0.18526000  0.49566000  0.87612000  1.0 0.5899403952
C  C128  1  0.50434000  0.81474000  0.37612000  1.0 0.5899403952
C  C129  1  0.24758000  0.52338000  0.90747000  1.0 -0.0419153038
C  C130  1  0.47662000  0.75242000  0.40747000  1.0 -0.0419153038
C  C131  1  0.31725000  0.49865000  0.90270000  1.0 -0.085246817
C  C132  1  0.50135000  0.68275000  0.40270000  1.0 -0.085246817
C  C133  1  0.37660000  0.52380000  0.92980000  1.0 -0.1917699508
C  C134  1  0.47620000  0.62340000  0.42980000  1.0 -0.1917699508
C  C135  1  0.36715000  0.57615000  0.96207000  1.0 0.2460395802
C  C136  1  0.42385000  0.63285000  0.46207000  1.0 0.2460395802
C  C137  1  0.29631000  0.59693000  0.96920000  1.0 -0.2188153268
C  C138  1  0.40307000  0.70369000  0.46920000  1.0 -0.2188153268
C  C139  1  0.23862000  0.57200000  0.94175000  1.0 -0.0775854632
C  C140  1  0.42800000  0.76138000  0.44175000  1.0 -0.0775854632
C  C141  1  0.49640000  0.60260000  0.98650000  1.0 0.5300899128
C  C142  1  0.39740000  0.50360000  0.48650000  1.0 0.5300899128
C  C143  1  0.96870000  0.34630000  0.69950000  1.0 0.5899403952
C  C144  1  0.65370000  0.03130000  0.19950000  1.0 0.5899403952
C  C145  1  0.96030000  0.28750000  0.66602000  1.0 -0.0419153038
C  C146  1  0.71250000  0.03970000  0.16602000  1.0 -0.0419153038
C  C147  1  0.94160000  0.22040000  0.68223000  1.0 -0.0775854632
C  C148  1  0.77960000  0.05840000  0.18223000  1.0 -0.0775854632
C  C149  1  0.93540000  0.16560000  0.65120000  1.0 -0.1917699508
C  C150  1  0.83440000  0.06460000  0.15120000  1.0 -0.1917699508
C  C151  1  0.94830000  0.17910000  0.60257000  1.0 0.2243046419
C  C152  1  0.82090000  0.05170000  0.10257000  1.0 0.2243046419
C  C153  1  0.96690000  0.24570000  0.58591000  1.0 -0.2188153268
C  C154  1  0.75430000  0.03310000  0.08591000  1.0 -0.2188153268
C  C155  1  0.97620000  0.30060000  0.61740000  1.0 -0.0688979086
C  C156  1  0.69940000  0.02380000  0.11740000  1.0 -0.0688979086
C  C157  1  0.05255000  0.64075000  0.76220000  1.0 0.5781720348
C  C158  1  0.35925000  0.94745000  0.26220000  1.0 0.5781720348
C  C159  1  0.04905000  0.71715000  0.74120000  1.0 -0.0619100537
C  C160  1  0.28285000  0.95095000  0.24120000  1.0 -0.0619100537
C  C161  1  0.05500000  0.73220000  0.69110000  1.0 -0.0688979086
C  C162  1  0.26780000  0.94500000  0.19110000  1.0 -0.0688979086
C  C163  1  0.04900000  0.80240000  0.66880000  1.0 -0.1917699508
C  C164  1  0.19760000  0.95100000  0.16880000  1.0 -0.1917699508
C  C165  1  0.03500000  0.86020000  0.69614000  1.0 0.2460395802
C  C166  1  0.13980000  0.96500000  0.19614000  1.0 0.2460395802
C  C167  1  0.03330000  0.84550000  0.74637000  1.0 -0.2326383225
C  C168  1  0.15450000  0.96670000  0.24637000  1.0 -0.2326383225
C  C169  1  0.03958000  0.77422000  0.76880000  1.0 -0.0688979086
C  C170  1  0.22578000  0.96042000  0.26880000  1.0 -0.0688979086
C  C171  1  0.99890000  0.95810000  0.62963000  1.0 0.5236755294
C  C172  1  0.04190000  0.00110000  0.12963000  1.0 0.5236755294
C  C173  1  0.95570000  0.94430000  0.55270000  1.0 0.5300899128
C  C174  1  0.05570000  0.04430000  0.05270000  1.0 0.5300899128
C  C175  1  0.95560000  0.05380000  0.58000000  1.0 0.5236755294
C  C176  1  0.94620000  0.04440000  0.08000000  1.0 0.5236755294
C  C177  1  0.58934000  0.81666000  0.21023000  1.0 0.5899403952
C  C178  1  0.18334000  0.41066000  0.71023000  1.0 0.5899403952
C  C179  1  0.60645000  0.77807000  0.16768000  1.0 -0.0458647262
C  C180  1  0.22193000  0.39355000  0.66768000  1.0 -0.0458647262
C  C181  1  0.67297000  0.74145000  0.16642000  1.0 -0.0688979086
C  C182  1  0.25855000  0.32703000  0.66642000  1.0 -0.0688979086
C  C183  1  0.68688000  0.70658000  0.12597000  1.0 -0.2144090466
C  C184  1  0.29342000  0.31312000  0.62597000  1.0 -0.2144090466
C  C185  1  0.63489000  0.70771000  0.08582000  1.0 0.2460395802
C  C186  1  0.29229000  0.36511000  0.58582000  1.0 0.2460395802
C  C187  1  0.56852000  0.74488000  0.08657000  1.0 -0.1971082679
C  C188  1  0.25512000  0.43148000  0.58657000  1.0 -0.1971082679
C  C189  1  0.55588000  0.77934000  0.12739000  1.0 -0.0775854632
C  C190  1  0.22066000  0.44412000  0.62739000  1.0 -0.0775854632
C  C191  1  0.60630000  0.64050000  0.01277000  1.0 0.5300899128
C  C192  1  0.35950000  0.39370000  0.51277000  1.0 0.5300899128
N  N1  1  0.53553000  0.61821000  0.58632000  1.0 -0.3442831866
N  N2  1  0.38179000  0.46447000  0.08632000  1.0 -0.3500223391
N  N3  1  0.60840000  0.63910000  0.52170000  1.0 -0.5194490953
N  N4  1  0.36090000  0.39160000  0.02170000  1.0 -0.5194490953
N  N5  1  0.56687000  0.52125000  0.54836000  1.0 -0.5194490953
N  N6  1  0.47875000  0.43313000  0.04836000  1.0 -0.5194490953
N  N7  1  0.89740000  0.93720000  0.98123000  1.0 -0.3609159726
N  N8  1  0.06280000  0.10260000  0.48123000  1.0 -0.3609159726
N  N9  1  0.60522000  0.42366000  0.50907000  1.0 -0.3609159726
N  N10  1  0.57634000  0.39478000  0.00907000  1.0 -0.3609159726
N  N11  1  0.12590000  0.94030000  0.93019000  1.0 -0.3609159726
N  N12  1  0.05970000  0.87410000  0.43019000  1.0 -0.3609159726
N  N13  1  0.93166000  0.02534000  0.82369000  1.0 -0.3500223391
N  N14  1  0.97466000  0.06834000  0.32369000  1.0 -0.3500223391
N  N15  1  0.91223000  0.98657000  0.90452000  1.0 -0.5194490953
N  N16  1  0.01343000  0.08777000  0.40452000  1.0 -0.5194490953
N  N17  1  0.01440000  0.93960000  0.95787000  1.0 -0.5127240749
N  N18  1  0.06040000  0.98560000  0.45787000  1.0 -0.5194490953
N  N19  1  0.02859000  0.98401000  0.87452000  1.0 -0.5194490953
N  N20  1  0.01599000  0.97141000  0.37452000  1.0 -0.5194490953
N  N21  1  0.67385000  0.65235000  0.45536000  1.0 -0.3609159726
N  N22  1  0.34765000  0.32615000  0.95536000  1.0 -0.3609159726
N  N23  1  0.63970000  0.53558000  0.48129000  1.0 -0.5305001184
N  N24  1  0.46442000  0.36030000  0.98129000  1.0 -0.5305001184
N  N25  1  0.61821000  0.53553000  0.91368000  1.0 -0.3442831866
N  N26  1  0.46447000  0.38179000  0.41368000  1.0 -0.3500223391
N  N27  1  0.63910000  0.60840000  0.97830000  1.0 -0.5194490953
N  N28  1  0.39160000  0.36090000  0.47830000  1.0 -0.5127240749
N  N29  1  0.52125000  0.56687000  0.95164000  1.0 -0.5194490953
N  N30  1  0.43313000  0.47875000  0.45164000  1.0 -0.5194490953
N  N31  1  0.93720000  0.89740000  0.51877000  1.0 -0.3609159726
N  N32  1  0.10260000  0.06280000  0.01877000  1.0 -0.3609159726
N  N33  1  0.42366000  0.60522000  0.99093000  1.0 -0.3609159726
N  N34  1  0.39478000  0.57634000  0.49093000  1.0 -0.3609159726
N  N35  1  0.94030000  0.12590000  0.56981000  1.0 -0.3609159726
N  N36  1  0.87410000  0.05970000  0.06981000  1.0 -0.3609159726
N  N37  1  0.02534000  0.93166000  0.67631000  1.0 -0.3500223391
N  N38  1  0.06834000  0.97466000  0.17631000  1.0 -0.3500223391
N  N39  1  0.98657000  0.91223000  0.59548000  1.0 -0.5194490953
N  N40  1  0.08777000  0.01343000  0.09548000  1.0 -0.5194490953
N  N41  1  0.93960000  0.01440000  0.54213000  1.0 -0.5127240749
N  N42  1  0.98560000  0.06040000  0.04213000  1.0 -0.5127240749
N  N43  1  0.98401000  0.02859000  0.62548000  1.0 -0.5194490953
N  N44  1  0.97141000  0.01599000  0.12548000  1.0 -0.5194490953
N  N45  1  0.65235000  0.67385000  0.04464000  1.0 -0.3609159726
N  N46  1  0.32615000  0.34765000  0.54464000  1.0 -0.3609159726
N  N47  1  0.53558000  0.63970000  0.01871000  1.0 -0.5305001184
N  N48  1  0.36030000  0.46442000  0.51871000  1.0 -0.5305001184
O  O1  1  0.51225000  0.94797000  0.63624000  1.0 -0.5305001184
O  O2  1  0.05203000  0.48775000  0.13624000  1.0 -0.5305001184
O  O3  1  0.42328000  0.89304000  0.67451000  1.0 -0.4957302443
O  O4  1  0.10696000  0.57672000  0.17451000  1.0 -0.4957302443
O  O5  1  0.99353000  0.70025000  0.15657000  1.0 -0.5397150697
O  O6  1  0.29975000  0.00647000  0.65657000  1.0 -0.5397150697
O  O7  1  0.87319000  0.69759000  0.15957000  1.0 -0.5305001184
O  O8  1  0.30241000  0.12681000  0.65957000  1.0 -0.5305001184
O  O9  1  0.45306000  0.20098000  0.65422000  1.0 -0.5397150697
O  O10  1  0.79902000  0.54694000  0.15422000  1.0 -0.5397150697
O  O11  1  0.51888000  0.12262000  0.61908000  1.0 -0.5194490953
O  O12  1  0.87738000  0.48112000  0.11908000  1.0 -0.5194490953
O  O13  1  0.33505000  0.93977000  0.76061000  1.0 -0.5194490953
O  O14  1  0.06023000  0.66495000  0.26061000  1.0 -0.5194490953
O  O15  1  0.39956000  0.00636000  0.81232000  1.0 -0.5194490953
O  O16  1  0.99364000  0.60044000  0.31232000  1.0 -0.5194490953
O  O17  1  0.62606000  0.03458000  0.69460000  1.0 -0.5127240749
O  O18  1  0.96542000  0.37394000  0.19460000  1.0 -0.5127240749
O  O19  1  0.59410000  0.07586000  0.76228000  1.0 -0.5127240749
O  O20  1  0.92414000  0.40590000  0.26228000  1.0 -0.5127240749
O  O21  1  0.80873000  0.63355000  0.25094000  1.0 -0.5305001184
O  O22  1  0.36645000  0.19127000  0.75094000  1.0 -0.5305001184
O  O23  1  0.85199000  0.53089000  0.29306000  1.0 -0.5397150697
O  O24  1  0.46911000  0.14801000  0.79306000  1.0 -0.5397150697
O  O25  1  0.52110000  0.93770000  0.77310000  1.0 -0.3500223391
O  O26  1  0.06230000  0.47890000  0.27310000  1.0 -0.3500223391
O  O27  1  0.54356000  0.02356000  0.85392000  1.0 -0.3779883019
O  O28  1  0.97644000  0.45644000  0.35392000  1.0 -0.3779883019
O  O29  1  0.44923000  0.04895000  0.71252000  1.0 -0.9961932234
O  O30  1  0.95105000  0.55077000  0.21252000  1.0 -0.9961932234
O  O31  1  0.94797000  0.51225000  0.86376000  1.0 -0.5305001184
O  O32  1  0.48775000  0.05203000  0.36376000  1.0 -0.5305001184
O  O33  1  0.89304000  0.42328000  0.82549000  1.0 -0.4957302443
O  O34  1  0.57672000  0.10696000  0.32549000  1.0 -0.4957302443
O  O35  1  0.70025000  0.99353000  0.34343000  1.0 -0.5397150697
O  O36  1  0.00647000  0.29975000  0.84343000  1.0 -0.5397150697
O  O37  1  0.69759000  0.87319000  0.34043000  1.0 -0.5305001184
O  O38  1  0.12681000  0.30241000  0.84043000  1.0 -0.5305001184
O  O39  1  0.20098000  0.45306000  0.84578000  1.0 -0.5397150697
O  O40  1  0.54694000  0.79902000  0.34578000  1.0 -0.5397150697
O  O41  1  0.12262000  0.51888000  0.88092000  1.0 -0.5194490953
O  O42  1  0.48112000  0.87738000  0.38092000  1.0 -0.5194490953
O  O43  1  0.93977000  0.33505000  0.73939000  1.0 -0.5194490953
O  O44  1  0.66495000  0.06023000  0.23939000  1.0 -0.5194490953
O  O45  1  0.00636000  0.39956000  0.68768000  1.0 -0.5194490953
O  O46  1  0.60044000  0.99364000  0.18768000  1.0 -0.5194490953
O  O47  1  0.03458000  0.62606000  0.80540000  1.0 -0.5127240749
O  O48  1  0.37394000  0.96542000  0.30540000  1.0 -0.5127240749
O  O49  1  0.07586000  0.59410000  0.73772000  1.0 -0.5127240749
O  O50  1  0.40590000  0.92414000  0.23772000  1.0 -0.5127240749
O  O51  1  0.63355000  0.80873000  0.24906000  1.0 -0.5305001184
O  O52  1  0.19127000  0.36645000  0.74906000  1.0 -0.5305001184
O  O53  1  0.53089000  0.85199000  0.20694000  1.0 -0.5397150697
O  O54  1  0.14801000  0.46911000  0.70694000  1.0 -0.5397150697
O  O55  1  0.93770000  0.52110000  0.72690000  1.0 -0.3500223391
O  O56  1  0.47890000  0.06230000  0.22690000  1.0 -0.3500223391
O  O57  1  0.02356000  0.54356000  0.64608000  1.0 -0.3779883019
O  O58  1  0.45644000  0.97644000  0.14608000  1.0 -0.3779883019
O  O59  1  0.04895000  0.44923000  0.78748000  1.0 -0.9961932234
O  O60  1  0.55077000  0.95105000  0.28748000  1.0 -0.9961932234
