# DDEC6 charges by PACMAN v1.1 (https://github.com/mtap-research/PACMAN-charge/)
data_KULLEK_ASR_pacman
_symmetry_space_group_name_H-M   'P 1'
_cell_length_a   20.05900000
_cell_length_b   36.91000000
_cell_length_c   21.49800000
_cell_angle_alpha   90.00000000
_cell_angle_beta   106.85200000
_cell_angle_gamma   90.00000000
_symmetry_Int_Tables_number   1
_chemical_formula_structural   Co5H45C99O20
_chemical_formula_sum   'Co20 H180 C396 O80'
_cell_volume   15233.12792580
_cell_formula_units_Z   4
loop_
 _symmetry_equiv_pos_site_id
 _symmetry_equiv_pos_as_xyz
  1  'x, y, z'
loop_
 _atom_site_type_symbol
 _atom_site_label
 _atom_site_symmetry_multiplicity
 _atom_site_fract_x
 _atom_site_fract_y
 _atom_site_fract_z
 _atom_site_occupancy
 _atom_site_charge
Co  Co1  1  0.04073000  0.03840000  0.35708000  1.0 1.0917594921
Co  Co2  1  0.45927000  0.53840000  0.64292000  1.0 1.0917594921
Co  Co3  1  0.92905000  0.03893000  0.19038000  1.0 1.0509951901
Co  Co4  1  0.57095000  0.53893000  0.80962000  1.0 1.0509951901
Co  Co5  1  0.86095000  0.06009000  0.30017000  1.0 0.9977849315
Co  Co6  1  0.63905000  0.56009000  0.69983000  1.0 0.9977849315
Co  Co7  1  0.09394000  0.12278000  0.30594000  1.0 1.1193612109
Co  Co8  1  0.40606000  0.62278000  0.69406000  1.0 1.1193612109
Co  Co9  1  0.09676000  0.04333000  0.22177000  1.0 1.0217725228
Co  Co10  1  0.40324000  0.54333000  0.77823000  1.0 1.0217725228
Co  Co11  1  0.95927000  0.96160000  0.64292000  1.0 1.0917594921
Co  Co12  1  0.54073000  0.46160000  0.35708000  1.0 1.0917594921
Co  Co13  1  0.07095000  0.96107000  0.80962000  1.0 1.0509951901
Co  Co14  1  0.42905000  0.46107000  0.19038000  1.0 1.0509951901
Co  Co15  1  0.13905000  0.93991000  0.69983000  1.0 0.9977849315
Co  Co16  1  0.36095000  0.43991000  0.30017000  1.0 0.9977849315
Co  Co17  1  0.90606000  0.87722000  0.69406000  1.0 1.1193612109
Co  Co18  1  0.59394000  0.37722000  0.30594000  1.0 1.1193612109
Co  Co19  1  0.90324000  0.95667000  0.77823000  1.0 1.0217725228
Co  Co20  1  0.59676000  0.45667000  0.22177000  1.0 1.0217725228
H  H1  1  0.79240000  0.95320000  0.34030000  1.0 0.1389010127
H  H2  1  0.70760000  0.45320000  0.65970000  1.0 0.1389010127
H  H3  1  0.75740000  0.89240000  0.34050000  1.0 0.1299941625
H  H4  1  0.74260000  0.39240000  0.65950000  1.0 0.1299941625
H  H5  1  0.80520000  0.87560000  0.17380000  1.0 0.1208835617
H  H6  1  0.69480000  0.37560000  0.82620000  1.0 0.1208835617
H  H7  1  0.84850000  0.93330000  0.17740000  1.0 0.1208835617
H  H8  1  0.65150000  0.43330000  0.82260000  1.0 0.1208835617
H  H9  1  0.73770000  0.76270000  0.34000000  1.0 0.1299941625
H  H10  1  0.76230000  0.26270000  0.66000000  1.0 0.1299941625
H  H11  1  0.67340000  0.67440000  0.22590000  1.0 0.1208835617
H  H12  1  0.82660000  0.17440000  0.77410000  1.0 0.1208835617
H  H13  1  0.68530000  0.77200000  0.14430000  1.0 0.1299941625
H  H14  1  0.81470000  0.27200000  0.85570000  1.0 0.1299941625
H  H15  1  0.67910000  0.60330000  0.37960000  1.0 0.1208835617
H  H16  1  0.82090000  0.10330000  0.62040000  1.0 0.1208835617
H  H17  1  0.03610000  0.18380000  0.42740000  1.0 0.1299941625
H  H18  1  0.46390000  0.68380000  0.57260000  1.0 0.1299941625
H  H19  1  0.05480000  0.21900000  0.52150000  1.0 0.1389010127
H  H20  1  0.44520000  0.71900000  0.47850000  1.0 0.1389010127
H  H21  1  0.06230000  0.12930000  0.62780000  1.0 0.1208835617
H  H22  1  0.43770000  0.62930000  0.37220000  1.0 0.1208835617
H  H23  1  0.04150000  0.09480000  0.53340000  1.0 0.1299941625
H  H24  1  0.45850000  0.59480000  0.46660000  1.0 0.1299941625
H  H25  1  0.11870000  0.28530000  0.71830000  1.0 0.1299941625
H  H26  1  0.38130000  0.78530000  0.28170000  1.0 0.1299941625
H  H27  1  0.19690000  0.28000000  0.91510000  1.0 0.1299941625
H  H28  1  0.30310000  0.78000000  0.08490000  1.0 0.1299941625
H  H29  1  0.13170000  0.18820000  0.80830000  1.0 0.1208835617
H  H30  1  0.36830000  0.68820000  0.19170000  1.0 0.1208835617
H  H31  1  0.04240000  0.92210000  0.32800000  1.0 0.1299941625
H  H32  1  0.45760000  0.42210000  0.67200000  1.0 0.1299941625
H  H33  1  0.04430000  0.86210000  0.30210000  1.0 0.1208835617
H  H34  1  0.45570000  0.36210000  0.69790000  1.0 0.1208835617
H  H35  1  0.99210000  0.88790000  0.11120000  1.0 0.1208835617
H  H36  1  0.50790000  0.38790000  0.88880000  1.0 0.1208835617
H  H37  1  0.99780000  0.94890000  0.13970000  1.0 0.1299941625
H  H38  1  0.50220000  0.44890000  0.86030000  1.0 0.1299941625
H  H39  1  0.06490000  0.75160000  0.27640000  1.0 0.1299941625
H  H40  1  0.43510000  0.25160000  0.72360000  1.0 0.1299941625
H  H41  1  0.01140000  0.65810000  0.17490000  1.0 0.1389010127
H  H42  1  0.48860000  0.15810000  0.82510000  1.0 0.1389010127
H  H43  1  0.96490000  0.75400000  0.08100000  1.0 0.1299941625
H  H44  1  0.53510000  0.25400000  0.91900000  1.0 0.1299941625
H  H45  1  0.69990000  0.61280000  0.94400000  1.0 0.1147672128
H  H46  1  0.80010000  0.11280000  0.05600000  1.0 0.1147672128
H  H47  1  0.78220000  0.64440000  0.02100000  1.0 0.1208835617
H  H48  1  0.71780000  0.14440000  0.97900000  1.0 0.1208835617
H  H49  1  0.90470000  0.64790000  0.90170000  1.0 0.1299941625
H  H50  1  0.59530000  0.14790000  0.09830000  1.0 0.1299941625
H  H51  1  0.82240000  0.61300000  0.82440000  1.0 0.1299941625
H  H52  1  0.67760000  0.11300000  0.17560000  1.0 0.1299941625
H  H53  1  0.54000000  0.58700000  0.95280000  1.0 0.1299941625
H  H54  1  0.96000000  0.08700000  0.04720000  1.0 0.1299941625
H  H55  1  0.58900000  0.61930000  0.04600000  1.0 0.1208835617
H  H56  1  0.91100000  0.11930000  0.95400000  1.0 0.1208835617
H  H57  1  0.59920000  0.70860000  0.94160000  1.0 0.1299941625
H  H58  1  0.90080000  0.20860000  0.05840000  1.0 0.1299941625
H  H59  1  0.54950000  0.67570000  0.84750000  1.0 0.1299941625
H  H60  1  0.95050000  0.17570000  0.15250000  1.0 0.1299941625
H  H61  1  0.30460000  0.65620000  0.50280000  1.0 0.1208835617
H  H62  1  0.19540000  0.15620000  0.49720000  1.0 0.1208835617
H  H63  1  0.23580000  0.67860000  0.40290000  1.0 0.1208835617
H  H64  1  0.26420000  0.17860000  0.59710000  1.0 0.1208835617
H  H65  1  0.33060000  0.45120000  0.90340000  1.0 0.1299941625
H  H66  1  0.16940000  0.95120000  0.09660000  1.0 0.1299941625
H  H67  1  0.26650000  0.40170000  0.91400000  1.0 0.1299941625
H  H68  1  0.23350000  0.90170000  0.08600000  1.0 0.1299941625
H  H69  1  0.22150000  0.38630000  0.72890000  1.0 0.1299941625
H  H70  1  0.27850000  0.88630000  0.27110000  1.0 0.1299941625
H  H71  1  0.25900000  0.44620000  0.71470000  1.0 0.1299941625
H  H72  1  0.24100000  0.94620000  0.28530000  1.0 0.1299941625
H  H73  1  0.21460000  0.20990000  0.09610000  1.0 0.1299941625
H  H74  1  0.28540000  0.70990000  0.90390000  1.0 0.1299941625
H  H75  1  0.20040000  0.17750000  0.18830000  1.0 0.1299941625
H  H76  1  0.29960000  0.67750000  0.81170000  1.0 0.1299941625
H  H77  1  0.13990000  0.09640000  0.08010000  1.0 0.1299941625
H  H78  1  0.36010000  0.59640000  0.91990000  1.0 0.1299941625
H  H79  1  0.15480000  0.12710000  0.99030000  1.0 0.1299941625
H  H80  1  0.34520000  0.62710000  0.00970000  1.0 0.1299941625
H  H81  1  0.68930000  0.68710000  0.50700000  1.0 0.1299941625
H  H82  1  0.81070000  0.18710000  0.49300000  1.0 0.1299941625
H  H83  1  0.64810000  0.56470000  0.45420000  1.0 0.1299941625
H  H84  1  0.85190000  0.06470000  0.54580000  1.0 0.1299941625
H  H85  1  0.15180000  0.58910000  0.50870000  1.0 0.1208835617
H  H86  1  0.34820000  0.08910000  0.49130000  1.0 0.1208835617
H  H87  1  0.08230000  0.61210000  0.41010000  1.0 0.1299941625
H  H88  1  0.41770000  0.11210000  0.58990000  1.0 0.1299941625
H  H89  1  0.66400000  0.64560000  0.57960000  1.0 0.1299941625
H  H90  1  0.83600000  0.14560000  0.42040000  1.0 0.1299941625
H  H91  1  0.20760000  0.04680000  0.65970000  1.0 0.1389010127
H  H92  1  0.29240000  0.54680000  0.34030000  1.0 0.1389010127
H  H93  1  0.24260000  0.10760000  0.65950000  1.0 0.1299941625
H  H94  1  0.25740000  0.60760000  0.34050000  1.0 0.1299941625
H  H95  1  0.19480000  0.12440000  0.82620000  1.0 0.1208835617
H  H96  1  0.30520000  0.62440000  0.17380000  1.0 0.1208835617
H  H97  1  0.15150000  0.06670000  0.82260000  1.0 0.1208835617
H  H98  1  0.34850000  0.56670000  0.17740000  1.0 0.1208835617
H  H99  1  0.26230000  0.23730000  0.66000000  1.0 0.1299941625
H  H100  1  0.23770000  0.73730000  0.34000000  1.0 0.1299941625
H  H101  1  0.32660000  0.32560000  0.77410000  1.0 0.1299941625
H  H102  1  0.17340000  0.82560000  0.22590000  1.0 0.1208835617
H  H103  1  0.31470000  0.22800000  0.85570000  1.0 0.1299941625
H  H104  1  0.18530000  0.72800000  0.14430000  1.0 0.1299941625
H  H105  1  0.32090000  0.39670000  0.62040000  1.0 0.1208835617
H  H106  1  0.17910000  0.89670000  0.37960000  1.0 0.1208835617
H  H107  1  0.96390000  0.81620000  0.57260000  1.0 0.1299941625
H  H108  1  0.53610000  0.31620000  0.42740000  1.0 0.1299941625
H  H109  1  0.94520000  0.78100000  0.47850000  1.0 0.1389010127
H  H110  1  0.55480000  0.28100000  0.52150000  1.0 0.1389010127
H  H111  1  0.93770000  0.87070000  0.37220000  1.0 0.1208835617
H  H112  1  0.56230000  0.37070000  0.62780000  1.0 0.1208835617
H  H113  1  0.95850000  0.90520000  0.46660000  1.0 0.1299941625
H  H114  1  0.54150000  0.40520000  0.53340000  1.0 0.1299941625
H  H115  1  0.88130000  0.71470000  0.28170000  1.0 0.1299941625
H  H116  1  0.61870000  0.21470000  0.71830000  1.0 0.1299941625
H  H117  1  0.80310000  0.72000000  0.08490000  1.0 0.1299941625
H  H118  1  0.69690000  0.22000000  0.91510000  1.0 0.1299941625
H  H119  1  0.86830000  0.81180000  0.19170000  1.0 0.1208835617
H  H120  1  0.63170000  0.31180000  0.80830000  1.0 0.1208835617
H  H121  1  0.95760000  0.07790000  0.67200000  1.0 0.1299941625
H  H122  1  0.54240000  0.57790000  0.32800000  1.0 0.1299941625
H  H123  1  0.95570000  0.13790000  0.69790000  1.0 0.1208835617
H  H124  1  0.54430000  0.63790000  0.30210000  1.0 0.1208835617
H  H125  1  0.00790000  0.11210000  0.88880000  1.0 0.1208835617
H  H126  1  0.49210000  0.61210000  0.11120000  1.0 0.1208835617
H  H127  1  0.00220000  0.05110000  0.86030000  1.0 0.1299941625
H  H128  1  0.49780000  0.55110000  0.13970000  1.0 0.1299941625
H  H129  1  0.93510000  0.24840000  0.72360000  1.0 0.1299941625
H  H130  1  0.56490000  0.74840000  0.27640000  1.0 0.1299941625
H  H131  1  0.98860000  0.34190000  0.82510000  1.0 0.1389010127
H  H132  1  0.51140000  0.84190000  0.17490000  1.0 0.1389010127
H  H133  1  0.03510000  0.24600000  0.91900000  1.0 0.1299941625
H  H134  1  0.46490000  0.74600000  0.08100000  1.0 0.1299941625
H  H135  1  0.30010000  0.38720000  0.05600000  1.0 0.1147672128
H  H136  1  0.19990000  0.88720000  0.94400000  1.0 0.1147672128
H  H137  1  0.21780000  0.35560000  0.97900000  1.0 0.1208835617
H  H138  1  0.28220000  0.85560000  0.02100000  1.0 0.1208835617
H  H139  1  0.09530000  0.35210000  0.09830000  1.0 0.1299941625
H  H140  1  0.40470000  0.85210000  0.90170000  1.0 0.1299941625
H  H141  1  0.17760000  0.38700000  0.17560000  1.0 0.1299941625
H  H142  1  0.32240000  0.88700000  0.82440000  1.0 0.1299941625
H  H143  1  0.46000000  0.41300000  0.04720000  1.0 0.1299941625
H  H144  1  0.04000000  0.91300000  0.95280000  1.0 0.1299941625
H  H145  1  0.41100000  0.38070000  0.95400000  1.0 0.1208835617
H  H146  1  0.08900000  0.88070000  0.04600000  1.0 0.1208835617
H  H147  1  0.40080000  0.29140000  0.05840000  1.0 0.1299941625
H  H148  1  0.09920000  0.79140000  0.94160000  1.0 0.1299941625
H  H149  1  0.45050000  0.32430000  0.15250000  1.0 0.1299941625
H  H150  1  0.04950000  0.82430000  0.84750000  1.0 0.1299941625
H  H151  1  0.69540000  0.34380000  0.49720000  1.0 0.1208835617
H  H152  1  0.80460000  0.84380000  0.50280000  1.0 0.1208835617
H  H153  1  0.76420000  0.32140000  0.59710000  1.0 0.1208835617
H  H154  1  0.73580000  0.82140000  0.40290000  1.0 0.1208835617
H  H155  1  0.66940000  0.54880000  0.09660000  1.0 0.1299941625
H  H156  1  0.83060000  0.04880000  0.90340000  1.0 0.1299941625
H  H157  1  0.73350000  0.59830000  0.08600000  1.0 0.1299941625
H  H158  1  0.76650000  0.09830000  0.91400000  1.0 0.1299941625
H  H159  1  0.77850000  0.61370000  0.27110000  1.0 0.1299941625
H  H160  1  0.72150000  0.11370000  0.72890000  1.0 0.1299941625
H  H161  1  0.74100000  0.55380000  0.28530000  1.0 0.1299941625
H  H162  1  0.75900000  0.05380000  0.71470000  1.0 0.1299941625
H  H163  1  0.78540000  0.79010000  0.90390000  1.0 0.1299941625
H  H164  1  0.71460000  0.29010000  0.09610000  1.0 0.1299941625
H  H165  1  0.79960000  0.82250000  0.81170000  1.0 0.1299941625
H  H166  1  0.70040000  0.32250000  0.18830000  1.0 0.1299941625
H  H167  1  0.86010000  0.90360000  0.91990000  1.0 0.1299941625
H  H168  1  0.63990000  0.40360000  0.08010000  1.0 0.1299941625
H  H169  1  0.84520000  0.87290000  0.00970000  1.0 0.1299941625
H  H170  1  0.65480000  0.37290000  0.99030000  1.0 0.1299941625
H  H171  1  0.31070000  0.31290000  0.49300000  1.0 0.1389010127
H  H172  1  0.18930000  0.81290000  0.50700000  1.0 0.1389010127
H  H173  1  0.35190000  0.43530000  0.54580000  1.0 0.1299941625
H  H174  1  0.14810000  0.93530000  0.45420000  1.0 0.1299941625
H  H175  1  0.84820000  0.41090000  0.49130000  1.0 0.1208835617
H  H176  1  0.65180000  0.91090000  0.50870000  1.0 0.1208835617
H  H177  1  0.91770000  0.38790000  0.58990000  1.0 0.1299941625
H  H178  1  0.58230000  0.88790000  0.41010000  1.0 0.1299941625
H  H179  1  0.33600000  0.35440000  0.42040000  1.0 0.1299941625
H  H180  1  0.16400000  0.85440000  0.57960000  1.0 0.1299941625
C  C1  1  0.84340000  0.98839000  0.25600000  1.0 0.5885674487
C  C2  1  0.65660000  0.48839000  0.74400000  1.0 0.5885674487
C  C3  1  0.82150000  0.94977000  0.25740000  1.0 -0.0200808298
C  C4  1  0.67850000  0.44977000  0.74260000  1.0 -0.0200808298
C  C5  1  0.79570000  0.93729000  0.30650000  1.0 -0.0907070273
C  C6  1  0.70430000  0.43729000  0.69350000  1.0 -0.0907070273
C  C7  1  0.77430000  0.90113000  0.30640000  1.0 -0.1393054313
C  C8  1  0.72570000  0.40113000  0.69360000  1.0 -0.1393054313
C  C9  1  0.77760000  0.87824000  0.25710000  1.0 0.1465312209
C  C10  1  0.72240000  0.37824000  0.74290000  1.0 0.1465312209
C  C11  1  0.80380000  0.89117000  0.20860000  1.0 -0.1512202151
C  C12  1  0.69620000  0.39117000  0.79140000  1.0 -0.1512202151
C  C13  1  0.82760000  0.92562000  0.20960000  1.0 -0.0907070273
C  C14  1  0.67240000  0.42562000  0.79040000  1.0 -0.0907070273
C  C15  1  0.75300000  0.84148000  0.25410000  1.0 -0.1116116238
C  C16  1  0.74700000  0.34148000  0.74590000  1.0 -0.1116116238
C  C17  1  0.73320000  0.81063000  0.25000000  1.0 -0.0806427058
C  C18  1  0.76680000  0.31063000  0.75000000  1.0 -0.0806427058
C  C19  1  0.71510000  0.77322000  0.24290000  1.0 0.1389010127
C  C20  1  0.78490000  0.27322000  0.75710000  1.0 0.1389010127
C  C21  1  0.72160000  0.75209000  0.29810000  1.0 -0.187401693
C  C22  1  0.77840000  0.25209000  0.70190000  1.0 -0.187401693
C  C23  1  0.70410000  0.71475000  0.29170000  1.0 0.1299941625
C  C24  1  0.79590000  0.21475000  0.70830000  1.0 0.1299941625
C  C25  1  0.68290000  0.69964000  0.23040000  1.0 -0.1789344508
C  C26  1  0.81710000  0.19964000  0.76960000  1.0 -0.1789344508
C  C27  1  0.69100000  0.75740000  0.18190000  1.0 -0.1587908674
C  C28  1  0.80900000  0.25740000  0.81810000  1.0 -0.1587908674
C  C29  1  0.70450000  0.69319000  0.34670000  1.0 -0.1002535649
C  C30  1  0.79550000  0.19319000  0.65330000  1.0 -0.1002535649
C  C31  1  0.69860000  0.67370000  0.38930000  1.0 -0.0907070273
C  C32  1  0.80140000  0.17370000  0.61070000  1.0 -0.0907070273
C  C33  1  0.69070000  0.64880000  0.43760000  1.0 0.1389010127
C  C34  1  0.80930000  0.14880000  0.56240000  1.0 0.1389010127
C  C35  1  0.67670000  0.61220000  0.42030000  1.0 -0.1587908674
C  C36  1  0.82330000  0.11220000  0.57970000  1.0 -0.1587908674
C  C37  1  0.03270000  0.11255000  0.41280000  1.0 0.595297886
C  C38  1  0.46730000  0.61255000  0.58720000  1.0 0.595297886
C  C39  1  0.03800000  0.13568000  0.47210000  1.0 -0.0117838673
C  C40  1  0.46200000  0.63568000  0.52790000  1.0 -0.0117838673
C  C41  1  0.04150000  0.17243000  0.46820000  1.0 -0.0907070273
C  C42  1  0.45850000  0.67243000  0.53180000  1.0 -0.0907070273
C  C43  1  0.05320000  0.19333000  0.52460000  1.0 -0.1393054313
C  C44  1  0.44680000  0.69333000  0.47540000  1.0 -0.1393054313
C  C45  1  0.06230000  0.17742000  0.58470000  1.0 0.1299941625
C  C46  1  0.43770000  0.67742000  0.41530000  1.0 0.1299941625
C  C47  1  0.05740000  0.14093000  0.58740000  1.0 -0.1393054313
C  C48  1  0.44260000  0.64093000  0.41260000  1.0 -0.1393054313
C  C49  1  0.04500000  0.12043000  0.53060000  1.0 -0.0907070273
C  C50  1  0.45500000  0.62043000  0.46940000  1.0 -0.0907070273
C  C51  1  0.07700000  0.19887000  0.64220000  1.0 -0.1116116238
C  C52  1  0.42300000  0.69887000  0.35780000  1.0 -0.1116116238
C  C53  1  0.09490000  0.21575000  0.69230000  1.0 -0.0806427058
C  C54  1  0.40510000  0.71575000  0.30770000  1.0 -0.0806427058
C  C55  1  0.12030000  0.23404000  0.75340000  1.0 0.1389010127
C  C56  1  0.37970000  0.73404000  0.24660000  1.0 0.1389010127
C  C57  1  0.13140000  0.27115000  0.75690000  1.0 -0.1587908674
C  C58  1  0.36860000  0.77115000  0.24310000  1.0 -0.1587908674
C  C59  1  0.16130000  0.28789000  0.81700000  1.0 0.1299941625
C  C60  1  0.33870000  0.78789000  0.18300000  1.0 0.1299941625
C  C61  1  0.17770000  0.26834000  0.87440000  1.0 -0.1789344508
C  C62  1  0.32230000  0.76834000  0.12560000  1.0 -0.1789344508
C  C63  1  0.16470000  0.23014000  0.87080000  1.0 0.1299941625
C  C64  1  0.33530000  0.73014000  0.12920000  1.0 0.1299941625
C  C65  1  0.13800000  0.21376000  0.81060000  1.0 -0.1789344508
C  C66  1  0.36200000  0.71376000  0.18940000  1.0 -0.1789344508
C  C67  1  0.17700000  0.32599000  0.81840000  1.0 -0.0718323045
C  C68  1  0.32300000  0.82599000  0.18160000  1.0 -0.0718323045
C  C69  1  0.19980000  0.35608000  0.81990000  1.0 -0.1116116238
C  C70  1  0.30020000  0.85608000  0.18010000  1.0 -0.1162972946
C  C71  1  0.23290000  0.38990000  0.81910000  1.0 0.1389010127
C  C72  1  0.26710000  0.88990000  0.18090000  1.0 0.1389010127
C  C73  1  0.17680000  0.21007000  0.92930000  1.0 -0.0806427058
C  C74  1  0.32320000  0.71007000  0.07070000  1.0 -0.0806427058
C  C75  1  0.18160000  0.19269000  0.97820000  1.0 -0.1002535649
C  C76  1  0.31840000  0.69269000  0.02180000  1.0 -0.1002535649
C  C77  1  0.02720000  0.98015000  0.25630000  1.0 0.6060071777
C  C78  1  0.47280000  0.48015000  0.74370000  1.0 0.6060071777
C  C79  1  0.02230000  0.94136000  0.23680000  1.0 -0.0200808298
C  C80  1  0.47770000  0.44136000  0.76320000  1.0 -0.0200808298
C  C81  1  0.03380000  0.91516000  0.28380000  1.0 -0.0907070273
C  C82  1  0.46620000  0.41516000  0.71620000  1.0 -0.0907070273
C  C83  1  0.03310000  0.87960000  0.26830000  1.0 -0.1326218773
C  C84  1  0.46690000  0.37960000  0.73170000  1.0 -0.1326218773
C  C85  1  0.01650000  0.86806000  0.20430000  1.0 0.1299941625
C  C86  1  0.48350000  0.36806000  0.79570000  1.0 0.1299941625
C  C87  1  0.00330000  0.89468000  0.15560000  1.0 -0.1326218773
C  C88  1  0.49670000  0.39468000  0.84440000  1.0 -0.1326218773
C  C89  1  0.00650000  0.93096000  0.17280000  1.0 -0.0907070273
C  C90  1  0.49350000  0.43096000  0.82720000  1.0 -0.0907070273
C  C91  1  0.01500000  0.83012000  0.18870000  1.0 -0.1116116238
C  C92  1  0.48500000  0.33012000  0.81130000  1.0 -0.1116116238
C  C93  1  0.01460000  0.79835000  0.18290000  1.0 -0.0806427058
C  C94  1  0.48540000  0.29835000  0.81710000  1.0 -0.0806427058
C  C95  1  0.01660000  0.75965000  0.17980000  1.0 0.1465312209
C  C96  1  0.48340000  0.25965000  0.82020000  1.0 0.1465312209
C  C97  1  0.04540000  0.73942000  0.23630000  1.0 -0.1730082963
C  C98  1  0.45460000  0.23942000  0.76370000  1.0 -0.1730082963
C  C99  1  0.04590000  0.70206000  0.23460000  1.0 0.1299941625
C  C100  1  0.45410000  0.20206000  0.76540000  1.0 0.1299941625
C  C101  1  0.01320000  0.68386000  0.17590000  1.0 -0.187401693
C  C102  1  0.48680000  0.18386000  0.82410000  1.0 -0.187401693
C  C103  1  0.98320000  0.70377000  0.11920000  1.0 0.1299941625
C  C104  1  0.51680000  0.20377000  0.88080000  1.0 0.1299941625
C  C105  1  0.98480000  0.74073000  0.11990000  1.0 -0.1789344508
C  C106  1  0.51520000  0.24073000  0.88010000  1.0 -0.1789344508
C  C107  1  0.69780000  0.58787000  0.82870000  1.0 0.5885674487
C  C108  1  0.80220000  0.08787000  0.17130000  1.0 0.5885674487
C  C109  1  0.75280000  0.60962000  0.87730000  1.0 -0.0028344295
C  C110  1  0.74720000  0.10962000  0.12270000  1.0 -0.0028344295
C  C111  1  0.74220000  0.61946000  0.93560000  1.0 -0.0907070273
C  C112  1  0.75780000  0.11946000  0.06440000  1.0 -0.0907070273
C  C113  1  0.79050000  0.63833000  0.98090000  1.0 -0.1587908674
C  C114  1  0.70950000  0.13833000  0.01910000  1.0 -0.1587908674
C  C115  1  0.85150000  0.64880000  0.96940000  1.0 0.1299941625
C  C116  1  0.64850000  0.14880000  0.03060000  1.0 0.1299941625
C  C117  1  0.86320000  0.64010000  0.91050000  1.0 -0.1326218773
C  C118  1  0.63680000  0.14010000  0.08950000  1.0 -0.1326218773
C  C119  1  0.81400000  0.61970000  0.86420000  1.0 -0.0907070273
C  C120  1  0.68600000  0.11970000  0.13580000  1.0 -0.0907070273
C  C121  1  0.90410000  0.66878000  0.01940000  1.0 -0.0907070273
C  C122  1  0.59590000  0.16878000  0.98060000  1.0 -0.0907070273
C  C123  1  0.94180000  0.68485000  0.06060000  1.0 -0.0718323045
C  C124  1  0.55820000  0.18485000  0.93940000  1.0 -0.0718323045
C  C125  1  0.50530000  0.60791000  0.82910000  1.0 0.595297886
C  C126  1  0.99470000  0.10791000  0.17090000  1.0 0.595297886
C  C127  1  0.54020000  0.62852000  0.89000000  1.0 -0.0117838673
C  C128  1  0.95980000  0.12852000  0.11000000  1.0 -0.0117838673
C  C129  1  0.55190000  0.61173000  0.95020000  1.0 -0.1002535649
C  C130  1  0.94810000  0.11173000  0.04980000  1.0 -0.1002535649
C  C131  1  0.58030000  0.63111000  0.00510000  1.0 -0.1393054313
C  C132  1  0.91970000  0.13111000  0.99490000  1.0 -0.1393054313
C  C133  1  0.59740000  0.66783000  0.00400000  1.0 0.1389010127
C  C134  1  0.90260000  0.16783000  0.99600000  1.0 0.1389010127
C  C135  1  0.58670000  0.68392000  0.94440000  1.0 -0.1393054313
C  C136  1  0.91330000  0.18392000  0.05560000  1.0 -0.1393054313
C  C137  1  0.55760000  0.66410000  0.88850000  1.0 -0.0907070273
C  C138  1  0.94240000  0.16410000  0.11150000  1.0 -0.0907070273
C  C139  1  0.62630000  0.68834000  0.06210000  1.0 -0.1162972946
C  C140  1  0.87370000  0.18834000  0.93790000  1.0 -0.1162972946
C  C141  1  0.64970000  0.70429000  0.11240000  1.0 -0.0718323045
C  C142  1  0.85030000  0.20429000  0.88760000  1.0 -0.0718323045
C  C143  1  0.67520000  0.72097000  0.17470000  1.0 0.1389010127
C  C144  1  0.82480000  0.22097000  0.82530000  1.0 0.1389010127
C  C145  1  0.27980000  0.60825000  0.58270000  1.0 0.5733510445
C  C146  1  0.22020000  0.10825000  0.41730000  1.0 0.5733510445
C  C147  1  0.23350000  0.62193000  0.51680000  1.0 0.0024258879
C  C148  1  0.26650000  0.12193000  0.48320000  1.0 0.0024258879
C  C149  1  0.25850000  0.64740000  0.48500000  1.0 -0.0907070273
C  C150  1  0.24150000  0.14740000  0.51500000  1.0 -0.0907070273
C  C151  1  0.21680000  0.66110000  0.42530000  1.0 -0.1512202151
C  C152  1  0.28320000  0.16110000  0.57470000  1.0 -0.1512202151
C  C153  1  0.15210000  0.65015000  0.39960000  1.0 0.1299941625
C  C154  1  0.34790000  0.15015000  0.60040000  1.0 0.1299941625
C  C155  1  0.10920000  0.66651000  0.33960000  1.0 -0.1002535649
C  C156  1  0.39080000  0.16651000  0.66040000  1.0 -0.1002535649
C  C157  1  0.07850000  0.68198000  0.29120000  1.0 -0.0806427058
C  C158  1  0.42150000  0.18198000  0.70880000  1.0 -0.0806427058
C  C159  1  0.33620000  0.48910000  0.80250000  1.0 0.548040409
C  C160  1  0.16380000  0.98910000  0.19750000  1.0 0.548040409
C  C161  1  0.29960000  0.45430000  0.80830000  1.0 0.0024258879
C  C162  1  0.20040000  0.95430000  0.19170000  1.0 0.0024258879
C  C163  1  0.30240000  0.43970000  0.86520000  1.0 -0.1116116238
C  C164  1  0.19760000  0.93970000  0.13480000  1.0 -0.1116116238
C  C165  1  0.26720000  0.40940000  0.87200000  1.0 -0.1730082963
C  C166  1  0.23280000  0.90940000  0.12800000  1.0 -0.1730082963
C  C167  1  0.23750000  0.40150000  0.76590000  1.0 -0.1587908674
C  C168  1  0.26250000  0.90150000  0.23410000  1.0 -0.1587908674
C  C169  1  0.26540000  0.43650000  0.75700000  1.0 -0.1002535649
C  C170  1  0.23460000  0.93650000  0.24300000  1.0 -0.1002535649
C  C171  1  0.18300000  0.17210000  0.03430000  1.0 0.1208835617
C  C172  1  0.31700000  0.67210000  0.96570000  1.0 0.1208835617
C  C173  1  0.19850000  0.18550000  0.09040000  1.0 -0.1393054313
C  C174  1  0.30150000  0.68550000  0.90960000  1.0 -0.1393054313
C  C175  1  0.19310000  0.16520000  0.14800000  1.0 -0.0718323045
C  C176  1  0.30690000  0.66520000  0.85200000  1.0 -0.0718323045
C  C177  1  0.15930000  0.12010000  0.08600000  1.0 -0.1002535649
C  C178  1  0.34070000  0.62010000  0.91400000  1.0 -0.1002535649
C  C179  1  0.16490000  0.13920000  0.03100000  1.0 -0.1512202151
C  C180  1  0.33510000  0.63920000  0.96900000  1.0 -0.1512202151
C  C181  1  0.68360000  0.66210000  0.49640000  1.0 -0.1512202151
C  C182  1  0.81640000  0.16210000  0.50360000  1.0 -0.1512202151
C  C183  1  0.65900000  0.58930000  0.46510000  1.0 -0.0907070273
C  C184  1  0.84100000  0.08930000  0.53490000  1.0 -0.0907070273
C  C185  1  0.16890000  0.60830000  0.48810000  1.0 -0.0907070273
C  C186  1  0.33110000  0.10830000  0.51190000  1.0 -0.0907070273
C  C187  1  0.12730000  0.62190000  0.42960000  1.0 -0.1326218773
C  C188  1  0.37270000  0.12190000  0.57040000  1.0 -0.1326218773
C  C189  1  0.63610000  0.57610000  0.57220000  1.0 0.5597695898
C  C190  1  0.86390000  0.07610000  0.42780000  1.0 0.5597695898
C  C191  1  0.65720000  0.60220000  0.52440000  1.0 -0.0028344295
C  C192  1  0.84280000  0.10220000  0.47560000  1.0 -0.0028344295
C  C193  1  0.66760000  0.63720000  0.53890000  1.0 -0.0907070273
C  C194  1  0.83240000  0.13720000  0.46110000  1.0 -0.0907070273
C  C195  1  0.17020000  0.11280000  0.20060000  1.0 0.5885674487
C  C196  1  0.32980000  0.61280000  0.79940000  1.0 0.595297886
C  C197  1  0.17960000  0.13340000  0.14460000  1.0 -0.0117838673
C  C198  1  0.32040000  0.63340000  0.85540000  1.0 -0.0200808298
C  C199  1  0.15660000  0.01161000  0.74400000  1.0 0.5885674487
C  C200  1  0.34340000  0.51161000  0.25600000  1.0 0.5885674487
C  C201  1  0.17850000  0.05023000  0.74260000  1.0 -0.0200808298
C  C202  1  0.32150000  0.55023000  0.25740000  1.0 -0.0200808298
C  C203  1  0.20430000  0.06271000  0.69350000  1.0 -0.0907070273
C  C204  1  0.29570000  0.56271000  0.30650000  1.0 -0.0907070273
C  C205  1  0.22570000  0.09887000  0.69360000  1.0 -0.1393054313
C  C206  1  0.27430000  0.59887000  0.30640000  1.0 -0.1393054313
C  C207  1  0.22240000  0.12176000  0.74290000  1.0 0.1465312209
C  C208  1  0.27760000  0.62176000  0.25710000  1.0 0.1465312209
C  C209  1  0.19620000  0.10883000  0.79140000  1.0 -0.1512202151
C  C210  1  0.30380000  0.60883000  0.20860000  1.0 -0.1512202151
C  C211  1  0.17240000  0.07438000  0.79040000  1.0 -0.0907070273
C  C212  1  0.32760000  0.57438000  0.20960000  1.0 -0.0907070273
C  C213  1  0.24700000  0.15852000  0.74590000  1.0 -0.1116116238
C  C214  1  0.25300000  0.65852000  0.25410000  1.0 -0.1116116238
C  C215  1  0.26680000  0.18937000  0.75000000  1.0 -0.0806427058
C  C216  1  0.23320000  0.68937000  0.25000000  1.0 -0.0806427058
C  C217  1  0.28490000  0.22678000  0.75710000  1.0 0.1389010127
C  C218  1  0.21510000  0.72678000  0.24290000  1.0 0.1389010127
C  C219  1  0.27840000  0.24791000  0.70190000  1.0 -0.187401693
C  C220  1  0.22160000  0.74791000  0.29810000  1.0 -0.187401693
C  C221  1  0.29590000  0.28525000  0.70830000  1.0 0.1299941625
C  C222  1  0.20410000  0.78525000  0.29170000  1.0 0.1299941625
C  C223  1  0.31710000  0.30036000  0.76960000  1.0 -0.1789344508
C  C224  1  0.18290000  0.80036000  0.23040000  1.0 -0.1789344508
C  C225  1  0.30900000  0.24260000  0.81810000  1.0 -0.1587908674
C  C226  1  0.19100000  0.74260000  0.18190000  1.0 -0.1587908674
C  C227  1  0.29550000  0.30681000  0.65330000  1.0 -0.1002535649
C  C228  1  0.20450000  0.80681000  0.34670000  1.0 -0.1002535649
C  C229  1  0.30140000  0.32630000  0.61070000  1.0 -0.0907070273
C  C230  1  0.19860000  0.82630000  0.38930000  1.0 -0.0907070273
C  C231  1  0.30930000  0.35120000  0.56240000  1.0 0.1389010127
C  C232  1  0.19070000  0.85120000  0.43760000  1.0 0.1389010127
C  C233  1  0.32330000  0.38780000  0.57970000  1.0 -0.1587908674
C  C234  1  0.17670000  0.88780000  0.42030000  1.0 -0.1587908674
C  C235  1  0.96730000  0.88745000  0.58720000  1.0 0.595297886
C  C236  1  0.53270000  0.38745000  0.41280000  1.0 0.595297886
C  C237  1  0.96200000  0.86432000  0.52790000  1.0 -0.0117838673
C  C238  1  0.53800000  0.36432000  0.47210000  1.0 -0.0117838673
C  C239  1  0.95850000  0.82757000  0.53180000  1.0 -0.0907070273
C  C240  1  0.54150000  0.32757000  0.46820000  1.0 -0.0907070273
C  C241  1  0.94680000  0.80667000  0.47540000  1.0 -0.1393054313
C  C242  1  0.55320000  0.30667000  0.52460000  1.0 -0.1393054313
C  C243  1  0.93770000  0.82258000  0.41530000  1.0 0.1299941625
C  C244  1  0.56230000  0.32258000  0.58470000  1.0 0.1299941625
C  C245  1  0.94260000  0.85907000  0.41260000  1.0 -0.1393054313
C  C246  1  0.55740000  0.35907000  0.58740000  1.0 -0.1393054313
C  C247  1  0.95500000  0.87957000  0.46940000  1.0 -0.0907070273
C  C248  1  0.54500000  0.37957000  0.53060000  1.0 -0.0907070273
C  C249  1  0.92300000  0.80113000  0.35780000  1.0 -0.1116116238
C  C250  1  0.57700000  0.30113000  0.64220000  1.0 -0.1116116238
C  C251  1  0.90510000  0.78425000  0.30770000  1.0 -0.0806427058
C  C252  1  0.59490000  0.28425000  0.69230000  1.0 -0.0806427058
C  C253  1  0.87970000  0.76596000  0.24660000  1.0 0.1389010127
C  C254  1  0.62030000  0.26596000  0.75340000  1.0 0.1389010127
C  C255  1  0.86860000  0.72885000  0.24310000  1.0 -0.1587908674
C  C256  1  0.63140000  0.22885000  0.75690000  1.0 -0.1587908674
C  C257  1  0.83870000  0.71211000  0.18300000  1.0 0.1299941625
C  C258  1  0.66130000  0.21211000  0.81700000  1.0 0.1299941625
C  C259  1  0.82230000  0.73166000  0.12560000  1.0 -0.1789344508
C  C260  1  0.67770000  0.23166000  0.87440000  1.0 -0.1789344508
C  C261  1  0.83530000  0.76986000  0.12920000  1.0 0.1299941625
C  C262  1  0.66470000  0.26986000  0.87080000  1.0 0.1299941625
C  C263  1  0.86200000  0.78624000  0.18940000  1.0 -0.1789344508
C  C264  1  0.63800000  0.28624000  0.81060000  1.0 -0.1789344508
C  C265  1  0.82300000  0.67401000  0.18160000  1.0 -0.0718323045
C  C266  1  0.67700000  0.17401000  0.81840000  1.0 -0.0718323045
C  C267  1  0.80020000  0.64392000  0.18010000  1.0 -0.1116116238
C  C268  1  0.69980000  0.14392000  0.81990000  1.0 -0.1116116238
C  C269  1  0.76710000  0.61010000  0.18090000  1.0 0.1389010127
C  C270  1  0.73290000  0.11010000  0.81910000  1.0 0.1389010127
C  C271  1  0.82320000  0.78993000  0.07070000  1.0 -0.0806427058
C  C272  1  0.67680000  0.28993000  0.92930000  1.0 -0.0806427058
C  C273  1  0.81840000  0.80731000  0.02180000  1.0 -0.1002535649
C  C274  1  0.68160000  0.30731000  0.97820000  1.0 -0.1002535649
C  C275  1  0.97280000  0.01985000  0.74370000  1.0 0.6060071777
C  C276  1  0.52720000  0.51985000  0.25630000  1.0 0.6060071777
C  C277  1  0.97770000  0.05864000  0.76320000  1.0 -0.0200808298
C  C278  1  0.52230000  0.55864000  0.23680000  1.0 -0.0200808298
C  C279  1  0.96620000  0.08484000  0.71620000  1.0 -0.0907070273
C  C280  1  0.53380000  0.58484000  0.28380000  1.0 -0.0907070273
C  C281  1  0.96690000  0.12040000  0.73170000  1.0 -0.1326218773
C  C282  1  0.53310000  0.62040000  0.26830000  1.0 -0.1326218773
C  C283  1  0.98350000  0.13194000  0.79570000  1.0 0.1299941625
C  C284  1  0.51650000  0.63194000  0.20430000  1.0 0.1299941625
C  C285  1  0.99670000  0.10532000  0.84440000  1.0 -0.1326218773
C  C286  1  0.50330000  0.60532000  0.15560000  1.0 -0.1393054313
C  C287  1  0.99350000  0.06904000  0.82720000  1.0 -0.0907070273
C  C288  1  0.50650000  0.56904000  0.17280000  1.0 -0.0907070273
C  C289  1  0.98500000  0.16988000  0.81130000  1.0 -0.1116116238
C  C290  1  0.51500000  0.66988000  0.18870000  1.0 -0.1116116238
C  C291  1  0.98540000  0.20165000  0.81710000  1.0 -0.0806427058
C  C292  1  0.51460000  0.70165000  0.18290000  1.0 -0.0806427058
C  C293  1  0.98340000  0.24035000  0.82020000  1.0 0.1465312209
C  C294  1  0.51660000  0.74035000  0.17980000  1.0 0.1465312209
C  C295  1  0.95460000  0.26058000  0.76370000  1.0 -0.1730082963
C  C296  1  0.54540000  0.76058000  0.23630000  1.0 -0.1730082963
C  C297  1  0.95410000  0.29794000  0.76540000  1.0 0.1299941625
C  C298  1  0.54590000  0.79794000  0.23460000  1.0 0.1299941625
C  C299  1  0.98680000  0.31614000  0.82410000  1.0 -0.187401693
C  C300  1  0.51320000  0.81614000  0.17590000  1.0 -0.187401693
C  C301  1  0.01680000  0.29623000  0.88080000  1.0 0.1299941625
C  C302  1  0.48320000  0.79623000  0.11920000  1.0 0.1299941625
C  C303  1  0.01520000  0.25927000  0.88010000  1.0 -0.1789344508
C  C304  1  0.48480000  0.75927000  0.11990000  1.0 -0.1789344508
C  C305  1  0.30220000  0.41213000  0.17130000  1.0 0.5885674487
C  C306  1  0.19780000  0.91213000  0.82870000  1.0 0.5885674487
C  C307  1  0.24720000  0.39038000  0.12270000  1.0 -0.0028344295
C  C308  1  0.25280000  0.89038000  0.87730000  1.0 -0.0117838673
C  C309  1  0.25780000  0.38054000  0.06440000  1.0 -0.0907070273
C  C310  1  0.24220000  0.88054000  0.93560000  1.0 -0.0907070273
C  C311  1  0.20950000  0.36167000  0.01910000  1.0 -0.1587908674
C  C312  1  0.29050000  0.86167000  0.98090000  1.0 -0.1587908674
C  C313  1  0.14850000  0.35120000  0.03060000  1.0 0.1299941625
C  C314  1  0.35150000  0.85120000  0.96940000  1.0 0.1299941625
C  C315  1  0.13680000  0.35990000  0.08950000  1.0 -0.1326218773
C  C316  1  0.36320000  0.85990000  0.91050000  1.0 -0.1326218773
C  C317  1  0.18600000  0.38030000  0.13580000  1.0 -0.0907070273
C  C318  1  0.31400000  0.88030000  0.86420000  1.0 -0.0907070273
C  C319  1  0.09590000  0.33122000  0.98060000  1.0 -0.0907070273
C  C320  1  0.40410000  0.83122000  0.01940000  1.0 -0.0907070273
C  C321  1  0.05820000  0.31515000  0.93940000  1.0 -0.0718323045
C  C322  1  0.44180000  0.81515000  0.06060000  1.0 -0.0718323045
C  C323  1  0.49470000  0.39209000  0.17090000  1.0 0.595297886
C  C324  1  0.00530000  0.89209000  0.82910000  1.0 0.595297886
C  C325  1  0.45980000  0.37148000  0.11000000  1.0 -0.0117838673
C  C326  1  0.04020000  0.87148000  0.89000000  1.0 -0.0117838673
C  C327  1  0.44810000  0.38827000  0.04980000  1.0 -0.1002535649
C  C328  1  0.05190000  0.88827000  0.95020000  1.0 -0.1002535649
C  C329  1  0.41970000  0.36889000  0.99490000  1.0 -0.1393054313
C  C330  1  0.08030000  0.86889000  0.00510000  1.0 -0.1393054313
C  C331  1  0.40260000  0.33217000  0.99600000  1.0 0.1389010127
C  C332  1  0.09740000  0.83217000  0.00400000  1.0 0.1389010127
C  C333  1  0.41330000  0.31608000  0.05560000  1.0 -0.1393054313
C  C334  1  0.08670000  0.81608000  0.94440000  1.0 -0.1393054313
C  C335  1  0.44240000  0.33590000  0.11150000  1.0 -0.0907070273
C  C336  1  0.05760000  0.83590000  0.88850000  1.0 -0.0907070273
C  C337  1  0.37370000  0.31166000  0.93790000  1.0 -0.1162972946
C  C338  1  0.12630000  0.81166000  0.06210000  1.0 -0.1162972946
C  C339  1  0.35030000  0.29571000  0.88760000  1.0 -0.0718323045
C  C340  1  0.14970000  0.79571000  0.11240000  1.0 -0.0718323045
C  C341  1  0.32480000  0.27903000  0.82530000  1.0 0.1389010127
C  C342  1  0.17520000  0.77903000  0.17470000  1.0 0.1389010127
C  C343  1  0.72020000  0.39175000  0.41730000  1.0 0.5733510445
C  C344  1  0.77980000  0.89175000  0.58270000  1.0 0.5733510445
C  C345  1  0.76650000  0.37807000  0.48320000  1.0 0.0024258879
C  C346  1  0.73350000  0.87807000  0.51680000  1.0 0.0024258879
C  C347  1  0.74150000  0.35260000  0.51500000  1.0 -0.0907070273
C  C348  1  0.75850000  0.85260000  0.48500000  1.0 -0.0907070273
C  C349  1  0.78320000  0.33890000  0.57470000  1.0 -0.1512202151
C  C350  1  0.71680000  0.83890000  0.42530000  1.0 -0.1512202151
C  C351  1  0.84790000  0.34985000  0.60040000  1.0 0.1299941625
C  C352  1  0.65210000  0.84985000  0.39960000  1.0 0.1299941625
C  C353  1  0.89080000  0.33349000  0.66040000  1.0 -0.1002535649
C  C354  1  0.60920000  0.83349000  0.33960000  1.0 -0.1002535649
C  C355  1  0.92150000  0.31802000  0.70880000  1.0 -0.0806427058
C  C356  1  0.57850000  0.81802000  0.29120000  1.0 -0.0806427058
C  C357  1  0.66380000  0.51090000  0.19750000  1.0 0.548040409
C  C358  1  0.83620000  0.01090000  0.80250000  1.0 0.548040409
C  C359  1  0.70040000  0.54570000  0.19170000  1.0 0.0024258879
C  C360  1  0.79960000  0.04570000  0.80830000  1.0 0.0024258879
C  C361  1  0.69760000  0.56030000  0.13480000  1.0 -0.1116116238
C  C362  1  0.80240000  0.06030000  0.86520000  1.0 -0.1116116238
C  C363  1  0.73280000  0.59060000  0.12800000  1.0 -0.1730082963
C  C364  1  0.76720000  0.09060000  0.87200000  1.0 -0.1730082963
C  C365  1  0.76250000  0.59850000  0.23410000  1.0 -0.1587908674
C  C366  1  0.73750000  0.09850000  0.76590000  1.0 -0.1587908674
C  C367  1  0.73460000  0.56350000  0.24300000  1.0 -0.1002535649
C  C368  1  0.76540000  0.06350000  0.75700000  1.0 -0.1002535649
C  C369  1  0.81700000  0.82790000  0.96570000  1.0 0.1208835617
C  C370  1  0.68300000  0.32790000  0.03430000  1.0 0.1208835617
C  C371  1  0.80150000  0.81450000  0.90960000  1.0 -0.1393054313
C  C372  1  0.69850000  0.31450000  0.09040000  1.0 -0.1393054313
C  C373  1  0.80690000  0.83480000  0.85200000  1.0 -0.0718323045
C  C374  1  0.69310000  0.33480000  0.14800000  1.0 -0.0718323045
C  C375  1  0.84070000  0.87990000  0.91400000  1.0 -0.1002535649
C  C376  1  0.65930000  0.37990000  0.08600000  1.0 -0.1002535649
C  C377  1  0.83510000  0.86080000  0.96900000  1.0 -0.1512202151
C  C378  1  0.66490000  0.36080000  0.03100000  1.0 -0.1512202151
C  C379  1  0.31640000  0.33790000  0.50360000  1.0 -0.1512202151
C  C380  1  0.18360000  0.83790000  0.49640000  1.0 -0.1512202151
C  C381  1  0.34100000  0.41070000  0.53490000  1.0 -0.0907070273
C  C382  1  0.15900000  0.91070000  0.46510000  1.0 -0.0907070273
C  C383  1  0.83110000  0.39170000  0.51190000  1.0 -0.0907070273
C  C384  1  0.66890000  0.89170000  0.48810000  1.0 -0.0907070273
C  C385  1  0.87270000  0.37810000  0.57040000  1.0 -0.1326218773
C  C386  1  0.62730000  0.87810000  0.42960000  1.0 -0.1326218773
C  C387  1  0.36390000  0.42390000  0.42780000  1.0 0.5597695898
C  C388  1  0.13610000  0.92390000  0.57220000  1.0 0.5597695898
C  C389  1  0.34280000  0.39780000  0.47560000  1.0 -0.0028344295
C  C390  1  0.15720000  0.89780000  0.52440000  1.0 -0.0028344295
C  C391  1  0.33240000  0.36280000  0.46110000  1.0 -0.0907070273
C  C392  1  0.16760000  0.86280000  0.53890000  1.0 -0.0907070273
C  C393  1  0.82980000  0.88720000  0.79940000  1.0 0.595297886
C  C394  1  0.67020000  0.38720000  0.20060000  1.0 0.5885674487
C  C395  1  0.82040000  0.86660000  0.85540000  1.0 -0.0200808298
C  C396  1  0.67960000  0.36660000  0.14460000  1.0 -0.0117838673
O  O1  1  0.95280000  0.05965000  0.28454000  1.0 -0.8286063109
O  O2  1  0.54720000  0.55965000  0.71546000  1.0 -0.8286063109
O  O3  1  0.10030000  0.06599000  0.30530000  1.0 -0.8286063109
O  O4  1  0.39970000  0.56599000  0.69470000  1.0 -0.8286063109
O  O5  1  0.04120000  0.98828000  0.31420000  1.0 -0.5137250532
O  O6  1  0.45880000  0.48828000  0.68580000  1.0 -0.5137250532
O  O7  1  0.04040000  0.07898000  0.42239000  1.0 -0.5324906169
O  O8  1  0.45960000  0.57898000  0.57761000  1.0 -0.5324906169
O  O9  1  0.01400000  0.00421000  0.21030000  1.0 -0.5942422558
O  O10  1  0.48600000  0.50421000  0.78970000  1.0 -0.5942422558
O  O11  1  0.49700000  0.57430000  0.83310000  1.0 -0.5636818517
O  O12  1  0.00300000  0.07430000  0.16690000  1.0 -0.5636818517
O  O13  1  0.87020000  0.99779000  0.21280000  1.0 -0.56808513
O  O14  1  0.62980000  0.49779000  0.78720000  1.0 -0.56808513
O  O15  1  0.64790000  0.57686000  0.84447000  1.0 -0.5372037847
O  O16  1  0.85210000  0.07686000  0.15553000  1.0 -0.5372037847
O  O17  1  0.83200000  0.00921000  0.29900000  1.0 -0.5227585345
O  O18  1  0.66800000  0.50921000  0.70100000  1.0 -0.5227585345
O  O19  1  0.64890000  0.58782000  0.62690000  1.0 -0.5008677651
O  O20  1  0.85110000  0.08782000  0.37310000  1.0 -0.5008677651
O  O21  1  0.70820000  0.58319000  0.77270000  1.0 -0.5324906169
O  O22  1  0.79180000  0.08319000  0.22730000  1.0 -0.5324906169
O  O23  1  0.33070000  0.62659000  0.60830000  1.0 -0.5324906169
O  O24  1  0.16930000  0.12659000  0.39170000  1.0 -0.5324906169
O  O25  1  0.16190000  0.12994000  0.24780000  1.0 -0.5227585345
O  O26  1  0.33810000  0.62994000  0.75220000  1.0 -0.5227585345
O  O27  1  0.48840000  0.62568000  0.77700000  1.0 -0.4903077716
O  O28  1  0.01160000  0.12568000  0.22300000  1.0 -0.4903077716
O  O29  1  0.02000000  0.12752000  0.35759000  1.0 -0.5008677651
O  O30  1  0.48000000  0.62752000  0.64241000  1.0 -0.5008677651
O  O31  1  0.37740000  0.50472000  0.85210000  1.0 -0.5372037847
O  O32  1  0.12260000  0.00472000  0.14790000  1.0 -0.5372037847
O  O33  1  0.16490000  0.07946000  0.19460000  1.0 -0.4903077716
O  O34  1  0.33510000  0.57946000  0.80540000  1.0 -0.4903077716
O  O35  1  0.32350000  0.50339000  0.74370000  1.0 -0.5227585345
O  O36  1  0.17650000  0.00339000  0.25630000  1.0 -0.5227585345
O  O37  1  0.25830000  0.58041000  0.60600000  1.0 -0.4712713171
O  O38  1  0.24170000  0.08041000  0.39400000  1.0 -0.4712713171
O  O39  1  0.61240000  0.54640000  0.55130000  1.0 -0.4903077716
O  O40  1  0.88760000  0.04640000  0.44870000  1.0 -0.4903077716
O  O41  1  0.04720000  0.94035000  0.71546000  1.0 -0.8286063109
O  O42  1  0.45280000  0.44035000  0.28454000  1.0 -0.8286063109
O  O43  1  0.89970000  0.93401000  0.69470000  1.0 -0.8286063109
O  O44  1  0.60030000  0.43401000  0.30530000  1.0 -0.8286063109
O  O45  1  0.95880000  0.01172000  0.68580000  1.0 -0.5137250532
O  O46  1  0.54120000  0.51172000  0.31420000  1.0 -0.5137250532
O  O47  1  0.95960000  0.92102000  0.57761000  1.0 -0.5324906169
O  O48  1  0.54040000  0.42102000  0.42239000  1.0 -0.5324906169
O  O49  1  0.98600000  0.99579000  0.78970000  1.0 -0.5942422558
O  O50  1  0.51400000  0.49579000  0.21030000  1.0 -0.5942422558
O  O51  1  0.50300000  0.42570000  0.16690000  1.0 -0.5636818517
O  O52  1  0.99700000  0.92570000  0.83310000  1.0 -0.5636818517
O  O53  1  0.12980000  0.00221000  0.78720000  1.0 -0.56808513
O  O54  1  0.37020000  0.50221000  0.21280000  1.0 -0.56808513
O  O55  1  0.35210000  0.42314000  0.15553000  1.0 -0.5372037847
O  O56  1  0.14790000  0.92314000  0.84447000  1.0 -0.5372037847
O  O57  1  0.16800000  0.99079000  0.70100000  1.0 -0.5227585345
O  O58  1  0.33200000  0.49079000  0.29900000  1.0 -0.5227585345
O  O59  1  0.35110000  0.41218000  0.37310000  1.0 -0.5008677651
O  O60  1  0.14890000  0.91218000  0.62690000  1.0 -0.5008677651
O  O61  1  0.29180000  0.41681000  0.22730000  1.0 -0.5324906169
O  O62  1  0.20820000  0.91681000  0.77270000  1.0 -0.5324906169
O  O63  1  0.66930000  0.37341000  0.39170000  1.0 -0.5324906169
O  O64  1  0.83070000  0.87341000  0.60830000  1.0 -0.5324906169
O  O65  1  0.83810000  0.87006000  0.75220000  1.0 -0.5227585345
O  O66  1  0.66190000  0.37006000  0.24780000  1.0 -0.5227585345
O  O67  1  0.51160000  0.37432000  0.22300000  1.0 -0.4903077716
O  O68  1  0.98840000  0.87432000  0.77700000  1.0 -0.4903077716
O  O69  1  0.98000000  0.87248000  0.64241000  1.0 -0.5008677651
O  O70  1  0.52000000  0.37248000  0.35759000  1.0 -0.5008677651
O  O71  1  0.62260000  0.49528000  0.14790000  1.0 -0.5372037847
O  O72  1  0.87740000  0.99528000  0.85210000  1.0 -0.5372037847
O  O73  1  0.83510000  0.92054000  0.80540000  1.0 -0.4903077716
O  O74  1  0.66490000  0.42054000  0.19460000  1.0 -0.4903077716
O  O75  1  0.67650000  0.49661000  0.25630000  1.0 -0.5227585345
O  O76  1  0.82350000  0.99661000  0.74370000  1.0 -0.5227585345
O  O77  1  0.74170000  0.41959000  0.39400000  1.0 -0.4712713171
O  O78  1  0.75830000  0.91959000  0.60600000  1.0 -0.4712713171
O  O79  1  0.38760000  0.45360000  0.44870000  1.0 -0.4903077716
O  O80  1  0.11240000  0.95360000  0.55130000  1.0 -0.4903077716
