# DDEC6 charges by PACMAN v1.1 (https://github.com/mtap-research/PACMAN-charge/)
data_KULMAG_ASR_pacman
_symmetry_space_group_name_H-M   'P 1'
_cell_length_a   16.98410000
_cell_length_b   16.98410000
_cell_length_c   17.19590000
_cell_angle_alpha   85.28920000
_cell_angle_beta   94.71080000
_cell_angle_gamma   94.83620000
_symmetry_Int_Tables_number   1
_chemical_formula_structural   Zn4H62C64S4N2O15
_chemical_formula_sum   'Zn8 H124 C128 S8 N4 O30'
_cell_volume   4911.82238426
_cell_formula_units_Z   2
loop_
 _symmetry_equiv_pos_site_id
 _symmetry_equiv_pos_as_xyz
  1  'x, y, z'
loop_
 _atom_site_type_symbol
 _atom_site_label
 _atom_site_symmetry_multiplicity
 _atom_site_fract_x
 _atom_site_fract_y
 _atom_site_fract_z
 _atom_site_occupancy
 _atom_site_charge
Zn  Zn1  1  0.07965000  0.92035000  0.17837000  1.0 0.9176459929
Zn  Zn2  1  0.20973000  0.92489000  0.31883000  1.0 0.9176459929
Zn  Zn3  1  0.07511000  0.79027000  0.31883000  1.0 0.9176459929
Zn  Zn4  1  0.20952000  0.79048000  0.19914000  1.0 0.8835221748
Zn  Zn5  1  0.92035000  0.07965000  0.82163000  1.0 0.9176459929
Zn  Zn6  1  0.92489000  0.20973000  0.68117000  1.0 0.9176459929
Zn  Zn7  1  0.79027000  0.07511000  0.68117000  1.0 0.9176459929
Zn  Zn8  1  0.79048000  0.20952000  0.80086000  1.0 0.8835221748
H  H1  1  0.06230000  0.16750000  0.14740000  1.0 0.1096665048
H  H2  1  0.83250000  0.93770000  0.14740000  1.0 0.1096665048
H  H3  1  0.05770000  0.30530000  0.14790000  1.0 0.1214978537
H  H4  1  0.69470000  0.94230000  0.14790000  1.0 0.1214978537
H  H5  1  0.16860000  0.29780000  0.36590000  1.0 0.1214978537
H  H6  1  0.70220000  0.83140000  0.36590000  1.0 0.1214978537
H  H7  1  0.17930000  0.16110000  0.36120000  1.0 0.1214978537
H  H8  1  0.83890000  0.82070000  0.36120000  1.0 0.1214978537
H  H9  1  0.15860000  0.42680000  0.15470000  1.0 0.1096665048
H  H10  1  0.57320000  0.84140000  0.15470000  1.0 0.1096665048
H  H11  1  0.14430000  0.56670000  0.15370000  1.0 0.1214978537
H  H12  1  0.43330000  0.85570000  0.15370000  1.0 0.1214978537
H  H13  1  0.04170000  0.53510000  0.35190000  1.0 0.1297551102
H  H14  1  0.46490000  0.95830000  0.35190000  1.0 0.1297551102
H  H15  1  0.03430000  0.32670000  0.38180000  1.0 0.1096665048
H  H16  1  0.67330000  0.96570000  0.38180000  1.0 0.1096665048
H  H17  1  0.98420000  0.39880000  0.39760000  1.0 0.1297551102
H  H18  1  0.60120000  0.01580000  0.39760000  1.0 0.1297551102
H  H19  1  0.08280000  0.34360000  0.60980000  1.0 0.1599047105
H  H20  1  0.65640000  0.91720000  0.60980000  1.0 0.1599047105
H  H21  1  0.05120000  0.28440000  0.54430000  1.0 0.1422151372
H  H22  1  0.71560000  0.94880000  0.54430000  1.0 0.1422151372
H  H23  1  0.00080000  0.35640000  0.55930000  1.0 0.1498822938
H  H24  1  0.64360000  0.99920000  0.55930000  1.0 0.1498822938
H  H25  1  0.20370000  0.96370000  0.56030000  1.0 0.101858002
H  H26  1  0.03630000  0.79630000  0.56030000  1.0 0.101858002
H  H27  1  0.20300000  0.96560000  0.69230000  1.0 0.0694504413
H  H28  1  0.03440000  0.79700000  0.69230000  1.0 0.0694504413
H  H29  1  0.23460000  0.74080000  0.77310000  1.0 0.0694504413
H  H30  1  0.25920000  0.76540000  0.77310000  1.0 0.0694504413
H  H31  1  0.25390000  0.70930000  0.86270000  1.0 0.0841385858
H  H32  1  0.29070000  0.74610000  0.86270000  1.0 0.0841385858
H  H33  1  0.10190000  0.57190000  0.70100000  1.0 0.1422151372
H  H34  1  0.42810000  0.89810000  0.70100000  1.0 0.1422151372
H  H35  1  0.13610000  0.66090000  0.67920000  1.0 0.1297551102
H  H36  1  0.33910000  0.86390000  0.67920000  1.0 0.1297551102
H  H37  1  0.19480000  0.59600000  0.71490000  1.0 0.1498822938
H  H38  1  0.40400000  0.80520000  0.71490000  1.0 0.1498822938
H  H39  1  0.35840000  0.72520000  0.27480000  1.0 0.0841385858
H  H40  1  0.27480000  0.64160000  0.27480000  1.0 0.0841385858
H  H41  1  0.38600000  0.76160000  0.50870000  1.0 0.1297551102
H  H42  1  0.23840000  0.61400000  0.50870000  1.0 0.1297551102
H  H43  1  0.29910000  0.73190000  0.47450000  1.0 0.0883532718
H  H44  1  0.26810000  0.70090000  0.47450000  1.0 0.0883532718
H  H45  1  0.33380000  0.82100000  0.45340000  1.0 0.1297551102
H  H46  1  0.17900000  0.66620000  0.45340000  1.0 0.1297551102
H  H47  1  0.48950000  0.71670000  0.43810000  1.0 0.1422151372
H  H48  1  0.28330000  0.51050000  0.43810000  1.0 0.1422151372
H  H49  1  0.48610000  0.75110000  0.34860000  1.0 0.1297551102
H  H50  1  0.24890000  0.51390000  0.34860000  1.0 0.1297551102
H  H51  1  0.45460000  0.66120000  0.37050000  1.0 0.1297551102
H  H52  1  0.33880000  0.54540000  0.37050000  1.0 0.1297551102
H  H53  1  0.08350000  0.95650000  0.79320000  1.0 0.0883532718
H  H54  1  0.04350000  0.91650000  0.79320000  1.0 0.0883532718
H  H55  1  0.03880000  0.92520000  0.92300000  1.0 0.101858002
H  H56  1  0.07480000  0.96120000  0.92300000  1.0 0.101858002
H  H57  1  0.19050000  0.75770000  0.96530000  1.0 0.0883532718
H  H58  1  0.24230000  0.80950000  0.96530000  1.0 0.0883532718
H  H59  1  0.09800000  0.74620000  0.56690000  1.0 0.101858002
H  H60  1  0.25380000  0.90200000  0.56690000  1.0 0.101858002
H  H61  1  0.08080000  0.75060000  0.70040000  1.0 0.0619581375
H  H62  1  0.24940000  0.91920000  0.70040000  1.0 0.0619581375
H  H63  1  0.16750000  0.06230000  0.85260000  1.0 0.1096665048
H  H64  1  0.93770000  0.83250000  0.85260000  1.0 0.1096665048
H  H65  1  0.30530000  0.05770000  0.85210000  1.0 0.1214978537
H  H66  1  0.94230000  0.69470000  0.85210000  1.0 0.1214978537
H  H67  1  0.29780000  0.16860000  0.63410000  1.0 0.1214978537
H  H68  1  0.83140000  0.70220000  0.63410000  1.0 0.1214978537
H  H69  1  0.16110000  0.17930000  0.63880000  1.0 0.1214978537
H  H70  1  0.82070000  0.83890000  0.63880000  1.0 0.1214978537
H  H71  1  0.42680000  0.15860000  0.84530000  1.0 0.1096665048
H  H72  1  0.84140000  0.57320000  0.84530000  1.0 0.1096665048
H  H73  1  0.56670000  0.14430000  0.84630000  1.0 0.1214978537
H  H74  1  0.85570000  0.43330000  0.84630000  1.0 0.1214978537
H  H75  1  0.53510000  0.04170000  0.64810000  1.0 0.1297551102
H  H76  1  0.95830000  0.46490000  0.64810000  1.0 0.1297551102
H  H77  1  0.32670000  0.03430000  0.61820000  1.0 0.1096665048
H  H78  1  0.96570000  0.67330000  0.61820000  1.0 0.1096665048
H  H79  1  0.39880000  0.98420000  0.60240000  1.0 0.1297551102
H  H80  1  0.01580000  0.60120000  0.60240000  1.0 0.1297551102
H  H81  1  0.34360000  0.08280000  0.39020000  1.0 0.1599047105
H  H82  1  0.91720000  0.65640000  0.39020000  1.0 0.1599047105
H  H83  1  0.28440000  0.05120000  0.45570000  1.0 0.1422151372
H  H84  1  0.94880000  0.71560000  0.45570000  1.0 0.1422151372
H  H85  1  0.35640000  0.00080000  0.44070000  1.0 0.1498822938
H  H86  1  0.99920000  0.64360000  0.44070000  1.0 0.1498822938
H  H87  1  0.96370000  0.20370000  0.43970000  1.0 0.101858002
H  H88  1  0.79630000  0.03630000  0.43970000  1.0 0.101858002
H  H89  1  0.96560000  0.20300000  0.30770000  1.0 0.0694504413
H  H90  1  0.79700000  0.03440000  0.30770000  1.0 0.0694504413
H  H91  1  0.74080000  0.23460000  0.22690000  1.0 0.0694504413
H  H92  1  0.76540000  0.25920000  0.22690000  1.0 0.0694504413
H  H93  1  0.70930000  0.25390000  0.13730000  1.0 0.0841385858
H  H94  1  0.74610000  0.29070000  0.13730000  1.0 0.0841385858
H  H95  1  0.57190000  0.10190000  0.29900000  1.0 0.1422151372
H  H96  1  0.89810000  0.42810000  0.29900000  1.0 0.1422151372
H  H97  1  0.66090000  0.13610000  0.32080000  1.0 0.1297551102
H  H98  1  0.86390000  0.33910000  0.32080000  1.0 0.1297551102
H  H99  1  0.59600000  0.19480000  0.28510000  1.0 0.1498822938
H  H100  1  0.80520000  0.40400000  0.28510000  1.0 0.1498822938
H  H101  1  0.72520000  0.35840000  0.72520000  1.0 0.0841385858
H  H102  1  0.64160000  0.27480000  0.72520000  1.0 0.0841385858
H  H103  1  0.76160000  0.38600000  0.49130000  1.0 0.1297551102
H  H104  1  0.61400000  0.23840000  0.49130000  1.0 0.1297551102
H  H105  1  0.73190000  0.29910000  0.52550000  1.0 0.0883532718
H  H106  1  0.70090000  0.26810000  0.52550000  1.0 0.0883532718
H  H107  1  0.82100000  0.33380000  0.54660000  1.0 0.1297551102
H  H108  1  0.66620000  0.17900000  0.54660000  1.0 0.1297551102
H  H109  1  0.71670000  0.48950000  0.56190000  1.0 0.1422151372
H  H110  1  0.51050000  0.28330000  0.56190000  1.0 0.1422151372
H  H111  1  0.75110000  0.48610000  0.65140000  1.0 0.1297551102
H  H112  1  0.51390000  0.24890000  0.65140000  1.0 0.1297551102
H  H113  1  0.66120000  0.45460000  0.62950000  1.0 0.1297551102
H  H114  1  0.54540000  0.33880000  0.62950000  1.0 0.1297551102
H  H115  1  0.95650000  0.08350000  0.20680000  1.0 0.0883532718
H  H116  1  0.91650000  0.04350000  0.20680000  1.0 0.0883532718
H  H117  1  0.92520000  0.03880000  0.07700000  1.0 0.101858002
H  H118  1  0.96120000  0.07480000  0.07700000  1.0 0.101858002
H  H119  1  0.75770000  0.19050000  0.03470000  1.0 0.0883532718
H  H120  1  0.80950000  0.24230000  0.03470000  1.0 0.0883532718
H  H121  1  0.74620000  0.09800000  0.43310000  1.0 0.101858002
H  H122  1  0.90200000  0.25380000  0.43310000  1.0 0.101858002
H  H123  1  0.75060000  0.08080000  0.29960000  1.0 0.0619581375
H  H124  1  0.91920000  0.24940000  0.29960000  1.0 0.0619581375
C  C1  1  0.13550000  0.06710000  0.24830000  1.0 0.5868504267
C  C2  1  0.93290000  0.86450000  0.24830000  1.0 0.5868504267
C  C3  1  0.12890000  0.15430000  0.25010000  1.0 -0.0393947364
C  C4  1  0.84570000  0.87110000  0.25010000  1.0 -0.0393947364
C  C5  1  0.08740000  0.19480000  0.18990000  1.0 -0.1199897048
C  C6  1  0.80520000  0.91260000  0.18990000  1.0 -0.1199897048
C  C7  1  0.08210000  0.27570000  0.19120000  1.0 -0.1625288356
C  C8  1  0.72430000  0.91790000  0.19120000  1.0 -0.1625288356
C  C9  1  0.11440000  0.31340000  0.25920000  1.0 0.0883532718
C  C10  1  0.68660000  0.88560000  0.25920000  1.0 0.0883532718
C  C11  1  0.14890000  0.27210000  0.32040000  1.0 -0.1439436306
C  C12  1  0.72790000  0.85110000  0.32040000  1.0 -0.1439436306
C  C13  1  0.15600000  0.19080000  0.31740000  1.0 -0.096712233
C  C14  1  0.80920000  0.84400000  0.31740000  1.0 -0.096712233
C  C15  1  0.10890000  0.40130000  0.25980000  1.0 0.0277236733
C  C16  1  0.59870000  0.89110000  0.25980000  1.0 0.0277236733
C  C17  1  0.13630000  0.44850000  0.19640000  1.0 -0.1439436306
C  C18  1  0.55150000  0.86370000  0.19640000  1.0 -0.1439436306
C  C19  1  0.12920000  0.53240000  0.19740000  1.0 -0.1199897048
C  C20  1  0.46760000  0.87080000  0.19740000  1.0 -0.1199897048
C  C21  1  0.10170000  0.56350000  0.25820000  1.0 -0.0316126385
C  C22  1  0.43650000  0.89830000  0.25820000  1.0 -0.0316126385
C  C23  1  0.06860000  0.51380000  0.31320000  1.0 -0.1472802092
C  C24  1  0.48620000  0.93140000  0.31320000  1.0 -0.1472802092
C  C25  1  0.07210000  0.43470000  0.31530000  1.0 0.0883532718
C  C26  1  0.56530000  0.92790000  0.31530000  1.0 0.0883532718
C  C27  1  0.03810000  0.38390000  0.39050000  1.0 -0.2990008075
C  C28  1  0.61610000  0.96190000  0.39050000  1.0 -0.2990008075
C  C29  1  0.05430000  0.33950000  0.55810000  1.0 -0.4198221047
C  C30  1  0.66050000  0.94570000  0.55810000  1.0 -0.4198221047
C  C31  1  0.10260000  0.65100000  0.25920000  1.0 0.5552203576
C  C32  1  0.34900000  0.89740000  0.25920000  1.0 0.5552203576
C  C33  1  0.14590000  0.85410000  0.46240000  1.0 0.5114530544
C  C34  1  0.14670000  0.85330000  0.55000000  1.0 -0.0316126385
C  C35  1  0.18030000  0.91910000  0.58960000  1.0 -0.0316126385
C  C36  1  0.08090000  0.81970000  0.58960000  1.0 -0.0316126385
C  C37  1  0.18000000  0.92060000  0.66690000  1.0 -0.0316126385
C  C38  1  0.07940000  0.82000000  0.66690000  1.0 -0.0316126385
C  C39  1  0.14530000  0.85470000  0.71090000  1.0 -0.0059467162
C  C40  1  0.14350000  0.85650000  0.79830000  1.0 -0.0393947364
C  C41  1  0.10610000  0.91690000  0.82840000  1.0 -0.0717991185
C  C42  1  0.08310000  0.89390000  0.82840000  1.0 -0.0717991185
C  C43  1  0.07980000  0.89840000  0.90460000  1.0 -0.0608392492
C  C44  1  0.10160000  0.92020000  0.90460000  1.0 -0.0608392492
C  C45  1  0.13590000  0.86410000  0.95850000  1.0 0.0104014418
C  C46  1  0.17020000  0.79820000  0.92970000  1.0 -0.0533343595
C  C47  1  0.20180000  0.82980000  0.92970000  1.0 -0.0533343595
C  C48  1  0.17350000  0.79450000  0.84990000  1.0 0.0619581375
C  C49  1  0.20550000  0.82650000  0.84990000  1.0 0.0619581375
C  C50  1  0.21130000  0.72590000  0.82360000  1.0 -0.1716736783
C  C51  1  0.27410000  0.78870000  0.82360000  1.0 -0.1716736783
C  C52  1  0.13420000  0.86580000  0.04500000  1.0 0.5272508483
C  C53  1  0.14170000  0.61430000  0.71600000  1.0 -0.4745687623
C  C54  1  0.38570000  0.85830000  0.71600000  1.0 -0.4745687623
C  C55  1  0.33720000  0.74180000  0.31960000  1.0 0.1736616376
C  C56  1  0.25820000  0.66280000  0.31960000  1.0 0.1736616376
C  C57  1  0.34710000  0.76590000  0.46350000  1.0 -0.3500738632
C  C58  1  0.23410000  0.65290000  0.46350000  1.0 -0.3500738632
C  C59  1  0.45910000  0.71530000  0.38730000  1.0 -0.3500738632
C  C60  1  0.28470000  0.54090000  0.38730000  1.0 -0.3500738632
C  C61  1  0.11640000  0.79280000  0.59210000  1.0 -0.0393947364
C  C62  1  0.20720000  0.88360000  0.59210000  1.0 -0.0393947364
C  C63  1  0.10970000  0.79290000  0.67300000  1.0 -0.0393947364
C  C64  1  0.20710000  0.89030000  0.67300000  1.0 -0.0393947364
C  C65  1  0.06710000  0.13550000  0.75170000  1.0 0.5868504267
C  C66  1  0.86450000  0.93290000  0.75170000  1.0 0.5868504267
C  C67  1  0.15430000  0.12890000  0.74990000  1.0 -0.0393947364
C  C68  1  0.87110000  0.84570000  0.74990000  1.0 -0.0393947364
C  C69  1  0.19480000  0.08740000  0.81010000  1.0 -0.1199897048
C  C70  1  0.91260000  0.80520000  0.81010000  1.0 -0.1199897048
C  C71  1  0.27570000  0.08210000  0.80880000  1.0 -0.1625288356
C  C72  1  0.91790000  0.72430000  0.80880000  1.0 -0.1625288356
C  C73  1  0.31340000  0.11440000  0.74080000  1.0 0.0883532718
C  C74  1  0.88560000  0.68660000  0.74080000  1.0 0.0883532718
C  C75  1  0.27210000  0.14890000  0.67960000  1.0 -0.1439436306
C  C76  1  0.85110000  0.72790000  0.67960000  1.0 -0.1439436306
C  C77  1  0.19080000  0.15600000  0.68260000  1.0 -0.096712233
C  C78  1  0.84400000  0.80920000  0.68260000  1.0 -0.096712233
C  C79  1  0.40130000  0.10890000  0.74020000  1.0 0.0277236733
C  C80  1  0.89110000  0.59870000  0.74020000  1.0 0.0277236733
C  C81  1  0.44850000  0.13630000  0.80360000  1.0 -0.1439436306
C  C82  1  0.86370000  0.55150000  0.80360000  1.0 -0.1439436306
C  C83  1  0.53240000  0.12920000  0.80260000  1.0 -0.1199897048
C  C84  1  0.87080000  0.46760000  0.80260000  1.0 -0.1199897048
C  C85  1  0.56350000  0.10170000  0.74180000  1.0 -0.0316126385
C  C86  1  0.89830000  0.43650000  0.74180000  1.0 -0.0316126385
C  C87  1  0.51380000  0.06860000  0.68680000  1.0 -0.1472802092
C  C88  1  0.93140000  0.48620000  0.68680000  1.0 -0.1472802092
C  C89  1  0.43470000  0.07210000  0.68470000  1.0 0.0883532718
C  C90  1  0.92790000  0.56530000  0.68470000  1.0 0.0883532718
C  C91  1  0.38390000  0.03810000  0.60950000  1.0 -0.2990008075
C  C92  1  0.96190000  0.61610000  0.60950000  1.0 -0.2990008075
C  C93  1  0.33950000  0.05430000  0.44190000  1.0 -0.4198221047
C  C94  1  0.94570000  0.66050000  0.44190000  1.0 -0.4198221047
C  C95  1  0.65100000  0.10260000  0.74080000  1.0 0.5552203576
C  C96  1  0.89740000  0.34900000  0.74080000  1.0 0.5552203576
C  C97  1  0.85410000  0.14590000  0.53760000  1.0 0.5114530544
C  C98  1  0.85330000  0.14670000  0.45000000  1.0 -0.0316126385
C  C99  1  0.91910000  0.18030000  0.41040000  1.0 -0.0316126385
C  C100  1  0.81970000  0.08090000  0.41040000  1.0 -0.0316126385
C  C101  1  0.92060000  0.18000000  0.33310000  1.0 -0.0316126385
C  C102  1  0.82000000  0.07940000  0.33310000  1.0 -0.0316126385
C  C103  1  0.85470000  0.14530000  0.28910000  1.0 -0.0059467162
C  C104  1  0.85650000  0.14350000  0.20170000  1.0 -0.0393947364
C  C105  1  0.91690000  0.10610000  0.17160000  1.0 -0.0717991185
C  C106  1  0.89390000  0.08310000  0.17160000  1.0 -0.0717991185
C  C107  1  0.89840000  0.07980000  0.09540000  1.0 -0.0608392492
C  C108  1  0.92020000  0.10160000  0.09540000  1.0 -0.0608392492
C  C109  1  0.86410000  0.13590000  0.04150000  1.0 0.0104014418
C  C110  1  0.79820000  0.17020000  0.07030000  1.0 -0.0533343595
C  C111  1  0.82980000  0.20180000  0.07030000  1.0 -0.0533343595
C  C112  1  0.79450000  0.17350000  0.15010000  1.0 0.0619581375
C  C113  1  0.82650000  0.20550000  0.15010000  1.0 0.0619581375
C  C114  1  0.72590000  0.21130000  0.17640000  1.0 -0.1716736783
C  C115  1  0.78870000  0.27410000  0.17640000  1.0 -0.1716736783
C  C116  1  0.86580000  0.13420000  0.95500000  1.0 0.5272508483
C  C117  1  0.61430000  0.14170000  0.28400000  1.0 -0.4745687623
C  C118  1  0.85830000  0.38570000  0.28400000  1.0 -0.4751609344
C  C119  1  0.74180000  0.33720000  0.68040000  1.0 0.1736616376
C  C120  1  0.66280000  0.25820000  0.68040000  1.0 0.1736616376
C  C121  1  0.76590000  0.34710000  0.53650000  1.0 -0.3500738632
C  C122  1  0.65290000  0.23410000  0.53650000  1.0 -0.3500738632
C  C123  1  0.71530000  0.45910000  0.61270000  1.0 -0.3500738632
C  C124  1  0.54090000  0.28470000  0.61270000  1.0 -0.3500738632
C  C125  1  0.79280000  0.11640000  0.40790000  1.0 -0.0393947364
C  C126  1  0.88360000  0.20720000  0.40790000  1.0 -0.0393947364
C  C127  1  0.79290000  0.10970000  0.32700000  1.0 -0.0316126385
C  C128  1  0.89030000  0.20710000  0.32700000  1.0 -0.0393947364
S  S1  1  0.10730000  0.40310000  0.48520000  1.0 -0.096712233
S  S2  1  0.59690000  0.89270000  0.48520000  1.0 -0.096712233
S  S3  1  0.12770000  0.63910000  0.81190000  1.0 -0.2047072914
S  S4  1  0.36090000  0.87230000  0.81190000  1.0 -0.2047072914
S  S5  1  0.40310000  0.10730000  0.51480000  1.0 -0.096712233
S  S6  1  0.89270000  0.59690000  0.51480000  1.0 -0.096712233
S  S7  1  0.63910000  0.12770000  0.18810000  1.0 -0.2047072914
S  S8  1  0.87230000  0.36090000  0.18810000  1.0 -0.2047072914
N  N1  1  0.38090000  0.74010000  0.39400000  1.0 -0.0608392492
N  N2  1  0.25990000  0.61910000  0.39400000  1.0 -0.0608392492
N  N3  1  0.74010000  0.38090000  0.60600000  1.0 -0.0608392492
N  N4  1  0.61910000  0.25990000  0.60600000  1.0 -0.0608392492
O  O1  1  0.14198000  0.85802000  0.25265000  1.0 -0.9840767164
O  O2  1  0.17690000  0.82310000  0.08700000  1.0 -0.4751609344
O  O3  1  0.08892000  0.91108000  0.06860000  1.0 -0.5139197786
O  O4  1  0.10012000  0.03414000  0.19220000  1.0 -0.5433474857
O  O5  1  0.96586000  0.89988000  0.19220000  1.0 -0.5433474857
O  O6  1  0.17750000  0.03390000  0.30290000  1.0 -0.5308871348
O  O7  1  0.96610000  0.82250000  0.30290000  1.0 -0.5308871348
O  O8  1  0.06994000  0.67746000  0.31340000  1.0 -0.5139197786
O  O9  1  0.32254000  0.93006000  0.31340000  1.0 -0.5139197786
O  O10  1  0.13160000  0.69420000  0.20250000  1.0 -0.5743862767
O  O11  1  0.30580000  0.86840000  0.20250000  1.0 -0.5743862767
O  O12  1  0.26890000  0.76650000  0.31640000  1.0 0.0031277505
O  O13  1  0.23350000  0.73110000  0.31640000  1.0 0.0031277505
O  O14  1  0.19389000  0.90409000  0.42913000  1.0 -0.5308871348
O  O15  1  0.09591000  0.80611000  0.42913000  1.0 -0.5308871348
O  O16  1  0.85802000  0.14198000  0.74735000  1.0 -0.9840767164
O  O17  1  0.82310000  0.17690000  0.91300000  1.0 -0.4745687623
O  O18  1  0.91108000  0.08892000  0.93140000  1.0 -0.5139197786
O  O19  1  0.03414000  0.10012000  0.80780000  1.0 -0.5433474857
O  O20  1  0.89988000  0.96586000  0.80780000  1.0 -0.5433474857
O  O21  1  0.03390000  0.17750000  0.69710000  1.0 -0.5308871348
O  O22  1  0.82250000  0.96610000  0.69710000  1.0 -0.5308871348
O  O23  1  0.67746000  0.06994000  0.68660000  1.0 -0.5139197786
O  O24  1  0.93006000  0.32254000  0.68660000  1.0 -0.5139197786
O  O25  1  0.69420000  0.13160000  0.79750000  1.0 -0.5743862767
O  O26  1  0.86840000  0.30580000  0.79750000  1.0 -0.5743862767
O  O27  1  0.76650000  0.26890000  0.68360000  1.0 0.0031277505
O  O28  1  0.73110000  0.23350000  0.68360000  1.0 0.0031277505
O  O29  1  0.90409000  0.19389000  0.57087000  1.0 -0.5308871348
O  O30  1  0.80611000  0.09591000  0.57087000  1.0 -0.5308871348
