# DDEC6 charges by PACMAN v1.1 (https://github.com/mtap-research/PACMAN-charge/)
data_KUMKEL_ASR_pacman
_symmetry_space_group_name_H-M   'P 1'
_cell_length_a   54.43000000
_cell_length_b   54.43000000
_cell_length_c   39.53000000
_cell_angle_alpha   90.00000000
_cell_angle_beta   90.00000000
_cell_angle_gamma   120.00000000
_symmetry_Int_Tables_number   1
_chemical_formula_structural   Zr6H56C106N5O28
_chemical_formula_sum   'Zr72 H672 C1272 N60 O336'
_cell_volume   101422.45405149
_cell_formula_units_Z   12
loop_
 _symmetry_equiv_pos_site_id
 _symmetry_equiv_pos_as_xyz
  1  'x, y, z'
loop_
 _atom_site_type_symbol
 _atom_site_label
 _atom_site_symmetry_multiplicity
 _atom_site_fract_x
 _atom_site_fract_y
 _atom_site_fract_z
 _atom_site_occupancy
 _atom_site_charge
Zr  Zr1  1  0.77440000  0.61311000  0.76388000  1.0 2.4599953987
Zr  Zr2  1  0.73981000  0.54457000  0.73003000  1.0 2.4224092462
Zr  Zr3  1  0.77444000  0.61312000  0.23613000  1.0 2.4599953987
Zr  Zr4  1  0.54452000  0.73982000  0.73003000  1.0 2.4287157354
Zr  Zr5  1  0.83871000  0.22560000  0.76388000  1.0 2.4599953987
Zr  Zr6  1  0.80476000  0.26019000  0.73003000  1.0 2.4224092462
Zr  Zr7  1  0.83868000  0.22556000  0.23613000  1.0 2.4599953987
Zr  Zr8  1  0.19530000  0.45548000  0.73003000  1.0 2.4287157354
Zr  Zr9  1  0.38689000  0.16129000  0.76388000  1.0 2.4599953987
Zr  Zr10  1  0.45543000  0.19524000  0.73003000  1.0 2.4224092462
Zr  Zr11  1  0.38688000  0.16132000  0.23613000  1.0 2.4599953987
Zr  Zr12  1  0.26018000  0.80470000  0.73003000  1.0 2.4287157354
Zr  Zr13  1  0.16129000  0.38689000  0.23612000  1.0 2.4599953987
Zr  Zr14  1  0.19524000  0.45543000  0.26997000  1.0 2.4224092462
Zr  Zr15  1  0.16132000  0.38688000  0.76387000  1.0 2.4599953987
Zr  Zr16  1  0.80470000  0.26018000  0.26997000  1.0 2.4287157354
Zr  Zr17  1  0.61311000  0.77440000  0.23612000  1.0 2.4599953987
Zr  Zr18  1  0.54457000  0.73981000  0.26997000  1.0 2.4224092462
Zr  Zr19  1  0.61312000  0.77444000  0.76387000  1.0 2.4599953987
Zr  Zr20  1  0.73982000  0.54452000  0.26997000  1.0 2.4287157354
Zr  Zr21  1  0.22560000  0.83871000  0.23612000  1.0 2.4599953987
Zr  Zr22  1  0.26019000  0.80476000  0.26997000  1.0 2.4224092462
Zr  Zr23  1  0.22556000  0.83868000  0.76387000  1.0 2.4599953987
Zr  Zr24  1  0.45548000  0.19530000  0.26997000  1.0 2.4287157354
Zr  Zr25  1  0.22560000  0.38689000  0.23612000  1.0 2.4599953987
Zr  Zr26  1  0.26019000  0.45543000  0.26997000  1.0 2.4224092462
Zr  Zr27  1  0.22556000  0.38688000  0.76387000  1.0 2.4599953987
Zr  Zr28  1  0.45548000  0.26018000  0.26997000  1.0 2.4287157354
Zr  Zr29  1  0.16129000  0.77440000  0.23612000  1.0 2.4599953987
Zr  Zr30  1  0.19524000  0.73981000  0.26997000  1.0 2.4224092462
Zr  Zr31  1  0.16132000  0.77444000  0.76387000  1.0 2.4599953987
Zr  Zr32  1  0.80470000  0.54452000  0.26997000  1.0 2.4287157354
Zr  Zr33  1  0.61311000  0.83871000  0.23612000  1.0 2.4599953987
Zr  Zr34  1  0.54457000  0.80476000  0.26997000  1.0 2.4224092462
Zr  Zr35  1  0.61312000  0.83868000  0.76387000  1.0 2.4599953987
Zr  Zr36  1  0.73982000  0.19530000  0.26997000  1.0 2.4287157354
Zr  Zr37  1  0.83871000  0.61311000  0.76388000  1.0 2.4599953987
Zr  Zr38  1  0.80476000  0.54457000  0.73003000  1.0 2.4224092462
Zr  Zr39  1  0.83868000  0.61312000  0.23613000  1.0 2.4599953987
Zr  Zr40  1  0.19530000  0.73982000  0.73003000  1.0 2.4287157354
Zr  Zr41  1  0.38689000  0.22560000  0.76388000  1.0 2.4599953987
Zr  Zr42  1  0.45543000  0.26019000  0.73003000  1.0 2.4224092462
Zr  Zr43  1  0.38688000  0.22556000  0.23613000  1.0 2.4599953987
Zr  Zr44  1  0.26018000  0.45548000  0.73003000  1.0 2.4287157354
Zr  Zr45  1  0.77440000  0.16129000  0.76388000  1.0 2.4599953987
Zr  Zr46  1  0.73981000  0.19524000  0.73003000  1.0 2.4224092462
Zr  Zr47  1  0.77444000  0.16132000  0.23613000  1.0 2.4599953987
Zr  Zr48  1  0.54452000  0.80470000  0.73003000  1.0 2.4287157354
Zr  Zr49  1  0.77915000  0.55830000  0.80419000  1.0 2.3798674243
Zr  Zr50  1  0.79919000  0.59838000  0.68837000  1.0 2.4365146655
Zr  Zr51  1  0.77918000  0.55836000  0.19586000  1.0 2.3798674243
Zr  Zr52  1  0.77915000  0.22085000  0.80419000  1.0 2.3798674243
Zr  Zr53  1  0.79919000  0.20081000  0.68837000  1.0 2.4365146655
Zr  Zr54  1  0.77918000  0.22082000  0.19586000  1.0 2.3798674243
Zr  Zr55  1  0.44170000  0.22085000  0.80419000  1.0 2.3798674243
Zr  Zr56  1  0.40162000  0.20081000  0.68837000  1.0 2.4365146655
Zr  Zr57  1  0.44164000  0.22082000  0.19586000  1.0 2.3798674243
Zr  Zr58  1  0.22085000  0.44170000  0.19581000  1.0 2.3798674243
Zr  Zr59  1  0.20081000  0.40162000  0.31163000  1.0 2.4365146655
Zr  Zr60  1  0.22082000  0.44164000  0.80414000  1.0 2.3798674243
Zr  Zr61  1  0.55830000  0.77915000  0.19581000  1.0 2.3798674243
Zr  Zr62  1  0.59838000  0.79919000  0.31163000  1.0 2.4365146655
Zr  Zr63  1  0.55836000  0.77918000  0.80414000  1.0 2.3798674243
Zr  Zr64  1  0.22085000  0.77915000  0.19581000  1.0 2.3798674243
Zr  Zr65  1  0.20081000  0.79919000  0.31163000  1.0 2.4365146655
Zr  Zr66  1  0.22082000  0.77918000  0.80414000  1.0 2.3798674243
Zr  Zr67  1  0.59835000  0.79917000  0.68826000  1.0 2.4505379297
Zr  Zr68  1  0.20082000  0.40165000  0.68826000  1.0 2.4505379297
Zr  Zr69  1  0.20082000  0.79917000  0.68826000  1.0 2.4505379297
Zr  Zr70  1  0.79917000  0.20083000  0.31174000  1.0 2.4505379297
Zr  Zr71  1  0.79917000  0.59835000  0.31174000  1.0 2.4505379297
Zr  Zr72  1  0.40165000  0.20083000  0.31174000  1.0 2.4505379297
H  H1  1  0.75210000  0.57020000  0.90360000  1.0 0.1374984437
H  H2  1  0.74280000  0.63260000  0.86020000  1.0 0.1293579257
H  H3  1  0.73810000  0.57950000  0.95570000  1.0 0.1293579257
H  H4  1  0.72880000  0.64190000  0.91240000  1.0 0.1207609178
H  H5  1  0.74770000  0.67140000  0.71630000  1.0 0.1293579257
H  H6  1  0.79140000  0.66850000  0.63490000  1.0 0.1374984437
H  H7  1  0.69820000  0.62240000  0.75920000  1.0 0.1293579257
H  H8  1  0.65680000  0.53870000  0.73530000  1.0 0.1293579257
H  H9  1  0.82000000  0.57330000  0.58680000  1.0 0.1374984437
H  H10  1  0.83200000  0.51770000  0.64260000  1.0 0.1374984437
H  H11  1  0.73400000  0.69940000  0.68580000  1.0 0.1293579257
H  H12  1  0.77770000  0.69650000  0.60430000  1.0 0.1293579257
H  H13  1  0.65520000  0.62240000  0.75760000  1.0 0.1207609178
H  H14  1  0.61390000  0.53880000  0.73380000  1.0 0.1135173202
H  H15  1  0.82300000  0.55150000  0.53710000  1.0 0.1293579257
H  H16  1  0.83510000  0.49600000  0.59300000  1.0 0.1207609178
H  H17  1  0.70100000  0.63660000  0.94910000  1.0 0.1207609178
H  H18  1  0.75970000  0.71770000  0.57570000  1.0 0.1207609178
H  H19  1  0.57980000  0.53700000  0.74570000  1.0 0.1293579257
H  H20  1  0.69730000  0.63260000  0.05250000  1.0 0.1207609178
H  H21  1  0.83390000  0.47450000  0.55120000  1.0 0.1207609178
H  H22  1  0.72830000  0.64190000  0.08880000  1.0 0.1207609178
H  H23  1  0.73920000  0.58100000  0.04420000  1.0 0.1293579257
H  H24  1  0.68360000  0.65670000  0.04460000  1.0 0.1207609178
H  H25  1  0.67780000  0.65490000  0.95250000  1.0 0.1207609178
H  H26  1  0.71320000  0.75710000  0.57660000  1.0 0.1207609178
H  H27  1  0.53690000  0.57990000  0.73980000  1.0 0.1293579257
H  H28  1  0.74180000  0.63190000  0.14090000  1.0 0.1293579257
H  H29  1  0.75270000  0.57100000  0.09630000  1.0 0.1374984437
H  H30  1  0.83530000  0.47510000  0.44860000  1.0 0.1207609178
H  H31  1  0.69680000  0.77810000  0.60420000  1.0 0.1207609178
H  H32  1  0.70140000  0.73540000  0.68580000  1.0 0.1207609178
H  H33  1  0.53990000  0.61510000  0.73320000  1.0 0.1135173202
H  H34  1  0.62330000  0.65700000  0.75790000  1.0 0.1293579257
H  H35  1  0.82340000  0.55160000  0.46320000  1.0 0.1293579257
H  H36  1  0.83620000  0.49680000  0.40680000  1.0 0.1207609178
H  H37  1  0.83270000  0.43670000  0.45180000  1.0 0.1293579257
H  H38  1  0.83270000  0.43730000  0.54870000  1.0 0.1293579257
H  H39  1  0.66820000  0.79090000  0.63490000  1.0 0.1293579257
H  H40  1  0.67280000  0.74830000  0.71650000  1.0 0.1293579257
H  H41  1  0.53960000  0.65800000  0.73420000  1.0 0.1293579257
H  H42  1  0.62300000  0.69980000  0.75900000  1.0 0.1293579257
H  H43  1  0.82000000  0.57340000  0.41380000  1.0 0.1293579257
H  H44  1  0.83280000  0.51860000  0.35740000  1.0 0.1374984437
H  H45  1  0.18760000  0.66040000  0.77830000  1.0 0.1293579257
H  H46  1  0.21440000  0.71010000  0.86200000  1.0 0.1374984437
H  H47  1  0.18390000  0.62230000  0.80990000  1.0 0.1293579257
H  H48  1  0.21070000  0.67200000  0.89350000  1.0 0.1207609178
H  H49  1  0.18400000  0.62960000  0.92060000  1.0 0.1293579257
H  H50  1  0.19110000  0.63080000  0.97060000  1.0 0.1293579257
H  H51  1  0.18690000  0.62870000  0.02880000  1.0 0.1293579257
H  H52  1  0.18670000  0.63140000  0.07940000  1.0 0.1207609178
H  H53  1  0.21060000  0.67210000  0.10680000  1.0 0.1207609178
H  H54  1  0.18210000  0.62140000  0.18950000  1.0 0.1293579257
H  H55  1  0.21430000  0.71000000  0.13870000  1.0 0.1374984437
H  H56  1  0.18580000  0.65930000  0.22140000  1.0 0.1293579257
H  H57  1  0.81810000  0.24790000  0.90360000  1.0 0.1374984437
H  H58  1  0.88980000  0.25720000  0.86020000  1.0 0.1293579257
H  H59  1  0.84140000  0.26190000  0.95570000  1.0 0.1293579257
H  H60  1  0.91310000  0.27120000  0.91240000  1.0 0.1207609178
H  H61  1  0.92370000  0.25230000  0.71630000  1.0 0.1293579257
H  H62  1  0.87710000  0.20860000  0.63490000  1.0 0.1374984437
H  H63  1  0.92420000  0.30180000  0.75920000  1.0 0.1293579257
H  H64  1  0.88190000  0.34320000  0.73530000  1.0 0.1293579257
H  H65  1  0.75330000  0.18000000  0.58680000  1.0 0.1374984437
H  H66  1  0.68570000  0.16800000  0.64260000  1.0 0.1374984437
H  H67  1  0.96540000  0.26600000  0.68580000  1.0 0.1293579257
H  H68  1  0.91880000  0.22230000  0.60430000  1.0 0.1293579257
H  H69  1  0.96720000  0.34480000  0.75760000  1.0 0.1207609178
H  H70  1  0.92490000  0.38610000  0.73380000  1.0 0.1135173202
H  H71  1  0.72850000  0.17700000  0.53710000  1.0 0.1293579257
H  H72  1  0.66090000  0.16490000  0.59300000  1.0 0.1207609178
H  H73  1  0.93560000  0.29900000  0.94910000  1.0 0.1207609178
H  H74  1  0.95800000  0.24030000  0.57570000  1.0 0.1207609178
H  H75  1  0.95720000  0.42020000  0.74570000  1.0 0.1293579257
H  H76  1  0.93530000  0.30270000  0.05250000  1.0 0.1207609178
H  H77  1  0.64060000  0.16610000  0.55120000  1.0 0.1207609178
H  H78  1  0.91360000  0.27170000  0.08880000  1.0 0.1207609178
H  H79  1  0.84180000  0.26080000  0.04420000  1.0 0.1293579257
H  H80  1  0.97310000  0.31640000  0.04460000  1.0 0.1207609178
H  H81  1  0.97710000  0.32220000  0.95250000  1.0 0.1207609178
H  H82  1  0.04390000  0.28680000  0.57660000  1.0 0.1207609178
H  H83  1  0.04300000  0.46310000  0.73980000  1.0 0.1293579257
H  H84  1  0.89010000  0.25820000  0.14090000  1.0 0.1293579257
H  H85  1  0.81830000  0.24730000  0.09630000  1.0 0.1374984437
H  H86  1  0.63980000  0.16470000  0.44860000  1.0 0.1207609178
H  H87  1  0.08130000  0.30320000  0.60420000  1.0 0.1207609178
H  H88  1  0.03400000  0.29860000  0.68580000  1.0 0.1207609178
H  H89  1  0.07520000  0.46010000  0.73320000  1.0 0.1135173202
H  H90  1  0.03370000  0.37670000  0.75790000  1.0 0.1293579257
H  H91  1  0.72820000  0.17660000  0.46320000  1.0 0.1293579257
H  H92  1  0.66060000  0.16380000  0.40680000  1.0 0.1207609178
H  H93  1  0.60400000  0.16730000  0.45180000  1.0 0.1293579257
H  H94  1  0.60460000  0.16730000  0.54870000  1.0 0.1293579257
H  H95  1  0.12270000  0.33180000  0.63490000  1.0 0.1293579257
H  H96  1  0.07550000  0.32720000  0.71650000  1.0 0.1293579257
H  H97  1  0.11840000  0.46040000  0.73420000  1.0 0.1293579257
H  H98  1  0.07680000  0.37700000  0.75900000  1.0 0.1293579257
H  H99  1  0.75340000  0.18000000  0.41380000  1.0 0.1293579257
H  H100  1  0.68580000  0.16720000  0.35740000  1.0 0.1374984437
H  H101  1  0.47280000  0.81240000  0.77830000  1.0 0.1293579257
H  H102  1  0.49570000  0.78560000  0.86200000  1.0 0.1374984437
H  H103  1  0.43840000  0.81610000  0.80990000  1.0 0.1293579257
H  H104  1  0.46130000  0.78930000  0.89350000  1.0 0.1207609178
H  H105  1  0.44560000  0.81600000  0.92060000  1.0 0.1293579257
H  H106  1  0.43970000  0.80890000  0.97060000  1.0 0.1293579257
H  H107  1  0.44180000  0.81310000  0.02880000  1.0 0.1293579257
H  H108  1  0.44470000  0.81330000  0.07940000  1.0 0.1207609178
H  H109  1  0.46150000  0.78940000  0.10680000  1.0 0.1207609178
H  H110  1  0.43930000  0.81790000  0.18950000  1.0 0.1293579257
H  H111  1  0.49570000  0.78570000  0.13870000  1.0 0.1374984437
H  H112  1  0.47350000  0.81420000  0.22140000  1.0 0.1293579257
H  H113  1  0.42980000  0.18190000  0.90360000  1.0 0.1374984437
H  H114  1  0.36740000  0.11020000  0.86020000  1.0 0.1293579257
H  H115  1  0.42050000  0.15860000  0.95570000  1.0 0.1293579257
H  H116  1  0.35810000  0.08690000  0.91240000  1.0 0.1207609178
H  H117  1  0.32860000  0.07630000  0.71630000  1.0 0.1293579257
H  H118  1  0.33150000  0.12290000  0.63490000  1.0 0.1374984437
H  H119  1  0.37760000  0.07580000  0.75920000  1.0 0.1293579257
H  H120  1  0.46130000  0.11810000  0.73530000  1.0 0.1293579257
H  H121  1  0.42670000  0.24670000  0.58680000  1.0 0.1374984437
H  H122  1  0.48230000  0.31430000  0.64260000  1.0 0.1374984437
H  H123  1  0.30060000  0.03460000  0.68580000  1.0 0.1293579257
H  H124  1  0.30350000  0.08120000  0.60430000  1.0 0.1293579257
H  H125  1  0.37760000  0.03280000  0.75760000  1.0 0.1207609178
H  H126  1  0.46120000  0.07510000  0.73380000  1.0 0.1135173202
H  H127  1  0.44850000  0.27150000  0.53710000  1.0 0.1293579257
H  H128  1  0.50400000  0.33910000  0.59300000  1.0 0.1207609178
H  H129  1  0.36340000  0.06440000  0.94910000  1.0 0.1207609178
H  H130  1  0.28230000  0.04200000  0.57570000  1.0 0.1207609178
H  H131  1  0.46300000  0.04280000  0.74570000  1.0 0.1293579257
H  H132  1  0.36740000  0.06470000  0.05250000  1.0 0.1207609178
H  H133  1  0.52550000  0.35940000  0.55120000  1.0 0.1207609178
H  H134  1  0.35810000  0.08640000  0.08880000  1.0 0.1207609178
H  H135  1  0.41900000  0.15820000  0.04420000  1.0 0.1293579257
H  H136  1  0.34330000  0.02690000  0.04460000  1.0 0.1207609178
H  H137  1  0.34510000  0.02290000  0.95250000  1.0 0.1207609178
H  H138  1  0.24290000  0.95610000  0.57660000  1.0 0.1207609178
H  H139  1  0.42010000  0.95700000  0.73980000  1.0 0.1293579257
H  H140  1  0.36810000  0.10990000  0.14090000  1.0 0.1293579257
H  H141  1  0.42900000  0.18170000  0.09630000  1.0 0.1374984437
H  H142  1  0.52490000  0.36020000  0.44860000  1.0 0.1207609178
H  H143  1  0.22190000  0.91870000  0.60420000  1.0 0.1207609178
H  H144  1  0.26460000  0.96600000  0.68580000  1.0 0.1207609178
H  H145  1  0.38490000  0.92480000  0.73320000  1.0 0.1135173202
H  H146  1  0.34300000  0.96630000  0.75790000  1.0 0.1293579257
H  H147  1  0.44840000  0.27180000  0.46320000  1.0 0.1293579257
H  H148  1  0.50320000  0.33940000  0.40680000  1.0 0.1207609178
H  H149  1  0.56330000  0.39600000  0.45180000  1.0 0.1293579257
H  H150  1  0.56270000  0.39540000  0.54870000  1.0 0.1293579257
H  H151  1  0.20910000  0.87730000  0.63490000  1.0 0.1293579257
H  H152  1  0.25170000  0.92450000  0.71650000  1.0 0.1293579257
H  H153  1  0.34200000  0.88160000  0.73420000  1.0 0.1293579257
H  H154  1  0.30020000  0.92320000  0.75900000  1.0 0.1293579257
H  H155  1  0.42660000  0.24660000  0.41380000  1.0 0.1293579257
H  H156  1  0.48140000  0.31420000  0.35740000  1.0 0.1374984437
H  H157  1  0.33960000  0.52720000  0.77830000  1.0 0.1293579257
H  H158  1  0.28990000  0.50430000  0.86200000  1.0 0.1374984437
H  H159  1  0.37770000  0.56160000  0.80990000  1.0 0.1293579257
H  H160  1  0.32800000  0.53870000  0.89350000  1.0 0.1207609178
H  H161  1  0.37040000  0.55440000  0.92060000  1.0 0.1293579257
H  H162  1  0.36920000  0.56030000  0.97060000  1.0 0.1293579257
H  H163  1  0.37130000  0.55820000  0.02880000  1.0 0.1293579257
H  H164  1  0.36860000  0.55530000  0.07940000  1.0 0.1207609178
H  H165  1  0.32790000  0.53850000  0.10680000  1.0 0.1207609178
H  H166  1  0.37860000  0.56070000  0.18950000  1.0 0.1293579257
H  H167  1  0.29000000  0.50430000  0.13870000  1.0 0.1374984437
H  H168  1  0.34070000  0.52650000  0.22140000  1.0 0.1293579257
H  H169  1  0.18190000  0.42980000  0.09640000  1.0 0.1374984437
H  H170  1  0.11020000  0.36740000  0.13980000  1.0 0.1293579257
H  H171  1  0.15860000  0.42050000  0.04430000  1.0 0.1293579257
H  H172  1  0.08690000  0.35810000  0.08760000  1.0 0.1207609178
H  H173  1  0.07630000  0.32860000  0.28370000  1.0 0.1293579257
H  H174  1  0.12290000  0.33150000  0.36510000  1.0 0.1374984437
H  H175  1  0.07580000  0.37760000  0.24080000  1.0 0.1293579257
H  H176  1  0.11810000  0.46130000  0.26470000  1.0 0.1293579257
H  H177  1  0.24670000  0.42670000  0.41320000  1.0 0.1374984437
H  H178  1  0.31430000  0.48230000  0.35740000  1.0 0.1374984437
H  H179  1  0.03460000  0.30060000  0.31420000  1.0 0.1293579257
H  H180  1  0.08120000  0.30350000  0.39570000  1.0 0.1293579257
H  H181  1  0.03280000  0.37760000  0.24240000  1.0 0.1207609178
H  H182  1  0.07510000  0.46120000  0.26620000  1.0 0.1135173202
H  H183  1  0.27150000  0.44850000  0.46290000  1.0 0.1293579257
H  H184  1  0.33910000  0.50400000  0.40700000  1.0 0.1207609178
H  H185  1  0.06440000  0.36340000  0.05090000  1.0 0.1207609178
H  H186  1  0.04200000  0.28230000  0.42430000  1.0 0.1207609178
H  H187  1  0.04280000  0.46300000  0.25430000  1.0 0.1293579257
H  H188  1  0.06470000  0.36740000  0.94750000  1.0 0.1207609178
H  H189  1  0.35940000  0.52550000  0.44880000  1.0 0.1207609178
H  H190  1  0.08640000  0.35810000  0.91120000  1.0 0.1207609178
H  H191  1  0.15820000  0.41900000  0.95580000  1.0 0.1293579257
H  H192  1  0.02690000  0.34330000  0.95540000  1.0 0.1207609178
H  H193  1  0.02290000  0.34510000  0.04750000  1.0 0.1207609178
H  H194  1  0.95610000  0.24290000  0.42340000  1.0 0.1207609178
H  H195  1  0.95700000  0.42010000  0.26020000  1.0 0.1293579257
H  H196  1  0.10990000  0.36810000  0.85910000  1.0 0.1293579257
H  H197  1  0.18170000  0.42900000  0.90370000  1.0 0.1374984437
H  H198  1  0.36020000  0.52490000  0.55140000  1.0 0.1207609178
H  H199  1  0.91870000  0.22190000  0.39580000  1.0 0.1207609178
H  H200  1  0.96600000  0.26460000  0.31420000  1.0 0.1207609178
H  H201  1  0.92480000  0.38490000  0.26680000  1.0 0.1135173202
H  H202  1  0.96630000  0.34300000  0.24210000  1.0 0.1293579257
H  H203  1  0.27180000  0.44840000  0.53680000  1.0 0.1293579257
H  H204  1  0.33940000  0.50320000  0.59320000  1.0 0.1207609178
H  H205  1  0.39600000  0.56330000  0.54820000  1.0 0.1293579257
H  H206  1  0.39540000  0.56270000  0.45130000  1.0 0.1293579257
H  H207  1  0.87730000  0.20910000  0.36510000  1.0 0.1293579257
H  H208  1  0.92450000  0.25170000  0.28350000  1.0 0.1293579257
H  H209  1  0.88160000  0.34200000  0.26580000  1.0 0.1293579257
H  H210  1  0.92320000  0.30020000  0.24100000  1.0 0.1293579257
H  H211  1  0.24660000  0.42660000  0.58620000  1.0 0.1293579257
H  H212  1  0.31420000  0.48140000  0.64260000  1.0 0.1374984437
H  H213  1  0.52720000  0.33960000  0.22170000  1.0 0.1293579257
H  H214  1  0.50430000  0.28990000  0.13800000  1.0 0.1374984437
H  H215  1  0.56160000  0.37770000  0.19010000  1.0 0.1293579257
H  H216  1  0.53870000  0.32800000  0.10650000  1.0 0.1207609178
H  H217  1  0.55440000  0.37040000  0.07940000  1.0 0.1293579257
H  H218  1  0.56030000  0.36920000  0.02940000  1.0 0.1293579257
H  H219  1  0.55820000  0.37130000  0.97120000  1.0 0.1293579257
H  H220  1  0.55530000  0.36860000  0.92060000  1.0 0.1207609178
H  H221  1  0.53850000  0.32790000  0.89320000  1.0 0.1207609178
H  H222  1  0.56070000  0.37860000  0.81050000  1.0 0.1293579257
H  H223  1  0.50430000  0.29000000  0.86130000  1.0 0.1374984437
H  H224  1  0.52650000  0.34070000  0.77860000  1.0 0.1293579257
H  H225  1  0.57020000  0.75210000  0.09640000  1.0 0.1374984437
H  H226  1  0.63260000  0.74280000  0.13980000  1.0 0.1293579257
H  H227  1  0.57950000  0.73810000  0.04430000  1.0 0.1293579257
H  H228  1  0.64190000  0.72880000  0.08760000  1.0 0.1207609178
H  H229  1  0.67140000  0.74770000  0.28370000  1.0 0.1293579257
H  H230  1  0.66850000  0.79140000  0.36510000  1.0 0.1374984437
H  H231  1  0.62240000  0.69820000  0.24080000  1.0 0.1293579257
H  H232  1  0.53870000  0.65680000  0.26470000  1.0 0.1293579257
H  H233  1  0.57330000  0.82000000  0.41320000  1.0 0.1374984437
H  H234  1  0.51770000  0.83200000  0.35740000  1.0 0.1374984437
H  H235  1  0.69940000  0.73400000  0.31420000  1.0 0.1207609178
H  H236  1  0.69650000  0.77770000  0.39570000  1.0 0.1293579257
H  H237  1  0.62240000  0.65520000  0.24240000  1.0 0.1207609178
H  H238  1  0.53880000  0.61390000  0.26620000  1.0 0.1135173202
H  H239  1  0.55150000  0.82300000  0.46290000  1.0 0.1293579257
H  H240  1  0.49600000  0.83510000  0.40700000  1.0 0.1207609178
H  H241  1  0.63660000  0.70100000  0.05090000  1.0 0.1207609178
H  H242  1  0.71770000  0.75970000  0.42430000  1.0 0.1207609178
H  H243  1  0.53700000  0.57980000  0.25430000  1.0 0.1293579257
H  H244  1  0.63260000  0.69730000  0.94750000  1.0 0.1207609178
H  H245  1  0.47450000  0.83390000  0.44880000  1.0 0.1207609178
H  H246  1  0.64190000  0.72830000  0.91120000  1.0 0.1207609178
H  H247  1  0.58100000  0.73920000  0.95580000  1.0 0.1293579257
H  H248  1  0.65670000  0.68360000  0.95540000  1.0 0.1207609178
H  H249  1  0.65490000  0.67780000  0.04750000  1.0 0.1207609178
H  H250  1  0.75710000  0.71320000  0.42340000  1.0 0.1207609178
H  H251  1  0.57990000  0.53690000  0.26020000  1.0 0.1293579257
H  H252  1  0.63190000  0.74180000  0.85910000  1.0 0.1293579257
H  H253  1  0.57100000  0.75270000  0.90370000  1.0 0.1374984437
H  H254  1  0.47510000  0.83530000  0.55140000  1.0 0.1207609178
H  H255  1  0.77810000  0.69680000  0.39580000  1.0 0.1207609178
H  H256  1  0.73540000  0.70140000  0.31420000  1.0 0.1207609178
H  H257  1  0.61510000  0.53990000  0.26680000  1.0 0.1135173202
H  H258  1  0.65700000  0.62330000  0.24210000  1.0 0.1293579257
H  H259  1  0.55160000  0.82340000  0.53680000  1.0 0.1293579257
H  H260  1  0.49680000  0.83620000  0.59320000  1.0 0.1207609178
H  H261  1  0.43670000  0.83270000  0.54820000  1.0 0.1293579257
H  H262  1  0.43730000  0.83270000  0.45130000  1.0 0.1293579257
H  H263  1  0.79090000  0.66820000  0.36510000  1.0 0.1293579257
H  H264  1  0.74830000  0.67280000  0.28350000  1.0 0.1293579257
H  H265  1  0.65800000  0.53960000  0.26580000  1.0 0.1293579257
H  H266  1  0.69980000  0.62300000  0.24100000  1.0 0.1293579257
H  H267  1  0.57340000  0.82000000  0.58620000  1.0 0.1293579257
H  H268  1  0.51860000  0.83280000  0.64260000  1.0 0.1374984437
H  H269  1  0.66040000  0.18760000  0.22170000  1.0 0.1293579257
H  H270  1  0.71010000  0.21440000  0.13800000  1.0 0.1374984437
H  H271  1  0.62230000  0.18390000  0.19010000  1.0 0.1293579257
H  H272  1  0.67200000  0.21070000  0.10650000  1.0 0.1207609178
H  H273  1  0.62960000  0.18400000  0.07940000  1.0 0.1293579257
H  H274  1  0.63080000  0.19110000  0.02940000  1.0 0.1293579257
H  H275  1  0.62870000  0.18690000  0.97120000  1.0 0.1293579257
H  H276  1  0.63140000  0.18670000  0.92060000  1.0 0.1207609178
H  H277  1  0.67210000  0.21060000  0.89320000  1.0 0.1207609178
H  H278  1  0.62140000  0.18210000  0.81050000  1.0 0.1293579257
H  H279  1  0.71000000  0.21430000  0.86130000  1.0 0.1374984437
H  H280  1  0.65930000  0.18580000  0.77860000  1.0 0.1293579257
H  H281  1  0.24790000  0.81810000  0.09640000  1.0 0.1374984437
H  H282  1  0.25720000  0.88980000  0.13980000  1.0 0.1293579257
H  H283  1  0.26190000  0.84140000  0.04430000  1.0 0.1293579257
H  H284  1  0.27120000  0.91310000  0.08760000  1.0 0.1207609178
H  H285  1  0.25230000  0.92370000  0.28370000  1.0 0.1293579257
H  H286  1  0.20860000  0.87710000  0.36510000  1.0 0.1374984437
H  H287  1  0.30180000  0.92420000  0.24080000  1.0 0.1293579257
H  H288  1  0.34320000  0.88190000  0.26470000  1.0 0.1293579257
H  H289  1  0.18000000  0.75330000  0.41320000  1.0 0.1374984437
H  H290  1  0.16800000  0.68570000  0.35740000  1.0 0.1374984437
H  H291  1  0.26600000  0.96540000  0.31420000  1.0 0.1293579257
H  H292  1  0.22230000  0.91880000  0.39570000  1.0 0.1293579257
H  H293  1  0.34480000  0.96720000  0.24240000  1.0 0.1207609178
H  H294  1  0.38610000  0.92490000  0.26620000  1.0 0.1135173202
H  H295  1  0.17700000  0.72850000  0.46290000  1.0 0.1293579257
H  H296  1  0.16490000  0.66090000  0.40700000  1.0 0.1207609178
H  H297  1  0.29900000  0.93560000  0.05090000  1.0 0.1207609178
H  H298  1  0.24030000  0.95800000  0.42430000  1.0 0.1207609178
H  H299  1  0.42020000  0.95720000  0.25430000  1.0 0.1293579257
H  H300  1  0.30270000  0.93530000  0.94750000  1.0 0.1207609178
H  H301  1  0.16610000  0.64060000  0.44880000  1.0 0.1207609178
H  H302  1  0.27170000  0.91360000  0.91120000  1.0 0.1207609178
H  H303  1  0.26080000  0.84180000  0.95580000  1.0 0.1293579257
H  H304  1  0.31640000  0.97310000  0.95540000  1.0 0.1207609178
H  H305  1  0.32220000  0.97710000  0.04750000  1.0 0.1207609178
H  H306  1  0.28680000  0.04390000  0.42340000  1.0 0.1207609178
H  H307  1  0.46310000  0.04300000  0.26020000  1.0 0.1293579257
H  H308  1  0.25820000  0.89010000  0.85910000  1.0 0.1293579257
H  H309  1  0.24730000  0.81830000  0.90370000  1.0 0.1374984437
H  H310  1  0.16470000  0.63980000  0.55140000  1.0 0.1207609178
H  H311  1  0.30320000  0.08130000  0.39580000  1.0 0.1207609178
H  H312  1  0.29860000  0.03400000  0.31420000  1.0 0.1207609178
H  H313  1  0.46010000  0.07520000  0.26680000  1.0 0.1135173202
H  H314  1  0.37670000  0.03370000  0.24210000  1.0 0.1293579257
H  H315  1  0.17660000  0.72820000  0.53680000  1.0 0.1293579257
H  H316  1  0.16380000  0.66060000  0.59320000  1.0 0.1207609178
H  H317  1  0.16730000  0.60400000  0.54820000  1.0 0.1293579257
H  H318  1  0.16730000  0.60460000  0.45130000  1.0 0.1293579257
H  H319  1  0.33180000  0.12270000  0.36510000  1.0 0.1293579257
H  H320  1  0.32720000  0.07550000  0.28350000  1.0 0.1293579257
H  H321  1  0.46040000  0.11840000  0.26580000  1.0 0.1293579257
H  H322  1  0.37700000  0.07680000  0.24100000  1.0 0.1293579257
H  H323  1  0.18000000  0.75340000  0.58620000  1.0 0.1293579257
H  H324  1  0.16720000  0.68580000  0.64260000  1.0 0.1374984437
H  H325  1  0.81240000  0.47280000  0.22170000  1.0 0.1293579257
H  H326  1  0.78560000  0.49570000  0.13800000  1.0 0.1374984437
H  H327  1  0.81610000  0.43840000  0.19010000  1.0 0.1293579257
H  H328  1  0.78930000  0.46130000  0.10650000  1.0 0.1207609178
H  H329  1  0.81600000  0.44560000  0.07940000  1.0 0.1293579257
H  H330  1  0.80890000  0.43970000  0.02940000  1.0 0.1293579257
H  H331  1  0.81310000  0.44180000  0.97120000  1.0 0.1293579257
H  H332  1  0.81330000  0.44470000  0.92060000  1.0 0.1207609178
H  H333  1  0.78940000  0.46150000  0.89320000  1.0 0.1207609178
H  H334  1  0.81790000  0.43930000  0.81050000  1.0 0.1293579257
H  H335  1  0.78570000  0.49570000  0.86130000  1.0 0.1374984437
H  H336  1  0.81420000  0.47350000  0.77860000  1.0 0.1293579257
H  H337  1  0.24790000  0.42980000  0.09640000  1.0 0.1374984437
H  H338  1  0.25720000  0.36740000  0.13980000  1.0 0.1293579257
H  H339  1  0.26190000  0.42050000  0.04430000  1.0 0.1293579257
H  H340  1  0.27120000  0.35810000  0.08760000  1.0 0.1207609178
H  H341  1  0.25230000  0.32860000  0.28370000  1.0 0.1293579257
H  H342  1  0.20860000  0.33150000  0.36510000  1.0 0.1374984437
H  H343  1  0.30180000  0.37760000  0.24080000  1.0 0.1293579257
H  H344  1  0.34320000  0.46130000  0.26470000  1.0 0.1293579257
H  H345  1  0.18000000  0.42670000  0.41320000  1.0 0.1374984437
H  H346  1  0.16800000  0.48230000  0.35740000  1.0 0.1374984437
H  H347  1  0.26600000  0.30060000  0.31420000  1.0 0.1293579257
H  H348  1  0.22230000  0.30350000  0.39570000  1.0 0.1293579257
H  H349  1  0.34480000  0.37760000  0.24240000  1.0 0.1207609178
H  H350  1  0.38610000  0.46120000  0.26620000  1.0 0.1135173202
H  H351  1  0.17700000  0.44850000  0.46290000  1.0 0.1293579257
H  H352  1  0.16490000  0.50400000  0.40700000  1.0 0.1207609178
H  H353  1  0.29900000  0.36340000  0.05090000  1.0 0.1207609178
H  H354  1  0.24030000  0.28230000  0.42430000  1.0 0.1207609178
H  H355  1  0.42020000  0.46300000  0.25430000  1.0 0.1293579257
H  H356  1  0.30270000  0.36740000  0.94750000  1.0 0.1207609178
H  H357  1  0.16610000  0.52550000  0.44880000  1.0 0.1207609178
H  H358  1  0.27170000  0.35810000  0.91120000  1.0 0.1207609178
H  H359  1  0.26080000  0.41900000  0.95580000  1.0 0.1293579257
H  H360  1  0.31640000  0.34330000  0.95540000  1.0 0.1207609178
H  H361  1  0.32220000  0.34510000  0.04750000  1.0 0.1207609178
H  H362  1  0.28680000  0.24290000  0.42340000  1.0 0.1207609178
H  H363  1  0.46310000  0.42010000  0.26020000  1.0 0.1293579257
H  H364  1  0.25820000  0.36810000  0.85910000  1.0 0.1293579257
H  H365  1  0.24730000  0.42900000  0.90370000  1.0 0.1374984437
H  H366  1  0.16470000  0.52490000  0.55140000  1.0 0.1207609178
H  H367  1  0.30320000  0.22190000  0.39580000  1.0 0.1207609178
H  H368  1  0.29860000  0.26460000  0.31420000  1.0 0.1207609178
H  H369  1  0.46010000  0.38490000  0.26680000  1.0 0.1135173202
H  H370  1  0.37670000  0.34300000  0.24210000  1.0 0.1293579257
H  H371  1  0.17660000  0.44840000  0.53680000  1.0 0.1293579257
H  H372  1  0.16380000  0.50320000  0.59320000  1.0 0.1207609178
H  H373  1  0.16730000  0.56330000  0.54820000  1.0 0.1293579257
H  H374  1  0.16730000  0.56270000  0.45130000  1.0 0.1293579257
H  H375  1  0.33180000  0.20910000  0.36510000  1.0 0.1293579257
H  H376  1  0.32720000  0.25170000  0.28350000  1.0 0.1293579257
H  H377  1  0.46040000  0.34200000  0.26580000  1.0 0.1293579257
H  H378  1  0.37700000  0.30020000  0.24100000  1.0 0.1293579257
H  H379  1  0.18000000  0.42660000  0.58620000  1.0 0.1293579257
H  H380  1  0.16720000  0.48140000  0.64260000  1.0 0.1374984437
H  H381  1  0.81240000  0.33960000  0.22170000  1.0 0.1293579257
H  H382  1  0.78560000  0.28990000  0.13800000  1.0 0.1374984437
H  H383  1  0.81610000  0.37770000  0.19010000  1.0 0.1293579257
H  H384  1  0.78930000  0.32800000  0.10650000  1.0 0.1207609178
H  H385  1  0.81600000  0.37040000  0.07940000  1.0 0.1293579257
H  H386  1  0.80890000  0.36920000  0.02940000  1.0 0.1293579257
H  H387  1  0.81310000  0.37130000  0.97120000  1.0 0.1293579257
H  H388  1  0.81330000  0.36860000  0.92060000  1.0 0.1207609178
H  H389  1  0.78940000  0.32790000  0.89320000  1.0 0.1207609178
H  H390  1  0.81790000  0.37860000  0.81050000  1.0 0.1293579257
H  H391  1  0.78570000  0.29000000  0.86130000  1.0 0.1374984437
H  H392  1  0.81420000  0.34070000  0.77860000  1.0 0.1293579257
H  H393  1  0.18190000  0.75210000  0.09640000  1.0 0.1374984437
H  H394  1  0.11020000  0.74280000  0.13980000  1.0 0.1293579257
H  H395  1  0.15860000  0.73810000  0.04430000  1.0 0.1293579257
H  H396  1  0.08690000  0.72880000  0.08760000  1.0 0.1207609178
H  H397  1  0.07630000  0.74770000  0.28370000  1.0 0.1293579257
H  H398  1  0.12290000  0.79140000  0.36510000  1.0 0.1374984437
H  H399  1  0.07580000  0.69820000  0.24080000  1.0 0.1293579257
H  H400  1  0.11810000  0.65680000  0.26470000  1.0 0.1293579257
H  H401  1  0.24670000  0.82000000  0.41320000  1.0 0.1374984437
H  H402  1  0.31430000  0.83200000  0.35740000  1.0 0.1374984437
H  H403  1  0.03460000  0.73400000  0.31420000  1.0 0.1293579257
H  H404  1  0.08120000  0.77770000  0.39570000  1.0 0.1293579257
H  H405  1  0.03280000  0.65520000  0.24240000  1.0 0.1207609178
H  H406  1  0.07510000  0.61390000  0.26620000  1.0 0.1135173202
H  H407  1  0.27150000  0.82300000  0.46290000  1.0 0.1293579257
H  H408  1  0.33910000  0.83510000  0.40700000  1.0 0.1207609178
H  H409  1  0.06440000  0.70100000  0.05090000  1.0 0.1207609178
H  H410  1  0.04200000  0.75970000  0.42430000  1.0 0.1207609178
H  H411  1  0.04280000  0.57980000  0.25430000  1.0 0.1293579257
H  H412  1  0.06470000  0.69730000  0.94750000  1.0 0.1207609178
H  H413  1  0.35940000  0.83390000  0.44880000  1.0 0.1207609178
H  H414  1  0.08640000  0.72830000  0.91120000  1.0 0.1207609178
H  H415  1  0.15820000  0.73920000  0.95580000  1.0 0.1293579257
H  H416  1  0.02690000  0.68360000  0.95540000  1.0 0.1207609178
H  H417  1  0.02290000  0.67780000  0.04750000  1.0 0.1207609178
H  H418  1  0.95610000  0.71320000  0.42340000  1.0 0.1207609178
H  H419  1  0.95700000  0.53690000  0.26020000  1.0 0.1293579257
H  H420  1  0.10990000  0.74180000  0.85910000  1.0 0.1293579257
H  H421  1  0.18170000  0.75270000  0.90370000  1.0 0.1374984437
H  H422  1  0.36020000  0.83530000  0.55140000  1.0 0.1207609178
H  H423  1  0.91870000  0.69680000  0.39580000  1.0 0.1207609178
H  H424  1  0.96600000  0.70140000  0.31420000  1.0 0.1207609178
H  H425  1  0.92480000  0.53990000  0.26680000  1.0 0.1135173202
H  H426  1  0.96630000  0.62330000  0.24210000  1.0 0.1293579257
H  H427  1  0.27180000  0.82340000  0.53680000  1.0 0.1293579257
H  H428  1  0.33940000  0.83620000  0.59320000  1.0 0.1207609178
H  H429  1  0.39600000  0.83270000  0.54820000  1.0 0.1293579257
H  H430  1  0.39540000  0.83270000  0.45130000  1.0 0.1293579257
H  H431  1  0.87730000  0.66820000  0.36510000  1.0 0.1293579257
H  H432  1  0.92450000  0.67280000  0.28350000  1.0 0.1293579257
H  H433  1  0.88160000  0.53960000  0.26580000  1.0 0.1293579257
H  H434  1  0.92320000  0.62300000  0.24100000  1.0 0.1293579257
H  H435  1  0.24660000  0.82000000  0.58620000  1.0 0.1293579257
H  H436  1  0.31420000  0.83280000  0.64260000  1.0 0.1374984437
H  H437  1  0.52720000  0.18760000  0.22170000  1.0 0.1293579257
H  H438  1  0.50430000  0.21440000  0.13800000  1.0 0.1374984437
H  H439  1  0.56160000  0.18390000  0.19010000  1.0 0.1293579257
H  H440  1  0.53870000  0.21070000  0.10650000  1.0 0.1207609178
H  H441  1  0.55440000  0.18400000  0.07940000  1.0 0.1293579257
H  H442  1  0.56030000  0.19110000  0.02940000  1.0 0.1293579257
H  H443  1  0.55820000  0.18690000  0.97120000  1.0 0.1293579257
H  H444  1  0.55530000  0.18670000  0.92060000  1.0 0.1207609178
H  H445  1  0.53850000  0.21060000  0.89320000  1.0 0.1207609178
H  H446  1  0.56070000  0.18210000  0.81050000  1.0 0.1293579257
H  H447  1  0.50430000  0.21430000  0.86130000  1.0 0.1374984437
H  H448  1  0.52650000  0.18580000  0.77860000  1.0 0.1293579257
H  H449  1  0.57020000  0.81810000  0.09640000  1.0 0.1374984437
H  H450  1  0.63260000  0.88980000  0.13980000  1.0 0.1293579257
H  H451  1  0.57950000  0.84140000  0.04430000  1.0 0.1293579257
H  H452  1  0.64190000  0.91310000  0.08760000  1.0 0.1207609178
H  H453  1  0.67140000  0.92370000  0.28370000  1.0 0.1293579257
H  H454  1  0.66850000  0.87710000  0.36510000  1.0 0.1374984437
H  H455  1  0.62240000  0.92420000  0.24080000  1.0 0.1293579257
H  H456  1  0.53870000  0.88190000  0.26470000  1.0 0.1293579257
H  H457  1  0.57330000  0.75330000  0.41320000  1.0 0.1374984437
H  H458  1  0.51770000  0.68570000  0.35740000  1.0 0.1374984437
H  H459  1  0.69940000  0.96540000  0.31420000  1.0 0.1207609178
H  H460  1  0.69650000  0.91880000  0.39570000  1.0 0.1293579257
H  H461  1  0.62240000  0.96720000  0.24240000  1.0 0.1207609178
H  H462  1  0.53880000  0.92490000  0.26620000  1.0 0.1135173202
H  H463  1  0.55150000  0.72850000  0.46290000  1.0 0.1293579257
H  H464  1  0.49600000  0.66090000  0.40700000  1.0 0.1207609178
H  H465  1  0.63660000  0.93560000  0.05090000  1.0 0.1207609178
H  H466  1  0.71770000  0.95800000  0.42430000  1.0 0.1207609178
H  H467  1  0.53700000  0.95720000  0.25430000  1.0 0.1293579257
H  H468  1  0.63260000  0.93530000  0.94750000  1.0 0.1207609178
H  H469  1  0.47450000  0.64060000  0.44880000  1.0 0.1207609178
H  H470  1  0.64190000  0.91360000  0.91120000  1.0 0.1207609178
H  H471  1  0.58100000  0.84180000  0.95580000  1.0 0.1293579257
H  H472  1  0.65670000  0.97310000  0.95540000  1.0 0.1207609178
H  H473  1  0.65490000  0.97710000  0.04750000  1.0 0.1207609178
H  H474  1  0.75710000  0.04390000  0.42340000  1.0 0.1207609178
H  H475  1  0.57990000  0.04300000  0.26020000  1.0 0.1293579257
H  H476  1  0.63190000  0.89010000  0.85910000  1.0 0.1293579257
H  H477  1  0.57100000  0.81830000  0.90370000  1.0 0.1374984437
H  H478  1  0.47510000  0.63980000  0.55140000  1.0 0.1207609178
H  H479  1  0.77810000  0.08130000  0.39580000  1.0 0.1207609178
H  H480  1  0.73540000  0.03400000  0.31420000  1.0 0.1207609178
H  H481  1  0.61510000  0.07520000  0.26680000  1.0 0.1135173202
H  H482  1  0.65700000  0.03370000  0.24210000  1.0 0.1293579257
H  H483  1  0.55160000  0.72820000  0.53680000  1.0 0.1293579257
H  H484  1  0.49680000  0.66060000  0.59320000  1.0 0.1207609178
H  H485  1  0.43670000  0.60400000  0.54820000  1.0 0.1293579257
H  H486  1  0.43730000  0.60460000  0.45130000  1.0 0.1293579257
H  H487  1  0.79090000  0.12270000  0.36510000  1.0 0.1293579257
H  H488  1  0.74830000  0.07550000  0.28350000  1.0 0.1293579257
H  H489  1  0.65800000  0.11840000  0.26580000  1.0 0.1293579257
H  H490  1  0.69980000  0.07680000  0.24100000  1.0 0.1293579257
H  H491  1  0.57340000  0.75340000  0.58620000  1.0 0.1293579257
H  H492  1  0.51860000  0.68580000  0.64260000  1.0 0.1374984437
H  H493  1  0.66040000  0.47280000  0.22170000  1.0 0.1293579257
H  H494  1  0.71010000  0.49570000  0.13800000  1.0 0.1374984437
H  H495  1  0.62230000  0.43840000  0.19010000  1.0 0.1293579257
H  H496  1  0.67200000  0.46130000  0.10650000  1.0 0.1207609178
H  H497  1  0.62960000  0.44560000  0.07940000  1.0 0.1293579257
H  H498  1  0.63080000  0.43970000  0.02940000  1.0 0.1293579257
H  H499  1  0.62870000  0.44180000  0.97120000  1.0 0.1293579257
H  H500  1  0.63140000  0.44470000  0.92060000  1.0 0.1207609178
H  H501  1  0.67210000  0.46150000  0.89320000  1.0 0.1207609178
H  H502  1  0.62140000  0.43930000  0.81050000  1.0 0.1293579257
H  H503  1  0.71000000  0.49570000  0.86130000  1.0 0.1374984437
H  H504  1  0.65930000  0.47350000  0.77860000  1.0 0.1293579257
H  H505  1  0.81810000  0.57020000  0.90360000  1.0 0.1374984437
H  H506  1  0.88980000  0.63260000  0.86020000  1.0 0.1293579257
H  H507  1  0.84140000  0.57950000  0.95570000  1.0 0.1293579257
H  H508  1  0.91310000  0.64190000  0.91240000  1.0 0.1207609178
H  H509  1  0.92370000  0.67140000  0.71630000  1.0 0.1293579257
H  H510  1  0.87710000  0.66850000  0.63490000  1.0 0.1374984437
H  H511  1  0.92420000  0.62240000  0.75920000  1.0 0.1293579257
H  H512  1  0.88190000  0.53870000  0.73530000  1.0 0.1293579257
H  H513  1  0.75330000  0.57330000  0.58680000  1.0 0.1374984437
H  H514  1  0.68570000  0.51770000  0.64260000  1.0 0.1374984437
H  H515  1  0.96540000  0.69940000  0.68580000  1.0 0.1207609178
H  H516  1  0.91880000  0.69650000  0.60430000  1.0 0.1293579257
H  H517  1  0.96720000  0.62240000  0.75760000  1.0 0.1207609178
H  H518  1  0.92490000  0.53880000  0.73380000  1.0 0.1135173202
H  H519  1  0.72850000  0.55150000  0.53710000  1.0 0.1293579257
H  H520  1  0.66090000  0.49600000  0.59300000  1.0 0.1207609178
H  H521  1  0.93560000  0.63660000  0.94910000  1.0 0.1207609178
H  H522  1  0.95800000  0.71770000  0.57570000  1.0 0.1207609178
H  H523  1  0.95720000  0.53700000  0.74570000  1.0 0.1293579257
H  H524  1  0.93530000  0.63260000  0.05250000  1.0 0.1207609178
H  H525  1  0.64060000  0.47450000  0.55120000  1.0 0.1207609178
H  H526  1  0.91360000  0.64190000  0.08880000  1.0 0.1207609178
H  H527  1  0.84180000  0.58100000  0.04420000  1.0 0.1293579257
H  H528  1  0.97310000  0.65670000  0.04460000  1.0 0.1207609178
H  H529  1  0.97710000  0.65490000  0.95250000  1.0 0.1207609178
H  H530  1  0.04390000  0.75710000  0.57660000  1.0 0.1207609178
H  H531  1  0.04300000  0.57990000  0.73980000  1.0 0.1293579257
H  H532  1  0.89010000  0.63190000  0.14090000  1.0 0.1293579257
H  H533  1  0.81830000  0.57100000  0.09630000  1.0 0.1374984437
H  H534  1  0.63980000  0.47510000  0.44860000  1.0 0.1207609178
H  H535  1  0.08130000  0.77810000  0.60420000  1.0 0.1207609178
H  H536  1  0.03400000  0.73540000  0.68580000  1.0 0.1207609178
H  H537  1  0.07520000  0.61510000  0.73320000  1.0 0.1135173202
H  H538  1  0.03370000  0.65700000  0.75790000  1.0 0.1293579257
H  H539  1  0.72820000  0.55160000  0.46320000  1.0 0.1293579257
H  H540  1  0.66060000  0.49680000  0.40680000  1.0 0.1207609178
H  H541  1  0.60400000  0.43670000  0.45180000  1.0 0.1293579257
H  H542  1  0.60460000  0.43730000  0.54870000  1.0 0.1293579257
H  H543  1  0.12270000  0.79090000  0.63490000  1.0 0.1293579257
H  H544  1  0.07550000  0.74830000  0.71650000  1.0 0.1293579257
H  H545  1  0.11840000  0.65800000  0.73420000  1.0 0.1293579257
H  H546  1  0.07680000  0.69980000  0.75900000  1.0 0.1293579257
H  H547  1  0.75340000  0.57340000  0.41380000  1.0 0.1293579257
H  H548  1  0.68580000  0.51860000  0.35740000  1.0 0.1374984437
H  H549  1  0.47280000  0.66040000  0.77830000  1.0 0.1293579257
H  H550  1  0.49570000  0.71010000  0.86200000  1.0 0.1374984437
H  H551  1  0.43840000  0.62230000  0.80990000  1.0 0.1293579257
H  H552  1  0.46130000  0.67200000  0.89350000  1.0 0.1207609178
H  H553  1  0.44560000  0.62960000  0.92060000  1.0 0.1293579257
H  H554  1  0.43970000  0.63080000  0.97060000  1.0 0.1293579257
H  H555  1  0.44180000  0.62870000  0.02880000  1.0 0.1293579257
H  H556  1  0.44470000  0.63140000  0.07940000  1.0 0.1207609178
H  H557  1  0.46150000  0.67210000  0.10680000  1.0 0.1207609178
H  H558  1  0.43930000  0.62140000  0.18950000  1.0 0.1293579257
H  H559  1  0.49570000  0.71000000  0.13870000  1.0 0.1374984437
H  H560  1  0.47350000  0.65930000  0.22140000  1.0 0.1293579257
H  H561  1  0.42980000  0.24790000  0.90360000  1.0 0.1374984437
H  H562  1  0.36740000  0.25720000  0.86020000  1.0 0.1293579257
H  H563  1  0.42050000  0.26190000  0.95570000  1.0 0.1293579257
H  H564  1  0.35810000  0.27120000  0.91240000  1.0 0.1207609178
H  H565  1  0.32860000  0.25230000  0.71630000  1.0 0.1293579257
H  H566  1  0.33150000  0.20860000  0.63490000  1.0 0.1374984437
H  H567  1  0.37760000  0.30180000  0.75920000  1.0 0.1293579257
H  H568  1  0.46130000  0.34320000  0.73530000  1.0 0.1293579257
H  H569  1  0.42670000  0.18000000  0.58680000  1.0 0.1374984437
H  H570  1  0.48230000  0.16800000  0.64260000  1.0 0.1374984437
H  H571  1  0.30060000  0.26600000  0.68580000  1.0 0.1293579257
H  H572  1  0.30350000  0.22230000  0.60430000  1.0 0.1293579257
H  H573  1  0.37760000  0.34480000  0.75760000  1.0 0.1207609178
H  H574  1  0.46120000  0.38610000  0.73380000  1.0 0.1135173202
H  H575  1  0.44850000  0.17700000  0.53710000  1.0 0.1293579257
H  H576  1  0.50400000  0.16490000  0.59300000  1.0 0.1207609178
H  H577  1  0.36340000  0.29900000  0.94910000  1.0 0.1207609178
H  H578  1  0.28230000  0.24030000  0.57570000  1.0 0.1207609178
H  H579  1  0.46300000  0.42020000  0.74570000  1.0 0.1293579257
H  H580  1  0.36740000  0.30270000  0.05250000  1.0 0.1207609178
H  H581  1  0.52550000  0.16610000  0.55120000  1.0 0.1207609178
H  H582  1  0.35810000  0.27170000  0.08880000  1.0 0.1207609178
H  H583  1  0.41900000  0.26080000  0.04420000  1.0 0.1293579257
H  H584  1  0.34330000  0.31640000  0.04460000  1.0 0.1207609178
H  H585  1  0.34510000  0.32220000  0.95250000  1.0 0.1207609178
H  H586  1  0.24290000  0.28680000  0.57660000  1.0 0.1207609178
H  H587  1  0.42010000  0.46310000  0.73980000  1.0 0.1293579257
H  H588  1  0.36810000  0.25820000  0.14090000  1.0 0.1293579257
H  H589  1  0.42900000  0.24730000  0.09630000  1.0 0.1374984437
H  H590  1  0.52490000  0.16470000  0.44860000  1.0 0.1207609178
H  H591  1  0.22190000  0.30320000  0.60420000  1.0 0.1207609178
H  H592  1  0.26460000  0.29860000  0.68580000  1.0 0.1207609178
H  H593  1  0.38490000  0.46010000  0.73320000  1.0 0.1135173202
H  H594  1  0.34300000  0.37670000  0.75790000  1.0 0.1293579257
H  H595  1  0.44840000  0.17660000  0.46320000  1.0 0.1293579257
H  H596  1  0.50320000  0.16380000  0.40680000  1.0 0.1207609178
H  H597  1  0.56330000  0.16730000  0.45180000  1.0 0.1293579257
H  H598  1  0.56270000  0.16730000  0.54870000  1.0 0.1293579257
H  H599  1  0.20910000  0.33180000  0.63490000  1.0 0.1293579257
H  H600  1  0.25170000  0.32720000  0.71650000  1.0 0.1293579257
H  H601  1  0.34200000  0.46040000  0.73420000  1.0 0.1293579257
H  H602  1  0.30020000  0.37700000  0.75900000  1.0 0.1293579257
H  H603  1  0.42660000  0.18000000  0.41380000  1.0 0.1374984437
H  H604  1  0.48140000  0.16720000  0.35740000  1.0 0.1374984437
H  H605  1  0.33960000  0.81240000  0.77830000  1.0 0.1293579257
H  H606  1  0.28990000  0.78560000  0.86200000  1.0 0.1374984437
H  H607  1  0.37770000  0.81610000  0.80990000  1.0 0.1293579257
H  H608  1  0.32800000  0.78930000  0.89350000  1.0 0.1207609178
H  H609  1  0.37040000  0.81600000  0.92060000  1.0 0.1293579257
H  H610  1  0.36920000  0.80890000  0.97060000  1.0 0.1293579257
H  H611  1  0.37130000  0.81310000  0.02880000  1.0 0.1293579257
H  H612  1  0.36860000  0.81330000  0.07940000  1.0 0.1207609178
H  H613  1  0.32790000  0.78940000  0.10680000  1.0 0.1207609178
H  H614  1  0.37860000  0.81790000  0.18950000  1.0 0.1293579257
H  H615  1  0.29000000  0.78570000  0.13870000  1.0 0.1374984437
H  H616  1  0.34070000  0.81420000  0.22140000  1.0 0.1293579257
H  H617  1  0.75210000  0.18190000  0.90360000  1.0 0.1374984437
H  H618  1  0.74280000  0.11020000  0.86020000  1.0 0.1293579257
H  H619  1  0.73810000  0.15860000  0.95570000  1.0 0.1293579257
H  H620  1  0.72880000  0.08690000  0.91240000  1.0 0.1207609178
H  H621  1  0.74770000  0.07630000  0.71630000  1.0 0.1293579257
H  H622  1  0.79140000  0.12290000  0.63490000  1.0 0.1374984437
H  H623  1  0.69820000  0.07580000  0.75920000  1.0 0.1293579257
H  H624  1  0.65680000  0.11810000  0.73530000  1.0 0.1293579257
H  H625  1  0.82000000  0.24670000  0.58680000  1.0 0.1374984437
H  H626  1  0.83200000  0.31430000  0.64260000  1.0 0.1374984437
H  H627  1  0.73400000  0.03460000  0.68580000  1.0 0.1293579257
H  H628  1  0.77770000  0.08120000  0.60430000  1.0 0.1293579257
H  H629  1  0.65520000  0.03280000  0.75760000  1.0 0.1207609178
H  H630  1  0.61390000  0.07510000  0.73380000  1.0 0.1135173202
H  H631  1  0.82300000  0.27150000  0.53710000  1.0 0.1293579257
H  H632  1  0.83510000  0.33910000  0.59300000  1.0 0.1207609178
H  H633  1  0.70100000  0.06440000  0.94910000  1.0 0.1207609178
H  H634  1  0.75970000  0.04200000  0.57570000  1.0 0.1207609178
H  H635  1  0.57980000  0.04280000  0.74570000  1.0 0.1293579257
H  H636  1  0.69730000  0.06470000  0.05250000  1.0 0.1207609178
H  H637  1  0.83390000  0.35940000  0.55120000  1.0 0.1207609178
H  H638  1  0.72830000  0.08640000  0.08880000  1.0 0.1207609178
H  H639  1  0.73920000  0.15820000  0.04420000  1.0 0.1293579257
H  H640  1  0.68360000  0.02690000  0.04460000  1.0 0.1207609178
H  H641  1  0.67780000  0.02290000  0.95250000  1.0 0.1207609178
H  H642  1  0.71320000  0.95610000  0.57660000  1.0 0.1207609178
H  H643  1  0.53690000  0.95700000  0.73980000  1.0 0.1293579257
H  H644  1  0.74180000  0.10990000  0.14090000  1.0 0.1293579257
H  H645  1  0.75270000  0.18170000  0.09630000  1.0 0.1374984437
H  H646  1  0.83530000  0.36020000  0.44860000  1.0 0.1207609178
H  H647  1  0.69680000  0.91870000  0.60420000  1.0 0.1207609178
H  H648  1  0.70140000  0.96600000  0.68580000  1.0 0.1207609178
H  H649  1  0.53990000  0.92480000  0.73320000  1.0 0.1135173202
H  H650  1  0.62330000  0.96630000  0.75790000  1.0 0.1293579257
H  H651  1  0.82340000  0.27180000  0.46320000  1.0 0.1293579257
H  H652  1  0.83620000  0.33940000  0.40680000  1.0 0.1207609178
H  H653  1  0.83270000  0.39600000  0.45180000  1.0 0.1293579257
H  H654  1  0.83270000  0.39540000  0.54870000  1.0 0.1293579257
H  H655  1  0.66820000  0.87730000  0.63490000  1.0 0.1293579257
H  H656  1  0.67280000  0.92450000  0.71650000  1.0 0.1293579257
H  H657  1  0.53960000  0.88160000  0.73420000  1.0 0.1293579257
H  H658  1  0.62300000  0.92320000  0.75900000  1.0 0.1293579257
H  H659  1  0.82000000  0.24660000  0.41380000  1.0 0.1293579257
H  H660  1  0.83280000  0.31420000  0.35740000  1.0 0.1374984437
H  H661  1  0.18760000  0.52720000  0.77830000  1.0 0.1293579257
H  H662  1  0.21440000  0.50430000  0.86200000  1.0 0.1374984437
H  H663  1  0.18390000  0.56160000  0.80990000  1.0 0.1293579257
H  H664  1  0.21070000  0.53870000  0.89350000  1.0 0.1207609178
H  H665  1  0.18400000  0.55440000  0.92060000  1.0 0.1293579257
H  H666  1  0.19110000  0.56030000  0.97060000  1.0 0.1293579257
H  H667  1  0.18690000  0.55820000  0.02880000  1.0 0.1293579257
H  H668  1  0.18670000  0.55530000  0.07940000  1.0 0.1207609178
H  H669  1  0.21060000  0.53850000  0.10680000  1.0 0.1207609178
H  H670  1  0.18210000  0.56070000  0.18950000  1.0 0.1293579257
H  H671  1  0.21430000  0.50430000  0.13870000  1.0 0.1374984437
H  H672  1  0.18580000  0.52650000  0.22140000  1.0 0.1293579257
C  C1  1  0.75930000  0.59470000  0.84500000  1.0 0.6278806492
C  C2  1  0.74880000  0.60053000  0.87700000  1.0 -0.0390792212
C  C3  1  0.77830000  0.64640000  0.69440000  1.0 0.6463744042
C  C4  1  0.70650000  0.57920000  0.74690000  1.0 0.6134631284
C  C5  1  0.74740000  0.58478000  0.90540000  1.0 -0.0900825051
C  C6  1  0.74180000  0.62174000  0.87960000  1.0 -0.0817494479
C  C7  1  0.81920000  0.55880000  0.65060000  1.0 0.63993787
C  C8  1  0.77080000  0.66730000  0.67850000  1.0 -0.0087011737
C  C9  1  0.68160000  0.58062000  0.74740000  1.0 -0.0817494479
C  C10  1  0.73900000  0.59023000  0.93630000  1.0 -0.1393121759
C  C11  1  0.73350000  0.62730000  0.91060000  1.0 -0.1593547354
C  C12  1  0.82570000  0.54756000  0.61936000  1.0 -0.0390792212
C  C13  1  0.75380000  0.67650000  0.69360000  1.0 -0.0987439032
C  C14  1  0.77970000  0.67470000  0.64520000  1.0 -0.0987439032
C  C15  1  0.68110000  0.60540000  0.75400000  1.0 -0.070708306
C  C16  1  0.65650000  0.55574000  0.73980000  1.0 -0.070708306
C  C17  1  0.73210000  0.61155000  0.93896000  1.0 0.0696651533
C  C18  1  0.82300000  0.55754000  0.58803000  1.0 -0.0900825051
C  C19  1  0.83020000  0.52461000  0.62123000  1.0 -0.0900825051
C  C20  1  0.74560000  0.69310000  0.67540000  1.0 -0.1302107615
C  C21  1  0.77160000  0.69140000  0.62710000  1.0 -0.1393121759
C  C22  1  0.65560000  0.60547000  0.75310000  1.0 -0.1231488398
C  C23  1  0.63100000  0.55580000  0.73890000  1.0 -0.1503738226
C  C24  1  0.72120000  0.61610000  0.97210000  1.0 0.2282376796
C  C25  1  0.82490000  0.54469000  0.55856000  1.0 -0.1302107615
C  C26  1  0.83200000  0.51166000  0.59176000  1.0 -0.1503738226
C  C27  1  0.75460000  0.70060000  0.64220000  1.0 0.0769663018
C  C28  1  0.63050000  0.58058000  0.74560000  1.0 0.0512013844
C  C29  1  0.70480000  0.63040000  0.96990000  1.0 -0.2426798556
C  C30  1  0.82930000  0.52164000  0.56043000  1.0 0.060220164
C  C31  1  0.74610000  0.72100000  0.62270000  1.0 0.1983863763
C  C32  1  0.60520000  0.57994000  0.74760000  1.0 0.1775694053
C  C33  1  0.72340000  0.61800000  0.02740000  1.0 0.2412633935
C  C34  1  0.69530000  0.63410000  0.00000000  1.0 0.1293579257
C  C35  1  0.83200000  0.50774000  0.53021000  1.0 0.1983863763
C  C36  1  0.74920000  0.72450000  0.58780000  1.0 -0.2500055867
C  C37  1  0.57980000  0.55445000  0.74530000  1.0 -0.2240505718
C  C38  1  0.73250000  0.61244000  0.06163000  1.0 0.0696651533
C  C39  1  0.70350000  0.62930000  0.03140000  1.0 -0.2500055867
C  C40  1  0.67140000  0.64080000  0.99850000  1.0 0.0769663018
C  C41  1  0.83360000  0.48301000  0.53031000  1.0 -0.2500055867
C  C42  1  0.71850000  0.74440000  0.62320000  1.0 0.18830183
C  C43  1  0.73690000  0.73790000  0.57060000  1.0 0.1503930003
C  C44  1  0.55430000  0.55440000  0.74240000  1.0 -0.0087011737
C  C45  1  0.57970000  0.60543000  0.74410000  1.0 0.18830183
C  C46  1  0.73330000  0.62759000  0.09030000  1.0 -0.1593547354
C  C47  1  0.73970000  0.59132000  0.06390000  1.0 -0.1393121759
C  C48  1  0.67210000  0.65530000  0.02580000  1.0 -0.1655424016
C  C49  1  0.66930000  0.65540000  0.97330000  1.0 -0.1593547354
C  C50  1  0.83280000  0.50806000  0.46931000  1.0 0.1983863763
C  C51  1  0.83490000  0.47091000  0.49991000  1.0 0.1374984437
C  C52  1  0.70180000  0.75550000  0.64210000  1.0 0.0769663018
C  C53  1  0.72160000  0.74790000  0.58830000  1.0 -0.1934557698
C  C54  1  0.74380000  0.74070000  0.53970000  1.0 -0.0987439032
C  C55  1  0.55430000  0.57994000  0.74180000  1.0 -0.2333064777
C  C56  1  0.58160000  0.63198000  0.74550000  1.0 0.0512013844
C  C57  1  0.74130000  0.62162000  0.12130000  1.0 -0.0900825051
C  C58  1  0.74770000  0.58535000  0.09480000  1.0 -0.0900825051
C  C59  1  0.83010000  0.52214000  0.43968000  1.0 0.060220164
C  C60  1  0.83440000  0.48333000  0.46941000  1.0 -0.2500055867
C  C61  1  0.83770000  0.44330000  0.49930000  1.0 0.0104816182
C  C62  1  0.69190000  0.77200000  0.62700000  1.0 -0.1302107615
C  C63  1  0.69470000  0.74670000  0.67550000  1.0 -0.1231488398
C  C64  1  0.72460000  0.74670000  0.50910000  1.0 -0.070708306
C  C65  1  0.55680000  0.63230000  0.73840000  1.0 -0.1503738226
C  C66  1  0.60630000  0.65715000  0.75310000  1.0 -0.1302107615
C  C67  1  0.74850000  0.60050000  0.12350000  1.0 -0.0275721824
C  C68  1  0.82530000  0.54490000  0.44176000  1.0 -0.1302107615
C  C69  1  0.83290000  0.51235000  0.40824000  1.0 -0.1503738226
C  C70  1  0.83490000  0.42940000  0.47280000  1.0 -0.1393121759
C  C71  1  0.83480000  0.42970000  0.52800000  1.0 -0.1593547354
C  C72  1  0.67490000  0.77960000  0.64520000  1.0 -0.1060290467
C  C73  1  0.67770000  0.75430000  0.69370000  1.0 -0.1060290467
C  C74  1  0.55660000  0.65776000  0.73900000  1.0 -0.0604577202
C  C75  1  0.60610000  0.68260000  0.75370000  1.0 -0.0604577202
C  C76  1  0.75890000  0.59400000  0.15540000  1.0 0.6278806492
C  C77  1  0.82330000  0.55786000  0.41242000  1.0 -0.0900825051
C  C78  1  0.83090000  0.52532000  0.37890000  1.0 -0.0900825051
C  C79  1  0.66780000  0.77080000  0.67860000  1.0 -0.0087011737
C  C80  1  0.58130000  0.68294000  0.74670000  1.0 -0.1060290467
C  C81  1  0.82610000  0.54807000  0.38099000  1.0 -0.0390792212
C  C82  1  0.64730000  0.77860000  0.69420000  1.0 0.63993787
C  C83  1  0.57910000  0.70660000  0.74510000  1.0 0.5894504286
C  C84  1  0.81940000  0.55900000  0.34990000  1.0 0.63993787
C  C85  1  0.20360000  0.71320000  0.79900000  1.0 0.63993787
C  C86  1  0.20130000  0.68878000  0.81719000  1.0 -0.0540677436
C  C87  1  0.19230000  0.66275000  0.80172000  1.0 -0.0817494479
C  C88  1  0.20820000  0.69227000  0.85139000  1.0 -0.0817494479
C  C89  1  0.19010000  0.64011000  0.82044000  1.0 -0.1231488398
C  C90  1  0.20600000  0.66963000  0.87011000  1.0 -0.1503738226
C  C91  1  0.19700000  0.64360000  0.85464000  1.0 0.060220164
C  C92  1  0.19470000  0.61860000  0.87270000  1.0 0.2412633935
C  C93  1  0.18960000  0.61780000  0.90920000  1.0 -0.2888108023
C  C94  1  0.19080000  0.61550000  0.98250000  1.0 -0.1393121759
C  C95  1  0.18990000  0.61520000  0.01700000  1.0 -0.1503738226
C  C96  1  0.19000000  0.61780000  0.09050000  1.0 -0.2888108023
C  C97  1  0.19440000  0.61810000  0.12650000  1.0 0.2412633935
C  C98  1  0.19600000  0.64317000  0.14515000  1.0 0.060220164
C  C99  1  0.20560000  0.66950000  0.13006000  1.0 -0.1503738226
C  C100  1  0.18860000  0.63934000  0.17920000  1.0 -0.1231488398
C  C101  1  0.20780000  0.69202000  0.14902000  1.0 -0.0900825051
C  C102  1  0.19080000  0.66186000  0.19816000  1.0 -0.0900825051
C  C103  1  0.20040000  0.68820000  0.18307000  1.0 -0.0218783841
C  C104  1  0.20480000  0.71410000  0.20160000  1.0 0.6278806492
C  C105  1  0.83540000  0.24070000  0.84500000  1.0 0.6278806492
C  C106  1  0.85173000  0.25120000  0.87700000  1.0 -0.0390792212
C  C107  1  0.86810000  0.22170000  0.69440000  1.0 0.6463744042
C  C108  1  0.87270000  0.29350000  0.74690000  1.0 0.6134631284
C  C109  1  0.83738000  0.25260000  0.90540000  1.0 -0.0900825051
C  C110  1  0.87994000  0.25820000  0.87960000  1.0 -0.0817494479
C  C111  1  0.73960000  0.18080000  0.65060000  1.0 0.63993787
C  C112  1  0.89650000  0.22920000  0.67850000  1.0 -0.0087011737
C  C113  1  0.89902000  0.31840000  0.74740000  1.0 -0.0817494479
C  C114  1  0.85123000  0.26100000  0.93630000  1.0 -0.1393121759
C  C115  1  0.89380000  0.26650000  0.91060000  1.0 -0.1593547354
C  C116  1  0.72186000  0.17430000  0.61936000  1.0 -0.0390792212
C  C117  1  0.92270000  0.24620000  0.69360000  1.0 -0.0987439032
C  C118  1  0.89500000  0.22030000  0.64520000  1.0 -0.0987439032
C  C119  1  0.92430000  0.31890000  0.75400000  1.0 -0.070708306
C  C120  1  0.89924000  0.34350000  0.73980000  1.0 -0.070708306
C  C121  1  0.87945000  0.26790000  0.93896000  1.0 0.0696651533
C  C122  1  0.73454000  0.17700000  0.58803000  1.0 -0.0900825051
C  C123  1  0.69441000  0.16980000  0.62123000  1.0 -0.0900825051
C  C124  1  0.94750000  0.25440000  0.67540000  1.0 -0.1302107615
C  C125  1  0.91980000  0.22840000  0.62710000  1.0 -0.1393121759
C  C126  1  0.94987000  0.34440000  0.75310000  1.0 -0.1231488398
C  C127  1  0.92480000  0.36900000  0.73890000  1.0 -0.1503738226
C  C128  1  0.89490000  0.27880000  0.97210000  1.0 0.2282376796
C  C129  1  0.71979000  0.17510000  0.55856000  1.0 -0.1302107615
C  C130  1  0.67966000  0.16800000  0.59176000  1.0 -0.1503738226
C  C131  1  0.94600000  0.24540000  0.64220000  1.0 0.0769663018
C  C132  1  0.95008000  0.36950000  0.74560000  1.0 0.0512013844
C  C133  1  0.92560000  0.29520000  0.96990000  1.0 -0.2426798556
C  C134  1  0.69234000  0.17070000  0.56043000  1.0 0.060220164
C  C135  1  0.97490000  0.25390000  0.62270000  1.0 0.1983863763
C  C136  1  0.97474000  0.39480000  0.74760000  1.0 0.1775694053
C  C137  1  0.89460000  0.27660000  0.02740000  1.0 0.2412633935
C  C138  1  0.93880000  0.30470000  0.00000000  1.0 0.1293579257
C  C139  1  0.67574000  0.16800000  0.53021000  1.0 0.1983863763
C  C140  1  0.97530000  0.25080000  0.58780000  1.0 -0.2500055867
C  C141  1  0.97465000  0.42020000  0.74530000  1.0 -0.2240505718
C  C142  1  0.87994000  0.26750000  0.06163000  1.0 0.0696651533
C  C143  1  0.92580000  0.29650000  0.03140000  1.0 -0.2500055867
C  C144  1  0.96940000  0.32860000  0.99850000  1.0 0.0769663018
C  C145  1  0.64941000  0.16640000  0.53031000  1.0 -0.2500055867
C  C146  1  0.02590000  0.28150000  0.62320000  1.0 0.18830183
C  C147  1  0.00100000  0.26310000  0.57060000  1.0 0.1503930003
C  C148  1  0.00010000  0.44570000  0.74240000  1.0 -0.0087011737
C  C149  1  0.02573000  0.42030000  0.74410000  1.0 0.18830183
C  C150  1  0.89429000  0.26670000  0.09030000  1.0 -0.1593547354
C  C151  1  0.85162000  0.26030000  0.06390000  1.0 -0.1393121759
C  C152  1  0.98320000  0.32790000  0.02580000  1.0 -0.1655424016
C  C153  1  0.98610000  0.33070000  0.97330000  1.0 -0.1593547354
C  C154  1  0.67526000  0.16720000  0.46931000  1.0 0.1983863763
C  C155  1  0.63601000  0.16510000  0.49991000  1.0 0.1374984437
C  C156  1  0.05370000  0.29820000  0.64210000  1.0 0.0769663018
C  C157  1  0.02630000  0.27840000  0.58830000  1.0 -0.1951125167
C  C158  1  0.99690000  0.25620000  0.53970000  1.0 -0.0987439032
C  C159  1  0.02564000  0.44570000  0.74180000  1.0 -0.2333064777
C  C160  1  0.05038000  0.41840000  0.74550000  1.0 0.0512013844
C  C161  1  0.88032000  0.25870000  0.12130000  1.0 -0.0900825051
C  C162  1  0.83765000  0.25230000  0.09480000  1.0 -0.0900825051
C  C163  1  0.69204000  0.16990000  0.43968000  1.0 0.060220164
C  C164  1  0.64893000  0.16560000  0.46941000  1.0 -0.2500055867
C  C165  1  0.60560000  0.16230000  0.49930000  1.0 0.0104816182
C  C166  1  0.08010000  0.30810000  0.62700000  1.0 -0.1302107615
C  C167  1  0.05200000  0.30530000  0.67550000  1.0 -0.1231488398
C  C168  1  0.02210000  0.27540000  0.50910000  1.0 -0.070708306
C  C169  1  0.07550000  0.44320000  0.73840000  1.0 -0.1503738226
C  C170  1  0.05085000  0.39370000  0.75310000  1.0 -0.1302107615
C  C171  1  0.85200000  0.25150000  0.12350000  1.0 -0.0275721824
C  C172  1  0.71960000  0.17470000  0.44176000  1.0 -0.1302107615
C  C173  1  0.67945000  0.16710000  0.40824000  1.0 -0.1503738226
C  C174  1  0.59450000  0.16510000  0.47280000  1.0 -0.1393121759
C  C175  1  0.59490000  0.16520000  0.52800000  1.0 -0.1593547354
C  C176  1  0.10470000  0.32510000  0.64520000  1.0 -0.1060290467
C  C177  1  0.07660000  0.32230000  0.69370000  1.0 -0.1060290467
C  C178  1  0.10116000  0.44340000  0.73900000  1.0 -0.0604577202
C  C179  1  0.07650000  0.39390000  0.75370000  1.0 -0.0604577202
C  C180  1  0.83510000  0.24110000  0.15540000  1.0 0.6278806492
C  C181  1  0.73456000  0.17670000  0.41242000  1.0 -0.0900825051
C  C182  1  0.69442000  0.16910000  0.37890000  1.0 -0.0900825051
C  C183  1  0.10300000  0.33220000  0.67860000  1.0 -0.0087011737
C  C184  1  0.10164000  0.41870000  0.74670000  1.0 -0.1060290467
C  C185  1  0.72197000  0.17390000  0.38099000  1.0 -0.0390792212
C  C186  1  0.13130000  0.35270000  0.69420000  1.0 0.63993787
C  C187  1  0.12750000  0.42090000  0.74510000  1.0 0.5894504286
C  C188  1  0.73960000  0.18060000  0.34990000  1.0 0.63993787
C  C189  1  0.50960000  0.79640000  0.79900000  1.0 0.63993787
C  C190  1  0.48748000  0.79870000  0.81719000  1.0 -0.0540677436
C  C191  1  0.47045000  0.80770000  0.80172000  1.0 -0.0817494479
C  C192  1  0.48407000  0.79180000  0.85139000  1.0 -0.0817494479
C  C193  1  0.45001000  0.80990000  0.82044000  1.0 -0.1231488398
C  C194  1  0.46363000  0.79400000  0.87011000  1.0 -0.1503738226
C  C195  1  0.44660000  0.80300000  0.85464000  1.0 0.060220164
C  C196  1  0.42390000  0.80530000  0.87270000  1.0 0.2412633935
C  C197  1  0.42820000  0.81040000  0.90920000  1.0 -0.2888108023
C  C198  1  0.42470000  0.80920000  0.98250000  1.0 -0.1393121759
C  C199  1  0.42530000  0.81010000  0.01700000  1.0 -0.1503738226
C  C200  1  0.42780000  0.81000000  0.09050000  1.0 -0.2888108023
C  C201  1  0.42370000  0.80560000  0.12650000  1.0 0.2412633935
C  C202  1  0.44717000  0.80400000  0.14515000  1.0 0.060220164
C  C203  1  0.46390000  0.79440000  0.13006000  1.0 -0.1503738226
C  C204  1  0.45074000  0.81140000  0.17920000  1.0 -0.1231488398
C  C205  1  0.48422000  0.79220000  0.14902000  1.0 -0.0900825051
C  C206  1  0.47106000  0.80920000  0.19816000  1.0 -0.0900825051
C  C207  1  0.48780000  0.79960000  0.18307000  1.0 -0.0218783841
C  C208  1  0.50930000  0.79520000  0.20160000  1.0 0.6278806492
C  C209  1  0.40530000  0.16460000  0.84500000  1.0 0.6278806492
C  C210  1  0.39947000  0.14827000  0.87700000  1.0 -0.0390792212
C  C211  1  0.35360000  0.13190000  0.69440000  1.0 0.6463744042
C  C212  1  0.42080000  0.12730000  0.74690000  1.0 0.6134631284
C  C213  1  0.41522000  0.16262000  0.90540000  1.0 -0.0900825051
C  C214  1  0.37826000  0.12006000  0.87960000  1.0 -0.0817494479
C  C215  1  0.44120000  0.26040000  0.65060000  1.0 0.63993787
C  C216  1  0.33270000  0.10350000  0.67850000  1.0 -0.0087011737
C  C217  1  0.41938000  0.10098000  0.74740000  1.0 -0.0817494479
C  C218  1  0.40977000  0.14877000  0.93630000  1.0 -0.1393121759
C  C219  1  0.37270000  0.10620000  0.91060000  1.0 -0.1593547354
C  C220  1  0.45244000  0.27814000  0.61936000  1.0 -0.0390792212
C  C221  1  0.32350000  0.07730000  0.69360000  1.0 -0.0987439032
C  C222  1  0.32530000  0.10500000  0.64520000  1.0 -0.0987439032
C  C223  1  0.39460000  0.07570000  0.75400000  1.0 -0.070708306
C  C224  1  0.44426000  0.10076000  0.73980000  1.0 -0.070708306
C  C225  1  0.38845000  0.12055000  0.93896000  1.0 0.0696651533
C  C226  1  0.44246000  0.26546000  0.58803000  1.0 -0.0900825051
C  C227  1  0.47539000  0.30559000  0.62123000  1.0 -0.0900825051
C  C228  1  0.30690000  0.05250000  0.67540000  1.0 -0.1302107615
C  C229  1  0.30860000  0.08020000  0.62710000  1.0 -0.1393121759
C  C230  1  0.39453000  0.05013000  0.75310000  1.0 -0.1231488398
C  C231  1  0.44420000  0.07520000  0.73890000  1.0 -0.1503738226
C  C232  1  0.38390000  0.10510000  0.97210000  1.0 0.2282376796
C  C233  1  0.45531000  0.28021000  0.55856000  1.0 -0.1302107615
C  C234  1  0.48834000  0.32034000  0.59176000  1.0 -0.1503738226
C  C235  1  0.29940000  0.05400000  0.64220000  1.0 0.0769663018
C  C236  1  0.41942000  0.04992000  0.74560000  1.0 0.0512013844
C  C237  1  0.36960000  0.07440000  0.96990000  1.0 -0.2426798556
C  C238  1  0.47836000  0.30766000  0.56043000  1.0 0.060220164
C  C239  1  0.27900000  0.02510000  0.62270000  1.0 0.1983863763
C  C240  1  0.42006000  0.02526000  0.74760000  1.0 0.1775694053
C  C241  1  0.38200000  0.10540000  0.02740000  1.0 0.2412633935
C  C242  1  0.36590000  0.06120000  0.00000000  1.0 0.1293579257
C  C243  1  0.49226000  0.32426000  0.53021000  1.0 0.1983863763
C  C244  1  0.27550000  0.02470000  0.58780000  1.0 -0.2500055867
C  C245  1  0.44555000  0.02535000  0.74530000  1.0 -0.2240505718
C  C246  1  0.38756000  0.12006000  0.06163000  1.0 0.0696651533
C  C247  1  0.37070000  0.07420000  0.03140000  1.0 -0.2500055867
C  C248  1  0.35920000  0.03060000  0.99850000  1.0 0.0769663018
C  C249  1  0.51699000  0.35059000  0.53031000  1.0 -0.2500055867
C  C250  1  0.25560000  0.97410000  0.62320000  1.0 0.18830183
C  C251  1  0.26210000  0.99900000  0.57060000  1.0 0.1503930003
C  C252  1  0.44560000  0.99990000  0.74240000  1.0 -0.0087011737
C  C253  1  0.39457000  0.97427000  0.74410000  1.0 0.18830183
C  C254  1  0.37241000  0.10571000  0.09030000  1.0 -0.1593547354
C  C255  1  0.40868000  0.14838000  0.06390000  1.0 -0.1393121759
C  C256  1  0.34470000  0.01680000  0.02580000  1.0 -0.1655424016
C  C257  1  0.34460000  0.01390000  0.97330000  1.0 -0.1593547354
C  C258  1  0.49194000  0.32474000  0.46931000  1.0 0.1983863763
C  C259  1  0.52909000  0.36399000  0.49991000  1.0 0.1374984437
C  C260  1  0.24450000  0.94630000  0.64210000  1.0 0.0769663018
C  C261  1  0.25210000  0.97370000  0.58830000  1.0 -0.1934557698
C  C262  1  0.25930000  0.00310000  0.53970000  1.0 -0.0987439032
C  C263  1  0.42006000  0.97436000  0.74180000  1.0 -0.2333064777
C  C264  1  0.36802000  0.94962000  0.74550000  1.0 0.0512013844
C  C265  1  0.37838000  0.11968000  0.12130000  1.0 -0.0900825051
C  C266  1  0.41465000  0.16235000  0.09480000  1.0 -0.0900825051
C  C267  1  0.47786000  0.30796000  0.43968000  1.0 0.060220164
C  C268  1  0.51667000  0.35107000  0.46941000  1.0 -0.2500055867
C  C269  1  0.55670000  0.39440000  0.49930000  1.0 0.0104816182
C  C270  1  0.22800000  0.91990000  0.62700000  1.0 -0.1302107615
C  C271  1  0.25330000  0.94800000  0.67550000  1.0 -0.1231488398
C  C272  1  0.25330000  0.97790000  0.50910000  1.0 -0.070708306
C  C273  1  0.36770000  0.92450000  0.73840000  1.0 -0.1503738226
C  C274  1  0.34285000  0.94915000  0.75310000  1.0 -0.1302107615
C  C275  1  0.39950000  0.14800000  0.12350000  1.0 -0.0275721824
C  C276  1  0.45510000  0.28040000  0.44176000  1.0 -0.1302107615
C  C277  1  0.48765000  0.32055000  0.40824000  1.0 -0.1503738226
C  C278  1  0.57060000  0.40550000  0.47280000  1.0 -0.1393121759
C  C279  1  0.57030000  0.40510000  0.52800000  1.0 -0.1593547354
C  C280  1  0.22040000  0.89530000  0.64520000  1.0 -0.1060290467
C  C281  1  0.24570000  0.92340000  0.69370000  1.0 -0.1060290467
C  C282  1  0.34224000  0.89884000  0.73900000  1.0 -0.0604577202
C  C283  1  0.31740000  0.92350000  0.75370000  1.0 -0.0604577202
C  C284  1  0.40600000  0.16490000  0.15540000  1.0 0.6278806492
C  C285  1  0.44214000  0.26544000  0.41242000  1.0 -0.0900825051
C  C286  1  0.47468000  0.30558000  0.37890000  1.0 -0.0900825051
C  C287  1  0.22920000  0.89700000  0.67860000  1.0 -0.0087011737
C  C288  1  0.31706000  0.89836000  0.74670000  1.0 -0.1060290467
C  C289  1  0.45193000  0.27803000  0.38099000  1.0 -0.0390792212
C  C290  1  0.22140000  0.86870000  0.69420000  1.0 0.63993787
C  C291  1  0.29340000  0.87250000  0.74510000  1.0 0.5894504286
C  C292  1  0.44100000  0.26040000  0.34990000  1.0 0.63993787
C  C293  1  0.28680000  0.49040000  0.79900000  1.0 0.63993787
C  C294  1  0.31122000  0.51252000  0.81719000  1.0 -0.0540677436
C  C295  1  0.33725000  0.52955000  0.80172000  1.0 -0.0817494479
C  C296  1  0.30773000  0.51593000  0.85139000  1.0 -0.0817494479
C  C297  1  0.35989000  0.54999000  0.82044000  1.0 -0.1231488398
C  C298  1  0.33037000  0.53637000  0.87011000  1.0 -0.1503738226
C  C299  1  0.35640000  0.55340000  0.85464000  1.0 0.060220164
C  C300  1  0.38140000  0.57610000  0.87270000  1.0 0.2412633935
C  C301  1  0.38220000  0.57180000  0.90920000  1.0 -0.2888108023
C  C302  1  0.38450000  0.57530000  0.98250000  1.0 -0.1393121759
C  C303  1  0.38480000  0.57470000  0.01700000  1.0 -0.1503738226
C  C304  1  0.38220000  0.57220000  0.09050000  1.0 -0.2888108023
C  C305  1  0.38190000  0.57630000  0.12650000  1.0 0.2412633935
C  C306  1  0.35683000  0.55283000  0.14515000  1.0 0.060220164
C  C307  1  0.33050000  0.53610000  0.13006000  1.0 -0.1503738226
C  C308  1  0.36066000  0.54926000  0.17920000  1.0 -0.1231488398
C  C309  1  0.30798000  0.51578000  0.14902000  1.0 -0.0900825051
C  C310  1  0.33814000  0.52894000  0.19816000  1.0 -0.0900825051
C  C311  1  0.31180000  0.51220000  0.18307000  1.0 -0.0218783841
C  C312  1  0.28590000  0.49070000  0.20160000  1.0 0.6278806492
C  C313  1  0.16460000  0.40530000  0.15500000  1.0 0.6278806492
C  C314  1  0.14827000  0.39947000  0.12300000  1.0 -0.0390792212
C  C315  1  0.13190000  0.35360000  0.30560000  1.0 0.6463744042
C  C316  1  0.12730000  0.42080000  0.25310000  1.0 0.6134631284
C  C317  1  0.16262000  0.41522000  0.09460000  1.0 -0.0900825051
C  C318  1  0.12006000  0.37826000  0.12040000  1.0 -0.0817494479
C  C319  1  0.26040000  0.44120000  0.34940000  1.0 0.63993787
C  C320  1  0.10350000  0.33270000  0.32150000  1.0 -0.0087011737
C  C321  1  0.10098000  0.41938000  0.25260000  1.0 -0.0817494479
C  C322  1  0.14877000  0.40977000  0.06370000  1.0 -0.1393121759
C  C323  1  0.10620000  0.37270000  0.08940000  1.0 -0.1593547354
C  C324  1  0.27814000  0.45244000  0.38064000  1.0 -0.0390792212
C  C325  1  0.07730000  0.32350000  0.30640000  1.0 -0.0987439032
C  C326  1  0.10500000  0.32530000  0.35480000  1.0 -0.0987439032
C  C327  1  0.07570000  0.39460000  0.24600000  1.0 -0.070708306
C  C328  1  0.10076000  0.44426000  0.26020000  1.0 -0.070708306
C  C329  1  0.12055000  0.38845000  0.06104000  1.0 0.0696651533
C  C330  1  0.26546000  0.44246000  0.41197000  1.0 -0.0900825051
C  C331  1  0.30559000  0.47539000  0.37877000  1.0 -0.0900825051
C  C332  1  0.05250000  0.30690000  0.32460000  1.0 -0.1302107615
C  C333  1  0.08020000  0.30860000  0.37290000  1.0 -0.1393121759
C  C334  1  0.05013000  0.39453000  0.24690000  1.0 -0.1231488398
C  C335  1  0.07520000  0.44420000  0.26110000  1.0 -0.1503738226
C  C336  1  0.10510000  0.38390000  0.02790000  1.0 0.2282376796
C  C337  1  0.28021000  0.45531000  0.44144000  1.0 -0.1302107615
C  C338  1  0.32034000  0.48834000  0.40824000  1.0 -0.1503738226
C  C339  1  0.05400000  0.29940000  0.35780000  1.0 0.0769663018
C  C340  1  0.04992000  0.41942000  0.25440000  1.0 0.0512013844
C  C341  1  0.07440000  0.36960000  0.03010000  1.0 -0.2426798556
C  C342  1  0.30766000  0.47836000  0.43957000  1.0 0.060220164
C  C343  1  0.02510000  0.27900000  0.37730000  1.0 0.1983863763
C  C344  1  0.02526000  0.42006000  0.25240000  1.0 0.1775694053
C  C345  1  0.10540000  0.38200000  0.97260000  1.0 0.2412633935
C  C346  1  0.06120000  0.36590000  0.00000000  1.0 0.1293579257
C  C347  1  0.32426000  0.49226000  0.46979000  1.0 0.1983863763
C  C348  1  0.02470000  0.27550000  0.41220000  1.0 -0.2500055867
C  C349  1  0.02535000  0.44555000  0.25470000  1.0 -0.2240505718
C  C350  1  0.12006000  0.38756000  0.93837000  1.0 0.0696651533
C  C351  1  0.07420000  0.37070000  0.96860000  1.0 -0.2500055867
C  C352  1  0.03060000  0.35920000  0.00150000  1.0 0.0769663018
C  C353  1  0.35059000  0.51699000  0.46969000  1.0 -0.2500055867
C  C354  1  0.97410000  0.25560000  0.37680000  1.0 0.18830183
C  C355  1  0.99900000  0.26210000  0.42940000  1.0 0.1503930003
C  C356  1  0.99990000  0.44560000  0.25760000  1.0 -0.0087011737
C  C357  1  0.97427000  0.39457000  0.25590000  1.0 0.18830183
C  C358  1  0.10571000  0.37241000  0.90970000  1.0 -0.1593547354
C  C359  1  0.14838000  0.40868000  0.93610000  1.0 -0.1393121759
C  C360  1  0.01680000  0.34470000  0.97420000  1.0 -0.1655424016
C  C361  1  0.01390000  0.34460000  0.02670000  1.0 -0.1593547354
C  C362  1  0.32474000  0.49194000  0.53069000  1.0 0.1983863763
C  C363  1  0.36399000  0.52909000  0.50009000  1.0 0.1374984437
C  C364  1  0.94630000  0.24450000  0.35790000  1.0 0.0769663018
C  C365  1  0.97370000  0.25210000  0.41170000  1.0 -0.1934557698
C  C366  1  0.00310000  0.25930000  0.46030000  1.0 -0.0987439032
C  C367  1  0.97436000  0.42006000  0.25820000  1.0 -0.2333064777
C  C368  1  0.94962000  0.36802000  0.25450000  1.0 0.0512013844
C  C369  1  0.11968000  0.37838000  0.87870000  1.0 -0.0900825051
C  C370  1  0.16235000  0.41465000  0.90520000  1.0 -0.0900825051
C  C371  1  0.30796000  0.47786000  0.56032000  1.0 0.060220164
C  C372  1  0.35107000  0.51667000  0.53059000  1.0 -0.2500055867
C  C373  1  0.39440000  0.55670000  0.50070000  1.0 0.0104816182
C  C374  1  0.91990000  0.22800000  0.37300000  1.0 -0.1302107615
C  C375  1  0.94800000  0.25330000  0.32450000  1.0 -0.1231488398
C  C376  1  0.97790000  0.25330000  0.49090000  1.0 -0.070708306
C  C377  1  0.92450000  0.36770000  0.26160000  1.0 -0.1503738226
C  C378  1  0.94915000  0.34285000  0.24690000  1.0 -0.1302107615
C  C379  1  0.14800000  0.39950000  0.87650000  1.0 -0.0275721824
C  C380  1  0.28040000  0.45510000  0.55824000  1.0 -0.1302107615
C  C381  1  0.32055000  0.48765000  0.59176000  1.0 -0.1503738226
C  C382  1  0.40550000  0.57060000  0.52720000  1.0 -0.1393121759
C  C383  1  0.40510000  0.57030000  0.47200000  1.0 -0.1593547354
C  C384  1  0.89530000  0.22040000  0.35480000  1.0 -0.1060290467
C  C385  1  0.92340000  0.24570000  0.30630000  1.0 -0.1060290467
C  C386  1  0.89884000  0.34224000  0.26100000  1.0 -0.0604577202
C  C387  1  0.92350000  0.31740000  0.24630000  1.0 -0.0604577202
C  C388  1  0.16490000  0.40600000  0.84460000  1.0 0.6278806492
C  C389  1  0.26544000  0.44214000  0.58758000  1.0 -0.0900825051
C  C390  1  0.30558000  0.47468000  0.62110000  1.0 -0.0900825051
C  C391  1  0.89700000  0.22920000  0.32140000  1.0 -0.0087011737
C  C392  1  0.89836000  0.31706000  0.25330000  1.0 -0.1060290467
C  C393  1  0.27803000  0.45193000  0.61901000  1.0 -0.0390792212
C  C394  1  0.86870000  0.22140000  0.30580000  1.0 0.63993787
C  C395  1  0.87250000  0.29340000  0.25490000  1.0 0.5894504286
C  C396  1  0.26040000  0.44100000  0.65010000  1.0 0.63993787
C  C397  1  0.49040000  0.28680000  0.20100000  1.0 0.63993787
C  C398  1  0.51252000  0.31122000  0.18281000  1.0 -0.0540677436
C  C399  1  0.52955000  0.33725000  0.19828000  1.0 -0.0817494479
C  C400  1  0.51593000  0.30773000  0.14861000  1.0 -0.0817494479
C  C401  1  0.54999000  0.35989000  0.17956000  1.0 -0.1231488398
C  C402  1  0.53637000  0.33037000  0.12989000  1.0 -0.1503738226
C  C403  1  0.55340000  0.35640000  0.14536000  1.0 0.060220164
C  C404  1  0.57610000  0.38140000  0.12730000  1.0 0.2412633935
C  C405  1  0.57180000  0.38220000  0.09080000  1.0 -0.2888108023
C  C406  1  0.57530000  0.38450000  0.01750000  1.0 -0.1393121759
C  C407  1  0.57470000  0.38480000  0.98300000  1.0 -0.1503738226
C  C408  1  0.57220000  0.38220000  0.90950000  1.0 -0.2888108023
C  C409  1  0.57630000  0.38190000  0.87350000  1.0 0.2412633935
C  C410  1  0.55283000  0.35683000  0.85485000  1.0 0.060220164
C  C411  1  0.53610000  0.33050000  0.86994000  1.0 -0.1503738226
C  C412  1  0.54926000  0.36066000  0.82080000  1.0 -0.1231488398
C  C413  1  0.51578000  0.30798000  0.85098000  1.0 -0.0900825051
C  C414  1  0.52894000  0.33814000  0.80184000  1.0 -0.0900825051
C  C415  1  0.51220000  0.31180000  0.81693000  1.0 -0.0218783841
C  C416  1  0.49070000  0.28590000  0.79840000  1.0 0.6278806492
C  C417  1  0.59470000  0.75930000  0.15500000  1.0 0.6278806492
C  C418  1  0.60053000  0.74880000  0.12300000  1.0 -0.0390792212
C  C419  1  0.64640000  0.77830000  0.30560000  1.0 0.6463744042
C  C420  1  0.57920000  0.70650000  0.25310000  1.0 0.6134631284
C  C421  1  0.58478000  0.74740000  0.09460000  1.0 -0.0900825051
C  C422  1  0.62174000  0.74180000  0.12040000  1.0 -0.0817494479
C  C423  1  0.55880000  0.81920000  0.34940000  1.0 0.63993787
C  C424  1  0.66730000  0.77080000  0.32150000  1.0 -0.0087011737
C  C425  1  0.58062000  0.68160000  0.25260000  1.0 -0.0817494479
C  C426  1  0.59023000  0.73900000  0.06370000  1.0 -0.1393121759
C  C427  1  0.62730000  0.73350000  0.08940000  1.0 -0.1593547354
C  C428  1  0.54756000  0.82570000  0.38064000  1.0 -0.0390792212
C  C429  1  0.67650000  0.75380000  0.30640000  1.0 -0.0987439032
C  C430  1  0.67470000  0.77970000  0.35480000  1.0 -0.0987439032
C  C431  1  0.60540000  0.68110000  0.24600000  1.0 -0.070708306
C  C432  1  0.55574000  0.65650000  0.26020000  1.0 -0.070708306
C  C433  1  0.61155000  0.73210000  0.06104000  1.0 0.0696651533
C  C434  1  0.55754000  0.82300000  0.41197000  1.0 -0.0900825051
C  C435  1  0.52461000  0.83020000  0.37877000  1.0 -0.0900825051
C  C436  1  0.69310000  0.74560000  0.32460000  1.0 -0.1302107615
C  C437  1  0.69140000  0.77160000  0.37290000  1.0 -0.1393121759
C  C438  1  0.60547000  0.65560000  0.24690000  1.0 -0.1231488398
C  C439  1  0.55580000  0.63100000  0.26110000  1.0 -0.1503738226
C  C440  1  0.61610000  0.72120000  0.02790000  1.0 0.2282376796
C  C441  1  0.54469000  0.82490000  0.44144000  1.0 -0.1302107615
C  C442  1  0.51166000  0.83200000  0.40824000  1.0 -0.1503738226
C  C443  1  0.70060000  0.75460000  0.35780000  1.0 0.0769663018
C  C444  1  0.58058000  0.63050000  0.25440000  1.0 0.0512013844
C  C445  1  0.63040000  0.70480000  0.03010000  1.0 -0.2426798556
C  C446  1  0.52164000  0.82930000  0.43957000  1.0 0.060220164
C  C447  1  0.72100000  0.74610000  0.37730000  1.0 0.1983863763
C  C448  1  0.57994000  0.60520000  0.25240000  1.0 0.1775694053
C  C449  1  0.61800000  0.72340000  0.97260000  1.0 0.2412633935
C  C450  1  0.63410000  0.69530000  0.00000000  1.0 0.1293579257
C  C451  1  0.50774000  0.83200000  0.46979000  1.0 0.1983863763
C  C452  1  0.72450000  0.74920000  0.41220000  1.0 -0.2500055867
C  C453  1  0.55445000  0.57980000  0.25470000  1.0 -0.2240505718
C  C454  1  0.61244000  0.73250000  0.93837000  1.0 0.0696651533
C  C455  1  0.62930000  0.70350000  0.96860000  1.0 -0.2500055867
C  C456  1  0.64080000  0.67140000  0.00150000  1.0 0.0769663018
C  C457  1  0.48301000  0.83360000  0.46969000  1.0 -0.2500055867
C  C458  1  0.74440000  0.71850000  0.37680000  1.0 0.18830183
C  C459  1  0.73790000  0.73690000  0.42940000  1.0 0.1503930003
C  C460  1  0.55440000  0.55430000  0.25760000  1.0 -0.0087011737
C  C461  1  0.60543000  0.57970000  0.25590000  1.0 0.18830183
C  C462  1  0.62759000  0.73330000  0.90970000  1.0 -0.1593547354
C  C463  1  0.59132000  0.73970000  0.93610000  1.0 -0.1393121759
C  C464  1  0.65530000  0.67210000  0.97420000  1.0 -0.1655424016
C  C465  1  0.65540000  0.66930000  0.02670000  1.0 -0.1593547354
C  C466  1  0.50806000  0.83280000  0.53069000  1.0 0.1983863763
C  C467  1  0.47091000  0.83490000  0.50009000  1.0 0.1374984437
C  C468  1  0.75550000  0.70180000  0.35790000  1.0 0.0769663018
C  C469  1  0.74790000  0.72160000  0.41170000  1.0 -0.1934557698
C  C470  1  0.74070000  0.74380000  0.46030000  1.0 -0.0987439032
C  C471  1  0.57994000  0.55430000  0.25820000  1.0 -0.2333064777
C  C472  1  0.63198000  0.58160000  0.25450000  1.0 0.0512013844
C  C473  1  0.62162000  0.74130000  0.87870000  1.0 -0.0900825051
C  C474  1  0.58535000  0.74770000  0.90520000  1.0 -0.0900825051
C  C475  1  0.52214000  0.83010000  0.56032000  1.0 0.060220164
C  C476  1  0.48333000  0.83440000  0.53059000  1.0 -0.2500055867
C  C477  1  0.44330000  0.83770000  0.50070000  1.0 0.0104816182
C  C478  1  0.77200000  0.69190000  0.37300000  1.0 -0.1302107615
C  C479  1  0.74670000  0.69470000  0.32450000  1.0 -0.1231488398
C  C480  1  0.74670000  0.72460000  0.49090000  1.0 -0.070708306
C  C481  1  0.63230000  0.55680000  0.26160000  1.0 -0.1503738226
C  C482  1  0.65715000  0.60630000  0.24690000  1.0 -0.1302107615
C  C483  1  0.60050000  0.74850000  0.87650000  1.0 -0.0275721824
C  C484  1  0.54490000  0.82530000  0.55824000  1.0 -0.1302107615
C  C485  1  0.51235000  0.83290000  0.59176000  1.0 -0.1503738226
C  C486  1  0.42940000  0.83490000  0.52720000  1.0 -0.1393121759
C  C487  1  0.42970000  0.83480000  0.47200000  1.0 -0.1593547354
C  C488  1  0.77960000  0.67490000  0.35480000  1.0 -0.1060290467
C  C489  1  0.75430000  0.67770000  0.30630000  1.0 -0.1060290467
C  C490  1  0.65776000  0.55660000  0.26100000  1.0 -0.0604577202
C  C491  1  0.68260000  0.60610000  0.24630000  1.0 -0.0604577202
C  C492  1  0.59400000  0.75890000  0.84460000  1.0 0.6278806492
C  C493  1  0.55786000  0.82330000  0.58758000  1.0 -0.0900825051
C  C494  1  0.52532000  0.83090000  0.62110000  1.0 -0.0900825051
C  C495  1  0.77080000  0.66780000  0.32140000  1.0 -0.0087011737
C  C496  1  0.68294000  0.58130000  0.25330000  1.0 -0.1060290467
C  C497  1  0.54807000  0.82610000  0.61901000  1.0 -0.0390792212
C  C498  1  0.77860000  0.64730000  0.30580000  1.0 0.63993787
C  C499  1  0.70660000  0.57910000  0.25490000  1.0 0.5894504286
C  C500  1  0.55900000  0.81940000  0.65010000  1.0 0.63993787
C  C501  1  0.71320000  0.20360000  0.20100000  1.0 0.63993787
C  C502  1  0.68878000  0.20130000  0.18281000  1.0 -0.0540677436
C  C503  1  0.66275000  0.19230000  0.19828000  1.0 -0.0817494479
C  C504  1  0.69227000  0.20820000  0.14861000  1.0 -0.0817494479
C  C505  1  0.64011000  0.19010000  0.17956000  1.0 -0.1231488398
C  C506  1  0.66963000  0.20600000  0.12989000  1.0 -0.1503738226
C  C507  1  0.64360000  0.19700000  0.14536000  1.0 0.060220164
C  C508  1  0.61860000  0.19470000  0.12730000  1.0 0.2412633935
C  C509  1  0.61780000  0.18960000  0.09080000  1.0 -0.2888108023
C  C510  1  0.61550000  0.19080000  0.01750000  1.0 -0.1393121759
C  C511  1  0.61520000  0.18990000  0.98300000  1.0 -0.1503738226
C  C512  1  0.61780000  0.19000000  0.90950000  1.0 -0.2888108023
C  C513  1  0.61810000  0.19440000  0.87350000  1.0 0.2412633935
C  C514  1  0.64317000  0.19600000  0.85485000  1.0 0.060220164
C  C515  1  0.66950000  0.20560000  0.86994000  1.0 -0.1503738226
C  C516  1  0.63934000  0.18860000  0.82080000  1.0 -0.1231488398
C  C517  1  0.69202000  0.20780000  0.85098000  1.0 -0.0900825051
C  C518  1  0.66186000  0.19080000  0.80184000  1.0 -0.0900825051
C  C519  1  0.68820000  0.20040000  0.81693000  1.0 -0.0218783841
C  C520  1  0.71410000  0.20480000  0.79840000  1.0 0.6278806492
C  C521  1  0.24070000  0.83540000  0.15500000  1.0 0.6278806492
C  C522  1  0.25120000  0.85173000  0.12300000  1.0 -0.0390792212
C  C523  1  0.22170000  0.86810000  0.30560000  1.0 0.6463744042
C  C524  1  0.29350000  0.87270000  0.25310000  1.0 0.6134631284
C  C525  1  0.25260000  0.83738000  0.09460000  1.0 -0.0900825051
C  C526  1  0.25820000  0.87994000  0.12040000  1.0 -0.0817494479
C  C527  1  0.18080000  0.73960000  0.34940000  1.0 0.63993787
C  C528  1  0.22920000  0.89650000  0.32150000  1.0 -0.0087011737
C  C529  1  0.31840000  0.89902000  0.25260000  1.0 -0.0817494479
C  C530  1  0.26100000  0.85123000  0.06370000  1.0 -0.1393121759
C  C531  1  0.26650000  0.89380000  0.08940000  1.0 -0.1593547354
C  C532  1  0.17430000  0.72186000  0.38064000  1.0 -0.0390792212
C  C533  1  0.24620000  0.92270000  0.30640000  1.0 -0.0987439032
C  C534  1  0.22030000  0.89500000  0.35480000  1.0 -0.0987439032
C  C535  1  0.31890000  0.92430000  0.24600000  1.0 -0.070708306
C  C536  1  0.34350000  0.89924000  0.26020000  1.0 -0.070708306
C  C537  1  0.26790000  0.87945000  0.06104000  1.0 0.0696651533
C  C538  1  0.17700000  0.73454000  0.41197000  1.0 -0.0900825051
C  C539  1  0.16980000  0.69441000  0.37877000  1.0 -0.0900825051
C  C540  1  0.25440000  0.94750000  0.32460000  1.0 -0.1302107615
C  C541  1  0.22840000  0.91980000  0.37290000  1.0 -0.1393121759
C  C542  1  0.34440000  0.94987000  0.24690000  1.0 -0.1231488398
C  C543  1  0.36900000  0.92480000  0.26110000  1.0 -0.1503738226
C  C544  1  0.27880000  0.89490000  0.02790000  1.0 0.2282376796
C  C545  1  0.17510000  0.71979000  0.44144000  1.0 -0.1302107615
C  C546  1  0.16800000  0.67966000  0.40824000  1.0 -0.1503738226
C  C547  1  0.24540000  0.94600000  0.35780000  1.0 0.0769663018
C  C548  1  0.36950000  0.95008000  0.25440000  1.0 0.0512013844
C  C549  1  0.29520000  0.92560000  0.03010000  1.0 -0.2426798556
C  C550  1  0.17070000  0.69234000  0.43957000  1.0 0.060220164
C  C551  1  0.25390000  0.97490000  0.37730000  1.0 0.1983863763
C  C552  1  0.39480000  0.97474000  0.25240000  1.0 0.1775694053
C  C553  1  0.27660000  0.89460000  0.97260000  1.0 0.2412633935
C  C554  1  0.30470000  0.93880000  0.00000000  1.0 0.1293579257
C  C555  1  0.16800000  0.67574000  0.46979000  1.0 0.1983863763
C  C556  1  0.25080000  0.97530000  0.41220000  1.0 -0.2500055867
C  C557  1  0.42020000  0.97465000  0.25470000  1.0 -0.2240505718
C  C558  1  0.26750000  0.87994000  0.93837000  1.0 0.0696651533
C  C559  1  0.29650000  0.92580000  0.96860000  1.0 -0.2500055867
C  C560  1  0.32860000  0.96940000  0.00150000  1.0 0.0769663018
C  C561  1  0.16640000  0.64941000  0.46969000  1.0 -0.2500055867
C  C562  1  0.28150000  0.02590000  0.37680000  1.0 0.18830183
C  C563  1  0.26310000  0.00100000  0.42940000  1.0 0.1503930003
C  C564  1  0.44570000  0.00010000  0.25760000  1.0 -0.0087011737
C  C565  1  0.42030000  0.02573000  0.25590000  1.0 0.18830183
C  C566  1  0.26670000  0.89429000  0.90970000  1.0 -0.1593547354
C  C567  1  0.26030000  0.85162000  0.93610000  1.0 -0.1393121759
C  C568  1  0.32790000  0.98320000  0.97420000  1.0 -0.1655424016
C  C569  1  0.33070000  0.98610000  0.02670000  1.0 -0.1593547354
C  C570  1  0.16720000  0.67526000  0.53069000  1.0 0.1983863763
C  C571  1  0.16510000  0.63601000  0.50009000  1.0 0.1374984437
C  C572  1  0.29820000  0.05370000  0.35790000  1.0 0.0769663018
C  C573  1  0.27840000  0.02630000  0.41170000  1.0 -0.1934557698
C  C574  1  0.25620000  0.99690000  0.46030000  1.0 -0.1060290467
C  C575  1  0.44570000  0.02564000  0.25820000  1.0 -0.2333064777
C  C576  1  0.41840000  0.05038000  0.25450000  1.0 0.0512013844
C  C577  1  0.25870000  0.88032000  0.87870000  1.0 -0.0900825051
C  C578  1  0.25230000  0.83765000  0.90520000  1.0 -0.0900825051
C  C579  1  0.16990000  0.69204000  0.56032000  1.0 0.060220164
C  C580  1  0.16560000  0.64893000  0.53059000  1.0 -0.2500055867
C  C581  1  0.16230000  0.60560000  0.50070000  1.0 0.0104816182
C  C582  1  0.30810000  0.08010000  0.37300000  1.0 -0.1302107615
C  C583  1  0.30530000  0.05200000  0.32450000  1.0 -0.1231488398
C  C584  1  0.27540000  0.02210000  0.49090000  1.0 -0.070708306
C  C585  1  0.44320000  0.07550000  0.26160000  1.0 -0.1503738226
C  C586  1  0.39370000  0.05085000  0.24690000  1.0 -0.1302107615
C  C587  1  0.25150000  0.85200000  0.87650000  1.0 -0.0275721824
C  C588  1  0.17470000  0.71960000  0.55824000  1.0 -0.1302107615
C  C589  1  0.16710000  0.67945000  0.59176000  1.0 -0.1503738226
C  C590  1  0.16510000  0.59450000  0.52720000  1.0 -0.1393121759
C  C591  1  0.16520000  0.59490000  0.47200000  1.0 -0.1593547354
C  C592  1  0.32510000  0.10470000  0.35480000  1.0 -0.1060290467
C  C593  1  0.32230000  0.07660000  0.30630000  1.0 -0.1060290467
C  C594  1  0.44340000  0.10116000  0.26100000  1.0 -0.0604577202
C  C595  1  0.39390000  0.07650000  0.24630000  1.0 -0.0604577202
C  C596  1  0.24110000  0.83510000  0.84460000  1.0 0.6278806492
C  C597  1  0.17670000  0.73456000  0.58758000  1.0 -0.0900825051
C  C598  1  0.16910000  0.69442000  0.62110000  1.0 -0.0900825051
C  C599  1  0.33220000  0.10300000  0.32140000  1.0 -0.0087011737
C  C600  1  0.41870000  0.10164000  0.25330000  1.0 -0.1060290467
C  C601  1  0.17390000  0.72197000  0.61901000  1.0 -0.0390792212
C  C602  1  0.35270000  0.13130000  0.30580000  1.0 0.63993787
C  C603  1  0.42090000  0.12750000  0.25490000  1.0 0.5894504286
C  C604  1  0.18060000  0.73960000  0.65010000  1.0 0.63993787
C  C605  1  0.79640000  0.50960000  0.20100000  1.0 0.63993787
C  C606  1  0.79870000  0.48748000  0.18281000  1.0 -0.0540677436
C  C607  1  0.80770000  0.47045000  0.19828000  1.0 -0.0817494479
C  C608  1  0.79180000  0.48407000  0.14861000  1.0 -0.0817494479
C  C609  1  0.80990000  0.45001000  0.17956000  1.0 -0.1231488398
C  C610  1  0.79400000  0.46363000  0.12989000  1.0 -0.1503738226
C  C611  1  0.80300000  0.44660000  0.14536000  1.0 0.060220164
C  C612  1  0.80530000  0.42390000  0.12730000  1.0 0.2412633935
C  C613  1  0.81040000  0.42820000  0.09080000  1.0 -0.2888108023
C  C614  1  0.80920000  0.42470000  0.01750000  1.0 -0.1393121759
C  C615  1  0.81010000  0.42530000  0.98300000  1.0 -0.1503738226
C  C616  1  0.81000000  0.42780000  0.90950000  1.0 -0.2888108023
C  C617  1  0.80560000  0.42370000  0.87350000  1.0 0.2412633935
C  C618  1  0.80400000  0.44717000  0.85485000  1.0 0.060220164
C  C619  1  0.79440000  0.46390000  0.86994000  1.0 -0.1503738226
C  C620  1  0.81140000  0.45074000  0.82080000  1.0 -0.1231488398
C  C621  1  0.79220000  0.48422000  0.85098000  1.0 -0.0900825051
C  C622  1  0.80920000  0.47106000  0.80184000  1.0 -0.0900825051
C  C623  1  0.79960000  0.48780000  0.81693000  1.0 -0.0218783841
C  C624  1  0.79520000  0.50930000  0.79840000  1.0 0.6278806492
C  C625  1  0.24070000  0.40530000  0.15500000  1.0 0.6278806492
C  C626  1  0.25120000  0.39947000  0.12300000  1.0 -0.0390792212
C  C627  1  0.22170000  0.35360000  0.30560000  1.0 0.6463744042
C  C628  1  0.29350000  0.42080000  0.25310000  1.0 0.6134631284
C  C629  1  0.25260000  0.41522000  0.09460000  1.0 -0.0900825051
C  C630  1  0.25820000  0.37826000  0.12040000  1.0 -0.0817494479
C  C631  1  0.18080000  0.44120000  0.34940000  1.0 0.63993787
C  C632  1  0.22920000  0.33270000  0.32150000  1.0 -0.0087011737
C  C633  1  0.31840000  0.41938000  0.25260000  1.0 -0.0817494479
C  C634  1  0.26100000  0.40977000  0.06370000  1.0 -0.1393121759
C  C635  1  0.26650000  0.37270000  0.08940000  1.0 -0.1593547354
C  C636  1  0.17430000  0.45244000  0.38064000  1.0 -0.0390792212
C  C637  1  0.24620000  0.32350000  0.30640000  1.0 -0.0987439032
C  C638  1  0.22030000  0.32530000  0.35480000  1.0 -0.0987439032
C  C639  1  0.31890000  0.39460000  0.24600000  1.0 -0.070708306
C  C640  1  0.34350000  0.44426000  0.26020000  1.0 -0.070708306
C  C641  1  0.26790000  0.38845000  0.06104000  1.0 0.0696651533
C  C642  1  0.17700000  0.44246000  0.41197000  1.0 -0.0900825051
C  C643  1  0.16980000  0.47539000  0.37877000  1.0 -0.0900825051
C  C644  1  0.25440000  0.30690000  0.32460000  1.0 -0.1302107615
C  C645  1  0.22840000  0.30860000  0.37290000  1.0 -0.1393121759
C  C646  1  0.34440000  0.39453000  0.24690000  1.0 -0.1231488398
C  C647  1  0.36900000  0.44420000  0.26110000  1.0 -0.1503738226
C  C648  1  0.27880000  0.38390000  0.02790000  1.0 0.2282376796
C  C649  1  0.17510000  0.45531000  0.44144000  1.0 -0.1302107615
C  C650  1  0.16800000  0.48834000  0.40824000  1.0 -0.1503738226
C  C651  1  0.24540000  0.29940000  0.35780000  1.0 0.0769663018
C  C652  1  0.36950000  0.41942000  0.25440000  1.0 0.0512013844
C  C653  1  0.29520000  0.36960000  0.03010000  1.0 -0.2426798556
C  C654  1  0.17070000  0.47836000  0.43957000  1.0 0.060220164
C  C655  1  0.25390000  0.27900000  0.37730000  1.0 0.1983863763
C  C656  1  0.39480000  0.42006000  0.25240000  1.0 0.1775694053
C  C657  1  0.27660000  0.38200000  0.97260000  1.0 0.2412633935
C  C658  1  0.30470000  0.36590000  0.00000000  1.0 0.1293579257
C  C659  1  0.16800000  0.49226000  0.46979000  1.0 0.1983863763
C  C660  1  0.25080000  0.27550000  0.41220000  1.0 -0.2500055867
C  C661  1  0.42020000  0.44555000  0.25470000  1.0 -0.2240505718
C  C662  1  0.26750000  0.38756000  0.93837000  1.0 0.0696651533
C  C663  1  0.29650000  0.37070000  0.96860000  1.0 -0.2500055867
C  C664  1  0.32860000  0.35920000  0.00150000  1.0 0.0769663018
C  C665  1  0.16640000  0.51699000  0.46969000  1.0 -0.2500055867
C  C666  1  0.28150000  0.25560000  0.37680000  1.0 0.18830183
C  C667  1  0.26310000  0.26210000  0.42940000  1.0 0.1503930003
C  C668  1  0.44570000  0.44560000  0.25760000  1.0 -0.0087011737
C  C669  1  0.42030000  0.39457000  0.25590000  1.0 0.18830183
C  C670  1  0.26670000  0.37241000  0.90970000  1.0 -0.1593547354
C  C671  1  0.26030000  0.40868000  0.93610000  1.0 -0.1393121759
C  C672  1  0.32790000  0.34470000  0.97420000  1.0 -0.1655424016
C  C673  1  0.33070000  0.34460000  0.02670000  1.0 -0.1593547354
C  C674  1  0.16720000  0.49194000  0.53069000  1.0 0.1983863763
C  C675  1  0.16510000  0.52909000  0.50009000  1.0 0.1374984437
C  C676  1  0.29820000  0.24450000  0.35790000  1.0 0.0769663018
C  C677  1  0.27840000  0.25210000  0.41170000  1.0 -0.1934557698
C  C678  1  0.25620000  0.25930000  0.46030000  1.0 -0.1060290467
C  C679  1  0.44570000  0.42006000  0.25820000  1.0 -0.2333064777
C  C680  1  0.41840000  0.36802000  0.25450000  1.0 0.0512013844
C  C681  1  0.25870000  0.37838000  0.87870000  1.0 -0.0900825051
C  C682  1  0.25230000  0.41465000  0.90520000  1.0 -0.0900825051
C  C683  1  0.16990000  0.47786000  0.56032000  1.0 0.060220164
C  C684  1  0.16560000  0.51667000  0.53059000  1.0 -0.2500055867
C  C685  1  0.16230000  0.55670000  0.50070000  1.0 0.0104816182
C  C686  1  0.30810000  0.22800000  0.37300000  1.0 -0.1302107615
C  C687  1  0.30530000  0.25330000  0.32450000  1.0 -0.1231488398
C  C688  1  0.27540000  0.25330000  0.49090000  1.0 -0.070708306
C  C689  1  0.44320000  0.36770000  0.26160000  1.0 -0.1503738226
C  C690  1  0.39370000  0.34285000  0.24690000  1.0 -0.1302107615
C  C691  1  0.25150000  0.39950000  0.87650000  1.0 -0.0275721824
C  C692  1  0.17470000  0.45510000  0.55824000  1.0 -0.1302107615
C  C693  1  0.16710000  0.48765000  0.59176000  1.0 -0.1503738226
C  C694  1  0.16510000  0.57060000  0.52720000  1.0 -0.1393121759
C  C695  1  0.16520000  0.57030000  0.47200000  1.0 -0.1593547354
C  C696  1  0.32510000  0.22040000  0.35480000  1.0 -0.1060290467
C  C697  1  0.32230000  0.24570000  0.30630000  1.0 -0.1060290467
C  C698  1  0.44340000  0.34224000  0.26100000  1.0 -0.0604577202
C  C699  1  0.39390000  0.31740000  0.24630000  1.0 -0.0604577202
C  C700  1  0.24110000  0.40600000  0.84460000  1.0 0.6278806492
C  C701  1  0.17670000  0.44214000  0.58758000  1.0 -0.0900825051
C  C702  1  0.16910000  0.47468000  0.62110000  1.0 -0.0900825051
C  C703  1  0.33220000  0.22920000  0.32140000  1.0 -0.0087011737
C  C704  1  0.41870000  0.31706000  0.25330000  1.0 -0.1060290467
C  C705  1  0.17390000  0.45193000  0.61901000  1.0 -0.0390792212
C  C706  1  0.35270000  0.22140000  0.30580000  1.0 0.63993787
C  C707  1  0.42090000  0.29340000  0.25490000  1.0 0.5894504286
C  C708  1  0.18060000  0.44100000  0.65010000  1.0 0.63993787
C  C709  1  0.79640000  0.28680000  0.20100000  1.0 0.63993787
C  C710  1  0.79870000  0.31122000  0.18281000  1.0 -0.0540677436
C  C711  1  0.80770000  0.33725000  0.19828000  1.0 -0.0817494479
C  C712  1  0.79180000  0.30773000  0.14861000  1.0 -0.0817494479
C  C713  1  0.80990000  0.35989000  0.17956000  1.0 -0.1231488398
C  C714  1  0.79400000  0.33037000  0.12989000  1.0 -0.1503738226
C  C715  1  0.80300000  0.35640000  0.14536000  1.0 0.060220164
C  C716  1  0.80530000  0.38140000  0.12730000  1.0 0.2412633935
C  C717  1  0.81040000  0.38220000  0.09080000  1.0 -0.2888108023
C  C718  1  0.80920000  0.38450000  0.01750000  1.0 -0.1393121759
C  C719  1  0.81010000  0.38480000  0.98300000  1.0 -0.1503738226
C  C720  1  0.81000000  0.38220000  0.90950000  1.0 -0.2888108023
C  C721  1  0.80560000  0.38190000  0.87350000  1.0 0.2412633935
C  C722  1  0.80400000  0.35683000  0.85485000  1.0 0.060220164
C  C723  1  0.79440000  0.33050000  0.86994000  1.0 -0.1503738226
C  C724  1  0.81140000  0.36066000  0.82080000  1.0 -0.1231488398
C  C725  1  0.79220000  0.30798000  0.85098000  1.0 -0.0900825051
C  C726  1  0.80920000  0.33814000  0.80184000  1.0 -0.0900825051
C  C727  1  0.79960000  0.31180000  0.81693000  1.0 -0.0218783841
C  C728  1  0.79520000  0.28590000  0.79840000  1.0 0.6278806492
C  C729  1  0.16460000  0.75930000  0.15500000  1.0 0.6278806492
C  C730  1  0.14827000  0.74880000  0.12300000  1.0 -0.0390792212
C  C731  1  0.13190000  0.77830000  0.30560000  1.0 0.6463744042
C  C732  1  0.12730000  0.70650000  0.25310000  1.0 0.6134631284
C  C733  1  0.16262000  0.74740000  0.09460000  1.0 -0.0900825051
C  C734  1  0.12006000  0.74180000  0.12040000  1.0 -0.0817494479
C  C735  1  0.26040000  0.81920000  0.34940000  1.0 0.63993787
C  C736  1  0.10350000  0.77080000  0.32150000  1.0 -0.0087011737
C  C737  1  0.10098000  0.68160000  0.25260000  1.0 -0.0817494479
C  C738  1  0.14877000  0.73900000  0.06370000  1.0 -0.1393121759
C  C739  1  0.10620000  0.73350000  0.08940000  1.0 -0.1593547354
C  C740  1  0.27814000  0.82570000  0.38064000  1.0 -0.0390792212
C  C741  1  0.07730000  0.75380000  0.30640000  1.0 -0.0987439032
C  C742  1  0.10500000  0.77970000  0.35480000  1.0 -0.0987439032
C  C743  1  0.07570000  0.68110000  0.24600000  1.0 -0.070708306
C  C744  1  0.10076000  0.65650000  0.26020000  1.0 -0.070708306
C  C745  1  0.12055000  0.73210000  0.06104000  1.0 0.0696651533
C  C746  1  0.26546000  0.82300000  0.41197000  1.0 -0.0900825051
C  C747  1  0.30559000  0.83020000  0.37877000  1.0 -0.0900825051
C  C748  1  0.05250000  0.74560000  0.32460000  1.0 -0.1302107615
C  C749  1  0.08020000  0.77160000  0.37290000  1.0 -0.1393121759
C  C750  1  0.05013000  0.65560000  0.24690000  1.0 -0.1231488398
C  C751  1  0.07520000  0.63100000  0.26110000  1.0 -0.1503738226
C  C752  1  0.10510000  0.72120000  0.02790000  1.0 0.2282376796
C  C753  1  0.28021000  0.82490000  0.44144000  1.0 -0.1302107615
C  C754  1  0.32034000  0.83200000  0.40824000  1.0 -0.1503738226
C  C755  1  0.05400000  0.75460000  0.35780000  1.0 0.0769663018
C  C756  1  0.04992000  0.63050000  0.25440000  1.0 0.0512013844
C  C757  1  0.07440000  0.70480000  0.03010000  1.0 -0.2426798556
C  C758  1  0.30766000  0.82930000  0.43957000  1.0 0.060220164
C  C759  1  0.02510000  0.74610000  0.37730000  1.0 0.1983863763
C  C760  1  0.02526000  0.60520000  0.25240000  1.0 0.1775694053
C  C761  1  0.10540000  0.72340000  0.97260000  1.0 0.2412633935
C  C762  1  0.06120000  0.69530000  0.00000000  1.0 0.1293579257
C  C763  1  0.32426000  0.83200000  0.46979000  1.0 0.1983863763
C  C764  1  0.02470000  0.74920000  0.41220000  1.0 -0.2500055867
C  C765  1  0.02535000  0.57980000  0.25470000  1.0 -0.2240505718
C  C766  1  0.12006000  0.73250000  0.93837000  1.0 0.0696651533
C  C767  1  0.07420000  0.70350000  0.96860000  1.0 -0.2500055867
C  C768  1  0.03060000  0.67140000  0.00150000  1.0 0.0769663018
C  C769  1  0.35059000  0.83360000  0.46969000  1.0 -0.2500055867
C  C770  1  0.97410000  0.71850000  0.37680000  1.0 0.18830183
C  C771  1  0.99900000  0.73690000  0.42940000  1.0 0.1503930003
C  C772  1  0.99990000  0.55430000  0.25760000  1.0 -0.0087011737
C  C773  1  0.97427000  0.57970000  0.25590000  1.0 0.18830183
C  C774  1  0.10571000  0.73330000  0.90970000  1.0 -0.1593547354
C  C775  1  0.14838000  0.73970000  0.93610000  1.0 -0.1393121759
C  C776  1  0.01680000  0.67210000  0.97420000  1.0 -0.1655424016
C  C777  1  0.01390000  0.66930000  0.02670000  1.0 -0.1593547354
C  C778  1  0.32474000  0.83280000  0.53069000  1.0 0.1983863763
C  C779  1  0.36399000  0.83490000  0.50009000  1.0 0.1374984437
C  C780  1  0.94630000  0.70180000  0.35790000  1.0 0.0769663018
C  C781  1  0.97370000  0.72160000  0.41170000  1.0 -0.1934557698
C  C782  1  0.00310000  0.74380000  0.46030000  1.0 -0.0987439032
C  C783  1  0.97436000  0.55430000  0.25820000  1.0 -0.2333064777
C  C784  1  0.94962000  0.58160000  0.25450000  1.0 0.0512013844
C  C785  1  0.11968000  0.74130000  0.87870000  1.0 -0.0900825051
C  C786  1  0.16235000  0.74770000  0.90520000  1.0 -0.0900825051
C  C787  1  0.30796000  0.83010000  0.56032000  1.0 0.060220164
C  C788  1  0.35107000  0.83440000  0.53059000  1.0 -0.2500055867
C  C789  1  0.39440000  0.83770000  0.50070000  1.0 0.0104816182
C  C790  1  0.91990000  0.69190000  0.37300000  1.0 -0.1302107615
C  C791  1  0.94800000  0.69470000  0.32450000  1.0 -0.1231488398
C  C792  1  0.97790000  0.72460000  0.49090000  1.0 -0.070708306
C  C793  1  0.92450000  0.55680000  0.26160000  1.0 -0.1503738226
C  C794  1  0.94915000  0.60630000  0.24690000  1.0 -0.1302107615
C  C795  1  0.14800000  0.74850000  0.87650000  1.0 -0.0275721824
C  C796  1  0.28040000  0.82530000  0.55824000  1.0 -0.1302107615
C  C797  1  0.32055000  0.83290000  0.59176000  1.0 -0.1503738226
C  C798  1  0.40550000  0.83490000  0.52720000  1.0 -0.1393121759
C  C799  1  0.40510000  0.83480000  0.47200000  1.0 -0.1593547354
C  C800  1  0.89530000  0.67490000  0.35480000  1.0 -0.1060290467
C  C801  1  0.92340000  0.67770000  0.30630000  1.0 -0.1060290467
C  C802  1  0.89884000  0.55660000  0.26100000  1.0 -0.0604577202
C  C803  1  0.92350000  0.60610000  0.24630000  1.0 -0.0604577202
C  C804  1  0.16490000  0.75890000  0.84460000  1.0 0.6278806492
C  C805  1  0.26544000  0.82330000  0.58758000  1.0 -0.0900825051
C  C806  1  0.30558000  0.83090000  0.62110000  1.0 -0.0900825051
C  C807  1  0.89700000  0.66780000  0.32140000  1.0 -0.0087011737
C  C808  1  0.89836000  0.58130000  0.25330000  1.0 -0.1060290467
C  C809  1  0.27803000  0.82610000  0.61901000  1.0 -0.0390792212
C  C810  1  0.86870000  0.64730000  0.30580000  1.0 0.63993787
C  C811  1  0.87250000  0.57910000  0.25490000  1.0 0.5894504286
C  C812  1  0.26040000  0.81940000  0.65010000  1.0 0.63993787
C  C813  1  0.49040000  0.20360000  0.20100000  1.0 0.63993787
C  C814  1  0.51252000  0.20130000  0.18281000  1.0 -0.0540677436
C  C815  1  0.52955000  0.19230000  0.19828000  1.0 -0.0817494479
C  C816  1  0.51593000  0.20820000  0.14861000  1.0 -0.0817494479
C  C817  1  0.54999000  0.19010000  0.17956000  1.0 -0.1231488398
C  C818  1  0.53637000  0.20600000  0.12989000  1.0 -0.1503738226
C  C819  1  0.55340000  0.19700000  0.14536000  1.0 0.060220164
C  C820  1  0.57610000  0.19470000  0.12730000  1.0 0.2412633935
C  C821  1  0.57180000  0.18960000  0.09080000  1.0 -0.2888108023
C  C822  1  0.57530000  0.19080000  0.01750000  1.0 -0.1393121759
C  C823  1  0.57470000  0.18990000  0.98300000  1.0 -0.1503738226
C  C824  1  0.57220000  0.19000000  0.90950000  1.0 -0.2888108023
C  C825  1  0.57630000  0.19440000  0.87350000  1.0 0.2412633935
C  C826  1  0.55283000  0.19600000  0.85485000  1.0 0.060220164
C  C827  1  0.53610000  0.20560000  0.86994000  1.0 -0.1503738226
C  C828  1  0.54926000  0.18860000  0.82080000  1.0 -0.1231488398
C  C829  1  0.51578000  0.20780000  0.85098000  1.0 -0.0900825051
C  C830  1  0.52894000  0.19080000  0.80184000  1.0 -0.0900825051
C  C831  1  0.51220000  0.20040000  0.81693000  1.0 -0.0218783841
C  C832  1  0.49070000  0.20480000  0.79840000  1.0 0.6278806492
C  C833  1  0.59470000  0.83540000  0.15500000  1.0 0.6278806492
C  C834  1  0.60053000  0.85173000  0.12300000  1.0 -0.0390792212
C  C835  1  0.64640000  0.86810000  0.30560000  1.0 0.6463744042
C  C836  1  0.57920000  0.87270000  0.25310000  1.0 0.6134631284
C  C837  1  0.58478000  0.83738000  0.09460000  1.0 -0.0900825051
C  C838  1  0.62174000  0.87994000  0.12040000  1.0 -0.0817494479
C  C839  1  0.55880000  0.73960000  0.34940000  1.0 0.63993787
C  C840  1  0.66730000  0.89650000  0.32150000  1.0 -0.0087011737
C  C841  1  0.58062000  0.89902000  0.25260000  1.0 -0.0817494479
C  C842  1  0.59023000  0.85123000  0.06370000  1.0 -0.1393121759
C  C843  1  0.62730000  0.89380000  0.08940000  1.0 -0.1593547354
C  C844  1  0.54756000  0.72186000  0.38064000  1.0 -0.0390792212
C  C845  1  0.67650000  0.92270000  0.30640000  1.0 -0.0987439032
C  C846  1  0.67470000  0.89500000  0.35480000  1.0 -0.0987439032
C  C847  1  0.60540000  0.92430000  0.24600000  1.0 -0.070708306
C  C848  1  0.55574000  0.89924000  0.26020000  1.0 -0.070708306
C  C849  1  0.61155000  0.87945000  0.06104000  1.0 0.0696651533
C  C850  1  0.55754000  0.73454000  0.41197000  1.0 -0.0900825051
C  C851  1  0.52461000  0.69441000  0.37877000  1.0 -0.0900825051
C  C852  1  0.69310000  0.94750000  0.32460000  1.0 -0.1302107615
C  C853  1  0.69140000  0.91980000  0.37290000  1.0 -0.1393121759
C  C854  1  0.60547000  0.94987000  0.24690000  1.0 -0.1231488398
C  C855  1  0.55580000  0.92480000  0.26110000  1.0 -0.1503738226
C  C856  1  0.61610000  0.89490000  0.02790000  1.0 0.2282376796
C  C857  1  0.54469000  0.71979000  0.44144000  1.0 -0.1302107615
C  C858  1  0.51166000  0.67966000  0.40824000  1.0 -0.1503738226
C  C859  1  0.70060000  0.94600000  0.35780000  1.0 0.0769663018
C  C860  1  0.58058000  0.95008000  0.25440000  1.0 0.0512013844
C  C861  1  0.63040000  0.92560000  0.03010000  1.0 -0.2426798556
C  C862  1  0.52164000  0.69234000  0.43957000  1.0 0.060220164
C  C863  1  0.72100000  0.97490000  0.37730000  1.0 0.1983863763
C  C864  1  0.57994000  0.97474000  0.25240000  1.0 0.1775694053
C  C865  1  0.61800000  0.89460000  0.97260000  1.0 0.2412633935
C  C866  1  0.63410000  0.93880000  0.00000000  1.0 0.1293579257
C  C867  1  0.50774000  0.67574000  0.46979000  1.0 0.1983863763
C  C868  1  0.72450000  0.97530000  0.41220000  1.0 -0.2426798556
C  C869  1  0.55445000  0.97465000  0.25470000  1.0 -0.2240505718
C  C870  1  0.61244000  0.87994000  0.93837000  1.0 0.0696651533
C  C871  1  0.62930000  0.92580000  0.96860000  1.0 -0.2500055867
C  C872  1  0.64080000  0.96940000  0.00150000  1.0 0.0769663018
C  C873  1  0.48301000  0.64941000  0.46969000  1.0 -0.2500055867
C  C874  1  0.74440000  0.02590000  0.37680000  1.0 0.18830183
C  C875  1  0.73790000  0.00100000  0.42940000  1.0 0.1503930003
C  C876  1  0.55440000  0.00010000  0.25760000  1.0 -0.0087011737
C  C877  1  0.60543000  0.02573000  0.25590000  1.0 0.18830183
C  C878  1  0.62759000  0.89429000  0.90970000  1.0 -0.1593547354
C  C879  1  0.59132000  0.85162000  0.93610000  1.0 -0.1393121759
C  C880  1  0.65530000  0.98320000  0.97420000  1.0 -0.1655424016
C  C881  1  0.65540000  0.98610000  0.02670000  1.0 -0.1593547354
C  C882  1  0.50806000  0.67526000  0.53069000  1.0 0.1983863763
C  C883  1  0.47091000  0.63601000  0.50009000  1.0 0.1374984437
C  C884  1  0.75550000  0.05370000  0.35790000  1.0 0.0769663018
C  C885  1  0.74790000  0.02630000  0.41170000  1.0 -0.1934557698
C  C886  1  0.74070000  0.99690000  0.46030000  1.0 -0.1060290467
C  C887  1  0.57994000  0.02564000  0.25820000  1.0 -0.2333064777
C  C888  1  0.63198000  0.05038000  0.25450000  1.0 0.0512013844
C  C889  1  0.62162000  0.88032000  0.87870000  1.0 -0.0900825051
C  C890  1  0.58535000  0.83765000  0.90520000  1.0 -0.0900825051
C  C891  1  0.52214000  0.69204000  0.56032000  1.0 0.060220164
C  C892  1  0.48333000  0.64893000  0.53059000  1.0 -0.2500055867
C  C893  1  0.44330000  0.60560000  0.50070000  1.0 0.0104816182
C  C894  1  0.77200000  0.08010000  0.37300000  1.0 -0.1302107615
C  C895  1  0.74670000  0.05200000  0.32450000  1.0 -0.1231488398
C  C896  1  0.74670000  0.02210000  0.49090000  1.0 -0.0817494479
C  C897  1  0.63230000  0.07550000  0.26160000  1.0 -0.1503738226
C  C898  1  0.65715000  0.05085000  0.24690000  1.0 -0.1302107615
C  C899  1  0.60050000  0.85200000  0.87650000  1.0 -0.0275721824
C  C900  1  0.54490000  0.71960000  0.55824000  1.0 -0.1302107615
C  C901  1  0.51235000  0.67945000  0.59176000  1.0 -0.1503738226
C  C902  1  0.42940000  0.59450000  0.52720000  1.0 -0.1393121759
C  C903  1  0.42970000  0.59490000  0.47200000  1.0 -0.1593547354
C  C904  1  0.77960000  0.10470000  0.35480000  1.0 -0.1060290467
C  C905  1  0.75430000  0.07660000  0.30630000  1.0 -0.1060290467
C  C906  1  0.65776000  0.10116000  0.26100000  1.0 -0.0604577202
C  C907  1  0.68260000  0.07650000  0.24630000  1.0 -0.0604577202
C  C908  1  0.59400000  0.83510000  0.84460000  1.0 0.6278806492
C  C909  1  0.55786000  0.73456000  0.58758000  1.0 -0.0900825051
C  C910  1  0.52532000  0.69442000  0.62110000  1.0 -0.0900825051
C  C911  1  0.77080000  0.10300000  0.32140000  1.0 -0.0087011737
C  C912  1  0.68294000  0.10164000  0.25330000  1.0 -0.1060290467
C  C913  1  0.54807000  0.72197000  0.61901000  1.0 -0.0390792212
C  C914  1  0.77860000  0.13130000  0.30580000  1.0 0.63993787
C  C915  1  0.70660000  0.12750000  0.25490000  1.0 0.5894504286
C  C916  1  0.55900000  0.73960000  0.65010000  1.0 0.63993787
C  C917  1  0.71320000  0.50960000  0.20100000  1.0 0.63993787
C  C918  1  0.68878000  0.48748000  0.18281000  1.0 -0.0540677436
C  C919  1  0.66275000  0.47045000  0.19828000  1.0 -0.0817494479
C  C920  1  0.69227000  0.48407000  0.14861000  1.0 -0.0817494479
C  C921  1  0.64011000  0.45001000  0.17956000  1.0 -0.1231488398
C  C922  1  0.66963000  0.46363000  0.12989000  1.0 -0.1503738226
C  C923  1  0.64360000  0.44660000  0.14536000  1.0 0.060220164
C  C924  1  0.61860000  0.42390000  0.12730000  1.0 0.2412633935
C  C925  1  0.61780000  0.42820000  0.09080000  1.0 -0.2888108023
C  C926  1  0.61550000  0.42470000  0.01750000  1.0 -0.1393121759
C  C927  1  0.61520000  0.42530000  0.98300000  1.0 -0.1503738226
C  C928  1  0.61780000  0.42780000  0.90950000  1.0 -0.2888108023
C  C929  1  0.61810000  0.42370000  0.87350000  1.0 0.2412633935
C  C930  1  0.64317000  0.44717000  0.85485000  1.0 0.060220164
C  C931  1  0.66950000  0.46390000  0.86994000  1.0 -0.1503738226
C  C932  1  0.63934000  0.45074000  0.82080000  1.0 -0.1231488398
C  C933  1  0.69202000  0.48422000  0.85098000  1.0 -0.0900825051
C  C934  1  0.66186000  0.47106000  0.80184000  1.0 -0.0900825051
C  C935  1  0.68820000  0.48780000  0.81693000  1.0 -0.0218783841
C  C936  1  0.71410000  0.50930000  0.79840000  1.0 0.6278806492
C  C937  1  0.83540000  0.59470000  0.84500000  1.0 0.6278806492
C  C938  1  0.85173000  0.60053000  0.87700000  1.0 -0.0390792212
C  C939  1  0.86810000  0.64640000  0.69440000  1.0 0.6463744042
C  C940  1  0.87270000  0.57920000  0.74690000  1.0 0.6134631284
C  C941  1  0.83738000  0.58478000  0.90540000  1.0 -0.0900825051
C  C942  1  0.87994000  0.62174000  0.87960000  1.0 -0.0817494479
C  C943  1  0.73960000  0.55880000  0.65060000  1.0 0.63993787
C  C944  1  0.89650000  0.66730000  0.67850000  1.0 -0.0087011737
C  C945  1  0.89902000  0.58062000  0.74740000  1.0 -0.0817494479
C  C946  1  0.85123000  0.59023000  0.93630000  1.0 -0.1393121759
C  C947  1  0.89380000  0.62730000  0.91060000  1.0 -0.1593547354
C  C948  1  0.72186000  0.54756000  0.61936000  1.0 -0.0390792212
C  C949  1  0.92270000  0.67650000  0.69360000  1.0 -0.0987439032
C  C950  1  0.89500000  0.67470000  0.64520000  1.0 -0.0987439032
C  C951  1  0.92430000  0.60540000  0.75400000  1.0 -0.070708306
C  C952  1  0.89924000  0.55574000  0.73980000  1.0 -0.070708306
C  C953  1  0.87945000  0.61155000  0.93896000  1.0 0.0696651533
C  C954  1  0.73454000  0.55754000  0.58803000  1.0 -0.0900825051
C  C955  1  0.69441000  0.52461000  0.62123000  1.0 -0.0900825051
C  C956  1  0.94750000  0.69310000  0.67540000  1.0 -0.1302107615
C  C957  1  0.91980000  0.69140000  0.62710000  1.0 -0.1393121759
C  C958  1  0.94987000  0.60547000  0.75310000  1.0 -0.1231488398
C  C959  1  0.92480000  0.55580000  0.73890000  1.0 -0.1503738226
C  C960  1  0.89490000  0.61610000  0.97210000  1.0 0.2282376796
C  C961  1  0.71979000  0.54469000  0.55856000  1.0 -0.1302107615
C  C962  1  0.67966000  0.51166000  0.59176000  1.0 -0.1503738226
C  C963  1  0.94600000  0.70060000  0.64220000  1.0 0.0769663018
C  C964  1  0.95008000  0.58058000  0.74560000  1.0 0.0512013844
C  C965  1  0.92560000  0.63040000  0.96990000  1.0 -0.2426798556
C  C966  1  0.69234000  0.52164000  0.56043000  1.0 0.060220164
C  C967  1  0.97490000  0.72100000  0.62270000  1.0 0.1983863763
C  C968  1  0.97474000  0.57994000  0.74760000  1.0 0.1775694053
C  C969  1  0.89460000  0.61800000  0.02740000  1.0 0.2412633935
C  C970  1  0.93880000  0.63410000  0.00000000  1.0 0.1293579257
C  C971  1  0.67574000  0.50774000  0.53021000  1.0 0.1983863763
C  C972  1  0.97530000  0.72450000  0.58780000  1.0 -0.2500055867
C  C973  1  0.97465000  0.55445000  0.74530000  1.0 -0.2240505718
C  C974  1  0.87994000  0.61244000  0.06163000  1.0 0.0696651533
C  C975  1  0.92580000  0.62930000  0.03140000  1.0 -0.2500055867
C  C976  1  0.96940000  0.64080000  0.99850000  1.0 0.0769663018
C  C977  1  0.64941000  0.48301000  0.53031000  1.0 -0.2500055867
C  C978  1  0.02590000  0.74440000  0.62320000  1.0 0.18830183
C  C979  1  0.00100000  0.73790000  0.57060000  1.0 0.1503930003
C  C980  1  0.00010000  0.55440000  0.74240000  1.0 -0.0087011737
C  C981  1  0.02573000  0.60543000  0.74410000  1.0 0.18830183
C  C982  1  0.89429000  0.62759000  0.09030000  1.0 -0.1593547354
C  C983  1  0.85162000  0.59132000  0.06390000  1.0 -0.1393121759
C  C984  1  0.98320000  0.65530000  0.02580000  1.0 -0.1655424016
C  C985  1  0.98610000  0.65540000  0.97330000  1.0 -0.1593547354
C  C986  1  0.67526000  0.50806000  0.46931000  1.0 0.1983863763
C  C987  1  0.63601000  0.47091000  0.49991000  1.0 0.1374984437
C  C988  1  0.05370000  0.75550000  0.64210000  1.0 0.0769663018
C  C989  1  0.02630000  0.74790000  0.58830000  1.0 -0.1934557698
C  C990  1  0.99690000  0.74070000  0.53970000  1.0 -0.0987439032
C  C991  1  0.02564000  0.57994000  0.74180000  1.0 -0.2333064777
C  C992  1  0.05038000  0.63198000  0.74550000  1.0 0.0512013844
C  C993  1  0.88032000  0.62162000  0.12130000  1.0 -0.0900825051
C  C994  1  0.83765000  0.58535000  0.09480000  1.0 -0.0900825051
C  C995  1  0.69204000  0.52214000  0.43968000  1.0 0.060220164
C  C996  1  0.64893000  0.48333000  0.46941000  1.0 -0.2500055867
C  C997  1  0.60560000  0.44330000  0.49930000  1.0 0.0104816182
C  C998  1  0.08010000  0.77200000  0.62700000  1.0 -0.1302107615
C  C999  1  0.05200000  0.74670000  0.67550000  1.0 -0.1231488398
C  C1000  1  0.02210000  0.74670000  0.50910000  1.0 -0.070708306
C  C1001  1  0.07550000  0.63230000  0.73840000  1.0 -0.1503738226
C  C1002  1  0.05085000  0.65715000  0.75310000  1.0 -0.1302107615
C  C1003  1  0.85200000  0.60050000  0.12350000  1.0 -0.0275721824
C  C1004  1  0.71960000  0.54490000  0.44176000  1.0 -0.1302107615
C  C1005  1  0.67945000  0.51235000  0.40824000  1.0 -0.1503738226
C  C1006  1  0.59450000  0.42940000  0.47280000  1.0 -0.1393121759
C  C1007  1  0.59490000  0.42970000  0.52800000  1.0 -0.1593547354
C  C1008  1  0.10470000  0.77960000  0.64520000  1.0 -0.1060290467
C  C1009  1  0.07660000  0.75430000  0.69370000  1.0 -0.1060290467
C  C1010  1  0.10116000  0.65776000  0.73900000  1.0 -0.0604577202
C  C1011  1  0.07650000  0.68260000  0.75370000  1.0 -0.0604577202
C  C1012  1  0.83510000  0.59400000  0.15540000  1.0 0.6278806492
C  C1013  1  0.73456000  0.55786000  0.41242000  1.0 -0.0900825051
C  C1014  1  0.69442000  0.52532000  0.37890000  1.0 -0.0900825051
C  C1015  1  0.10300000  0.77080000  0.67860000  1.0 -0.0087011737
C  C1016  1  0.10164000  0.68294000  0.74670000  1.0 -0.1060290467
C  C1017  1  0.72197000  0.54807000  0.38099000  1.0 -0.0390792212
C  C1018  1  0.13130000  0.77860000  0.69420000  1.0 0.63993787
C  C1019  1  0.12750000  0.70660000  0.74510000  1.0 0.5894504286
C  C1020  1  0.73960000  0.55900000  0.34990000  1.0 0.63993787
C  C1021  1  0.50960000  0.71320000  0.79900000  1.0 0.63993787
C  C1022  1  0.48748000  0.68878000  0.81719000  1.0 -0.0540677436
C  C1023  1  0.47045000  0.66275000  0.80172000  1.0 -0.0817494479
C  C1024  1  0.48407000  0.69227000  0.85139000  1.0 -0.0817494479
C  C1025  1  0.45001000  0.64011000  0.82044000  1.0 -0.1231488398
C  C1026  1  0.46363000  0.66963000  0.87011000  1.0 -0.1503738226
C  C1027  1  0.44660000  0.64360000  0.85464000  1.0 0.060220164
C  C1028  1  0.42390000  0.61860000  0.87270000  1.0 0.2412633935
C  C1029  1  0.42820000  0.61780000  0.90920000  1.0 -0.2888108023
C  C1030  1  0.42470000  0.61550000  0.98250000  1.0 -0.1393121759
C  C1031  1  0.42530000  0.61520000  0.01700000  1.0 -0.1503738226
C  C1032  1  0.42780000  0.61780000  0.09050000  1.0 -0.2888108023
C  C1033  1  0.42370000  0.61810000  0.12650000  1.0 0.2412633935
C  C1034  1  0.44717000  0.64317000  0.14515000  1.0 0.060220164
C  C1035  1  0.46390000  0.66950000  0.13006000  1.0 -0.1503738226
C  C1036  1  0.45074000  0.63934000  0.17920000  1.0 -0.1231488398
C  C1037  1  0.48422000  0.69202000  0.14902000  1.0 -0.0900825051
C  C1038  1  0.47106000  0.66186000  0.19816000  1.0 -0.0900825051
C  C1039  1  0.48780000  0.68820000  0.18307000  1.0 -0.0218783841
C  C1040  1  0.50930000  0.71410000  0.20160000  1.0 0.6278806492
C  C1041  1  0.40530000  0.24070000  0.84500000  1.0 0.6278806492
C  C1042  1  0.39947000  0.25120000  0.87700000  1.0 -0.0390792212
C  C1043  1  0.35360000  0.22170000  0.69440000  1.0 0.6463744042
C  C1044  1  0.42080000  0.29350000  0.74690000  1.0 0.6134631284
C  C1045  1  0.41522000  0.25260000  0.90540000  1.0 -0.0900825051
C  C1046  1  0.37826000  0.25820000  0.87960000  1.0 -0.0817494479
C  C1047  1  0.44120000  0.18080000  0.65060000  1.0 0.63993787
C  C1048  1  0.33270000  0.22920000  0.67850000  1.0 -0.0087011737
C  C1049  1  0.41938000  0.31840000  0.74740000  1.0 -0.0817494479
C  C1050  1  0.40977000  0.26100000  0.93630000  1.0 -0.1393121759
C  C1051  1  0.37270000  0.26650000  0.91060000  1.0 -0.1593547354
C  C1052  1  0.45244000  0.17430000  0.61936000  1.0 -0.0390792212
C  C1053  1  0.32350000  0.24620000  0.69360000  1.0 -0.0987439032
C  C1054  1  0.32530000  0.22030000  0.64520000  1.0 -0.0987439032
C  C1055  1  0.39460000  0.31890000  0.75400000  1.0 -0.070708306
C  C1056  1  0.44426000  0.34350000  0.73980000  1.0 -0.070708306
C  C1057  1  0.38845000  0.26790000  0.93896000  1.0 0.0696651533
C  C1058  1  0.44246000  0.17700000  0.58803000  1.0 -0.0900825051
C  C1059  1  0.47539000  0.16980000  0.62123000  1.0 -0.0900825051
C  C1060  1  0.30690000  0.25440000  0.67540000  1.0 -0.1302107615
C  C1061  1  0.30860000  0.22840000  0.62710000  1.0 -0.1393121759
C  C1062  1  0.39453000  0.34440000  0.75310000  1.0 -0.1231488398
C  C1063  1  0.44420000  0.36900000  0.73890000  1.0 -0.1503738226
C  C1064  1  0.38390000  0.27880000  0.97210000  1.0 0.2282376796
C  C1065  1  0.45531000  0.17510000  0.55856000  1.0 -0.1302107615
C  C1066  1  0.48834000  0.16800000  0.59176000  1.0 -0.1503738226
C  C1067  1  0.29940000  0.24540000  0.64220000  1.0 0.0769663018
C  C1068  1  0.41942000  0.36950000  0.74560000  1.0 0.0512013844
C  C1069  1  0.36960000  0.29520000  0.96990000  1.0 -0.2426798556
C  C1070  1  0.47836000  0.17070000  0.56043000  1.0 0.060220164
C  C1071  1  0.27900000  0.25390000  0.62270000  1.0 0.1983863763
C  C1072  1  0.42006000  0.39480000  0.74760000  1.0 0.1775694053
C  C1073  1  0.38200000  0.27660000  0.02740000  1.0 0.2412633935
C  C1074  1  0.36590000  0.30470000  0.00000000  1.0 0.1293579257
C  C1075  1  0.49226000  0.16800000  0.53021000  1.0 0.1983863763
C  C1076  1  0.27550000  0.25080000  0.58780000  1.0 -0.2500055867
C  C1077  1  0.44555000  0.42020000  0.74530000  1.0 -0.2240505718
C  C1078  1  0.38756000  0.26750000  0.06163000  1.0 0.0696651533
C  C1079  1  0.37070000  0.29650000  0.03140000  1.0 -0.2500055867
C  C1080  1  0.35920000  0.32860000  0.99850000  1.0 0.0769663018
C  C1081  1  0.51699000  0.16640000  0.53031000  1.0 -0.2500055867
C  C1082  1  0.25560000  0.28150000  0.62320000  1.0 0.18830183
C  C1083  1  0.26210000  0.26310000  0.57060000  1.0 0.1503930003
C  C1084  1  0.44560000  0.44570000  0.74240000  1.0 -0.0087011737
C  C1085  1  0.39457000  0.42030000  0.74410000  1.0 0.18830183
C  C1086  1  0.37241000  0.26670000  0.09030000  1.0 -0.1593547354
C  C1087  1  0.40868000  0.26030000  0.06390000  1.0 -0.1393121759
C  C1088  1  0.34470000  0.32790000  0.02580000  1.0 -0.1655424016
C  C1089  1  0.34460000  0.33070000  0.97330000  1.0 -0.1593547354
C  C1090  1  0.49194000  0.16720000  0.46931000  1.0 0.1983863763
C  C1091  1  0.52909000  0.16510000  0.49991000  1.0 0.1374984437
C  C1092  1  0.24450000  0.29820000  0.64210000  1.0 0.0769663018
C  C1093  1  0.25210000  0.27840000  0.58830000  1.0 -0.1951125167
C  C1094  1  0.25930000  0.25620000  0.53970000  1.0 -0.1060290467
C  C1095  1  0.42006000  0.44570000  0.74180000  1.0 -0.2333064777
C  C1096  1  0.36802000  0.41840000  0.74550000  1.0 0.0512013844
C  C1097  1  0.37838000  0.25870000  0.12130000  1.0 -0.0900825051
C  C1098  1  0.41465000  0.25230000  0.09480000  1.0 -0.0900825051
C  C1099  1  0.47786000  0.16990000  0.43968000  1.0 0.060220164
C  C1100  1  0.51667000  0.16560000  0.46941000  1.0 -0.2500055867
C  C1101  1  0.55670000  0.16230000  0.49930000  1.0 0.0104816182
C  C1102  1  0.22800000  0.30810000  0.62700000  1.0 -0.1302107615
C  C1103  1  0.25330000  0.30530000  0.67550000  1.0 -0.1231488398
C  C1104  1  0.25330000  0.27540000  0.50910000  1.0 -0.070708306
C  C1105  1  0.36770000  0.44320000  0.73840000  1.0 -0.1503738226
C  C1106  1  0.34285000  0.39370000  0.75310000  1.0 -0.1302107615
C  C1107  1  0.39950000  0.25150000  0.12350000  1.0 -0.0275721824
C  C1108  1  0.45510000  0.17470000  0.44176000  1.0 -0.1302107615
C  C1109  1  0.48765000  0.16710000  0.40824000  1.0 -0.1503738226
C  C1110  1  0.57060000  0.16510000  0.47280000  1.0 -0.1393121759
C  C1111  1  0.57030000  0.16520000  0.52800000  1.0 -0.1593547354
C  C1112  1  0.22040000  0.32510000  0.64520000  1.0 -0.1060290467
C  C1113  1  0.24570000  0.32230000  0.69370000  1.0 -0.1060290467
C  C1114  1  0.34224000  0.44340000  0.73900000  1.0 -0.0604577202
C  C1115  1  0.31740000  0.39390000  0.75370000  1.0 -0.0604577202
C  C1116  1  0.40600000  0.24110000  0.15540000  1.0 0.6278806492
C  C1117  1  0.44214000  0.17670000  0.41242000  1.0 -0.0900825051
C  C1118  1  0.47468000  0.16910000  0.37890000  1.0 -0.0900825051
C  C1119  1  0.22920000  0.33220000  0.67860000  1.0 -0.0087011737
C  C1120  1  0.31706000  0.41870000  0.74670000  1.0 -0.1060290467
C  C1121  1  0.45193000  0.17390000  0.38099000  1.0 -0.0390792212
C  C1122  1  0.22140000  0.35270000  0.69420000  1.0 0.63993787
C  C1123  1  0.29340000  0.42090000  0.74510000  1.0 0.5894504286
C  C1124  1  0.44100000  0.18060000  0.34990000  1.0 0.63993787
C  C1125  1  0.28680000  0.79640000  0.79900000  1.0 0.63993787
C  C1126  1  0.31122000  0.79870000  0.81719000  1.0 -0.0540677436
C  C1127  1  0.33725000  0.80770000  0.80172000  1.0 -0.0817494479
C  C1128  1  0.30773000  0.79180000  0.85139000  1.0 -0.0817494479
C  C1129  1  0.35989000  0.80990000  0.82044000  1.0 -0.1231488398
C  C1130  1  0.33037000  0.79400000  0.87011000  1.0 -0.1503738226
C  C1131  1  0.35640000  0.80300000  0.85464000  1.0 0.060220164
C  C1132  1  0.38140000  0.80530000  0.87270000  1.0 0.2412633935
C  C1133  1  0.38220000  0.81040000  0.90920000  1.0 -0.2888108023
C  C1134  1  0.38450000  0.80920000  0.98250000  1.0 -0.1393121759
C  C1135  1  0.38480000  0.81010000  0.01700000  1.0 -0.1503738226
C  C1136  1  0.38220000  0.81000000  0.09050000  1.0 -0.2888108023
C  C1137  1  0.38190000  0.80560000  0.12650000  1.0 0.2412633935
C  C1138  1  0.35683000  0.80400000  0.14515000  1.0 0.060220164
C  C1139  1  0.33050000  0.79440000  0.13006000  1.0 -0.1503738226
C  C1140  1  0.36066000  0.81140000  0.17920000  1.0 -0.1231488398
C  C1141  1  0.30798000  0.79220000  0.14902000  1.0 -0.0900825051
C  C1142  1  0.33814000  0.80920000  0.19816000  1.0 -0.0900825051
C  C1143  1  0.31180000  0.79960000  0.18307000  1.0 -0.0218783841
C  C1144  1  0.28590000  0.79520000  0.20160000  1.0 0.6278806492
C  C1145  1  0.75930000  0.16460000  0.84500000  1.0 0.6278806492
C  C1146  1  0.74880000  0.14827000  0.87700000  1.0 -0.0390792212
C  C1147  1  0.77830000  0.13190000  0.69440000  1.0 0.6463744042
C  C1148  1  0.70650000  0.12730000  0.74690000  1.0 0.6134631284
C  C1149  1  0.74740000  0.16262000  0.90540000  1.0 -0.0900825051
C  C1150  1  0.74180000  0.12006000  0.87960000  1.0 -0.0817494479
C  C1151  1  0.81920000  0.26040000  0.65060000  1.0 0.63993787
C  C1152  1  0.77080000  0.10350000  0.67850000  1.0 -0.0087011737
C  C1153  1  0.68160000  0.10098000  0.74740000  1.0 -0.0817494479
C  C1154  1  0.73900000  0.14877000  0.93630000  1.0 -0.1393121759
C  C1155  1  0.73350000  0.10620000  0.91060000  1.0 -0.1593547354
C  C1156  1  0.82570000  0.27814000  0.61936000  1.0 -0.0390792212
C  C1157  1  0.75380000  0.07730000  0.69360000  1.0 -0.0987439032
C  C1158  1  0.77970000  0.10500000  0.64520000  1.0 -0.0987439032
C  C1159  1  0.68110000  0.07570000  0.75400000  1.0 -0.070708306
C  C1160  1  0.65650000  0.10076000  0.73980000  1.0 -0.070708306
C  C1161  1  0.73210000  0.12055000  0.93896000  1.0 0.0696651533
C  C1162  1  0.82300000  0.26546000  0.58803000  1.0 -0.0900825051
C  C1163  1  0.83020000  0.30559000  0.62123000  1.0 -0.0900825051
C  C1164  1  0.74560000  0.05250000  0.67540000  1.0 -0.1302107615
C  C1165  1  0.77160000  0.08020000  0.62710000  1.0 -0.1393121759
C  C1166  1  0.65560000  0.05013000  0.75310000  1.0 -0.1231488398
C  C1167  1  0.63100000  0.07520000  0.73890000  1.0 -0.1503738226
C  C1168  1  0.72120000  0.10510000  0.97210000  1.0 0.2282376796
C  C1169  1  0.82490000  0.28021000  0.55856000  1.0 -0.1302107615
C  C1170  1  0.83200000  0.32034000  0.59176000  1.0 -0.1503738226
C  C1171  1  0.75460000  0.05400000  0.64220000  1.0 0.0769663018
C  C1172  1  0.63050000  0.04992000  0.74560000  1.0 0.0512013844
C  C1173  1  0.70480000  0.07440000  0.96990000  1.0 -0.2426798556
C  C1174  1  0.82930000  0.30766000  0.56043000  1.0 0.060220164
C  C1175  1  0.74610000  0.02510000  0.62270000  1.0 0.1983863763
C  C1176  1  0.60520000  0.02526000  0.74760000  1.0 0.1775694053
C  C1177  1  0.72340000  0.10540000  0.02740000  1.0 0.2412633935
C  C1178  1  0.69530000  0.06120000  0.00000000  1.0 0.1293579257
C  C1179  1  0.83200000  0.32426000  0.53021000  1.0 0.1983863763
C  C1180  1  0.74920000  0.02470000  0.58780000  1.0 -0.2426798556
C  C1181  1  0.57980000  0.02535000  0.74530000  1.0 -0.2240505718
C  C1182  1  0.73250000  0.12006000  0.06163000  1.0 0.0696651533
C  C1183  1  0.70350000  0.07420000  0.03140000  1.0 -0.2500055867
C  C1184  1  0.67140000  0.03060000  0.99850000  1.0 0.0769663018
C  C1185  1  0.83360000  0.35059000  0.53031000  1.0 -0.2500055867
C  C1186  1  0.71850000  0.97410000  0.62320000  1.0 0.18830183
C  C1187  1  0.73690000  0.99900000  0.57060000  1.0 0.1503930003
C  C1188  1  0.55430000  0.99990000  0.74240000  1.0 -0.0087011737
C  C1189  1  0.57970000  0.97427000  0.74410000  1.0 0.18830183
C  C1190  1  0.73330000  0.10571000  0.09030000  1.0 -0.1593547354
C  C1191  1  0.73970000  0.14838000  0.06390000  1.0 -0.1393121759
C  C1192  1  0.67210000  0.01680000  0.02580000  1.0 -0.1655424016
C  C1193  1  0.66930000  0.01390000  0.97330000  1.0 -0.1593547354
C  C1194  1  0.83280000  0.32474000  0.46931000  1.0 0.1983863763
C  C1195  1  0.83490000  0.36399000  0.49991000  1.0 0.1374984437
C  C1196  1  0.70180000  0.94630000  0.64210000  1.0 0.0769663018
C  C1197  1  0.72160000  0.97370000  0.58830000  1.0 -0.1934557698
C  C1198  1  0.74380000  0.00310000  0.53970000  1.0 -0.1060290467
C  C1199  1  0.55430000  0.97436000  0.74180000  1.0 -0.2333064777
C  C1200  1  0.58160000  0.94962000  0.74550000  1.0 0.0512013844
C  C1201  1  0.74130000  0.11968000  0.12130000  1.0 -0.0900825051
C  C1202  1  0.74770000  0.16235000  0.09480000  1.0 -0.0900825051
C  C1203  1  0.83010000  0.30796000  0.43968000  1.0 0.060220164
C  C1204  1  0.83440000  0.35107000  0.46941000  1.0 -0.2500055867
C  C1205  1  0.83770000  0.39440000  0.49930000  1.0 0.0104816182
C  C1206  1  0.69190000  0.91990000  0.62700000  1.0 -0.1302107615
C  C1207  1  0.69470000  0.94800000  0.67550000  1.0 -0.1231488398
C  C1208  1  0.72460000  0.97790000  0.50910000  1.0 -0.070708306
C  C1209  1  0.55680000  0.92450000  0.73840000  1.0 -0.1503738226
C  C1210  1  0.60630000  0.94915000  0.75310000  1.0 -0.1302107615
C  C1211  1  0.74850000  0.14800000  0.12350000  1.0 -0.0275721824
C  C1212  1  0.82530000  0.28040000  0.44176000  1.0 -0.1302107615
C  C1213  1  0.83290000  0.32055000  0.40824000  1.0 -0.1503738226
C  C1214  1  0.83490000  0.40550000  0.47280000  1.0 -0.1393121759
C  C1215  1  0.83480000  0.40510000  0.52800000  1.0 -0.1593547354
C  C1216  1  0.67490000  0.89530000  0.64520000  1.0 -0.1060290467
C  C1217  1  0.67770000  0.92340000  0.69370000  1.0 -0.1060290467
C  C1218  1  0.55660000  0.89884000  0.73900000  1.0 -0.0604577202
C  C1219  1  0.60610000  0.92350000  0.75370000  1.0 -0.0604577202
C  C1220  1  0.75890000  0.16490000  0.15540000  1.0 0.6278806492
C  C1221  1  0.82330000  0.26544000  0.41242000  1.0 -0.0900825051
C  C1222  1  0.83090000  0.30558000  0.37890000  1.0 -0.0900825051
C  C1223  1  0.66780000  0.89700000  0.67860000  1.0 -0.0087011737
C  C1224  1  0.58130000  0.89836000  0.74670000  1.0 -0.1060290467
C  C1225  1  0.82610000  0.27803000  0.38099000  1.0 -0.0390792212
C  C1226  1  0.64730000  0.86870000  0.69420000  1.0 0.63993787
C  C1227  1  0.57910000  0.87250000  0.74510000  1.0 0.5894504286
C  C1228  1  0.81940000  0.26040000  0.34990000  1.0 0.63993787
C  C1229  1  0.20360000  0.49040000  0.79900000  1.0 0.63993787
C  C1230  1  0.20130000  0.51252000  0.81719000  1.0 -0.0540677436
C  C1231  1  0.19230000  0.52955000  0.80172000  1.0 -0.0817494479
C  C1232  1  0.20820000  0.51593000  0.85139000  1.0 -0.0817494479
C  C1233  1  0.19010000  0.54999000  0.82044000  1.0 -0.1231488398
C  C1234  1  0.20600000  0.53637000  0.87011000  1.0 -0.1503738226
C  C1235  1  0.19700000  0.55340000  0.85464000  1.0 0.060220164
C  C1236  1  0.19470000  0.57610000  0.87270000  1.0 0.2412633935
C  C1237  1  0.18960000  0.57180000  0.90920000  1.0 -0.2888108023
C  C1238  1  0.19080000  0.57530000  0.98250000  1.0 -0.1393121759
C  C1239  1  0.18990000  0.57470000  0.01700000  1.0 -0.1503738226
C  C1240  1  0.19000000  0.57220000  0.09050000  1.0 -0.2888108023
C  C1241  1  0.19440000  0.57630000  0.12650000  1.0 0.2412633935
C  C1242  1  0.19600000  0.55283000  0.14515000  1.0 0.060220164
C  C1243  1  0.20560000  0.53610000  0.13006000  1.0 -0.1503738226
C  C1244  1  0.18860000  0.54926000  0.17920000  1.0 -0.1231488398
C  C1245  1  0.20780000  0.51578000  0.14902000  1.0 -0.0900825051
C  C1246  1  0.19080000  0.52894000  0.19816000  1.0 -0.0900825051
C  C1247  1  0.20040000  0.51220000  0.18307000  1.0 -0.0218783841
C  C1248  1  0.20480000  0.49070000  0.20160000  1.0 0.6278806492
C  C1249  1  0.19420000  0.59710000  0.92500000  1.0 0.1674528008
C  C1250  1  0.19150000  0.59575000  0.96550000  1.0 0.0321444192
C  C1251  1  0.19300000  0.59650000  0.03360000  1.0 0.0321444192
C  C1252  1  0.19110000  0.59555000  0.07340000  1.0 0.1674528008
C  C1253  1  0.40290000  0.80580000  0.92500000  1.0 0.1674528008
C  C1254  1  0.40425000  0.80850000  0.96550000  1.0 0.0321444192
C  C1255  1  0.40350000  0.80700000  0.03360000  1.0 0.0321444192
C  C1256  1  0.40445000  0.80890000  0.07340000  1.0 0.1674528008
C  C1257  1  0.40290000  0.59710000  0.92500000  1.0 0.1674528008
C  C1258  1  0.40425000  0.59575000  0.96550000  1.0 0.0321444192
C  C1259  1  0.40350000  0.59650000  0.03360000  1.0 0.0321444192
C  C1260  1  0.40445000  0.59555000  0.07340000  1.0 0.1674528008
C  C1261  1  0.59710000  0.40290000  0.07500000  1.0 0.1674528008
C  C1262  1  0.59575000  0.40425000  0.03450000  1.0 0.0321444192
C  C1263  1  0.59650000  0.40350000  0.96640000  1.0 0.0321444192
C  C1264  1  0.59555000  0.40445000  0.92660000  1.0 0.1674528008
C  C1265  1  0.59710000  0.19420000  0.07500000  1.0 0.1674528008
C  C1266  1  0.59575000  0.19150000  0.03450000  1.0 0.0321444192
C  C1267  1  0.59650000  0.19300000  0.96640000  1.0 0.0369746186
C  C1268  1  0.59555000  0.19110000  0.92660000  1.0 0.1674528008
C  C1269  1  0.80580000  0.40290000  0.07500000  1.0 0.1674528008
C  C1270  1  0.80850000  0.40425000  0.03450000  1.0 0.0321444192
C  C1271  1  0.80700000  0.40350000  0.96640000  1.0 0.0321444192
C  C1272  1  0.80890000  0.40445000  0.92660000  1.0 0.1674528008
N  N1  1  0.73230000  0.61370000  0.99990000  1.0 -0.3384874211
N  N2  1  0.73080000  0.73100000  0.64030000  1.0 -0.3477449937
N  N3  1  0.60520000  0.60550000  0.74700000  1.0 -0.3384874211
N  N4  1  0.83150000  0.52016000  0.49971000  1.0 -0.3477449937
N  N5  1  0.88140000  0.26770000  0.99990000  1.0 -0.3384874211
N  N6  1  0.00020000  0.26920000  0.64030000  1.0 -0.3477449937
N  N7  1  0.00030000  0.39480000  0.74700000  1.0 -0.3384874211
N  N8  1  0.68866000  0.16850000  0.49971000  1.0 -0.3477449937
N  N9  1  0.38630000  0.11860000  0.99990000  1.0 -0.3384874211
N  N10  1  0.26900000  0.99980000  0.64030000  1.0 -0.3477449937
N  N11  1  0.39450000  0.99970000  0.74700000  1.0 -0.3384874211
N  N12  1  0.47984000  0.31134000  0.49971000  1.0 -0.3477449937
N  N13  1  0.11860000  0.38630000  0.00010000  1.0 -0.3384874211
N  N14  1  0.99980000  0.26900000  0.35970000  1.0 -0.3477449937
N  N15  1  0.99970000  0.39450000  0.25300000  1.0 -0.3384874211
N  N16  1  0.31134000  0.47984000  0.50029000  1.0 -0.3477449937
N  N17  1  0.61370000  0.73230000  0.00010000  1.0 -0.3384874211
N  N18  1  0.73100000  0.73080000  0.35970000  1.0 -0.3477449937
N  N19  1  0.60550000  0.60520000  0.25300000  1.0 -0.3384874211
N  N20  1  0.52016000  0.83150000  0.50029000  1.0 -0.3477449937
N  N21  1  0.26770000  0.88140000  0.00010000  1.0 -0.3384874211
N  N22  1  0.26920000  0.00020000  0.35970000  1.0 -0.3477449937
N  N23  1  0.39480000  0.00030000  0.25300000  1.0 -0.3384874211
N  N24  1  0.16850000  0.68866000  0.50029000  1.0 -0.3477449937
N  N25  1  0.26770000  0.38630000  0.00010000  1.0 -0.3384874211
N  N26  1  0.26920000  0.26900000  0.35970000  1.0 -0.3477449937
N  N27  1  0.39480000  0.39450000  0.25300000  1.0 -0.3384874211
N  N28  1  0.16850000  0.47984000  0.50029000  1.0 -0.3477449937
N  N29  1  0.11860000  0.73230000  0.00010000  1.0 -0.3384874211
N  N30  1  0.99980000  0.73080000  0.35970000  1.0 -0.3477449937
N  N31  1  0.99970000  0.60520000  0.25300000  1.0 -0.3384874211
N  N32  1  0.31134000  0.83150000  0.50029000  1.0 -0.3477449937
N  N33  1  0.61370000  0.88140000  0.00010000  1.0 -0.3384874211
N  N34  1  0.73100000  0.00020000  0.35970000  1.0 -0.3384874211
N  N35  1  0.60550000  0.00030000  0.25300000  1.0 -0.3384874211
N  N36  1  0.52016000  0.68866000  0.50029000  1.0 -0.3477449937
N  N37  1  0.88140000  0.61370000  0.99990000  1.0 -0.3384874211
N  N38  1  0.00020000  0.73100000  0.64030000  1.0 -0.3477449937
N  N39  1  0.00030000  0.60550000  0.74700000  1.0 -0.3384874211
N  N40  1  0.68866000  0.52016000  0.49971000  1.0 -0.3477449937
N  N41  1  0.38630000  0.26770000  0.99990000  1.0 -0.3384874211
N  N42  1  0.26900000  0.26920000  0.64030000  1.0 -0.3477449937
N  N43  1  0.39450000  0.39480000  0.74700000  1.0 -0.3384874211
N  N44  1  0.47984000  0.16850000  0.49971000  1.0 -0.3477449937
N  N45  1  0.73230000  0.11860000  0.99990000  1.0 -0.3384874211
N  N46  1  0.73080000  0.99980000  0.64030000  1.0 -0.3477449937
N  N47  1  0.60520000  0.99970000  0.74700000  1.0 -0.3384874211
N  N48  1  0.83150000  0.31134000  0.49971000  1.0 -0.3477449937
N  N49  1  0.19670000  0.59835000  0.85610000  1.0 -0.3477449937
N  N50  1  0.19790000  0.59895000  0.14390000  1.0 -0.363611003
N  N51  1  0.40165000  0.80330000  0.85610000  1.0 -0.3477449937
N  N52  1  0.40105000  0.80210000  0.14390000  1.0 -0.363611003
N  N53  1  0.40165000  0.59835000  0.85610000  1.0 -0.3477449937
N  N54  1  0.40105000  0.59895000  0.14390000  1.0 -0.363611003
N  N55  1  0.59835000  0.40165000  0.14390000  1.0 -0.3477449937
N  N56  1  0.59895000  0.40105000  0.85610000  1.0 -0.363611003
N  N57  1  0.59835000  0.19670000  0.14390000  1.0 -0.3477449937
N  N58  1  0.59895000  0.19790000  0.85610000  1.0 -0.363611003
N  N59  1  0.80330000  0.40165000  0.14390000  1.0 -0.3477449937
N  N60  1  0.80210000  0.40105000  0.85610000  1.0 -0.363611003
O  O1  1  0.75290000  0.56949000  0.77593000  1.0 -1.1295985019
O  O2  1  0.76347000  0.57524000  0.84367000  1.0 -0.5270961426
O  O3  1  0.78598000  0.52274000  0.81649000  1.0 -0.5803111032
O  O4  1  0.77310000  0.64374000  0.72740000  1.0 -0.6567939671
O  O5  1  0.76042000  0.61100000  0.81850000  1.0 -0.6290492765
O  O6  1  0.76395000  0.58956000  0.71736000  1.0 -1.1295985019
O  O7  1  0.72975000  0.60185000  0.75827000  1.0 -0.6129963599
O  O8  1  0.70727000  0.55689000  0.73669000  1.0 -0.5994664035
O  O9  1  0.71033000  0.51387000  0.76949000  1.0 -0.5517953786
O  O10  1  0.72655000  0.54651000  0.67735000  1.0 -0.5994664035
O  O11  1  0.81402000  0.57884000  0.64909000  1.0 -0.5608069303
O  O12  1  0.79210000  0.63310000  0.67270000  1.0 -0.6910773791
O  O13  1  0.76352000  0.57498000  0.15627000  1.0 -0.5241902573
O  O14  1  0.76054000  0.61128000  0.18184000  1.0 -0.6567939671
O  O15  1  0.64396000  0.77336000  0.72720000  1.0 -0.6567939671
O  O16  1  0.63333000  0.79153000  0.67340000  1.0 -0.6910773791
O  O17  1  0.55782000  0.70793000  0.73624000  1.0 -0.5517953786
O  O18  1  0.60112000  0.72917000  0.75794000  1.0 -0.5893948428
O  O19  1  0.81990000  0.54583000  0.32260000  1.0 -0.6290492765
O  O20  1  0.81357000  0.57891000  0.35085000  1.0 -0.5722091234
O  O21  1  0.58929000  0.76351000  0.71729000  1.0 -1.1219552261
O  O22  1  0.56925000  0.75228000  0.77576000  1.0 -1.1295985019
O  O23  1  0.51386000  0.71028000  0.76892000  1.0 -0.5803111032
O  O24  1  0.21377000  0.73649000  0.81612000  1.0 -0.5893948428
O  O25  1  0.81659000  0.24710000  0.77593000  1.0 -1.1295985019
O  O26  1  0.81177000  0.23653000  0.84367000  1.0 -0.5270961426
O  O27  1  0.73676000  0.21402000  0.81649000  1.0 -0.5803111032
O  O28  1  0.87064000  0.22690000  0.72740000  1.0 -0.6567939671
O  O29  1  0.85058000  0.23958000  0.81850000  1.0 -0.6290492765
O  O30  1  0.82561000  0.23605000  0.71736000  1.0 -1.1295985019
O  O31  1  0.87210000  0.27025000  0.75827000  1.0 -0.6129963599
O  O32  1  0.84962000  0.29273000  0.73669000  1.0 -0.5994664035
O  O33  1  0.80354000  0.28967000  0.76949000  1.0 -0.5517953786
O  O34  1  0.81996000  0.27345000  0.67735000  1.0 -0.5994664035
O  O35  1  0.76482000  0.18598000  0.64909000  1.0 -0.5608069303
O  O36  1  0.84100000  0.20790000  0.67270000  1.0 -0.6910773791
O  O37  1  0.81146000  0.23648000  0.15627000  1.0 -0.5241902573
O  O38  1  0.85074000  0.23946000  0.18184000  1.0 -0.6567939671
O  O39  1  0.12940000  0.35604000  0.72720000  1.0 -0.6567939671
O  O40  1  0.15820000  0.36667000  0.67340000  1.0 -0.6910773791
O  O41  1  0.15011000  0.44218000  0.73624000  1.0 -0.5517953786
O  O42  1  0.12805000  0.39888000  0.75794000  1.0 -0.5893948428
O  O43  1  0.72593000  0.18010000  0.32260000  1.0 -0.6290492765
O  O44  1  0.76534000  0.18643000  0.35085000  1.0 -0.5722091234
O  O45  1  0.17422000  0.41071000  0.71729000  1.0 -1.1219552261
O  O46  1  0.18303000  0.43075000  0.77576000  1.0 -1.1295985019
O  O47  1  0.19642000  0.48614000  0.76892000  1.0 -0.5803111032
O  O48  1  0.52272000  0.78623000  0.81612000  1.0 -0.5893948428
O  O49  1  0.43051000  0.18341000  0.77593000  1.0 -1.1295985019
O  O50  1  0.42476000  0.18823000  0.84367000  1.0 -0.5270961426
O  O51  1  0.47726000  0.26324000  0.81649000  1.0 -0.5803111032
O  O52  1  0.35626000  0.12936000  0.72740000  1.0 -0.6567939671
O  O53  1  0.38900000  0.14942000  0.81850000  1.0 -0.6290492765
O  O54  1  0.41044000  0.17439000  0.71736000  1.0 -1.1295985019
O  O55  1  0.39815000  0.12790000  0.75827000  1.0 -0.6129963599
O  O56  1  0.44311000  0.15038000  0.73669000  1.0 -0.5994664035
O  O57  1  0.48613000  0.19646000  0.76949000  1.0 -0.5517953786
O  O58  1  0.45349000  0.18004000  0.67735000  1.0 -0.5994664035
O  O59  1  0.42116000  0.23518000  0.64909000  1.0 -0.5608069303
O  O60  1  0.36690000  0.15900000  0.67270000  1.0 -0.6910773791
O  O61  1  0.42502000  0.18854000  0.15627000  1.0 -0.5241902573
O  O62  1  0.38872000  0.14926000  0.18184000  1.0 -0.6567939671
O  O63  1  0.22664000  0.87060000  0.72720000  1.0 -0.6567939671
O  O64  1  0.20847000  0.84180000  0.67340000  1.0 -0.6910773791
O  O65  1  0.29207000  0.84989000  0.73624000  1.0 -0.5517953786
O  O66  1  0.27083000  0.87195000  0.75794000  1.0 -0.5893948428
O  O67  1  0.45417000  0.27407000  0.32260000  1.0 -0.6290492765
O  O68  1  0.42109000  0.23466000  0.35085000  1.0 -0.5722091234
O  O69  1  0.23649000  0.82578000  0.71729000  1.0 -1.1219552261
O  O70  1  0.24772000  0.81697000  0.77576000  1.0 -1.1295985019
O  O71  1  0.28972000  0.80358000  0.76892000  1.0 -0.5803111032
O  O72  1  0.26351000  0.47728000  0.81612000  1.0 -0.5893948428
O  O73  1  0.18341000  0.43051000  0.22407000  1.0 -1.1295985019
O  O74  1  0.18823000  0.42476000  0.15633000  1.0 -0.5270961426
O  O75  1  0.26324000  0.47726000  0.18351000  1.0 -0.5803111032
O  O76  1  0.12936000  0.35626000  0.27260000  1.0 -0.6567939671
O  O77  1  0.14942000  0.38900000  0.18150000  1.0 -0.6290492765
O  O78  1  0.17439000  0.41044000  0.28264000  1.0 -1.1295985019
O  O79  1  0.12790000  0.39815000  0.24173000  1.0 -0.6129963599
O  O80  1  0.15038000  0.44311000  0.26331000  1.0 -0.5994664035
O  O81  1  0.19646000  0.48613000  0.23051000  1.0 -0.5517953786
O  O82  1  0.18004000  0.45349000  0.32265000  1.0 -0.5994664035
O  O83  1  0.23518000  0.42116000  0.35091000  1.0 -0.5608069303
O  O84  1  0.15900000  0.36690000  0.32730000  1.0 -0.6910773791
O  O85  1  0.18854000  0.42502000  0.84373000  1.0 -0.5241902573
O  O86  1  0.14926000  0.38872000  0.81816000  1.0 -0.6567939671
O  O87  1  0.87060000  0.22664000  0.27280000  1.0 -0.6567939671
O  O88  1  0.84180000  0.20847000  0.32660000  1.0 -0.6910773791
O  O89  1  0.84989000  0.29207000  0.26376000  1.0 -0.5517953786
O  O90  1  0.87195000  0.27083000  0.24206000  1.0 -0.5893948428
O  O91  1  0.27407000  0.45417000  0.67740000  1.0 -0.6290492765
O  O92  1  0.23466000  0.42109000  0.64915000  1.0 -0.5722091234
O  O93  1  0.82578000  0.23649000  0.28271000  1.0 -1.1219552261
O  O94  1  0.81697000  0.24772000  0.22424000  1.0 -1.1295985019
O  O95  1  0.80358000  0.28972000  0.23108000  1.0 -0.5722091234
O  O96  1  0.47728000  0.26351000  0.18388000  1.0 -0.5893948428
O  O97  1  0.56949000  0.75290000  0.22407000  1.0 -1.1295985019
O  O98  1  0.57524000  0.76347000  0.15633000  1.0 -0.5270961426
O  O99  1  0.52274000  0.78598000  0.18351000  1.0 -0.5803111032
O  O100  1  0.64374000  0.77310000  0.27260000  1.0 -0.6567939671
O  O101  1  0.61100000  0.76042000  0.18150000  1.0 -0.6290492765
O  O102  1  0.58956000  0.76395000  0.28264000  1.0 -1.1295985019
O  O103  1  0.60185000  0.72975000  0.24173000  1.0 -0.6129963599
O  O104  1  0.55689000  0.70727000  0.26331000  1.0 -0.5994664035
O  O105  1  0.51387000  0.71033000  0.23051000  1.0 -0.5517953786
O  O106  1  0.54651000  0.72655000  0.32265000  1.0 -0.5994664035
O  O107  1  0.57884000  0.81402000  0.35091000  1.0 -0.5608069303
O  O108  1  0.63310000  0.79210000  0.32730000  1.0 -0.6910773791
O  O109  1  0.57498000  0.76352000  0.84373000  1.0 -0.5241902573
O  O110  1  0.61128000  0.76054000  0.81816000  1.0 -0.6567939671
O  O111  1  0.77336000  0.64396000  0.27280000  1.0 -0.6567939671
O  O112  1  0.79153000  0.63333000  0.32660000  1.0 -0.6910773791
O  O113  1  0.70793000  0.55782000  0.26376000  1.0 -0.5517953786
O  O114  1  0.72917000  0.60112000  0.24206000  1.0 -0.5893948428
O  O115  1  0.54583000  0.81990000  0.67740000  1.0 -0.6290492765
O  O116  1  0.57891000  0.81357000  0.64915000  1.0 -0.5722091234
O  O117  1  0.76351000  0.58929000  0.28271000  1.0 -1.1219552261
O  O118  1  0.75228000  0.56925000  0.22424000  1.0 -1.1295985019
O  O119  1  0.71028000  0.51386000  0.23108000  1.0 -0.5722091234
O  O120  1  0.73649000  0.21377000  0.18388000  1.0 -0.5893948428
O  O121  1  0.24710000  0.81659000  0.22407000  1.0 -1.1295985019
O  O122  1  0.23653000  0.81177000  0.15633000  1.0 -0.5270961426
O  O123  1  0.21402000  0.73676000  0.18351000  1.0 -0.5803111032
O  O124  1  0.22690000  0.87064000  0.27260000  1.0 -0.6567939671
O  O125  1  0.23958000  0.85058000  0.18150000  1.0 -0.6290492765
O  O126  1  0.23605000  0.82561000  0.28264000  1.0 -1.1295985019
O  O127  1  0.27025000  0.87210000  0.24173000  1.0 -0.6129963599
O  O128  1  0.29273000  0.84962000  0.26331000  1.0 -0.5994664035
O  O129  1  0.28967000  0.80354000  0.23051000  1.0 -0.5517953786
O  O130  1  0.27345000  0.81996000  0.32265000  1.0 -0.5994664035
O  O131  1  0.18598000  0.76482000  0.35091000  1.0 -0.5608069303
O  O132  1  0.20790000  0.84100000  0.32730000  1.0 -0.6910773791
O  O133  1  0.23648000  0.81146000  0.84373000  1.0 -0.5241902573
O  O134  1  0.23946000  0.85074000  0.81816000  1.0 -0.6567939671
O  O135  1  0.35604000  0.12940000  0.27280000  1.0 -0.6567939671
O  O136  1  0.36667000  0.15820000  0.32660000  1.0 -0.6910773791
O  O137  1  0.44218000  0.15011000  0.26376000  1.0 -0.5517953786
O  O138  1  0.39888000  0.12805000  0.24206000  1.0 -0.5893948428
O  O139  1  0.18010000  0.72593000  0.67740000  1.0 -0.6290492765
O  O140  1  0.18643000  0.76534000  0.64915000  1.0 -0.5722091234
O  O141  1  0.41071000  0.17422000  0.28271000  1.0 -1.1219552261
O  O142  1  0.43075000  0.18303000  0.22424000  1.0 -1.1295985019
O  O143  1  0.48614000  0.19642000  0.23108000  1.0 -0.5722091234
O  O144  1  0.78623000  0.52272000  0.18388000  1.0 -0.5893948428
O  O145  1  0.24710000  0.43051000  0.22407000  1.0 -1.1295985019
O  O146  1  0.23653000  0.42476000  0.15633000  1.0 -0.5270961426
O  O147  1  0.21402000  0.47726000  0.18351000  1.0 -0.5803111032
O  O148  1  0.22690000  0.35626000  0.27260000  1.0 -0.6567939671
O  O149  1  0.23958000  0.38900000  0.18150000  1.0 -0.6290492765
O  O150  1  0.23605000  0.41044000  0.28264000  1.0 -1.1295985019
O  O151  1  0.27025000  0.39815000  0.24173000  1.0 -0.6129963599
O  O152  1  0.29273000  0.44311000  0.26331000  1.0 -0.5994664035
O  O153  1  0.28967000  0.48613000  0.23051000  1.0 -0.5517953786
O  O154  1  0.27345000  0.45349000  0.32265000  1.0 -0.5994664035
O  O155  1  0.18598000  0.42116000  0.35091000  1.0 -0.5608069303
O  O156  1  0.20790000  0.36690000  0.32730000  1.0 -0.6910773791
O  O157  1  0.23648000  0.42502000  0.84373000  1.0 -0.5241902573
O  O158  1  0.23946000  0.38872000  0.81816000  1.0 -0.6567939671
O  O159  1  0.35604000  0.22664000  0.27280000  1.0 -0.6567939671
O  O160  1  0.36667000  0.20847000  0.32660000  1.0 -0.6910773791
O  O161  1  0.44218000  0.29207000  0.26376000  1.0 -0.5517953786
O  O162  1  0.39888000  0.27083000  0.24206000  1.0 -0.5893948428
O  O163  1  0.18010000  0.45417000  0.67740000  1.0 -0.6290492765
O  O164  1  0.18643000  0.42109000  0.64915000  1.0 -0.5722091234
O  O165  1  0.41071000  0.23649000  0.28271000  1.0 -1.1219552261
O  O166  1  0.43075000  0.24772000  0.22424000  1.0 -1.1295985019
O  O167  1  0.48614000  0.28972000  0.23108000  1.0 -0.5722091234
O  O168  1  0.78623000  0.26351000  0.18388000  1.0 -0.5893948428
O  O169  1  0.18341000  0.75290000  0.22407000  1.0 -1.1295985019
O  O170  1  0.18823000  0.76347000  0.15633000  1.0 -0.5270961426
O  O171  1  0.26324000  0.78598000  0.18351000  1.0 -0.5803111032
O  O172  1  0.12936000  0.77310000  0.27260000  1.0 -0.6567939671
O  O173  1  0.14942000  0.76042000  0.18150000  1.0 -0.6290492765
O  O174  1  0.17439000  0.76395000  0.28264000  1.0 -1.1295985019
O  O175  1  0.12790000  0.72975000  0.24173000  1.0 -0.6129963599
O  O176  1  0.15038000  0.70727000  0.26331000  1.0 -0.5994664035
O  O177  1  0.19646000  0.71033000  0.23051000  1.0 -0.5517953786
O  O178  1  0.18004000  0.72655000  0.32265000  1.0 -0.5994664035
O  O179  1  0.23518000  0.81402000  0.35091000  1.0 -0.5608069303
O  O180  1  0.15900000  0.79210000  0.32730000  1.0 -0.6910773791
O  O181  1  0.18854000  0.76352000  0.84373000  1.0 -0.5241902573
O  O182  1  0.14926000  0.76054000  0.81816000  1.0 -0.6567939671
O  O183  1  0.87060000  0.64396000  0.27280000  1.0 -0.6567939671
O  O184  1  0.84180000  0.63333000  0.32660000  1.0 -0.6910773791
O  O185  1  0.84989000  0.55782000  0.26376000  1.0 -0.5517953786
O  O186  1  0.87195000  0.60112000  0.24206000  1.0 -0.5893948428
O  O187  1  0.27407000  0.81990000  0.67740000  1.0 -0.6290492765
O  O188  1  0.23466000  0.81357000  0.64915000  1.0 -0.5722091234
O  O189  1  0.82578000  0.58929000  0.28271000  1.0 -1.1219552261
O  O190  1  0.81697000  0.56925000  0.22424000  1.0 -1.1295985019
O  O191  1  0.80358000  0.51386000  0.23108000  1.0 -0.5722091234
O  O192  1  0.47728000  0.21377000  0.18388000  1.0 -0.5893948428
O  O193  1  0.56949000  0.81659000  0.22407000  1.0 -1.1295985019
O  O194  1  0.57524000  0.81177000  0.15633000  1.0 -0.5270961426
O  O195  1  0.52274000  0.73676000  0.18351000  1.0 -0.5803111032
O  O196  1  0.64374000  0.87064000  0.27260000  1.0 -0.6567939671
O  O197  1  0.61100000  0.85058000  0.18150000  1.0 -0.6290492765
O  O198  1  0.58956000  0.82561000  0.28264000  1.0 -1.1295985019
O  O199  1  0.60185000  0.87210000  0.24173000  1.0 -0.6129963599
O  O200  1  0.55689000  0.84962000  0.26331000  1.0 -0.5994664035
O  O201  1  0.51387000  0.80354000  0.23051000  1.0 -0.5517953786
O  O202  1  0.54651000  0.81996000  0.32265000  1.0 -0.5994664035
O  O203  1  0.57884000  0.76482000  0.35091000  1.0 -0.5608069303
O  O204  1  0.63310000  0.84100000  0.32730000  1.0 -0.6910773791
O  O205  1  0.57498000  0.81146000  0.84373000  1.0 -0.5241902573
O  O206  1  0.61128000  0.85074000  0.81816000  1.0 -0.6567939671
O  O207  1  0.77336000  0.12940000  0.27280000  1.0 -0.6567939671
O  O208  1  0.79153000  0.15820000  0.32660000  1.0 -0.6910773791
O  O209  1  0.70793000  0.15011000  0.26376000  1.0 -0.5517953786
O  O210  1  0.72917000  0.12805000  0.24206000  1.0 -0.5893948428
O  O211  1  0.54583000  0.72593000  0.67740000  1.0 -0.6290492765
O  O212  1  0.57891000  0.76534000  0.64915000  1.0 -0.5722091234
O  O213  1  0.76351000  0.17422000  0.28271000  1.0 -1.1219552261
O  O214  1  0.75228000  0.18303000  0.22424000  1.0 -1.1295985019
O  O215  1  0.71028000  0.19642000  0.23108000  1.0 -0.5722091234
O  O216  1  0.73649000  0.52272000  0.18388000  1.0 -0.5893948428
O  O217  1  0.81659000  0.56949000  0.77593000  1.0 -1.1295985019
O  O218  1  0.81177000  0.57524000  0.84367000  1.0 -0.5270961426
O  O219  1  0.73676000  0.52274000  0.81649000  1.0 -0.5803111032
O  O220  1  0.87064000  0.64374000  0.72740000  1.0 -0.6567939671
O  O221  1  0.85058000  0.61100000  0.81850000  1.0 -0.6290492765
O  O222  1  0.82561000  0.58956000  0.71736000  1.0 -1.1295985019
O  O223  1  0.87210000  0.60185000  0.75827000  1.0 -0.6129963599
O  O224  1  0.84962000  0.55689000  0.73669000  1.0 -0.5994664035
O  O225  1  0.80354000  0.51387000  0.76949000  1.0 -0.5517953786
O  O226  1  0.81996000  0.54651000  0.67735000  1.0 -0.5994664035
O  O227  1  0.76482000  0.57884000  0.64909000  1.0 -0.5608069303
O  O228  1  0.84100000  0.63310000  0.67270000  1.0 -0.6910773791
O  O229  1  0.81146000  0.57498000  0.15627000  1.0 -0.5241902573
O  O230  1  0.85074000  0.61128000  0.18184000  1.0 -0.6567939671
O  O231  1  0.12940000  0.77336000  0.72720000  1.0 -0.6567939671
O  O232  1  0.15820000  0.79153000  0.67340000  1.0 -0.6910773791
O  O233  1  0.15011000  0.70793000  0.73624000  1.0 -0.5517953786
O  O234  1  0.12805000  0.72917000  0.75794000  1.0 -0.5893948428
O  O235  1  0.72593000  0.54583000  0.32260000  1.0 -0.6290492765
O  O236  1  0.76534000  0.57891000  0.35085000  1.0 -0.5722091234
O  O237  1  0.17422000  0.76351000  0.71729000  1.0 -1.1219552261
O  O238  1  0.18303000  0.75228000  0.77576000  1.0 -1.1295985019
O  O239  1  0.19642000  0.71028000  0.76892000  1.0 -0.5803111032
O  O240  1  0.52272000  0.73649000  0.81612000  1.0 -0.5893948428
O  O241  1  0.43051000  0.24710000  0.77593000  1.0 -1.1295985019
O  O242  1  0.42476000  0.23653000  0.84367000  1.0 -0.5270961426
O  O243  1  0.47726000  0.21402000  0.81649000  1.0 -0.5803111032
O  O244  1  0.35626000  0.22690000  0.72740000  1.0 -0.6567939671
O  O245  1  0.38900000  0.23958000  0.81850000  1.0 -0.6290492765
O  O246  1  0.41044000  0.23605000  0.71736000  1.0 -1.1295985019
O  O247  1  0.39815000  0.27025000  0.75827000  1.0 -0.6129963599
O  O248  1  0.44311000  0.29273000  0.73669000  1.0 -0.5994664035
O  O249  1  0.48613000  0.28967000  0.76949000  1.0 -0.5517953786
O  O250  1  0.45349000  0.27345000  0.67735000  1.0 -0.5994664035
O  O251  1  0.42116000  0.18598000  0.64909000  1.0 -0.5608069303
O  O252  1  0.36690000  0.20790000  0.67270000  1.0 -0.6910773791
O  O253  1  0.42502000  0.23648000  0.15627000  1.0 -0.5241902573
O  O254  1  0.38872000  0.23946000  0.18184000  1.0 -0.6567939671
O  O255  1  0.22664000  0.35604000  0.72720000  1.0 -0.6567939671
O  O256  1  0.20847000  0.36667000  0.67340000  1.0 -0.6910773791
O  O257  1  0.29207000  0.44218000  0.73624000  1.0 -0.5517953786
O  O258  1  0.27083000  0.39888000  0.75794000  1.0 -0.5893948428
O  O259  1  0.45417000  0.18010000  0.32260000  1.0 -0.6290492765
O  O260  1  0.42109000  0.18643000  0.35085000  1.0 -0.5722091234
O  O261  1  0.23649000  0.41071000  0.71729000  1.0 -1.1219552261
O  O262  1  0.24772000  0.43075000  0.77576000  1.0 -1.1295985019
O  O263  1  0.28972000  0.48614000  0.76892000  1.0 -0.5803111032
O  O264  1  0.26351000  0.78623000  0.81612000  1.0 -0.5893948428
O  O265  1  0.75290000  0.18341000  0.77593000  1.0 -1.1295985019
O  O266  1  0.76347000  0.18823000  0.84367000  1.0 -0.5270961426
O  O267  1  0.78598000  0.26324000  0.81649000  1.0 -0.5803111032
O  O268  1  0.77310000  0.12936000  0.72740000  1.0 -0.6567939671
O  O269  1  0.76042000  0.14942000  0.81850000  1.0 -0.6290492765
O  O270  1  0.76395000  0.17439000  0.71736000  1.0 -1.1295985019
O  O271  1  0.72975000  0.12790000  0.75827000  1.0 -0.6129963599
O  O272  1  0.70727000  0.15038000  0.73669000  1.0 -0.5994664035
O  O273  1  0.71033000  0.19646000  0.76949000  1.0 -0.5517953786
O  O274  1  0.72655000  0.18004000  0.67735000  1.0 -0.5994664035
O  O275  1  0.81402000  0.23518000  0.64909000  1.0 -0.5608069303
O  O276  1  0.79210000  0.15900000  0.67270000  1.0 -0.6910773791
O  O277  1  0.76352000  0.18854000  0.15627000  1.0 -0.5241902573
O  O278  1  0.76054000  0.14926000  0.18184000  1.0 -0.6567939671
O  O279  1  0.64396000  0.87060000  0.72720000  1.0 -0.6567939671
O  O280  1  0.63333000  0.84180000  0.67340000  1.0 -0.6910773791
O  O281  1  0.55782000  0.84989000  0.73624000  1.0 -0.5517953786
O  O282  1  0.60112000  0.87195000  0.75794000  1.0 -0.5893948428
O  O283  1  0.81990000  0.27407000  0.32260000  1.0 -0.6290492765
O  O284  1  0.81357000  0.23466000  0.35085000  1.0 -0.5722091234
O  O285  1  0.58929000  0.82578000  0.71729000  1.0 -1.1219552261
O  O286  1  0.56925000  0.81697000  0.77576000  1.0 -1.1295985019
O  O287  1  0.51386000  0.80358000  0.76892000  1.0 -0.5803111032
O  O288  1  0.21377000  0.47728000  0.81612000  1.0 -0.5893948428
O  O289  1  0.80173000  0.60346000  0.79210000  1.0 -1.1622517939
O  O290  1  0.76609000  0.53218000  0.75800000  1.0 -1.1902507447
O  O291  1  0.81226000  0.62452000  0.73490000  1.0 -1.1495292189
O  O292  1  0.77657000  0.55314000  0.69960000  1.0 -1.1622517939
O  O293  1  0.80173000  0.19827000  0.79210000  1.0 -1.1622517939
O  O294  1  0.76609000  0.23391000  0.75800000  1.0 -1.1902507447
O  O295  1  0.81226000  0.18774000  0.73490000  1.0 -1.1495292189
O  O296  1  0.77657000  0.22343000  0.69960000  1.0 -1.1622517939
O  O297  1  0.39654000  0.19827000  0.79210000  1.0 -1.1622517939
O  O298  1  0.46782000  0.23391000  0.75800000  1.0 -1.1902507447
O  O299  1  0.37548000  0.18774000  0.73490000  1.0 -1.1495292189
O  O300  1  0.44686000  0.22343000  0.69960000  1.0 -1.1622517939
O  O301  1  0.19827000  0.39654000  0.20790000  1.0 -1.1622517939
O  O302  1  0.23391000  0.46782000  0.24200000  1.0 -1.1902507447
O  O303  1  0.18774000  0.37548000  0.26510000  1.0 -1.1495292189
O  O304  1  0.22343000  0.44686000  0.30040000  1.0 -1.1622517939
O  O305  1  0.60346000  0.80173000  0.20790000  1.0 -1.1622517939
O  O306  1  0.53218000  0.76609000  0.24200000  1.0 -1.1953780554
O  O307  1  0.62452000  0.81226000  0.26510000  1.0 -1.1495292189
O  O308  1  0.55314000  0.77657000  0.30040000  1.0 -1.1622517939
O  O309  1  0.19827000  0.80173000  0.20790000  1.0 -1.1622517939
O  O310  1  0.23391000  0.76609000  0.24200000  1.0 -1.1902507447
O  O311  1  0.18774000  0.81226000  0.26510000  1.0 -1.1495292189
O  O312  1  0.22343000  0.77657000  0.30040000  1.0 -1.1622517939
O  O313  1  0.55340000  0.77670000  0.69970000  1.0 -1.1622517939
O  O314  1  0.53290000  0.76645000  0.75750000  1.0 -1.1776383886
O  O315  1  0.22330000  0.44660000  0.69970000  1.0 -1.1622517939
O  O316  1  0.23355000  0.46710000  0.75750000  1.0 -1.1776383886
O  O317  1  0.22330000  0.77670000  0.69970000  1.0 -1.1622517939
O  O318  1  0.23355000  0.76645000  0.75750000  1.0 -1.1776383886
O  O319  1  0.77670000  0.22330000  0.30030000  1.0 -1.1622517939
O  O320  1  0.76645000  0.23355000  0.24250000  1.0 -1.1776383886
O  O321  1  0.77670000  0.55340000  0.30030000  1.0 -1.1622517939
O  O322  1  0.76645000  0.53290000  0.24250000  1.0 -1.1776383886
O  O323  1  0.44660000  0.22330000  0.30030000  1.0 -1.1622517939
O  O324  1  0.46710000  0.23355000  0.24250000  1.0 -1.1776383886
O  O325  1  0.19830000  0.80170000  0.79250000  1.0 -1.1776383886
O  O326  1  0.18780000  0.81220000  0.73360000  1.0 -1.1495292189
O  O327  1  0.60340000  0.80170000  0.79250000  1.0 -1.1741622589
O  O328  1  0.62440000  0.81220000  0.73360000  1.0 -1.1495292189
O  O329  1  0.19830000  0.39660000  0.79250000  1.0 -1.1776383886
O  O330  1  0.18780000  0.37560000  0.73360000  1.0 -1.1495292189
O  O331  1  0.39660000  0.19830000  0.20750000  1.0 -1.1776383886
O  O332  1  0.37560000  0.18780000  0.26640000  1.0 -1.1495292189
O  O333  1  0.80170000  0.19830000  0.20750000  1.0 -1.1741622589
O  O334  1  0.81220000  0.18780000  0.26640000  1.0 -1.1495292189
O  O335  1  0.80170000  0.60340000  0.20750000  1.0 -1.1741622589
O  O336  1  0.81220000  0.62440000  0.26640000  1.0 -1.1495292189
