# DDEC6 charges by PACMAN v1.1 (https://github.com/mtap-research/PACMAN-charge/)
data_KUNMUD_FSR_pacman
_symmetry_space_group_name_H-M   'P 1'
_cell_length_a   15.93330000
_cell_length_b   15.93330000
_cell_length_c   21.13120000
_cell_angle_alpha   90.00000000
_cell_angle_beta   90.00000000
_cell_angle_gamma   90.00000000
_symmetry_Int_Tables_number   1
_chemical_formula_structural   CdH36(C4N)12
_chemical_formula_sum   'Cd4 H144 C192 N48'
_cell_volume   5364.57877710
_cell_formula_units_Z   4
loop_
 _symmetry_equiv_pos_site_id
 _symmetry_equiv_pos_as_xyz
  1  'x, y, z'
loop_
 _atom_site_type_symbol
 _atom_site_label
 _atom_site_symmetry_multiplicity
 _atom_site_fract_x
 _atom_site_fract_y
 _atom_site_fract_z
 _atom_site_occupancy
 _atom_site_charge
Cd  Cd1  1  0.93977000  0.93977000  0.00000000  1.0 0.6496209526
Cd  Cd2  1  0.06023000  0.06023000  0.50000000  1.0 0.6496209526
Cd  Cd3  1  0.56023000  0.43977000  0.75000000  1.0 0.6496209526
Cd  Cd4  1  0.43977000  0.56023000  0.25000000  1.0 0.6496209526
H  H1  1  0.34030000  0.43790000  0.15740000  1.0 0.0997016411
H  H2  1  0.65970000  0.56210000  0.65740000  1.0 0.0997016411
H  H3  1  0.06210000  0.84030000  0.90740000  1.0 0.0997016411
H  H4  1  0.93790000  0.15970000  0.40740000  1.0 0.0997016411
H  H5  1  0.15970000  0.93790000  0.59260000  1.0 0.0997016411
H  H6  1  0.84030000  0.06210000  0.09260000  1.0 0.0997016411
H  H7  1  0.43790000  0.34030000  0.84260000  1.0 0.0997016411
H  H8  1  0.56210000  0.65970000  0.34260000  1.0 0.0997016411
H  H9  1  0.25750000  0.49660000  0.32590000  1.0 0.0997016411
H  H10  1  0.74250000  0.50340000  0.82590000  1.0 0.0997016411
H  H11  1  0.00340000  0.75750000  0.07590000  1.0 0.0997016411
H  H12  1  0.99660000  0.24250000  0.57590000  1.0 0.0997016411
H  H13  1  0.24250000  0.99660000  0.42410000  1.0 0.0997016411
H  H14  1  0.75750000  0.00340000  0.92410000  1.0 0.0997016411
H  H15  1  0.49660000  0.25750000  0.67410000  1.0 0.0997016411
H  H16  1  0.50340000  0.74250000  0.17410000  1.0 0.0997016411
H  H17  1  0.14920000  0.40580000  0.31520000  1.0 0.1266350067
H  H18  1  0.85080000  0.59420000  0.81520000  1.0 0.1266350067
H  H19  1  0.09420000  0.64920000  0.06520000  1.0 0.1266350067
H  H20  1  0.90580000  0.35080000  0.56520000  1.0 0.1266350067
H  H21  1  0.35080000  0.90580000  0.43480000  1.0 0.1266350067
H  H22  1  0.64920000  0.09420000  0.93480000  1.0 0.1266350067
H  H23  1  0.40580000  0.14920000  0.68480000  1.0 0.1266350067
H  H24  1  0.59420000  0.85080000  0.18480000  1.0 0.1266350067
H  H25  1  0.23580000  0.34530000  0.14380000  1.0 0.1266350067
H  H26  1  0.76420000  0.65470000  0.64380000  1.0 0.1266350067
H  H27  1  0.15470000  0.73580000  0.89380000  1.0 0.1266350067
H  H28  1  0.84530000  0.26420000  0.39380000  1.0 0.1266350067
H  H29  1  0.26420000  0.84530000  0.60620000  1.0 0.1266350067
H  H30  1  0.73580000  0.15470000  0.10620000  1.0 0.1266350067
H  H31  1  0.34530000  0.23580000  0.85620000  1.0 0.1266350067
H  H32  1  0.65470000  0.76420000  0.35620000  1.0 0.1266350067
H  H33  1  0.02870000  0.34490000  0.28570000  1.0 0.1161954986
H  H34  1  0.97130000  0.65510000  0.78570000  1.0 0.1161954986
H  H35  1  0.15510000  0.52870000  0.03570000  1.0 0.1161954986
H  H36  1  0.84490000  0.47130000  0.53570000  1.0 0.1161954986
H  H37  1  0.47130000  0.84490000  0.46430000  1.0 0.1161954986
H  H38  1  0.52870000  0.15510000  0.96430000  1.0 0.1161954986
H  H39  1  0.34490000  0.02870000  0.71430000  1.0 0.1161954986
H  H40  1  0.65510000  0.97130000  0.21430000  1.0 0.1161954986
H  H41  1  0.92920000  0.24490000  0.27560000  1.0 0.1091662736
H  H42  1  0.07080000  0.75510000  0.77560000  1.0 0.1091662736
H  H43  1  0.25510000  0.42920000  0.02560000  1.0 0.1091662736
H  H44  1  0.74490000  0.57080000  0.52560000  1.0 0.1091662736
H  H45  1  0.57080000  0.74490000  0.47440000  1.0 0.1091662736
H  H46  1  0.42920000  0.25510000  0.97440000  1.0 0.1091662736
H  H47  1  0.24490000  0.92920000  0.72440000  1.0 0.1091662736
H  H48  1  0.75510000  0.07080000  0.22440000  1.0 0.1091662736
H  H49  1  0.94760000  0.12990000  0.20820000  1.0 0.1091662736
H  H50  1  0.05240000  0.87010000  0.70820000  1.0 0.1091662736
H  H51  1  0.37010000  0.44760000  0.95820000  1.0 0.1091662736
H  H52  1  0.62990000  0.55240000  0.45820000  1.0 0.1091662736
H  H53  1  0.55240000  0.62990000  0.54180000  1.0 0.1091662736
H  H54  1  0.44760000  0.37010000  0.04180000  1.0 0.1091662736
H  H55  1  0.12990000  0.94760000  0.79180000  1.0 0.1091662736
H  H56  1  0.87010000  0.05240000  0.29180000  1.0 0.1091662736
H  H57  1  0.17200000  0.22300000  0.15940000  1.0 0.0997016411
H  H58  1  0.82800000  0.77700000  0.65940000  1.0 0.0997016411
H  H59  1  0.27700000  0.67200000  0.90940000  1.0 0.0997016411
H  H60  1  0.72300000  0.32800000  0.40940000  1.0 0.0997016411
H  H61  1  0.32800000  0.72300000  0.59060000  1.0 0.0997016411
H  H62  1  0.67200000  0.27700000  0.09060000  1.0 0.0997016411
H  H63  1  0.22300000  0.17200000  0.84060000  1.0 0.0997016411
H  H64  1  0.77700000  0.82800000  0.34060000  1.0 0.0997016411
H  H65  1  0.19810000  0.01020000  0.95750000  1.0 0.1091662736
H  H66  1  0.80190000  0.98980000  0.45750000  1.0 0.1091662736
H  H67  1  0.48980000  0.69810000  0.70750000  1.0 0.1091662736
H  H68  1  0.51020000  0.30190000  0.20750000  1.0 0.1091662736
H  H69  1  0.30190000  0.51020000  0.79250000  1.0 0.1091662736
H  H70  1  0.69810000  0.48980000  0.29250000  1.0 0.1091662736
H  H71  1  0.01020000  0.19810000  0.04250000  1.0 0.1091662736
H  H72  1  0.98980000  0.80190000  0.54250000  1.0 0.1091662736
H  H73  1  0.30100000  0.92430000  0.91410000  1.0 0.1091662736
H  H74  1  0.69900000  0.07570000  0.41410000  1.0 0.1091662736
H  H75  1  0.57570000  0.80100000  0.66410000  1.0 0.1091662736
H  H76  1  0.42430000  0.19900000  0.16410000  1.0 0.1091662736
H  H77  1  0.19900000  0.42430000  0.83590000  1.0 0.1091662736
H  H78  1  0.80100000  0.57570000  0.33590000  1.0 0.1091662736
H  H79  1  0.92430000  0.30100000  0.08590000  1.0 0.1091662736
H  H80  1  0.07570000  0.69900000  0.58590000  1.0 0.1091662736
H  H81  1  0.34550000  0.80570000  0.96640000  1.0 0.0997016411
H  H82  1  0.65450000  0.19430000  0.46640000  1.0 0.0997016411
H  H83  1  0.69430000  0.84550000  0.71640000  1.0 0.0997016411
H  H84  1  0.30570000  0.15450000  0.21640000  1.0 0.0997016411
H  H85  1  0.15450000  0.30570000  0.78360000  1.0 0.0997016411
H  H86  1  0.84550000  0.69430000  0.28360000  1.0 0.0997016411
H  H87  1  0.80570000  0.34550000  0.03360000  1.0 0.0997016411
H  H88  1  0.19430000  0.65450000  0.53360000  1.0 0.0997016411
H  H89  1  0.19210000  0.85900000  0.11060000  1.0 0.1091662736
H  H90  1  0.80790000  0.14100000  0.61060000  1.0 0.1091662736
H  H91  1  0.64100000  0.69210000  0.86060000  1.0 0.1091662736
H  H92  1  0.35900000  0.30790000  0.36060000  1.0 0.1091662736
H  H93  1  0.30790000  0.35900000  0.63940000  1.0 0.1091662736
H  H94  1  0.69210000  0.64100000  0.13940000  1.0 0.1091662736
H  H95  1  0.85900000  0.19210000  0.88940000  1.0 0.1091662736
H  H96  1  0.14100000  0.80790000  0.38940000  1.0 0.1091662736
H  H97  1  0.21000000  0.73970000  0.14510000  1.0 0.1266350067
H  H98  1  0.79000000  0.26030000  0.64510000  1.0 0.1266350067
H  H99  1  0.76030000  0.71000000  0.89510000  1.0 0.1266350067
H  H100  1  0.23970000  0.29000000  0.39510000  1.0 0.1266350067
H  H101  1  0.29000000  0.23970000  0.60490000  1.0 0.1266350067
H  H102  1  0.71000000  0.76030000  0.10490000  1.0 0.1266350067
H  H103  1  0.73970000  0.21000000  0.85490000  1.0 0.1266350067
H  H104  1  0.26030000  0.79000000  0.35490000  1.0 0.1266350067
H  H105  1  0.26920000  0.63710000  0.20830000  1.0 0.0931628445
H  H106  1  0.73080000  0.36290000  0.70830000  1.0 0.0931628445
H  H107  1  0.86290000  0.76920000  0.95830000  1.0 0.0931628445
H  H108  1  0.13710000  0.23080000  0.45830000  1.0 0.0931628445
H  H109  1  0.23080000  0.13710000  0.54170000  1.0 0.0931628445
H  H110  1  0.76920000  0.86290000  0.04170000  1.0 0.0931628445
H  H111  1  0.63710000  0.26920000  0.79170000  1.0 0.0931628445
H  H112  1  0.36290000  0.73080000  0.29170000  1.0 0.0931628445
H  H113  1  0.45990000  0.61580000  0.09550000  1.0 0.0997016411
H  H114  1  0.54010000  0.38420000  0.59550000  1.0 0.0997016411
H  H115  1  0.88420000  0.95990000  0.84550000  1.0 0.0997016411
H  H116  1  0.11580000  0.04010000  0.34550000  1.0 0.0997016411
H  H117  1  0.04010000  0.11580000  0.65450000  1.0 0.0997016411
H  H118  1  0.95990000  0.88420000  0.15450000  1.0 0.0997016411
H  H119  1  0.61580000  0.45990000  0.90450000  1.0 0.0997016411
H  H120  1  0.38420000  0.54010000  0.40450000  1.0 0.0997016411
H  H121  1  0.40520000  0.71730000  0.02950000  1.0 0.1266350067
H  H122  1  0.59480000  0.28270000  0.52950000  1.0 0.1266350067
H  H123  1  0.78270000  0.90520000  0.77950000  1.0 0.1266350067
H  H124  1  0.21730000  0.09480000  0.27950000  1.0 0.1266350067
H  H125  1  0.09480000  0.21730000  0.72050000  1.0 0.1266350067
H  H126  1  0.90520000  0.78270000  0.22050000  1.0 0.1266350067
H  H127  1  0.71730000  0.40520000  0.97050000  1.0 0.1266350067
H  H128  1  0.28270000  0.59480000  0.47050000  1.0 0.1266350067
H  H129  1  0.25570000  0.03720000  0.13790000  1.0 0.2458651239
H  H130  1  0.74430000  0.96280000  0.63790000  1.0 0.2458651239
H  H131  1  0.46280000  0.75570000  0.88790000  1.0 0.2458651239
H  H132  1  0.53720000  0.24430000  0.38790000  1.0 0.2458651239
H  H133  1  0.24430000  0.53720000  0.61210000  1.0 0.2458651239
H  H134  1  0.75570000  0.46280000  0.11210000  1.0 0.2458651239
H  H135  1  0.03720000  0.25570000  0.86210000  1.0 0.2458651239
H  H136  1  0.96280000  0.74430000  0.36210000  1.0 0.2458651239
H  H137  1  0.25030000  0.11150000  0.09820000  1.0 0.239707491
H  H138  1  0.74970000  0.88850000  0.59820000  1.0 0.239707491
H  H139  1  0.38850000  0.75030000  0.84820000  1.0 0.239707491
H  H140  1  0.61150000  0.24970000  0.34820000  1.0 0.239707491
H  H141  1  0.24970000  0.61150000  0.65180000  1.0 0.239707491
H  H142  1  0.75030000  0.38850000  0.15180000  1.0 0.239707491
H  H143  1  0.11150000  0.25030000  0.90180000  1.0 0.239707491
H  H144  1  0.88850000  0.74970000  0.40180000  1.0 0.239707491
C  C1  1  0.30190000  0.43060000  0.19000000  1.0 0.0502272935
C  C2  1  0.69810000  0.56940000  0.69000000  1.0 0.0502272935
C  C3  1  0.06940000  0.80190000  0.94000000  1.0 0.0502272935
C  C4  1  0.93060000  0.19810000  0.44000000  1.0 0.0502272935
C  C5  1  0.19810000  0.93060000  0.56000000  1.0 0.0502272935
C  C6  1  0.80190000  0.06940000  0.06000000  1.0 0.0502272935
C  C7  1  0.43060000  0.30190000  0.81000000  1.0 0.0502272935
C  C8  1  0.56940000  0.69810000  0.31000000  1.0 0.0502272935
C  C9  1  0.25340000  0.46530000  0.28880000  1.0 0.0502272935
C  C10  1  0.74660000  0.53470000  0.78880000  1.0 0.0502272935
C  C11  1  0.03470000  0.75340000  0.03880000  1.0 0.0502272935
C  C12  1  0.96530000  0.24660000  0.53880000  1.0 0.0502272935
C  C13  1  0.24660000  0.96530000  0.46120000  1.0 0.0502272935
C  C14  1  0.75340000  0.03470000  0.96120000  1.0 0.0502272935
C  C15  1  0.46530000  0.25340000  0.71120000  1.0 0.0502272935
C  C16  1  0.53470000  0.74660000  0.21120000  1.0 0.0502272935
C  C17  1  0.18810000  0.41040000  0.28260000  1.0 -0.201136982
C  C18  1  0.81190000  0.58960000  0.78260000  1.0 -0.201136982
C  C19  1  0.08960000  0.68810000  0.03260000  1.0 -0.201136982
C  C20  1  0.91040000  0.31190000  0.53260000  1.0 -0.201136982
C  C21  1  0.31190000  0.91040000  0.46740000  1.0 -0.201136982
C  C22  1  0.68810000  0.08960000  0.96740000  1.0 -0.201136982
C  C23  1  0.41040000  0.18810000  0.71740000  1.0 -0.201136982
C  C24  1  0.58960000  0.81190000  0.21740000  1.0 -0.201136982
C  C25  1  0.17820000  0.36070000  0.22830000  1.0 0.1091662736
C  C26  1  0.82180000  0.63930000  0.72830000  1.0 0.1091662736
C  C27  1  0.13930000  0.67820000  0.97830000  1.0 0.1091662736
C  C28  1  0.86070000  0.32180000  0.47830000  1.0 0.1091662736
C  C29  1  0.32180000  0.86070000  0.52170000  1.0 0.1091662736
C  C30  1  0.67820000  0.13930000  0.02170000  1.0 0.1091662736
C  C31  1  0.36070000  0.17820000  0.77170000  1.0 0.1091662736
C  C32  1  0.63930000  0.82180000  0.27170000  1.0 0.1091662736
C  C33  1  0.23890000  0.37490000  0.18160000  1.0 -0.201136982
C  C34  1  0.76110000  0.62510000  0.68160000  1.0 -0.201136982
C  C35  1  0.12510000  0.73890000  0.93160000  1.0 -0.201136982
C  C36  1  0.87490000  0.26110000  0.43160000  1.0 -0.201136982
C  C37  1  0.26110000  0.87490000  0.56840000  1.0 -0.201136982
C  C38  1  0.73890000  0.12510000  0.06840000  1.0 -0.201136982
C  C39  1  0.37490000  0.23890000  0.81840000  1.0 -0.201136982
C  C40  1  0.62510000  0.76110000  0.31840000  1.0 -0.201136982
C  C41  1  0.11220000  0.29640000  0.22230000  1.0 0.0700066691
C  C42  1  0.88780000  0.70360000  0.72230000  1.0 0.0700066691
C  C43  1  0.20360000  0.61220000  0.97230000  1.0 0.0700066691
C  C44  1  0.79640000  0.38780000  0.47230000  1.0 0.0700066691
C  C45  1  0.38780000  0.79640000  0.52770000  1.0 0.0700066691
C  C46  1  0.61220000  0.20360000  0.02770000  1.0 0.0700066691
C  C47  1  0.29640000  0.11220000  0.77770000  1.0 0.0700066691
C  C48  1  0.70360000  0.88780000  0.27770000  1.0 0.0700066691
C  C49  1  0.03730000  0.30040000  0.25800000  1.0 -0.1571637508
C  C50  1  0.96270000  0.69960000  0.75800000  1.0 -0.1571637508
C  C51  1  0.19960000  0.53730000  0.00800000  1.0 -0.1571637508
C  C52  1  0.80040000  0.46270000  0.50800000  1.0 -0.1571637508
C  C53  1  0.46270000  0.80040000  0.49200000  1.0 -0.1571637508
C  C54  1  0.53730000  0.19960000  0.99200000  1.0 -0.1571637508
C  C55  1  0.30040000  0.03730000  0.74200000  1.0 -0.1571637508
C  C56  1  0.69960000  0.96270000  0.24200000  1.0 -0.1571637508
C  C57  1  0.97840000  0.24030000  0.25210000  1.0 -0.1090712523
C  C58  1  0.02160000  0.75970000  0.75210000  1.0 -0.1090712523
C  C59  1  0.25970000  0.47840000  0.00210000  1.0 -0.1090712523
C  C60  1  0.74030000  0.52160000  0.50210000  1.0 -0.1090712523
C  C61  1  0.52160000  0.74030000  0.49790000  1.0 -0.1090712523
C  C62  1  0.47840000  0.25970000  0.99790000  1.0 -0.1090712523
C  C63  1  0.24030000  0.97840000  0.74790000  1.0 -0.1090712523
C  C64  1  0.75970000  0.02160000  0.24790000  1.0 -0.1090712523
C  C65  1  0.98880000  0.17100000  0.21170000  1.0 -0.1571637508
C  C66  1  0.01120000  0.82900000  0.71170000  1.0 -0.1571637508
C  C67  1  0.32900000  0.48880000  0.96170000  1.0 -0.1571637508
C  C68  1  0.67100000  0.51120000  0.46170000  1.0 -0.1571637508
C  C69  1  0.51120000  0.67100000  0.53830000  1.0 -0.1571637508
C  C70  1  0.48880000  0.32900000  0.03830000  1.0 -0.1571637508
C  C71  1  0.17100000  0.98880000  0.78830000  1.0 -0.1571637508
C  C72  1  0.82900000  0.01120000  0.28830000  1.0 -0.1571637508
C  C73  1  0.06330000  0.16630000  0.17720000  1.0 0.0379115553
C  C74  1  0.93670000  0.83370000  0.67720000  1.0 0.0379115553
C  C75  1  0.33370000  0.56330000  0.92720000  1.0 0.0379115553
C  C76  1  0.66630000  0.43670000  0.42720000  1.0 0.0379115553
C  C77  1  0.43670000  0.66630000  0.57280000  1.0 0.0379115553
C  C78  1  0.56330000  0.33370000  0.07280000  1.0 0.0379115553
C  C79  1  0.16630000  0.06330000  0.82280000  1.0 0.0379115553
C  C80  1  0.83370000  0.93670000  0.32280000  1.0 0.0379115553
C  C81  1  0.12280000  0.22760000  0.18280000  1.0 -0.1921289782
C  C82  1  0.87720000  0.77240000  0.68280000  1.0 -0.1921289782
C  C83  1  0.27240000  0.62280000  0.93280000  1.0 -0.1921289782
C  C84  1  0.72760000  0.37720000  0.43280000  1.0 -0.1921289782
C  C85  1  0.37720000  0.72760000  0.56720000  1.0 -0.1921289782
C  C86  1  0.62280000  0.27240000  0.06720000  1.0 -0.1921289782
C  C87  1  0.22760000  0.12280000  0.81720000  1.0 -0.1921289782
C  C88  1  0.77240000  0.87720000  0.31720000  1.0 -0.1921289782
C  C89  1  0.07120000  0.09410000  0.13370000  1.0 0.1846378283
C  C90  1  0.92880000  0.90590000  0.63370000  1.0 0.1846378283
C  C91  1  0.40590000  0.57120000  0.88370000  1.0 0.1846378283
C  C92  1  0.59410000  0.42880000  0.38370000  1.0 0.1846378283
C  C93  1  0.42880000  0.59410000  0.61630000  1.0 0.1846378283
C  C94  1  0.57120000  0.40590000  0.11630000  1.0 0.1846378283
C  C95  1  0.09410000  0.07120000  0.86630000  1.0 0.1846378283
C  C96  1  0.90590000  0.92880000  0.36630000  1.0 0.1846378283
C  C97  1  0.12310000  0.99670000  0.07020000  1.0 0.1659588018
C  C98  1  0.87690000  0.00330000  0.57020000  1.0 0.1659588018
C  C99  1  0.50330000  0.62310000  0.82020000  1.0 0.1659588018
C  C100  1  0.49670000  0.37690000  0.32020000  1.0 0.1659588018
C  C101  1  0.37690000  0.49670000  0.67980000  1.0 0.1659588018
C  C102  1  0.62310000  0.50330000  0.17980000  1.0 0.1659588018
C  C103  1  0.99670000  0.12310000  0.92980000  1.0 0.1659588018
C  C104  1  0.00330000  0.87690000  0.42980000  1.0 0.1659588018
C  C105  1  0.18470000  0.94250000  0.03950000  1.0 0.0212456261
C  C106  1  0.81530000  0.05750000  0.53950000  1.0 0.0212456261
C  C107  1  0.55750000  0.68470000  0.78950000  1.0 0.0212456261
C  C108  1  0.44250000  0.31530000  0.28950000  1.0 0.0212456261
C  C109  1  0.31530000  0.44250000  0.71050000  1.0 0.0212456261
C  C110  1  0.68470000  0.55750000  0.21050000  1.0 0.0212456261
C  C111  1  0.94250000  0.18470000  0.96050000  1.0 0.0212456261
C  C112  1  0.05750000  0.81530000  0.46050000  1.0 0.0212456261
C  C113  1  0.21710000  0.96310000  0.97930000  1.0 -0.1762170265
C  C114  1  0.78290000  0.03690000  0.47930000  1.0 -0.1762170265
C  C115  1  0.53690000  0.71710000  0.72930000  1.0 -0.1762170265
C  C116  1  0.46310000  0.28290000  0.22930000  1.0 -0.1762170265
C  C117  1  0.28290000  0.46310000  0.77070000  1.0 -0.1762170265
C  C118  1  0.71710000  0.53690000  0.27070000  1.0 -0.1762170265
C  C119  1  0.96310000  0.21710000  0.02070000  1.0 -0.1762170265
C  C120  1  0.03690000  0.78290000  0.52070000  1.0 -0.1762170265
C  C121  1  0.27820000  0.91120000  0.95340000  1.0 -0.1008320716
C  C122  1  0.72180000  0.08880000  0.45340000  1.0 -0.1008320716
C  C123  1  0.58880000  0.77820000  0.70340000  1.0 -0.1008320716
C  C124  1  0.41120000  0.22180000  0.20340000  1.0 -0.1008320716
C  C125  1  0.22180000  0.41120000  0.79660000  1.0 -0.1008320716
C  C126  1  0.77820000  0.58880000  0.29660000  1.0 -0.1008320716
C  C127  1  0.91120000  0.27820000  0.04660000  1.0 -0.1008320716
C  C128  1  0.08880000  0.72180000  0.54660000  1.0 -0.1008320716
C  C129  1  0.30570000  0.84030000  0.98520000  1.0 -0.1735445479
C  C130  1  0.69430000  0.15970000  0.48520000  1.0 -0.1735445479
C  C131  1  0.65970000  0.80570000  0.73520000  1.0 -0.1735445479
C  C132  1  0.34030000  0.19430000  0.23520000  1.0 -0.1735445479
C  C133  1  0.19430000  0.34030000  0.76480000  1.0 -0.1735445479
C  C134  1  0.80570000  0.65970000  0.26480000  1.0 -0.1735445479
C  C135  1  0.84030000  0.30570000  0.01480000  1.0 -0.1735445479
C  C136  1  0.15970000  0.69430000  0.51480000  1.0 -0.1735445479
C  C137  1  0.27460000  0.82000000  0.04490000  1.0 0.0700066691
C  C138  1  0.72540000  0.18000000  0.54490000  1.0 0.0700066691
C  C139  1  0.68000000  0.77460000  0.79490000  1.0 0.0700066691
C  C140  1  0.32000000  0.22540000  0.29490000  1.0 0.0700066691
C  C141  1  0.22540000  0.32000000  0.70510000  1.0 0.0700066691
C  C142  1  0.77460000  0.68000000  0.20510000  1.0 0.0700066691
C  C143  1  0.82000000  0.27460000  0.95510000  1.0 0.0700066691
C  C144  1  0.18000000  0.72540000  0.45510000  1.0 0.0700066691
C  C145  1  0.21380000  0.87190000  0.07090000  1.0 -0.201136982
C  C146  1  0.78620000  0.12810000  0.57090000  1.0 -0.201136982
C  C147  1  0.62810000  0.71380000  0.82090000  1.0 -0.201136982
C  C148  1  0.37190000  0.28620000  0.32090000  1.0 -0.201136982
C  C149  1  0.28620000  0.37190000  0.67910000  1.0 -0.201136982
C  C150  1  0.71380000  0.62810000  0.17910000  1.0 -0.201136982
C  C151  1  0.87190000  0.21380000  0.92910000  1.0 -0.201136982
C  C152  1  0.12810000  0.78620000  0.42910000  1.0 -0.201136982
C  C153  1  0.30590000  0.74640000  0.08100000  1.0 0.1091662736
C  C154  1  0.69410000  0.25360000  0.58100000  1.0 0.1091662736
C  C155  1  0.75360000  0.80590000  0.83100000  1.0 0.1091662736
C  C156  1  0.24640000  0.19410000  0.33100000  1.0 0.1091662736
C  C157  1  0.19410000  0.24640000  0.66900000  1.0 0.1091662736
C  C158  1  0.80590000  0.75360000  0.16900000  1.0 0.1091662736
C  C159  1  0.74640000  0.30590000  0.91900000  1.0 0.1091662736
C  C160  1  0.25360000  0.69410000  0.41900000  1.0 0.1091662736
C  C161  1  0.26230000  0.71750000  0.13480000  1.0 -0.2286496362
C  C162  1  0.73770000  0.28250000  0.63480000  1.0 -0.2286496362
C  C163  1  0.78250000  0.76230000  0.88480000  1.0 -0.2286496362
C  C164  1  0.21750000  0.23770000  0.38480000  1.0 -0.2286496362
C  C165  1  0.23770000  0.21750000  0.61520000  1.0 -0.2286496362
C  C166  1  0.76230000  0.78250000  0.11520000  1.0 -0.2286496362
C  C167  1  0.71750000  0.26230000  0.86520000  1.0 -0.2286496362
C  C168  1  0.28250000  0.73770000  0.36520000  1.0 -0.2286496362
C  C169  1  0.29860000  0.65480000  0.17270000  1.0 0.0615982647
C  C170  1  0.70140000  0.34520000  0.67270000  1.0 0.0615982647
C  C171  1  0.84520000  0.79860000  0.92270000  1.0 0.0615982647
C  C172  1  0.15480000  0.20140000  0.42270000  1.0 0.0615982647
C  C173  1  0.20140000  0.15480000  0.57730000  1.0 0.0615982647
C  C174  1  0.79860000  0.84520000  0.07730000  1.0 0.0615982647
C  C175  1  0.65480000  0.29860000  0.82730000  1.0 0.0615982647
C  C176  1  0.34520000  0.70140000  0.32730000  1.0 0.0615982647
C  C177  1  0.41010000  0.64220000  0.10670000  1.0 0.0502272935
C  C178  1  0.58990000  0.35780000  0.60670000  1.0 0.0502272935
C  C179  1  0.85780000  0.91010000  0.85670000  1.0 0.0502272935
C  C180  1  0.14220000  0.08990000  0.35670000  1.0 0.0502272935
C  C181  1  0.08990000  0.14220000  0.64330000  1.0 0.0502272935
C  C182  1  0.91010000  0.85780000  0.14330000  1.0 0.0502272935
C  C183  1  0.64220000  0.41010000  0.89330000  1.0 0.0502272935
C  C184  1  0.35780000  0.58990000  0.39330000  1.0 0.0502272935
C  C185  1  0.37720000  0.70450000  0.06680000  1.0 -0.201136982
C  C186  1  0.62280000  0.29550000  0.56680000  1.0 -0.201136982
C  C187  1  0.79550000  0.87720000  0.81680000  1.0 -0.201136982
C  C188  1  0.20450000  0.12280000  0.31680000  1.0 -0.201136982
C  C189  1  0.12280000  0.20450000  0.68320000  1.0 -0.201136982
C  C190  1  0.87720000  0.79550000  0.18320000  1.0 -0.201136982
C  C191  1  0.70450000  0.37720000  0.93320000  1.0 -0.201136982
C  C192  1  0.29550000  0.62280000  0.43320000  1.0 -0.201136982
N  N1  1  0.03960000  0.99240000  0.06840000  1.0 -0.2503138934
N  N2  1  0.96040000  0.00760000  0.56840000  1.0 -0.2503138934
N  N3  1  0.50760000  0.53960000  0.81840000  1.0 -0.2503138934
N  N4  1  0.49240000  0.46040000  0.31840000  1.0 -0.2503138934
N  N5  1  0.46040000  0.49240000  0.68160000  1.0 -0.2503138934
N  N6  1  0.53960000  0.50760000  0.18160000  1.0 -0.2503138934
N  N7  1  0.99240000  0.03960000  0.93160000  1.0 -0.2503138934
N  N8  1  0.00760000  0.96040000  0.43160000  1.0 -0.2503138934
N  N9  1  0.00790000  0.05470000  0.10890000  1.0 -0.2760808444
N  N10  1  0.99210000  0.94530000  0.60890000  1.0 -0.2760808444
N  N11  1  0.44530000  0.50790000  0.85890000  1.0 -0.2760808444
N  N12  1  0.55470000  0.49210000  0.35890000  1.0 -0.2760808444
N  N13  1  0.49210000  0.55470000  0.64110000  1.0 -0.2760808444
N  N14  1  0.50790000  0.44530000  0.14110000  1.0 -0.2760808444
N  N15  1  0.05470000  0.00790000  0.89110000  1.0 -0.2760808444
N  N16  1  0.94530000  0.99210000  0.39110000  1.0 -0.2760808444
N  N17  1  0.14480000  0.05940000  0.11100000  1.0 0.0615982647
N  N18  1  0.85520000  0.94060000  0.61100000  1.0 0.0615982647
N  N19  1  0.44060000  0.64480000  0.86100000  1.0 0.0615982647
N  N20  1  0.55940000  0.35520000  0.36100000  1.0 0.0615982647
N  N21  1  0.35520000  0.55940000  0.63900000  1.0 0.0615982647
N  N22  1  0.64480000  0.44060000  0.13900000  1.0 0.0615982647
N  N23  1  0.05940000  0.14480000  0.88900000  1.0 0.0615982647
N  N24  1  0.94060000  0.85520000  0.38900000  1.0 0.0615982647
N  N25  1  0.22590000  0.08310000  0.12950000  1.0 -0.5079219318
N  N26  1  0.77410000  0.91690000  0.62950000  1.0 -0.5079219318
N  N27  1  0.41690000  0.72590000  0.87950000  1.0 -0.5079219318
N  N28  1  0.58310000  0.27410000  0.37950000  1.0 -0.5079219318
N  N29  1  0.27410000  0.58310000  0.62050000  1.0 -0.5079219318
N  N30  1  0.72590000  0.41690000  0.12050000  1.0 -0.5079219318
N  N31  1  0.08310000  0.22590000  0.87050000  1.0 -0.5079219318
N  N32  1  0.91690000  0.77410000  0.37050000  1.0 -0.5079219318
N  N33  1  0.31200000  0.47630000  0.24370000  1.0 -0.2503138934
N  N34  1  0.68800000  0.52370000  0.74370000  1.0 -0.2503138934
N  N35  1  0.02370000  0.81200000  0.99370000  1.0 -0.2503138934
N  N36  1  0.97630000  0.18800000  0.49370000  1.0 -0.2503138934
N  N37  1  0.18800000  0.97630000  0.50630000  1.0 -0.2503138934
N  N38  1  0.81200000  0.02370000  0.00630000  1.0 -0.2503138934
N  N39  1  0.47630000  0.31200000  0.75630000  1.0 -0.2503138934
N  N40  1  0.52370000  0.68800000  0.25630000  1.0 -0.2503138934
N  N41  1  0.37160000  0.61960000  0.16090000  1.0 -0.2286496362
N  N42  1  0.62840000  0.38040000  0.66090000  1.0 -0.2286496362
N  N43  1  0.88040000  0.87160000  0.91090000  1.0 -0.2286496362
N  N44  1  0.11960000  0.12840000  0.41090000  1.0 -0.2286496362
N  N45  1  0.12840000  0.11960000  0.58910000  1.0 -0.2286496362
N  N46  1  0.87160000  0.88040000  0.08910000  1.0 -0.2286496362
N  N47  1  0.61960000  0.37160000  0.83910000  1.0 -0.2286496362
N  N48  1  0.38040000  0.62840000  0.33910000  1.0 -0.2286496362
