# DDEC6 charges by PACMAN v1.1 (https://github.com/mtap-research/PACMAN-charge/)
data_KUNSUJ_ASR_pacman
_symmetry_space_group_name_H-M   'P 1'
_cell_length_a   27.51250000
_cell_length_b   27.51250000
_cell_length_c   27.51250000
_cell_angle_alpha   98.24210000
_cell_angle_beta   98.24210000
_cell_angle_gamma   98.24210000
_symmetry_Int_Tables_number   1
_chemical_formula_structural   EuInH35(C9O2)7
_chemical_formula_sum   'Eu6 In6 H210 C378 O84'
_cell_volume   20109.62919212
_cell_formula_units_Z   6
loop_
 _symmetry_equiv_pos_site_id
 _symmetry_equiv_pos_as_xyz
  1  'x, y, z'
loop_
 _atom_site_type_symbol
 _atom_site_label
 _atom_site_symmetry_multiplicity
 _atom_site_fract_x
 _atom_site_fract_y
 _atom_site_fract_z
 _atom_site_occupancy
 _atom_site_charge
Eu  Eu1  1  0.74744000  0.58462000  0.30282000  1.0 1.7844462465
Eu  Eu2  1  0.58462000  0.30282000  0.74744000  1.0 1.7852089475
Eu  Eu3  1  0.30282000  0.74744000  0.58462000  1.0 1.7844462465
Eu  Eu4  1  0.25256000  0.41538000  0.69718000  1.0 1.7852089475
Eu  Eu5  1  0.41538000  0.69718000  0.25256000  1.0 1.7844462465
Eu  Eu6  1  0.69718000  0.25256000  0.41538000  1.0 1.7650346826
In  In1  1  0.41986000  0.00251000  0.16780000  1.0 1.2922198247
In  In2  1  0.00251000  0.16780000  0.41986000  1.0 1.2922198247
In  In3  1  0.16780000  0.41986000  0.00251000  1.0 1.2922198247
In  In4  1  0.58014000  0.99749000  0.83220000  1.0 1.2922198247
In  In5  1  0.99749000  0.83220000  0.58014000  1.0 1.2922198247
In  In6  1  0.83220000  0.58014000  0.99749000  1.0 1.2922198247
H  H1  1  0.59720000  0.57680000  0.36030000  1.0 0.128894564
H  H2  1  0.57680000  0.36030000  0.59720000  1.0 0.128894564
H  H3  1  0.36030000  0.59720000  0.57680000  1.0 0.128894564
H  H4  1  0.54850000  0.56500000  0.42020000  1.0 0.1190106173
H  H5  1  0.56500000  0.42020000  0.54850000  1.0 0.1190106173
H  H6  1  0.42020000  0.54850000  0.56500000  1.0 0.1190106173
H  H7  1  0.66480000  0.54230000  0.51170000  1.0 0.128894564
H  H8  1  0.54230000  0.51170000  0.66480000  1.0 0.128894564
H  H9  1  0.51170000  0.66480000  0.54230000  1.0 0.128894564
H  H10  1  0.71330000  0.55240000  0.45220000  1.0 0.128894564
H  H11  1  0.55240000  0.45220000  0.71330000  1.0 0.128894564
H  H12  1  0.45220000  0.71330000  0.55240000  1.0 0.128894564
H  H13  1  0.53330000  0.59890000  0.49300000  1.0 0.1190106173
H  H14  1  0.59890000  0.49300000  0.53330000  1.0 0.1190106173
H  H15  1  0.49300000  0.53330000  0.59890000  1.0 0.1190106173
H  H16  1  0.70330000  0.41340000  0.25620000  1.0 0.128894564
H  H17  1  0.41340000  0.25620000  0.70330000  1.0 0.128894564
H  H18  1  0.25620000  0.70330000  0.41340000  1.0 0.128894564
H  H19  1  0.65560000  0.34250000  0.20290000  1.0 0.1102429072
H  H20  1  0.34250000  0.20290000  0.65560000  1.0 0.1102429072
H  H21  1  0.20290000  0.65560000  0.34250000  1.0 0.1102429072
H  H22  1  0.60180000  0.42940000  0.11130000  1.0 0.1190106173
H  H23  1  0.42940000  0.11130000  0.60180000  1.0 0.1190106173
H  H24  1  0.11130000  0.60180000  0.42940000  1.0 0.1190106173
H  H25  1  0.64760000  0.49980000  0.16430000  1.0 0.128894564
H  H26  1  0.49980000  0.16430000  0.64760000  1.0 0.128894564
H  H27  1  0.16430000  0.64760000  0.49980000  1.0 0.128894564
H  H28  1  0.57400000  0.30090000  0.16680000  1.0 0.1190106173
H  H29  1  0.30090000  0.16680000  0.57400000  1.0 0.1190106173
H  H30  1  0.16680000  0.57400000  0.30090000  1.0 0.1190106173
H  H31  1  0.53880000  0.22900000  0.03330000  1.0 0.1190106173
H  H32  1  0.22900000  0.03330000  0.53880000  1.0 0.1190106173
H  H33  1  0.03330000  0.53880000  0.22900000  1.0 0.1190106173
H  H34  1  0.61170000  0.36680000  0.05960000  1.0 0.1190106173
H  H35  1  0.36680000  0.05960000  0.61170000  1.0 0.1190106173
H  H36  1  0.05960000  0.61170000  0.36680000  1.0 0.1190106173
H  H37  1  0.58460000  0.22840000  0.96860000  1.0 0.128894564
H  H38  1  0.22840000  0.96860000  0.58460000  1.0 0.128894564
H  H39  1  0.96860000  0.58460000  0.22840000  1.0 0.128894564
H  H40  1  0.58930000  0.22770000  0.88660000  1.0 0.1387084644
H  H41  1  0.22770000  0.88660000  0.58930000  1.0 0.1387084644
H  H42  1  0.88660000  0.58930000  0.22770000  1.0 0.1387084644
H  H43  1  0.56590000  0.36650000  0.90320000  1.0 0.1387084644
H  H44  1  0.36650000  0.90320000  0.56590000  1.0 0.1387084644
H  H45  1  0.90320000  0.56590000  0.36650000  1.0 0.1387084644
H  H46  1  0.56960000  0.36830000  0.98560000  1.0 0.128894564
H  H47  1  0.36830000  0.98560000  0.56960000  1.0 0.128894564
H  H48  1  0.98560000  0.56960000  0.36830000  1.0 0.128894564
H  H49  1  0.52640000  0.24890000  0.18660000  1.0 0.1190106173
H  H50  1  0.24890000  0.18660000  0.52640000  1.0 0.1190106173
H  H51  1  0.18660000  0.52640000  0.24890000  1.0 0.1190106173
H  H52  1  0.47670000  0.17850000  0.20350000  1.0 0.128894564
H  H53  1  0.17850000  0.20350000  0.47670000  1.0 0.128894564
H  H54  1  0.20350000  0.47670000  0.17850000  1.0 0.128894564
H  H55  1  0.51050000  0.09490000  0.08470000  1.0 0.128894564
H  H56  1  0.09490000  0.08470000  0.51050000  1.0 0.128894564
H  H57  1  0.08470000  0.51050000  0.09490000  1.0 0.128894564
H  H58  1  0.55430000  0.16610000  0.06450000  1.0 0.1102429072
H  H59  1  0.16610000  0.06450000  0.55430000  1.0 0.1102429072
H  H60  1  0.06450000  0.55430000  0.16610000  1.0 0.1102429072
H  H61  1  0.69770000  0.71560000  0.23620000  1.0 0.1387084644
H  H62  1  0.71560000  0.23620000  0.69770000  1.0 0.1387084644
H  H63  1  0.23620000  0.69770000  0.71560000  1.0 0.1387084644
H  H64  1  0.69060000  0.79160000  0.23360000  1.0 0.1387084644
H  H65  1  0.79160000  0.23360000  0.69060000  1.0 0.1387084644
H  H66  1  0.23360000  0.69060000  0.79160000  1.0 0.1387084644
H  H67  1  0.78250000  0.83440000  0.36170000  1.0 0.1190106173
H  H68  1  0.83440000  0.36170000  0.78250000  1.0 0.1190106173
H  H69  1  0.36170000  0.78250000  0.83440000  1.0 0.1190106173
H  H70  1  0.79000000  0.75340000  0.36260000  1.0 0.1387084644
H  H71  1  0.75340000  0.36260000  0.79000000  1.0 0.1387084644
H  H72  1  0.36260000  0.79000000  0.75340000  1.0 0.1387084644
H  H73  1  0.65790000  0.86000000  0.27230000  1.0 0.1190106173
H  H74  1  0.86000000  0.27230000  0.65790000  1.0 0.1190106173
H  H75  1  0.27230000  0.65790000  0.86000000  1.0 0.1190106173
H  H76  1  0.71470000  0.99930000  0.30210000  1.0 0.1190106173
H  H77  1  0.99930000  0.30210000  0.71470000  1.0 0.1190106173
H  H78  1  0.30210000  0.71470000  0.99930000  1.0 0.1190106173
H  H79  1  0.80640000  0.90130000  0.32010000  1.0 0.1190106173
H  H80  1  0.90130000  0.32010000  0.80640000  1.0 0.1190106173
H  H81  1  0.32010000  0.80640000  0.90130000  1.0 0.1190106173
H  H82  1  0.78410000  0.04640000  0.29450000  1.0 0.128894564
H  H83  1  0.04640000  0.29450000  0.78410000  1.0 0.128894564
H  H84  1  0.29450000  0.78410000  0.04640000  1.0 0.128894564
H  H85  1  0.85130000  0.10510000  0.31920000  1.0 0.128894564
H  H86  1  0.10510000  0.31920000  0.85130000  1.0 0.128894564
H  H87  1  0.31920000  0.85130000  0.10510000  1.0 0.128894564
H  H88  1  0.90630000  0.02280000  0.40830000  1.0 0.1387084644
H  H89  1  0.02280000  0.40830000  0.90630000  1.0 0.1387084644
H  H90  1  0.40830000  0.90630000  0.02280000  1.0 0.1387084644
H  H91  1  0.83800000  0.96480000  0.37830000  1.0 0.1190106173
H  H92  1  0.96480000  0.37830000  0.83800000  1.0 0.1102429072
H  H93  1  0.37830000  0.83800000  0.96480000  1.0 0.1102429072
H  H94  1  0.61520000  0.90050000  0.20970000  1.0 0.1190106173
H  H95  1  0.90050000  0.20970000  0.61520000  1.0 0.1190106173
H  H96  1  0.20970000  0.61520000  0.90050000  1.0 0.1190106173
H  H97  1  0.64390000  0.00260000  0.33510000  1.0 0.1102429072
H  H98  1  0.00260000  0.33510000  0.64390000  1.0 0.1102429072
H  H99  1  0.33510000  0.64390000  0.00260000  1.0 0.1102429072
H  H100  1  0.56600000  0.02780000  0.31220000  1.0 0.128894564
H  H101  1  0.02780000  0.31220000  0.56600000  1.0 0.128894564
H  H102  1  0.31220000  0.56600000  0.02780000  1.0 0.128894564
H  H103  1  0.53350000  0.91860000  0.19290000  1.0 0.128894564
H  H104  1  0.91860000  0.19290000  0.53350000  1.0 0.128894564
H  H105  1  0.19290000  0.53350000  0.91860000  1.0 0.128894564
H  H106  1  0.40280000  0.42320000  0.63970000  1.0 0.128894564
H  H107  1  0.42320000  0.63970000  0.40280000  1.0 0.128894564
H  H108  1  0.63970000  0.40280000  0.42320000  1.0 0.128894564
H  H109  1  0.45150000  0.43500000  0.57980000  1.0 0.1190106173
H  H110  1  0.43500000  0.57980000  0.45150000  1.0 0.1190106173
H  H111  1  0.57980000  0.45150000  0.43500000  1.0 0.1190106173
H  H112  1  0.33520000  0.45770000  0.48830000  1.0 0.128894564
H  H113  1  0.45770000  0.48830000  0.33520000  1.0 0.128894564
H  H114  1  0.48830000  0.33520000  0.45770000  1.0 0.128894564
H  H115  1  0.28670000  0.44760000  0.54780000  1.0 0.128894564
H  H116  1  0.44760000  0.54780000  0.28670000  1.0 0.128894564
H  H117  1  0.54780000  0.28670000  0.44760000  1.0 0.128894564
H  H118  1  0.46670000  0.40110000  0.50700000  1.0 0.1190106173
H  H119  1  0.40110000  0.50700000  0.46670000  1.0 0.1190106173
H  H120  1  0.50700000  0.46670000  0.40110000  1.0 0.1190106173
H  H121  1  0.29670000  0.58660000  0.74380000  1.0 0.128894564
H  H122  1  0.58660000  0.74380000  0.29670000  1.0 0.128894564
H  H123  1  0.74380000  0.29670000  0.58660000  1.0 0.128894564
H  H124  1  0.34440000  0.65750000  0.79710000  1.0 0.1102429072
H  H125  1  0.65750000  0.79710000  0.34440000  1.0 0.1102429072
H  H126  1  0.79710000  0.34440000  0.65750000  1.0 0.1102429072
H  H127  1  0.39820000  0.57060000  0.88870000  1.0 0.1190106173
H  H128  1  0.57060000  0.88870000  0.39820000  1.0 0.1190106173
H  H129  1  0.88870000  0.39820000  0.57060000  1.0 0.1190106173
H  H130  1  0.35240000  0.50020000  0.83570000  1.0 0.128894564
H  H131  1  0.50020000  0.83570000  0.35240000  1.0 0.128894564
H  H132  1  0.83570000  0.35240000  0.50020000  1.0 0.128894564
H  H133  1  0.42600000  0.69910000  0.83320000  1.0 0.1190106173
H  H134  1  0.69910000  0.83320000  0.42600000  1.0 0.1190106173
H  H135  1  0.83320000  0.42600000  0.69910000  1.0 0.1190106173
H  H136  1  0.46120000  0.77100000  0.96670000  1.0 0.1190106173
H  H137  1  0.77100000  0.96670000  0.46120000  1.0 0.1190106173
H  H138  1  0.96670000  0.46120000  0.77100000  1.0 0.1190106173
H  H139  1  0.38830000  0.63320000  0.94040000  1.0 0.1190106173
H  H140  1  0.63320000  0.94040000  0.38830000  1.0 0.1190106173
H  H141  1  0.94040000  0.38830000  0.63320000  1.0 0.1190106173
H  H142  1  0.41540000  0.77160000  0.03140000  1.0 0.128894564
H  H143  1  0.77160000  0.03140000  0.41540000  1.0 0.128894564
H  H144  1  0.03140000  0.41540000  0.77160000  1.0 0.128894564
H  H145  1  0.41070000  0.77230000  0.11340000  1.0 0.1387084644
H  H146  1  0.77230000  0.11340000  0.41070000  1.0 0.1387084644
H  H147  1  0.11340000  0.41070000  0.77230000  1.0 0.1387084644
H  H148  1  0.43410000  0.63350000  0.09680000  1.0 0.1387084644
H  H149  1  0.63350000  0.09680000  0.43410000  1.0 0.1387084644
H  H150  1  0.09680000  0.43410000  0.63350000  1.0 0.1387084644
H  H151  1  0.43040000  0.63170000  0.01440000  1.0 0.128894564
H  H152  1  0.63170000  0.01440000  0.43040000  1.0 0.128894564
H  H153  1  0.01440000  0.43040000  0.63170000  1.0 0.128894564
H  H154  1  0.47360000  0.75110000  0.81340000  1.0 0.1190106173
H  H155  1  0.75110000  0.81340000  0.47360000  1.0 0.1190106173
H  H156  1  0.81340000  0.47360000  0.75110000  1.0 0.1190106173
H  H157  1  0.52330000  0.82150000  0.79650000  1.0 0.128894564
H  H158  1  0.82150000  0.79650000  0.52330000  1.0 0.128894564
H  H159  1  0.79650000  0.52330000  0.82150000  1.0 0.128894564
H  H160  1  0.48950000  0.90510000  0.91530000  1.0 0.128894564
H  H161  1  0.90510000  0.91530000  0.48950000  1.0 0.128894564
H  H162  1  0.91530000  0.48950000  0.90510000  1.0 0.128894564
H  H163  1  0.44570000  0.83390000  0.93550000  1.0 0.1102429072
H  H164  1  0.83390000  0.93550000  0.44570000  1.0 0.1102429072
H  H165  1  0.93550000  0.44570000  0.83390000  1.0 0.1102429072
H  H166  1  0.30230000  0.28440000  0.76380000  1.0 0.1387084644
H  H167  1  0.28440000  0.76380000  0.30230000  1.0 0.1387084644
H  H168  1  0.76380000  0.30230000  0.28440000  1.0 0.1387084644
H  H169  1  0.30940000  0.20840000  0.76640000  1.0 0.1387084644
H  H170  1  0.20840000  0.76640000  0.30940000  1.0 0.1387084644
H  H171  1  0.76640000  0.30940000  0.20840000  1.0 0.1387084644
H  H172  1  0.21750000  0.16560000  0.63830000  1.0 0.1190106173
H  H173  1  0.16560000  0.63830000  0.21750000  1.0 0.1190106173
H  H174  1  0.63830000  0.21750000  0.16560000  1.0 0.1190106173
H  H175  1  0.21000000  0.24660000  0.63740000  1.0 0.1387084644
H  H176  1  0.24660000  0.63740000  0.21000000  1.0 0.1387084644
H  H177  1  0.63740000  0.21000000  0.24660000  1.0 0.1387084644
H  H178  1  0.34210000  0.14000000  0.72770000  1.0 0.1190106173
H  H179  1  0.14000000  0.72770000  0.34210000  1.0 0.1190106173
H  H180  1  0.72770000  0.34210000  0.14000000  1.0 0.1190106173
H  H181  1  0.28530000  0.00070000  0.69790000  1.0 0.1190106173
H  H182  1  0.00070000  0.69790000  0.28530000  1.0 0.1190106173
H  H183  1  0.69790000  0.28530000  0.00070000  1.0 0.1190106173
H  H184  1  0.19360000  0.09870000  0.67990000  1.0 0.1190106173
H  H185  1  0.09870000  0.67990000  0.19360000  1.0 0.1190106173
H  H186  1  0.67990000  0.19360000  0.09870000  1.0 0.1190106173
H  H187  1  0.21590000  0.95360000  0.70550000  1.0 0.128894564
H  H188  1  0.95360000  0.70550000  0.21590000  1.0 0.128894564
H  H189  1  0.70550000  0.21590000  0.95360000  1.0 0.128894564
H  H190  1  0.14870000  0.89490000  0.68080000  1.0 0.128894564
H  H191  1  0.89490000  0.68080000  0.14870000  1.0 0.128894564
H  H192  1  0.68080000  0.14870000  0.89490000  1.0 0.128894564
H  H193  1  0.09370000  0.97720000  0.59170000  1.0 0.1387084644
H  H194  1  0.97720000  0.59170000  0.09370000  1.0 0.1387084644
H  H195  1  0.59170000  0.09370000  0.97720000  1.0 0.1387084644
H  H196  1  0.16200000  0.03520000  0.62170000  1.0 0.1102429072
H  H197  1  0.03520000  0.62170000  0.16200000  1.0 0.1190106173
H  H198  1  0.62170000  0.16200000  0.03520000  1.0 0.1102429072
H  H199  1  0.38480000  0.09950000  0.79030000  1.0 0.1190106173
H  H200  1  0.09950000  0.79030000  0.38480000  1.0 0.1190106173
H  H201  1  0.79030000  0.38480000  0.09950000  1.0 0.1190106173
H  H202  1  0.35610000  0.99740000  0.66490000  1.0 0.1102429072
H  H203  1  0.99740000  0.66490000  0.35610000  1.0 0.1102429072
H  H204  1  0.66490000  0.35610000  0.99740000  1.0 0.1102429072
H  H205  1  0.43400000  0.97220000  0.68780000  1.0 0.128894564
H  H206  1  0.97220000  0.68780000  0.43400000  1.0 0.128894564
H  H207  1  0.68780000  0.43400000  0.97220000  1.0 0.128894564
H  H208  1  0.46650000  0.08140000  0.80710000  1.0 0.128894564
H  H209  1  0.08140000  0.80710000  0.46650000  1.0 0.128894564
H  H210  1  0.80710000  0.46650000  0.08140000  1.0 0.128894564
C  C1  1  0.69120000  0.57260000  0.36530000  1.0 0.5320839952
C  C2  1  0.57260000  0.36530000  0.69120000  1.0 0.5399835246
C  C3  1  0.36530000  0.69120000  0.57260000  1.0 0.5399835246
C  C4  1  0.65991000  0.56480000  0.40079000  1.0 -0.0408373516
C  C5  1  0.56480000  0.40079000  0.65991000  1.0 -0.0408373516
C  C6  1  0.40079000  0.65991000  0.56480000  1.0 -0.0408373516
C  C7  1  0.61090000  0.56950000  0.39080000  1.0 -0.0702506174
C  C8  1  0.56950000  0.39080000  0.61090000  1.0 -0.0702506174
C  C9  1  0.39080000  0.61090000  0.56950000  1.0 -0.0702506174
C  C10  1  0.58220000  0.56310000  0.42710000  1.0 -0.1587699714
C  C11  1  0.56310000  0.42710000  0.58220000  1.0 -0.1587699714
C  C12  1  0.42710000  0.58220000  0.56310000  1.0 -0.1587699714
C  C13  1  0.60110000  0.55410000  0.47270000  1.0 0.0599077504
C  C14  1  0.55410000  0.47270000  0.60110000  1.0 0.0599077504
C  C15  1  0.47270000  0.60110000  0.55410000  1.0 0.0599077504
C  C16  1  0.65090000  0.54950000  0.48120000  1.0 -0.1438672385
C  C17  1  0.54950000  0.48120000  0.65090000  1.0 -0.1438672385
C  C18  1  0.48120000  0.65090000  0.54950000  1.0 -0.1438672385
C  C19  1  0.67980000  0.55510000  0.44580000  1.0 -0.0800132299
C  C20  1  0.55510000  0.44580000  0.67980000  1.0 -0.0800132299
C  C21  1  0.44580000  0.67980000  0.55510000  1.0 -0.0800132299
C  C22  1  0.57160000  0.54910000  0.50780000  1.0 0.0706401687
C  C23  1  0.54910000  0.50780000  0.57160000  1.0 0.0706401687
C  C24  1  0.50780000  0.57160000  0.54910000  1.0 0.0706401687
C  C25  1  0.53780000  0.57560000  0.51390000  1.0 -0.1984948923
C  C26  1  0.57560000  0.51390000  0.53780000  1.0 -0.1984948923
C  C27  1  0.51390000  0.53780000  0.57560000  1.0 -0.1984948923
C  C28  1  0.70640000  0.50620000  0.24250000  1.0 0.5006278625
C  C29  1  0.50620000  0.24250000  0.70640000  1.0 0.5006278625
C  C30  1  0.24250000  0.70640000  0.50620000  1.0 0.5006278625
C  C31  1  0.68200000  0.46240000  0.21410000  1.0 -0.0702506174
C  C32  1  0.46240000  0.21410000  0.68200000  1.0 -0.0702506174
C  C33  1  0.21410000  0.68200000  0.46240000  1.0 -0.0702506174
C  C34  1  0.68360000  0.41680000  0.22690000  1.0 -0.0702506174
C  C35  1  0.41680000  0.22690000  0.68360000  1.0 -0.0702506174
C  C36  1  0.22690000  0.68360000  0.41680000  1.0 -0.0702506174
C  C37  1  0.65460000  0.37390000  0.19470000  1.0 -0.1498043474
C  C38  1  0.37390000  0.19470000  0.65460000  1.0 -0.1498043474
C  C39  1  0.19470000  0.65460000  0.37390000  1.0 -0.1498043474
C  C40  1  0.62600000  0.37910000  0.15270000  1.0 0.0706401687
C  C41  1  0.37910000  0.15270000  0.62600000  1.0 0.0706401687
C  C42  1  0.15270000  0.62600000  0.37910000  1.0 0.0706401687
C  C43  1  0.62240000  0.42620000  0.14010000  1.0 -0.1498043474
C  C44  1  0.42620000  0.14010000  0.62240000  1.0 -0.1498043474
C  C45  1  0.14010000  0.62240000  0.42620000  1.0 -0.1498043474
C  C46  1  0.65020000  0.46810000  0.17150000  1.0 -0.0800132299
C  C47  1  0.46810000  0.17150000  0.65020000  1.0 -0.0800132299
C  C48  1  0.17150000  0.65020000  0.46810000  1.0 -0.0800132299
C  C49  1  0.60010000  0.33700000  0.11900000  1.0 0.0807498901
C  C50  1  0.33700000  0.11900000  0.60010000  1.0 0.0807498901
C  C51  1  0.11900000  0.60010000  0.33700000  1.0 0.0807498901
C  C52  1  0.57750000  0.29860000  0.13350000  1.0 -0.1899101664
C  C53  1  0.29860000  0.13350000  0.57750000  1.0 -0.1899101664
C  C54  1  0.13350000  0.57750000  0.29860000  1.0 -0.1899101664
C  C55  1  0.55890000  0.25590000  0.10240000  1.0 0.0599077504
C  C56  1  0.25590000  0.10240000  0.55890000  1.0 0.0599077504
C  C57  1  0.10240000  0.55890000  0.25590000  1.0 0.0599077504
C  C58  1  0.55560000  0.25720000  0.05550000  1.0 -0.1984948923
C  C59  1  0.25720000  0.05550000  0.55560000  1.0 -0.1984948923
C  C60  1  0.05550000  0.55560000  0.25720000  1.0 -0.1984948923
C  C61  1  0.57500000  0.29750000  0.03660000  1.0 0.0807498901
C  C62  1  0.29750000  0.03660000  0.57500000  1.0 0.0807498901
C  C63  1  0.03660000  0.57500000  0.29750000  1.0 0.0807498901
C  C64  1  0.59780000  0.33820000  0.07030000  1.0 -0.1984948923
C  C65  1  0.33820000  0.07030000  0.59780000  1.0 -0.1984948923
C  C66  1  0.07030000  0.59780000  0.33820000  1.0 -0.1984948923
C  C67  1  0.57620000  0.29630000  0.98500000  1.0 0.0599077504
C  C68  1  0.29630000  0.98500000  0.57620000  1.0 0.0599077504
C  C69  1  0.98500000  0.57620000  0.29630000  1.0 0.0599077504
C  C70  1  0.58200000  0.25740000  0.95540000  1.0 -0.1246902053
C  C71  1  0.25740000  0.95540000  0.58200000  1.0 -0.1246902053
C  C72  1  0.95540000  0.58200000  0.25740000  1.0 -0.1246902053
C  C73  1  0.58420000  0.25600000  0.90690000  1.0 -0.0971252086
C  C74  1  0.25600000  0.90690000  0.58420000  1.0 -0.0971252086
C  C75  1  0.90690000  0.58420000  0.25600000  1.0 -0.0971252086
C  C76  1  0.57860000  0.29990000  0.88930000  1.0 -0.0408373516
C  C77  1  0.29990000  0.88930000  0.57860000  1.0 -0.0408373516
C  C78  1  0.88930000  0.57860000  0.29990000  1.0 -0.0408373516
C  C79  1  0.57150000  0.33840000  0.91700000  1.0 -0.0702506174
C  C80  1  0.33840000  0.91700000  0.57150000  1.0 -0.0702506174
C  C81  1  0.91700000  0.57150000  0.33840000  1.0 -0.0702506174
C  C82  1  0.57200000  0.33910000  0.96500000  1.0 -0.1587699714
C  C83  1  0.33910000  0.96500000  0.57200000  1.0 -0.1587699714
C  C84  1  0.96500000  0.57200000  0.33910000  1.0 -0.1587699714
C  C85  1  0.57980000  0.29990000  0.83650000  1.0 0.5399835246
C  C86  1  0.29990000  0.83650000  0.57980000  1.0 0.5399835246
C  C87  1  0.83650000  0.57980000  0.29990000  1.0 0.5399835246
C  C88  1  0.53780000  0.21560000  0.11910000  1.0 0.0489716194
C  C89  1  0.21560000  0.11910000  0.53780000  1.0 0.0489716194
C  C90  1  0.11910000  0.53780000  0.21560000  1.0 0.0489716194
C  C91  1  0.52040000  0.21880000  0.16450000  1.0 -0.1438672385
C  C92  1  0.21880000  0.16450000  0.52040000  1.0 -0.1438672385
C  C93  1  0.16450000  0.52040000  0.21880000  1.0 -0.1438672385
C  C94  1  0.49350000  0.17580000  0.17650000  1.0 -0.0800132299
C  C95  1  0.17580000  0.17650000  0.49350000  1.0 -0.0800132299
C  C96  1  0.17650000  0.49350000  0.17580000  1.0 -0.0800132299
C  C97  1  0.49190000  0.12970000  0.14860000  1.0 -0.0206538974
C  C98  1  0.12970000  0.14860000  0.49190000  1.0 -0.0206538974
C  C99  1  0.14860000  0.49190000  0.12970000  1.0 -0.0206538974
C  C100  1  0.51290000  0.12580000  0.10480000  1.0 -0.0971252086
C  C101  1  0.12580000  0.10480000  0.51290000  1.0 -0.0971252086
C  C102  1  0.10480000  0.51290000  0.12580000  1.0 -0.0971252086
C  C103  1  0.53770000  0.16870000  0.09170000  1.0 -0.1498043474
C  C104  1  0.16870000  0.09170000  0.53770000  1.0 -0.1498043474
C  C105  1  0.09170000  0.53770000  0.16870000  1.0 -0.1498043474
C  C106  1  0.46880000  0.08150000  0.16110000  1.0 0.4572443039
C  C107  1  0.08150000  0.16110000  0.46880000  1.0 0.4572443039
C  C108  1  0.16110000  0.46880000  0.08150000  1.0 0.4572443039
C  C109  1  0.74640000  0.67500000  0.30130000  1.0 0.5320839952
C  C110  1  0.67500000  0.30130000  0.74640000  1.0 0.5320839952
C  C111  1  0.30130000  0.74640000  0.67500000  1.0 0.5320839952
C  C112  1  0.74410000  0.72540000  0.29880000  1.0 -0.0702506174
C  C113  1  0.72540000  0.29880000  0.74410000  1.0 -0.0702506174
C  C114  1  0.29880000  0.74410000  0.72540000  1.0 -0.0702506174
C  C115  1  0.71580000  0.73990000  0.26190000  1.0 -0.0800132299
C  C116  1  0.73990000  0.26190000  0.71580000  1.0 -0.0800132299
C  C117  1  0.26190000  0.71580000  0.73990000  1.0 -0.0800132299
C  C118  1  0.71210000  0.78450000  0.26000000  1.0 -0.1323773592
C  C119  1  0.78450000  0.26000000  0.71210000  1.0 -0.1323773592
C  C120  1  0.26000000  0.71210000  0.78450000  1.0 -0.1323773592
C  C121  1  0.73840000  0.82260000  0.29520000  1.0 0.0489716194
C  C122  1  0.82260000  0.29520000  0.73840000  1.0 0.0489716194
C  C123  1  0.29520000  0.73840000  0.82260000  1.0 0.0599077504
C  C124  1  0.76620000  0.80980000  0.33510000  1.0 -0.1498043474
C  C125  1  0.80980000  0.33510000  0.76620000  1.0 -0.1498043474
C  C126  1  0.33510000  0.76620000  0.80980000  1.0 -0.1498043474
C  C127  1  0.76970000  0.76180000  0.33610000  1.0 -0.0908136549
C  C128  1  0.76180000  0.33610000  0.76970000  1.0 -0.0908136549
C  C129  1  0.33610000  0.76970000  0.76180000  1.0 -0.0908136549
C  C130  1  0.73500000  0.87350000  0.29540000  1.0 0.0807498901
C  C131  1  0.87350000  0.29540000  0.73500000  1.0 0.0807498901
C  C132  1  0.29540000  0.73500000  0.87350000  1.0 0.0807498901
C  C133  1  0.68600000  0.88480000  0.28210000  1.0 -0.1984948923
C  C134  1  0.88480000  0.28210000  0.68600000  1.0 -0.1984948923
C  C135  1  0.28210000  0.68600000  0.88480000  1.0 -0.1984948923
C  C136  1  0.68360000  0.93260000  0.28470000  1.0 0.0856007507
C  C137  1  0.93260000  0.28470000  0.68360000  1.0 0.0856007507
C  C138  1  0.28470000  0.68360000  0.93260000  1.0 0.0856007507
C  C139  1  0.72020000  0.96660000  0.29960000  1.0 -0.1691266128
C  C140  1  0.96660000  0.29960000  0.72020000  1.0 -0.1691266128
C  C141  1  0.29960000  0.72020000  0.96660000  1.0 -0.1691266128
C  C142  1  0.76760000  0.95900000  0.31230000  1.0 0.0489716194
C  C143  1  0.95900000  0.31230000  0.76760000  1.0 0.0489716194
C  C144  1  0.31230000  0.76760000  0.95900000  1.0 0.0489716194
C  C145  1  0.77490000  0.90910000  0.31080000  1.0 -0.1899101664
C  C146  1  0.90910000  0.31080000  0.77490000  1.0 -0.1899101664
C  C147  1  0.31080000  0.77490000  0.90910000  1.0 -0.1899101664
C  C148  1  0.80860000  0.99720000  0.32790000  1.0 0.0489716194
C  C149  1  0.99720000  0.32790000  0.80860000  1.0 0.0489716194
C  C150  1  0.32790000  0.80860000  0.99720000  1.0 0.0489716194
C  C151  1  0.81090000  0.03980000  0.31600000  1.0 -0.1498043474
C  C152  1  0.03980000  0.31600000  0.81090000  1.0 -0.1498043474
C  C153  1  0.31600000  0.81090000  0.03980000  1.0 -0.1498043474
C  C154  1  0.84970000  0.07610000  0.33300000  1.0 -0.0702506174
C  C155  1  0.07610000  0.33300000  0.84970000  1.0 -0.0702506174
C  C156  1  0.33300000  0.84970000  0.07610000  1.0 -0.0702506174
C  C157  1  0.88420000  0.07240000  0.36670000  1.0 -0.0971252086
C  C158  1  0.07240000  0.36670000  0.88420000  1.0 -0.0908136549
C  C159  1  0.36670000  0.88420000  0.07240000  1.0 -0.0908136549
C  C160  1  0.88150000  0.02840000  0.38400000  1.0 -0.0908136549
C  C161  1  0.02840000  0.38400000  0.88150000  1.0 -0.0971252086
C  C162  1  0.38400000  0.88150000  0.02840000  1.0 -0.0971252086
C  C163  1  0.84190000  0.99370000  0.36440000  1.0 -0.1587699714
C  C164  1  0.99370000  0.36440000  0.84190000  1.0 -0.1587699714
C  C165  1  0.36440000  0.84190000  0.99370000  1.0 -0.1587699714
C  C166  1  0.92200000  0.10950000  0.38600000  1.0 0.4764383208
C  C167  1  0.10950000  0.38600000  0.92200000  1.0 0.4739114057
C  C168  1  0.38600000  0.92200000  0.10950000  1.0 0.4739114057
C  C169  1  0.60470000  0.92470000  0.23110000  1.0 -0.1498043474
C  C170  1  0.92470000  0.23110000  0.60470000  1.0 -0.1498043474
C  C171  1  0.23110000  0.60470000  0.92470000  1.0 -0.1498043474
C  C172  1  0.63650000  0.94990000  0.27370000  1.0 0.0599077504
C  C173  1  0.94990000  0.27370000  0.63650000  1.0 0.0599077504
C  C174  1  0.27370000  0.63650000  0.94990000  1.0 0.0599077504
C  C175  1  0.62260000  0.98710000  0.30590000  1.0 -0.1498043474
C  C176  1  0.98710000  0.30590000  0.62260000  1.0 -0.1498043474
C  C177  1  0.30590000  0.62260000  0.98710000  1.0 -0.1498043474
C  C178  1  0.57500000  0.00110000  0.29300000  1.0 -0.0908136549
C  C179  1  0.00110000  0.29300000  0.57500000  1.0 -0.0908136549
C  C180  1  0.29300000  0.57500000  0.00110000  1.0 -0.0908136549
C  C181  1  0.54260000  0.97430000  0.25140000  1.0 -0.0597374853
C  C182  1  0.97430000  0.25140000  0.54260000  1.0 -0.0597374853
C  C183  1  0.25140000  0.54260000  0.97430000  1.0 -0.0597374853
C  C184  1  0.55590000  0.93630000  0.22030000  1.0 -0.0908136549
C  C185  1  0.93630000  0.22030000  0.55590000  1.0 -0.0908136549
C  C186  1  0.22030000  0.55590000  0.93630000  1.0 -0.0908136549
C  C187  1  0.49690000  0.98460000  0.24120000  1.0 0.4572443039
C  C188  1  0.98460000  0.24120000  0.49690000  1.0 0.4572443039
C  C189  1  0.24120000  0.49690000  0.98460000  1.0 0.4572443039
C  C190  1  0.30880000  0.42740000  0.63470000  1.0 0.5320839952
C  C191  1  0.42740000  0.63470000  0.30880000  1.0 0.5320839952
C  C192  1  0.63470000  0.30880000  0.42740000  1.0 0.5399835246
C  C193  1  0.34009000  0.43520000  0.59921000  1.0 -0.0408373516
C  C194  1  0.43520000  0.59921000  0.34009000  1.0 -0.0408373516
C  C195  1  0.59921000  0.34009000  0.43520000  1.0 -0.0408373516
C  C196  1  0.38910000  0.43050000  0.60920000  1.0 -0.0702506174
C  C197  1  0.43050000  0.60920000  0.38910000  1.0 -0.0702506174
C  C198  1  0.60920000  0.38910000  0.43050000  1.0 -0.0702506174
C  C199  1  0.41780000  0.43690000  0.57290000  1.0 -0.1587699714
C  C200  1  0.43690000  0.57290000  0.41780000  1.0 -0.1587699714
C  C201  1  0.57290000  0.41780000  0.43690000  1.0 -0.1587699714
C  C202  1  0.39890000  0.44590000  0.52730000  1.0 0.0599077504
C  C203  1  0.44590000  0.52730000  0.39890000  1.0 0.0599077504
C  C204  1  0.52730000  0.39890000  0.44590000  1.0 0.0599077504
C  C205  1  0.34910000  0.45050000  0.51880000  1.0 -0.1438672385
C  C206  1  0.45050000  0.51880000  0.34910000  1.0 -0.1438672385
C  C207  1  0.51880000  0.34910000  0.45050000  1.0 -0.1438672385
C  C208  1  0.32020000  0.44490000  0.55420000  1.0 -0.0800132299
C  C209  1  0.44490000  0.55420000  0.32020000  1.0 -0.0800132299
C  C210  1  0.55420000  0.32020000  0.44490000  1.0 -0.0800132299
C  C211  1  0.42840000  0.45090000  0.49220000  1.0 0.0706401687
C  C212  1  0.45090000  0.49220000  0.42840000  1.0 0.0706401687
C  C213  1  0.49220000  0.42840000  0.45090000  1.0 0.0706401687
C  C214  1  0.46220000  0.42440000  0.48610000  1.0 -0.1984948923
C  C215  1  0.42440000  0.48610000  0.46220000  1.0 -0.1984948923
C  C216  1  0.48610000  0.46220000  0.42440000  1.0 -0.1984948923
C  C217  1  0.29360000  0.49380000  0.75750000  1.0 0.5006278625
C  C218  1  0.49380000  0.75750000  0.29360000  1.0 0.5006278625
C  C219  1  0.75750000  0.29360000  0.49380000  1.0 0.5006278625
C  C220  1  0.31800000  0.53760000  0.78590000  1.0 -0.0702506174
C  C221  1  0.53760000  0.78590000  0.31800000  1.0 -0.0702506174
C  C222  1  0.78590000  0.31800000  0.53760000  1.0 -0.0702506174
C  C223  1  0.31640000  0.58320000  0.77310000  1.0 -0.0702506174
C  C224  1  0.58320000  0.77310000  0.31640000  1.0 -0.0702506174
C  C225  1  0.77310000  0.31640000  0.58320000  1.0 -0.0702506174
C  C226  1  0.34540000  0.62610000  0.80530000  1.0 -0.1498043474
C  C227  1  0.62610000  0.80530000  0.34540000  1.0 -0.1498043474
C  C228  1  0.80530000  0.34540000  0.62610000  1.0 -0.1498043474
C  C229  1  0.37400000  0.62090000  0.84730000  1.0 0.0706401687
C  C230  1  0.62090000  0.84730000  0.37400000  1.0 0.0706401687
C  C231  1  0.84730000  0.37400000  0.62090000  1.0 0.0706401687
C  C232  1  0.37760000  0.57380000  0.85990000  1.0 -0.1498043474
C  C233  1  0.57380000  0.85990000  0.37760000  1.0 -0.1498043474
C  C234  1  0.85990000  0.37760000  0.57380000  1.0 -0.1498043474
C  C235  1  0.34980000  0.53190000  0.82850000  1.0 -0.0800132299
C  C236  1  0.53190000  0.82850000  0.34980000  1.0 -0.0800132299
C  C237  1  0.82850000  0.34980000  0.53190000  1.0 -0.0702506174
C  C238  1  0.39990000  0.66300000  0.88100000  1.0 0.0807498901
C  C239  1  0.66300000  0.88100000  0.39990000  1.0 0.0807498901
C  C240  1  0.88100000  0.39990000  0.66300000  1.0 0.0807498901
C  C241  1  0.42250000  0.70140000  0.86650000  1.0 -0.1899101664
C  C242  1  0.70140000  0.86650000  0.42250000  1.0 -0.1899101664
C  C243  1  0.86650000  0.42250000  0.70140000  1.0 -0.1899101664
C  C244  1  0.44110000  0.74410000  0.89760000  1.0 0.0599077504
C  C245  1  0.74410000  0.89760000  0.44110000  1.0 0.0599077504
C  C246  1  0.89760000  0.44110000  0.74410000  1.0 0.0599077504
C  C247  1  0.44440000  0.74280000  0.94450000  1.0 -0.1984948923
C  C248  1  0.74280000  0.94450000  0.44440000  1.0 -0.1984948923
C  C249  1  0.94450000  0.44440000  0.74280000  1.0 -0.1984948923
C  C250  1  0.42500000  0.70250000  0.96340000  1.0 0.0807498901
C  C251  1  0.70250000  0.96340000  0.42500000  1.0 0.0807498901
C  C252  1  0.96340000  0.42500000  0.70250000  1.0 0.0807498901
C  C253  1  0.40220000  0.66180000  0.92970000  1.0 -0.1984948923
C  C254  1  0.66180000  0.92970000  0.40220000  1.0 -0.1984948923
C  C255  1  0.92970000  0.40220000  0.66180000  1.0 -0.1984948923
C  C256  1  0.42380000  0.70370000  0.01500000  1.0 0.0599077504
C  C257  1  0.70370000  0.01500000  0.42380000  1.0 0.0599077504
C  C258  1  0.01500000  0.42380000  0.70370000  1.0 0.0599077504
C  C259  1  0.41800000  0.74260000  0.04460000  1.0 -0.1246902053
C  C260  1  0.74260000  0.04460000  0.41800000  1.0 -0.1246902053
C  C261  1  0.04460000  0.41800000  0.74260000  1.0 -0.1246902053
C  C262  1  0.41580000  0.74400000  0.09310000  1.0 -0.0971252086
C  C263  1  0.74400000  0.09310000  0.41580000  1.0 -0.0971252086
C  C264  1  0.09310000  0.41580000  0.74400000  1.0 -0.0971252086
C  C265  1  0.42140000  0.70010000  0.11070000  1.0 -0.0408373516
C  C266  1  0.70010000  0.11070000  0.42140000  1.0 -0.0408373516
C  C267  1  0.11070000  0.42140000  0.70010000  1.0 -0.0408373516
C  C268  1  0.42850000  0.66160000  0.08300000  1.0 -0.0702506174
C  C269  1  0.66160000  0.08300000  0.42850000  1.0 -0.0702506174
C  C270  1  0.08300000  0.42850000  0.66160000  1.0 -0.0702506174
C  C271  1  0.42800000  0.66090000  0.03500000  1.0 -0.1587699714
C  C272  1  0.66090000  0.03500000  0.42800000  1.0 -0.1587699714
C  C273  1  0.03500000  0.42800000  0.66090000  1.0 -0.1587699714
C  C274  1  0.42020000  0.70010000  0.16350000  1.0 0.5399835246
C  C275  1  0.70010000  0.16350000  0.42020000  1.0 0.5399835246
C  C276  1  0.16350000  0.42020000  0.70010000  1.0 0.5399835246
C  C277  1  0.46220000  0.78440000  0.88090000  1.0 0.0489716194
C  C278  1  0.78440000  0.88090000  0.46220000  1.0 0.0489716194
C  C279  1  0.88090000  0.46220000  0.78440000  1.0 0.0489716194
C  C280  1  0.47960000  0.78120000  0.83550000  1.0 -0.1438672385
C  C281  1  0.78120000  0.83550000  0.47960000  1.0 -0.1438672385
C  C282  1  0.83550000  0.47960000  0.78120000  1.0 -0.1438672385
C  C283  1  0.50650000  0.82420000  0.82350000  1.0 -0.0800132299
C  C284  1  0.82420000  0.82350000  0.50650000  1.0 -0.0800132299
C  C285  1  0.82350000  0.50650000  0.82420000  1.0 -0.0800132299
C  C286  1  0.50810000  0.87030000  0.85140000  1.0 -0.0206538974
C  C287  1  0.87030000  0.85140000  0.50810000  1.0 -0.0206538974
C  C288  1  0.85140000  0.50810000  0.87030000  1.0 -0.0206538974
C  C289  1  0.48710000  0.87420000  0.89520000  1.0 -0.0971252086
C  C290  1  0.87420000  0.89520000  0.48710000  1.0 -0.0971252086
C  C291  1  0.89520000  0.48710000  0.87420000  1.0 -0.0971252086
C  C292  1  0.46230000  0.83130000  0.90830000  1.0 -0.1498043474
C  C293  1  0.83130000  0.90830000  0.46230000  1.0 -0.1498043474
C  C294  1  0.90830000  0.46230000  0.83130000  1.0 -0.1498043474
C  C295  1  0.53120000  0.91850000  0.83890000  1.0 0.4572443039
C  C296  1  0.91850000  0.83890000  0.53120000  1.0 0.4572443039
C  C297  1  0.83890000  0.53120000  0.91850000  1.0 0.4572443039
C  C298  1  0.25360000  0.32500000  0.69870000  1.0 0.5320839952
C  C299  1  0.32500000  0.69870000  0.25360000  1.0 0.5320839952
C  C300  1  0.69870000  0.25360000  0.32500000  1.0 0.5320839952
C  C301  1  0.25590000  0.27460000  0.70120000  1.0 -0.0702506174
C  C302  1  0.27460000  0.70120000  0.25590000  1.0 -0.0702506174
C  C303  1  0.70120000  0.25590000  0.27460000  1.0 -0.0702506174
C  C304  1  0.28420000  0.26010000  0.73810000  1.0 -0.0800132299
C  C305  1  0.26010000  0.73810000  0.28420000  1.0 -0.0800132299
C  C306  1  0.73810000  0.28420000  0.26010000  1.0 -0.0800132299
C  C307  1  0.28790000  0.21550000  0.74000000  1.0 -0.1323773592
C  C308  1  0.21550000  0.74000000  0.28790000  1.0 -0.1323773592
C  C309  1  0.74000000  0.28790000  0.21550000  1.0 -0.1323773592
C  C310  1  0.26160000  0.17740000  0.70480000  1.0 0.0599077504
C  C311  1  0.17740000  0.70480000  0.26160000  1.0 0.0599077504
C  C312  1  0.70480000  0.26160000  0.17740000  1.0 0.0489716194
C  C313  1  0.23380000  0.19020000  0.66490000  1.0 -0.1498043474
C  C314  1  0.19020000  0.66490000  0.23380000  1.0 -0.1498043474
C  C315  1  0.66490000  0.23380000  0.19020000  1.0 -0.1498043474
C  C316  1  0.23030000  0.23820000  0.66390000  1.0 -0.0908136549
C  C317  1  0.23820000  0.66390000  0.23030000  1.0 -0.0908136549
C  C318  1  0.66390000  0.23030000  0.23820000  1.0 -0.0908136549
C  C319  1  0.26500000  0.12650000  0.70460000  1.0 0.0807498901
C  C320  1  0.12650000  0.70460000  0.26500000  1.0 0.0807498901
C  C321  1  0.70460000  0.26500000  0.12650000  1.0 0.0807498901
C  C322  1  0.31400000  0.11520000  0.71790000  1.0 -0.1984948923
C  C323  1  0.11520000  0.71790000  0.31400000  1.0 -0.1984948923
C  C324  1  0.71790000  0.31400000  0.11520000  1.0 -0.1984948923
C  C325  1  0.31640000  0.06740000  0.71530000  1.0 0.0856007507
C  C326  1  0.06740000  0.71530000  0.31640000  1.0 0.0856007507
C  C327  1  0.71530000  0.31640000  0.06740000  1.0 0.0856007507
C  C328  1  0.27980000  0.03340000  0.70040000  1.0 -0.1691266128
C  C329  1  0.03340000  0.70040000  0.27980000  1.0 -0.1691266128
C  C330  1  0.70040000  0.27980000  0.03340000  1.0 -0.1691266128
C  C331  1  0.23240000  0.04100000  0.68770000  1.0 0.0489716194
C  C332  1  0.04100000  0.68770000  0.23240000  1.0 0.0489716194
C  C333  1  0.68770000  0.23240000  0.04100000  1.0 0.0489716194
C  C334  1  0.22510000  0.09090000  0.68920000  1.0 -0.1899101664
C  C335  1  0.09090000  0.68920000  0.22510000  1.0 -0.1899101664
C  C336  1  0.68920000  0.22510000  0.09090000  1.0 -0.1899101664
C  C337  1  0.19140000  0.00280000  0.67210000  1.0 0.0489716194
C  C338  1  0.00280000  0.67210000  0.19140000  1.0 0.0489716194
C  C339  1  0.67210000  0.19140000  0.00280000  1.0 0.0489716194
C  C340  1  0.18910000  0.96020000  0.68400000  1.0 -0.1498043474
C  C341  1  0.96020000  0.68400000  0.18910000  1.0 -0.1498043474
C  C342  1  0.68400000  0.18910000  0.96020000  1.0 -0.1498043474
C  C343  1  0.15030000  0.92390000  0.66700000  1.0 -0.0702506174
C  C344  1  0.92390000  0.66700000  0.15030000  1.0 -0.0702506174
C  C345  1  0.66700000  0.15030000  0.92390000  1.0 -0.0702506174
C  C346  1  0.11580000  0.92760000  0.63330000  1.0 -0.0908136549
C  C347  1  0.92760000  0.63330000  0.11580000  1.0 -0.0908136549
C  C348  1  0.63330000  0.11580000  0.92760000  1.0 -0.0908136549
C  C349  1  0.11850000  0.97160000  0.61600000  1.0 -0.0971252086
C  C350  1  0.97160000  0.61600000  0.11850000  1.0 -0.0971252086
C  C351  1  0.61600000  0.11850000  0.97160000  1.0 -0.0971252086
C  C352  1  0.15810000  0.00630000  0.63560000  1.0 -0.1587699714
C  C353  1  0.00630000  0.63560000  0.15810000  1.0 -0.1587699714
C  C354  1  0.63560000  0.15810000  0.00630000  1.0 -0.1587699714
C  C355  1  0.07800000  0.89050000  0.61400000  1.0 0.4739114057
C  C356  1  0.89050000  0.61400000  0.07800000  1.0 0.4739114057
C  C357  1  0.61400000  0.07800000  0.89050000  1.0 0.4739114057
C  C358  1  0.39530000  0.07530000  0.76890000  1.0 -0.1498043474
C  C359  1  0.07530000  0.76890000  0.39530000  1.0 -0.1498043474
C  C360  1  0.76890000  0.39530000  0.07530000  1.0 -0.1498043474
C  C361  1  0.36350000  0.05010000  0.72630000  1.0 0.0599077504
C  C362  1  0.05010000  0.72630000  0.36350000  1.0 0.0599077504
C  C363  1  0.72630000  0.36350000  0.05010000  1.0 0.0599077504
C  C364  1  0.37740000  0.01290000  0.69410000  1.0 -0.1498043474
C  C365  1  0.01290000  0.69410000  0.37740000  1.0 -0.1498043474
C  C366  1  0.69410000  0.37740000  0.01290000  1.0 -0.1498043474
C  C367  1  0.42500000  0.99890000  0.70700000  1.0 -0.0908136549
C  C368  1  0.99890000  0.70700000  0.42500000  1.0 -0.0908136549
C  C369  1  0.70700000  0.42500000  0.99890000  1.0 -0.0908136549
C  C370  1  0.45740000  0.02570000  0.74860000  1.0 -0.0597374853
C  C371  1  0.02570000  0.74860000  0.45740000  1.0 -0.0597374853
C  C372  1  0.74860000  0.45740000  0.02570000  1.0 -0.0597374853
C  C373  1  0.44410000  0.06370000  0.77970000  1.0 -0.0908136549
C  C374  1  0.06370000  0.77970000  0.44410000  1.0 -0.0908136549
C  C375  1  0.77970000  0.44410000  0.06370000  1.0 -0.0908136549
C  C376  1  0.50310000  0.01540000  0.75880000  1.0 0.4572443039
C  C377  1  0.01540000  0.75880000  0.50310000  1.0 0.4572443039
C  C378  1  0.75880000  0.50310000  0.01540000  1.0 0.4572443039
O  O1  1  0.73596000  0.57132000  0.37726000  1.0 -0.5368460744
O  O2  1  0.57132000  0.37726000  0.73596000  1.0 -0.5368460744
O  O3  1  0.37726000  0.73596000  0.57132000  1.0 -0.5368460744
O  O4  1  0.67401000  0.58165000  0.32448000  1.0 -0.5490335752
O  O5  1  0.58165000  0.32448000  0.67401000  1.0 -0.5490335752
O  O6  1  0.32448000  0.67401000  0.58165000  1.0 -0.5490335752
O  O7  1  0.70498000  0.54546000  0.23268000  1.0 -0.4787010182
O  O8  1  0.54546000  0.23268000  0.70498000  1.0 -0.4787010182
O  O9  1  0.23268000  0.70498000  0.54546000  1.0 -0.4787010182
O  O10  1  0.73100000  0.50169000  0.28358000  1.0 -0.5490335752
O  O11  1  0.50169000  0.28358000  0.73100000  1.0 -0.5490335752
O  O12  1  0.28358000  0.73100000  0.50169000  1.0 -0.5490335752
O  O13  1  0.58956000  0.26386000  0.81304000  1.0 -0.5134224126
O  O14  1  0.26386000  0.81304000  0.58956000  1.0 -0.5134224126
O  O15  1  0.81304000  0.58956000  0.26386000  1.0 -0.5134224126
O  O16  1  0.57413000  0.33873000  0.82014000  1.0 -0.5368460744
O  O17  1  0.33873000  0.82014000  0.57413000  1.0 -0.5368460744
O  O18  1  0.82014000  0.57413000  0.33873000  1.0 -0.5368460744
O  O19  1  0.77029000  0.66379000  0.33869000  1.0 -0.5490335752
O  O20  1  0.66379000  0.33869000  0.77029000  1.0 -0.5490335752
O  O21  1  0.33869000  0.77029000  0.66379000  1.0 -0.5490335752
O  O22  1  0.72672000  0.64390000  0.26598000  1.0 -0.5160378843
O  O23  1  0.64390000  0.26598000  0.72672000  1.0 -0.5160378843
O  O24  1  0.26598000  0.72672000  0.64390000  1.0 -0.5160378843
O  O25  1  0.46790000  0.04090000  0.13720000  1.0 -0.4485867276
O  O26  1  0.04090000  0.13720000  0.46790000  1.0 -0.4485867276
O  O27  1  0.13720000  0.46790000  0.04090000  1.0 -0.4485867276
O  O28  1  0.45250000  0.08650000  0.19490000  1.0 -0.4255674709
O  O29  1  0.08650000  0.19490000  0.45250000  1.0 -0.4217136968
O  O30  1  0.19490000  0.45250000  0.08650000  1.0 -0.4217136968
O  O31  1  0.92750000  0.14730000  0.37150000  1.0 -0.4485867276
O  O32  1  0.14730000  0.37150000  0.92750000  1.0 -0.4485867276
O  O33  1  0.37150000  0.92750000  0.14730000  1.0 -0.4485867276
O  O34  1  0.95250000  0.10250000  0.42160000  1.0 -0.4662351935
O  O35  1  0.10250000  0.42160000  0.95250000  1.0 -0.4662351935
O  O36  1  0.42160000  0.95250000  0.10250000  1.0 -0.4662351935
O  O37  1  0.47560000  0.96690000  0.20430000  1.0 -0.4386198972
O  O38  1  0.96690000  0.20430000  0.47560000  1.0 -0.4386198972
O  O39  1  0.20430000  0.47560000  0.96690000  1.0 -0.4386198972
O  O40  1  0.48890000  0.01610000  0.27410000  1.0 -0.4386198972
O  O41  1  0.01610000  0.27410000  0.48890000  1.0 -0.4386198972
O  O42  1  0.27410000  0.48890000  0.01610000  1.0 -0.4386198972
O  O43  1  0.26404000  0.42868000  0.62274000  1.0 -0.5368460744
O  O44  1  0.42868000  0.62274000  0.26404000  1.0 -0.5368460744
O  O45  1  0.62274000  0.26404000  0.42868000  1.0 -0.5368460744
O  O46  1  0.32599000  0.41835000  0.67552000  1.0 -0.5490335752
O  O47  1  0.41835000  0.67552000  0.32599000  1.0 -0.5490335752
O  O48  1  0.67552000  0.32599000  0.41835000  1.0 -0.5490335752
O  O49  1  0.29502000  0.45454000  0.76732000  1.0 -0.4787010182
O  O50  1  0.45454000  0.76732000  0.29502000  1.0 -0.4787010182
O  O51  1  0.76732000  0.29502000  0.45454000  1.0 -0.4787010182
O  O52  1  0.26900000  0.49831000  0.71642000  1.0 -0.5490335752
O  O53  1  0.49831000  0.71642000  0.26900000  1.0 -0.5490335752
O  O54  1  0.71642000  0.26900000  0.49831000  1.0 -0.5490335752
O  O55  1  0.41044000  0.73614000  0.18696000  1.0 -0.5134224126
O  O56  1  0.73614000  0.18696000  0.41044000  1.0 -0.5134224126
O  O57  1  0.18696000  0.41044000  0.73614000  1.0 -0.5134224126
O  O58  1  0.42587000  0.66127000  0.17986000  1.0 -0.5368460744
O  O59  1  0.66127000  0.17986000  0.42587000  1.0 -0.5368460744
O  O60  1  0.17986000  0.42587000  0.66127000  1.0 -0.5368460744
O  O61  1  0.22971000  0.33621000  0.66131000  1.0 -0.5490335752
O  O62  1  0.33621000  0.66131000  0.22971000  1.0 -0.5490335752
O  O63  1  0.66131000  0.22971000  0.33621000  1.0 -0.5490335752
O  O64  1  0.27328000  0.35610000  0.73402000  1.0 -0.5160378843
O  O65  1  0.35610000  0.73402000  0.27328000  1.0 -0.5160378843
O  O66  1  0.73402000  0.27328000  0.35610000  1.0 -0.5160378843
O  O67  1  0.53210000  0.95910000  0.86280000  1.0 -0.4485867276
O  O68  1  0.95910000  0.86280000  0.53210000  1.0 -0.4485867276
O  O69  1  0.86280000  0.53210000  0.95910000  1.0 -0.4485867276
O  O70  1  0.54750000  0.91350000  0.80510000  1.0 -0.4217136968
O  O71  1  0.91350000  0.80510000  0.54750000  1.0 -0.4217136968
O  O72  1  0.80510000  0.54750000  0.91350000  1.0 -0.4217136968
O  O73  1  0.07250000  0.85270000  0.62850000  1.0 -0.4485867276
O  O74  1  0.85270000  0.62850000  0.07250000  1.0 -0.4485867276
O  O75  1  0.62850000  0.07250000  0.85270000  1.0 -0.4485867276
O  O76  1  0.04750000  0.89750000  0.57840000  1.0 -0.4662351935
O  O77  1  0.89750000  0.57840000  0.04750000  1.0 -0.4662351935
O  O78  1  0.57840000  0.04750000  0.89750000  1.0 -0.4662351935
O  O79  1  0.52440000  0.03310000  0.79570000  1.0 -0.4386198972
O  O80  1  0.03310000  0.79570000  0.52440000  1.0 -0.4386198972
O  O81  1  0.79570000  0.52440000  0.03310000  1.0 -0.4386198972
O  O82  1  0.51110000  0.98390000  0.72590000  1.0 -0.4386198972
O  O83  1  0.98390000  0.72590000  0.51110000  1.0 -0.4386198972
O  O84  1  0.72590000  0.51110000  0.98390000  1.0 -0.4386198972
