# DDEC6 charges by PACMAN v1.1 (https://github.com/mtap-research/PACMAN-charge/)
data_KUSZED_FSR_pacman
_symmetry_space_group_name_H-M   'P 1'
_cell_length_a   15.55430000
_cell_length_b   15.55430000
_cell_length_c   15.55430000
_cell_angle_alpha   99.64450000
_cell_angle_beta   99.64450000
_cell_angle_gamma   131.67700000
_symmetry_Int_Tables_number   1
_chemical_formula_structural   Cd5C12(N2O)4
_chemical_formula_sum   'Cd10 C24 N16 O8'
_cell_volume   2564.48436500
_cell_formula_units_Z   2
loop_
 _symmetry_equiv_pos_site_id
 _symmetry_equiv_pos_as_xyz
  1  'x, y, z'
loop_
 _atom_site_type_symbol
 _atom_site_label
 _atom_site_symmetry_multiplicity
 _atom_site_fract_x
 _atom_site_fract_y
 _atom_site_fract_z
 _atom_site_occupancy
 _atom_site_charge
Cd  Cd1  1  0.13551000  0.35071000  0.42288000  1.0 0.8188491442
Cd  Cd2  1  0.96263000  0.88551000  0.28480000  1.0 0.8188491442
Cd  Cd3  1  0.92783000  0.71263000  0.57712000  1.0 0.8188491442
Cd  Cd4  1  0.60071000  0.67783000  0.71520000  1.0 0.8188491442
Cd  Cd5  1  0.11449000  0.39929000  0.07712000  1.0 0.8301537355
Cd  Cd6  1  0.28737000  0.86449000  0.21520000  1.0 0.8188491442
Cd  Cd7  1  0.32217000  0.03737000  0.92288000  1.0 0.8188491442
Cd  Cd8  1  0.64929000  0.07217000  0.78480000  1.0 0.8188491442
Cd  Cd9  1  0.75000000  0.25000000  0.50000000  1.0 0.1426215267
Cd  Cd10  1  0.50000000  0.50000000  0.00000000  1.0 0.1495490206
C  C1  1  0.31530000  0.46740000  0.53630000  1.0 0.1495490206
C  C2  1  0.02900000  0.06530000  0.34790000  1.0 0.1495490206
C  C3  1  0.93110000  0.77900000  0.46370000  1.0 0.1495490206
C  C4  1  0.71740000  0.68110000  0.65210000  1.0 0.1495490206
C  C5  1  0.93470000  0.28260000  0.96370000  1.0 0.1426215267
C  C6  1  0.22100000  0.68470000  0.15210000  1.0 0.1495490206
C  C7  1  0.31890000  0.97100000  0.03630000  1.0 0.1495490206
C  C8  1  0.53260000  0.06890000  0.84790000  1.0 0.1495490206
C  C9  1  0.89700000  0.27530000  0.47110000  1.0 0.1608518681
C  C10  1  0.67590000  0.64700000  0.12170000  1.0 0.1608518681
C  C11  1  0.80420000  0.42590000  0.52890000  1.0 0.1608518681
C  C12  1  0.52530000  0.55420000  0.87830000  1.0 0.1608518681
C  C13  1  0.35300000  0.47470000  0.02890000  1.0 0.1608518681
C  C14  1  0.57410000  0.10300000  0.37830000  1.0 0.1608518681
C  C15  1  0.44580000  0.32410000  0.97110000  1.0 0.1664554348
C  C16  1  0.72470000  0.19580000  0.62170000  1.0 0.1608518681
C  C17  1  0.12670000  0.36850000  0.28560000  1.0 -0.2580278744
C  C18  1  0.09110000  0.87670000  0.25820000  1.0 -0.2508833239
C  C19  1  0.08290000  0.84110000  0.71440000  1.0 -0.2508833239
C  C20  1  0.61850000  0.83290000  0.74180000  1.0 -0.2580278744
C  C21  1  0.12330000  0.38150000  0.21440000  1.0 -0.2508833239
C  C22  1  0.15890000  0.87330000  0.24180000  1.0 -0.2580278744
C  C23  1  0.16710000  0.90890000  0.78560000  1.0 -0.2508833239
C  C24  1  0.63150000  0.91710000  0.75820000  1.0 -0.2508833239
N  N1  1  0.06410000  0.15970000  0.37780000  1.0 -0.4125564674
N  N2  1  0.93630000  0.81410000  0.40440000  1.0 -0.4167901406
N  N3  1  0.78190000  0.68630000  0.62220000  1.0 -0.4125564674
N  N4  1  0.40970000  0.53190000  0.59560000  1.0 -0.4125564674
N  N5  1  0.18590000  0.59030000  0.12220000  1.0 -0.4125564674
N  N6  1  0.31370000  0.93590000  0.09560000  1.0 -0.4167901406
N  N7  1  0.46810000  0.06370000  0.87780000  1.0 -0.4125564674
N  N8  1  0.84030000  0.21810000  0.90440000  1.0 -0.4125564674
N  N9  1  0.97530000  0.29390000  0.45600000  1.0 -0.3996297808
N  N10  1  0.76930000  0.72530000  0.18140000  1.0 -0.3996297808
N  N11  1  0.83790000  0.51930000  0.54400000  1.0 -0.3996297808
N  N12  1  0.54390000  0.58790000  0.81860000  1.0 -0.3996297808
N  N13  1  0.27470000  0.45610000  0.04400000  1.0 -0.3996297808
N  N14  1  0.48070000  0.02470000  0.31860000  1.0 -0.3996297808
N  N15  1  0.41210000  0.23070000  0.95600000  1.0 -0.3996297808
N  N16  1  0.70610000  0.16210000  0.68140000  1.0 -0.3996297808
O  O1  1  0.19137000  0.55912000  0.46309000  1.0 -0.1004876325
O  O2  1  0.97828000  0.94137000  0.13225000  1.0 -0.1092774661
O  O3  1  0.09603000  0.72828000  0.53691000  1.0 -0.1004876325
O  O4  1  0.80912000  0.84603000  0.86775000  1.0 -0.1092774661
O  O5  1  0.05863000  0.19088000  0.03691000  1.0 -0.0807008052
O  O6  1  0.27172000  0.80863000  0.36775000  1.0 -0.1004876325
O  O7  1  0.15397000  0.02172000  0.96309000  1.0 -0.1004876325
O  O8  1  0.44088000  0.90397000  0.63225000  1.0 -0.1004876325
