# DDEC6 charges by PACMAN v1.1 (https://github.com/mtap-research/PACMAN-charge/)
data_KUTBAE_ASR_pacman
_symmetry_space_group_name_H-M   'P 1'
_cell_length_a   12.91970000
_cell_length_b   12.91970000
_cell_length_c   9.84910000
_cell_angle_alpha   90.00000000
_cell_angle_beta   90.00000000
_cell_angle_gamma   90.00000000
_symmetry_Int_Tables_number   1
_chemical_formula_structural   Co4P6O24F
_chemical_formula_sum   'Co8 P12 O48 F2'
_cell_volume   1643.99845690
_cell_formula_units_Z   2
loop_
 _symmetry_equiv_pos_site_id
 _symmetry_equiv_pos_as_xyz
  1  'x, y, z'
loop_
 _atom_site_type_symbol
 _atom_site_label
 _atom_site_symmetry_multiplicity
 _atom_site_fract_x
 _atom_site_fract_y
 _atom_site_fract_z
 _atom_site_occupancy
 _atom_site_charge
Co  Co1  1  0.86355000  0.94544000  0.63142000  1.0 1.2504298806
Co  Co2  1  0.13645000  0.05456000  0.63142000  1.0 1.2504298806
Co  Co3  1  0.94544000  0.13645000  0.36858000  1.0 1.2504298806
Co  Co4  1  0.05456000  0.86355000  0.36858000  1.0 1.2504298806
Co  Co5  1  0.36355000  0.55456000  0.13142000  1.0 1.2504298806
Co  Co6  1  0.63645000  0.44544000  0.13142000  1.0 1.2504298806
Co  Co7  1  0.44544000  0.36355000  0.86858000  1.0 1.2504298806
Co  Co8  1  0.55456000  0.63645000  0.86858000  1.0 1.2504298806
P  P1  1  0.63704000  0.86296000  0.75000000  1.0 1.2793129355
P  P2  1  0.36296000  0.13704000  0.75000000  1.0 1.2793129355
P  P3  1  0.86296000  0.36296000  0.25000000  1.0 1.2793129355
P  P4  1  0.13704000  0.63704000  0.25000000  1.0 1.2793129355
P  P5  1  0.82337000  0.92755000  0.31557000  1.0 1.3685342469
P  P6  1  0.17663000  0.07245000  0.31557000  1.0 1.3685342469
P  P7  1  0.92755000  0.17663000  0.68443000  1.0 1.3648242325
P  P8  1  0.07245000  0.82337000  0.68443000  1.0 1.3685342469
P  P9  1  0.32337000  0.57245000  0.81557000  1.0 1.3685342469
P  P10  1  0.67663000  0.42755000  0.81557000  1.0 1.3685342469
P  P11  1  0.42755000  0.32337000  0.18443000  1.0 1.3685342469
P  P12  1  0.57245000  0.67663000  0.18443000  1.0 1.3685342469
O  O1  1  0.58333000  0.91802000  0.87319000  1.0 -0.3790027194
O  O2  1  0.41667000  0.08198000  0.87319000  1.0 -0.3790027194
O  O3  1  0.91802000  0.41667000  0.12681000  1.0 -0.3790027194
O  O4  1  0.08198000  0.58333000  0.12681000  1.0 -0.3790027194
O  O5  1  0.08333000  0.58198000  0.37319000  1.0 -0.3790027194
O  O6  1  0.91667000  0.41802000  0.37319000  1.0 -0.3790027194
O  O7  1  0.41802000  0.08333000  0.62681000  1.0 -0.3790027194
O  O8  1  0.58198000  0.91667000  0.62681000  1.0 -0.3790027194
O  O9  1  0.78814000  0.91351000  0.46208000  1.0 -0.6499321342
O  O10  1  0.21186000  0.08649000  0.46208000  1.0 -0.6499321342
O  O11  1  0.91351000  0.21186000  0.53792000  1.0 -0.6499321342
O  O12  1  0.08649000  0.78814000  0.53792000  1.0 -0.6499321342
O  O13  1  0.28814000  0.58649000  0.96208000  1.0 -0.6499321342
O  O14  1  0.71186000  0.41351000  0.96208000  1.0 -0.6499321342
O  O15  1  0.41351000  0.28814000  0.03792000  1.0 -0.6499321342
O  O16  1  0.58649000  0.71186000  0.03792000  1.0 -0.6499321342
O  O17  1  0.95900000  0.84451000  0.71506000  1.0 -0.6194195777
O  O18  1  0.04100000  0.15549000  0.71506000  1.0 -0.6194195777
O  O19  1  0.84451000  0.04100000  0.28494000  1.0 -0.6194195777
O  O20  1  0.15549000  0.95900000  0.28494000  1.0 -0.6194195777
O  O21  1  0.45900000  0.65549000  0.21506000  1.0 -0.6194195777
O  O22  1  0.54100000  0.34451000  0.21506000  1.0 -0.6194195777
O  O23  1  0.34451000  0.45900000  0.78494000  1.0 -0.6194195777
O  O24  1  0.65549000  0.54100000  0.78494000  1.0 -0.6194195777
O  O25  1  0.86087000  0.08214000  0.71498000  1.0 -0.6082537129
O  O26  1  0.13913000  0.91786000  0.71498000  1.0 -0.6082537129
O  O27  1  0.08214000  0.13913000  0.28502000  1.0 -0.6082537129
O  O28  1  0.91786000  0.86087000  0.28502000  1.0 -0.6082537129
O  O29  1  0.36087000  0.41786000  0.21498000  1.0 -0.6082537129
O  O30  1  0.63913000  0.58214000  0.21498000  1.0 -0.6082537129
O  O31  1  0.58214000  0.36087000  0.78502000  1.0 -0.6082537129
O  O32  1  0.41786000  0.63913000  0.78502000  1.0 -0.6082537129
O  O33  1  0.74488000  0.88929000  0.75212000  1.0 -0.5367688417
O  O34  1  0.25512000  0.11071000  0.75212000  1.0 -0.5367688417
O  O35  1  0.88929000  0.25512000  0.24788000  1.0 -0.5367688417
O  O36  1  0.11071000  0.74488000  0.24788000  1.0 -0.5367688417
O  O37  1  0.24488000  0.61071000  0.25212000  1.0 -0.5367688417
O  O38  1  0.75512000  0.38929000  0.25212000  1.0 -0.5367688417
O  O39  1  0.38929000  0.24488000  0.74788000  1.0 -0.5367688417
O  O40  1  0.61071000  0.75512000  0.74788000  1.0 -0.5367688417
O  O41  1  0.73482000  0.89498000  0.22004000  1.0 -0.3444065034
O  O42  1  0.26518000  0.10502000  0.22004000  1.0 -0.3468383879
O  O43  1  0.89498000  0.26518000  0.77996000  1.0 -0.3444065034
O  O44  1  0.10502000  0.73482000  0.77996000  1.0 -0.3468383879
O  O45  1  0.23482000  0.60502000  0.72004000  1.0 -0.3468383879
O  O46  1  0.76518000  0.39498000  0.72004000  1.0 -0.3444065034
O  O47  1  0.39498000  0.23482000  0.27996000  1.0 -0.3468383879
O  O48  1  0.60502000  0.76518000  0.27996000  1.0 -0.3444065034
F  F1  1  0.00000000  0.00000000  0.50000000  1.0 -0.4766296476
F  F2  1  0.50000000  0.50000000  0.00000000  1.0 -0.4766296476
