# DDEC6 charges by PACMAN v1.1 (https://github.com/mtap-research/PACMAN-charge/)
data_KUTCUZ_FSR_pacman
_symmetry_space_group_name_H-M   'P 1'
_cell_length_a   21.69020000
_cell_length_b   21.69020000
_cell_length_c   30.64500000
_cell_angle_alpha   86.03560000
_cell_angle_beta   93.96440000
_cell_angle_gamma   38.85810000
_symmetry_Int_Tables_number   1
_chemical_formula_structural   Cd2Ni2H81C66(N3O7)2
_chemical_formula_sum   'Cd8 Ni8 H324 C264 N24 O56'
_cell_volume   8847.85194442
_cell_formula_units_Z   4
loop_
 _symmetry_equiv_pos_site_id
 _symmetry_equiv_pos_as_xyz
  1  'x, y, z'
loop_
 _atom_site_type_symbol
 _atom_site_label
 _atom_site_symmetry_multiplicity
 _atom_site_fract_x
 _atom_site_fract_y
 _atom_site_fract_z
 _atom_site_occupancy
 _atom_site_charge
Cd  Cd1  1  0.95278000  0.95278000  0.00000000  1.0 1.0961609893
Cd  Cd2  1  0.73231000  0.22191000  0.99494000  1.0 0.9866748266
Cd  Cd3  1  0.22191000  0.73231000  0.00506000  1.0 0.9866748266
Cd  Cd4  1  0.66101000  0.66101000  0.50000000  1.0 1.063157063
Cd  Cd5  1  0.74652000  0.74652000  0.50000000  1.0 1.1358147673
Cd  Cd6  1  0.47665000  0.96543000  0.49348000  1.0 0.9687992744
Cd  Cd7  1  0.96543000  0.47665000  0.50652000  1.0 0.9687992744
Cd  Cd8  1  0.03802000  0.03802000  0.00000000  1.0 1.054272633
Ni  Ni1  1  0.79066000  0.99686000  0.72115000  1.0 0.4616784565
Ni  Ni2  1  0.99686000  0.79066000  0.27885000  1.0 0.4616784565
Ni  Ni3  1  0.81956000  0.47276000  0.77323000  1.0 0.4876451902
Ni  Ni4  1  0.47276000  0.81956000  0.22677000  1.0 0.4876451902
Ni  Ni5  1  0.69957000  0.90817000  0.22137000  1.0 0.4660958958
Ni  Ni6  1  0.90817000  0.69957000  0.77863000  1.0 0.4616784565
Ni  Ni7  1  0.22464000  0.88044000  0.27112000  1.0 0.4660958958
Ni  Ni8  1  0.88044000  0.22464000  0.72888000  1.0 0.4660958958
H  H1  1  0.52110000  0.11610000  0.55610000  1.0 0.120434162
H  H2  1  0.11610000  0.52110000  0.44390000  1.0 0.120434162
H  H3  1  0.80360000  0.83460000  0.60170000  1.0 0.120434162
H  H4  1  0.83460000  0.80360000  0.39830000  1.0 0.120434162
H  H5  1  0.58650000  0.23250000  0.63350000  1.0 0.1298117059
H  H6  1  0.23250000  0.58650000  0.36650000  1.0 0.1298117059
H  H7  1  0.57540000  0.24760000  0.58150000  1.0 0.120434162
H  H8  1  0.24760000  0.57540000  0.41850000  1.0 0.120434162
H  H9  1  0.48330000  0.33310000  0.60320000  1.0 0.1104492215
H  H10  1  0.33310000  0.48330000  0.39680000  1.0 0.1104492215
H  H11  1  0.50550000  0.21590000  0.67050000  1.0 0.1298117059
H  H12  1  0.21590000  0.50550000  0.32950000  1.0 0.1298117059
H  H13  1  0.41400000  0.32420000  0.64140000  1.0 0.1298117059
H  H14  1  0.32420000  0.41400000  0.35860000  1.0 0.1298117059
H  H15  1  0.41767000  0.24907000  0.64200000  1.0 0.120434162
H  H16  1  0.24907000  0.41767000  0.35800000  1.0 0.120434162
H  H17  1  0.48050000  0.25130000  0.53350000  1.0 0.120434162
H  H18  1  0.25130000  0.48050000  0.46650000  1.0 0.120434162
H  H19  1  0.39770000  0.27830000  0.55240000  1.0 0.1298117059
H  H20  1  0.27830000  0.39770000  0.44760000  1.0 0.1298117059
H  H21  1  0.40090000  0.34790000  0.55390000  1.0 0.1298117059
H  H22  1  0.34790000  0.40090000  0.44610000  1.0 0.1298117059
H  H23  1  0.90990000  0.79270000  0.66280000  1.0 0.1104492215
H  H24  1  0.79270000  0.90990000  0.33720000  1.0 0.1104492215
H  H25  1  0.04160000  0.67020000  0.71310000  1.0 0.120434162
H  H26  1  0.67020000  0.04160000  0.28690000  1.0 0.120434162
H  H27  1  0.06420000  0.71340000  0.68630000  1.0 0.120434162
H  H28  1  0.71340000  0.06420000  0.31370000  1.0 0.120434162
H  H29  1  0.21490000  0.57910000  0.73150000  1.0 0.1003453738
H  H30  1  0.57910000  0.21490000  0.26850000  1.0 0.1003453738
H  H31  1  0.16840000  0.58560000  0.77090000  1.0 0.120434162
H  H32  1  0.58560000  0.16840000  0.22910000  1.0 0.120434162
H  H33  1  0.23370000  0.62610000  0.79370000  1.0 0.1003453738
H  H34  1  0.62610000  0.23370000  0.20630000  1.0 0.1003453738
H  H35  1  0.18490000  0.69970000  0.74850000  1.0 0.0922068544
H  H36  1  0.69970000  0.18490000  0.25150000  1.0 0.0922068544
H  H37  1  0.09940000  0.79380000  0.80310000  1.0 0.1104492215
H  H38  1  0.79380000  0.09940000  0.19690000  1.0 0.1104492215
H  H39  1  0.07730000  0.74130000  0.81490000  1.0 0.120434162
H  H40  1  0.74130000  0.07730000  0.18510000  1.0 0.120434162
H  H41  1  0.01130000  0.85710000  0.73260000  1.0 0.1104492215
H  H42  1  0.85710000  0.01130000  0.26740000  1.0 0.1104492215
H  H43  1  0.95000000  0.91900000  0.82620000  1.0 0.120434162
H  H44  1  0.91900000  0.95000000  0.17380000  1.0 0.1104492215
H  H45  1  0.59140000  0.28680000  0.84980000  1.0 0.1104492215
H  H46  1  0.28680000  0.59140000  0.15020000  1.0 0.1104492215
H  H47  1  0.87550000  0.00170000  0.87900000  1.0 0.120434162
H  H48  1  0.00170000  0.87550000  0.12100000  1.0 0.120434162
H  H49  1  0.58780000  0.26280000  0.70890000  1.0 0.1387422156
H  H50  1  0.26280000  0.58780000  0.29110000  1.0 0.1493739478
H  H51  1  0.47500000  0.37100000  0.70180000  1.0 0.1387422156
H  H52  1  0.37100000  0.47500000  0.29820000  1.0 0.1387422156
H  H53  1  0.55870000  0.34770000  0.72660000  1.0 0.120434162
H  H54  1  0.34770000  0.55870000  0.27340000  1.0 0.120434162
H  H55  1  0.38850000  0.43590000  0.76960000  1.0 0.1298117059
H  H56  1  0.43590000  0.38850000  0.23040000  1.0 0.1298117059
H  H57  1  0.45090000  0.36550000  0.81670000  1.0 0.1298117059
H  H58  1  0.36550000  0.45090000  0.18330000  1.0 0.1298117059
H  H59  1  0.47300000  0.41220000  0.79360000  1.0 0.120434162
H  H60  1  0.41220000  0.47300000  0.20640000  1.0 0.120434162
H  H61  1  0.53010000  0.20650000  0.74400000  1.0 0.1387422156
H  H62  1  0.20650000  0.53010000  0.25600000  1.0 0.1387422156
H  H63  1  0.47770000  0.25030000  0.78510000  1.0 0.1298117059
H  H64  1  0.25030000  0.47770000  0.21490000  1.0 0.1298117059
H  H65  1  0.42210000  0.31930000  0.73760000  1.0 0.1298117059
H  H66  1  0.31930000  0.42210000  0.26240000  1.0 0.1298117059
H  H67  1  0.92720000  0.22180000  0.89670000  1.0 0.120434162
H  H68  1  0.22180000  0.92720000  0.10330000  1.0 0.120434162
H  H69  1  0.67940000  0.47240000  0.93560000  1.0 0.120434162
H  H70  1  0.47240000  0.67940000  0.06440000  1.0 0.120434162
H  H71  1  0.58170000  0.64810000  0.81870000  1.0 0.1387422156
H  H72  1  0.64810000  0.58170000  0.18130000  1.0 0.1387422156
H  H73  1  0.52050000  0.65090000  0.84520000  1.0 0.1298117059
H  H74  1  0.65090000  0.52050000  0.15480000  1.0 0.1298117059
H  H75  1  0.49930000  0.73870000  0.84190000  1.0 0.1298117059
H  H76  1  0.73870000  0.49930000  0.15810000  1.0 0.1298117059
H  H77  1  0.71280000  0.62120000  0.87060000  1.0 0.1298117059
H  H78  1  0.62120000  0.71280000  0.12940000  1.0 0.1298117059
H  H79  1  0.63080000  0.70400000  0.89680000  1.0 0.1298117059
H  H80  1  0.70400000  0.63080000  0.10320000  1.0 0.1298117059
H  H81  1  0.72900000  0.59320000  0.92230000  1.0 0.120434162
H  H82  1  0.59320000  0.72900000  0.07770000  1.0 0.120434162
H  H83  1  0.52260000  0.71540000  0.92450000  1.0 0.120434162
H  H84  1  0.71540000  0.52260000  0.07550000  1.0 0.1298117059
H  H85  1  0.53920000  0.63120000  0.92320000  1.0 0.120434162
H  H86  1  0.63120000  0.53920000  0.07680000  1.0 0.120434162
H  H87  1  0.61820000  0.60840000  0.95390000  1.0 0.120434162
H  H88  1  0.60840000  0.61820000  0.04610000  1.0 0.120434162
H  H89  1  0.98320000  0.23040000  0.84100000  1.0 0.120434162
H  H90  1  0.23040000  0.98320000  0.15900000  1.0 0.120434162
H  H91  1  0.04630000  0.30210000  0.78680000  1.0 0.1003453738
H  H92  1  0.30210000  0.04630000  0.21320000  1.0 0.1003453738
H  H93  1  0.09220000  0.13720000  0.78750000  1.0 0.120434162
H  H94  1  0.13720000  0.09220000  0.21250000  1.0 0.120434162
H  H95  1  0.13870000  0.14430000  0.82570000  1.0 0.1104492215
H  H96  1  0.14430000  0.13870000  0.17430000  1.0 0.1104492215
H  H97  1  0.20120000  0.16120000  0.77500000  1.0 0.0922068544
H  H98  1  0.16120000  0.20120000  0.22500000  1.0 0.0922068544
H  H99  1  0.24260000  0.06240000  0.77230000  1.0 0.1104492215
H  H100  1  0.06240000  0.24260000  0.22770000  1.0 0.1104492215
H  H101  1  0.12830000  0.14190000  0.70430000  1.0 0.1104492215
H  H102  1  0.14190000  0.12830000  0.29570000  1.0 0.1104492215
H  H103  1  0.19860000  0.14400000  0.70040000  1.0 0.0922068544
H  H104  1  0.14400000  0.19860000  0.29960000  1.0 0.0922068544
H  H105  1  0.07410000  0.30930000  0.71090000  1.0 0.120434162
H  H106  1  0.30930000  0.07410000  0.28910000  1.0 0.120434162
H  H107  1  0.02630000  0.30590000  0.67210000  1.0 0.120434162
H  H108  1  0.30590000  0.02630000  0.32790000  1.0 0.120434162
H  H109  1  0.95430000  0.29770000  0.72160000  1.0 0.1003453738
H  H110  1  0.29770000  0.95430000  0.27840000  1.0 0.1003453738
H  H111  1  0.89200000  0.45700000  0.66620000  1.0 0.1104492215
H  H112  1  0.45700000  0.89200000  0.33380000  1.0 0.1104492215
H  H113  1  0.51630000  0.86830000  0.64060000  1.0 0.1104492215
H  H114  1  0.86830000  0.51630000  0.35940000  1.0 0.1104492215
H  H115  1  0.77190000  0.60570000  0.61180000  1.0 0.1298117059
H  H116  1  0.60570000  0.77190000  0.38820000  1.0 0.1298117059
H  H117  1  0.53850000  0.71370000  0.74870000  1.0 0.1387422156
H  H118  1  0.71370000  0.53850000  0.25130000  1.0 0.1387422156
H  H119  1  0.43830000  0.82250000  0.75480000  1.0 0.1387422156
H  H120  1  0.82250000  0.43830000  0.24520000  1.0 0.1387422156
H  H121  1  0.44880000  0.79360000  0.70790000  1.0 0.1298117059
H  H122  1  0.79360000  0.44880000  0.29210000  1.0 0.1298117059
H  H123  1  0.63290000  0.73110000  0.78150000  1.0 0.1493739478
H  H124  1  0.73110000  0.63290000  0.21850000  1.0 0.1493739478
H  H125  1  0.60590000  0.81910000  0.76000000  1.0 0.120434162
H  H126  1  0.81910000  0.60590000  0.24000000  1.0 0.120434162
H  H127  1  0.53270000  0.84110000  0.78650000  1.0 0.1298117059
H  H128  1  0.84110000  0.53270000  0.21350000  1.0 0.1298117059
H  H129  1  0.39140000  0.96780000  0.72260000  1.0 0.1387422156
H  H130  1  0.96780000  0.39140000  0.27740000  1.0 0.1387422156
H  H131  1  0.46290000  0.94950000  0.69640000  1.0 0.120434162
H  H132  1  0.94950000  0.46290000  0.30360000  1.0 0.120434162
H  H133  1  0.40080000  0.94300000  0.67480000  1.0 0.1298117059
H  H134  1  0.94300000  0.40080000  0.32520000  1.0 0.1298117059
H  H135  1  0.40320000  0.11460000  0.34700000  1.0 0.1104492215
H  H136  1  0.11460000  0.40320000  0.65300000  1.0 0.1104492215
H  H137  1  0.68410000  0.82650000  0.37720000  1.0 0.1298117059
H  H138  1  0.82650000  0.68410000  0.62280000  1.0 0.1298117059
H  H139  1  0.29710000  0.25290000  0.31020000  1.0 0.120434162
H  H140  1  0.25290000  0.29710000  0.68980000  1.0 0.120434162
H  H141  1  0.23860000  0.30380000  0.26070000  1.0 0.120434162
H  H142  1  0.30380000  0.23860000  0.73930000  1.0 0.120434162
H  H143  1  0.26990000  0.21430000  0.28480000  1.0 0.120434162
H  H144  1  0.21430000  0.26990000  0.71520000  1.0 0.120434162
H  H145  1  0.42200000  0.22960000  0.28360000  1.0 0.1298117059
H  H146  1  0.22960000  0.42200000  0.71640000  1.0 0.1298117059
H  H147  1  0.46350000  0.18150000  0.24140000  1.0 0.1387422156
H  H148  1  0.18150000  0.46350000  0.75860000  1.0 0.1387422156
H  H149  1  0.34920000  0.28540000  0.23720000  1.0 0.1298117059
H  H150  1  0.28540000  0.34920000  0.76280000  1.0 0.1298117059
H  H151  1  0.08890000  0.53750000  0.29350000  1.0 0.1104492215
H  H152  1  0.53750000  0.08890000  0.70650000  1.0 0.1104492215
H  H153  1  0.08610000  0.46750000  0.29860000  1.0 0.1003453738
H  H154  1  0.46750000  0.08610000  0.70140000  1.0 0.1003453738
H  H155  1  0.42630000  0.11330000  0.20660000  1.0 0.1493739478
H  H156  1  0.11330000  0.42630000  0.79340000  1.0 0.1493739478
H  H157  1  0.34850000  0.12890000  0.22260000  1.0 0.120434162
H  H158  1  0.12890000  0.34850000  0.77740000  1.0 0.120434162
H  H159  1  0.31350000  0.22150000  0.19980000  1.0 0.1298117059
H  H160  1  0.22150000  0.31350000  0.80020000  1.0 0.1298117059
H  H161  1  0.79700000  0.74640000  0.32390000  1.0 0.1104492215
H  H162  1  0.74640000  0.79700000  0.67610000  1.0 0.1104492215
H  H163  1  0.92000000  0.72620000  0.27440000  1.0 0.1003453738
H  H164  1  0.72620000  0.92000000  0.72560000  1.0 0.1003453738
H  H165  1  0.95610000  0.61810000  0.32770000  1.0 0.120434162
H  H166  1  0.61810000  0.95610000  0.67230000  1.0 0.120434162
H  H167  1  0.91440000  0.60180000  0.29320000  1.0 0.120434162
H  H168  1  0.60180000  0.91440000  0.70680000  1.0 0.120434162
H  H169  1  0.01980000  0.51380000  0.22320000  1.0 0.1104492215
H  H170  1  0.51380000  0.01980000  0.77680000  1.0 0.1104492215
H  H171  1  0.11420000  0.48260000  0.22690000  1.0 0.1104492215
H  H172  1  0.48260000  0.11420000  0.77310000  1.0 0.1104492215
H  H173  1  0.01730000  0.64430000  0.21320000  1.0 0.1298117059
H  H174  1  0.64430000  0.01730000  0.78680000  1.0 0.1298117059
H  H175  1  0.97940000  0.62960000  0.17540000  1.0 0.120434162
H  H176  1  0.62960000  0.97940000  0.82460000  1.0 0.120434162
H  H177  1  0.85180000  0.69680000  0.20940000  1.0 0.1104492215
H  H178  1  0.69680000  0.85180000  0.79060000  1.0 0.1104492215
H  H179  1  0.88270000  0.78810000  0.15430000  1.0 0.1104492215
H  H180  1  0.78810000  0.88270000  0.84570000  1.0 0.1104492215
H  H181  1  0.58100000  0.17620000  0.05390000  1.0 0.1104492215
H  H182  1  0.17620000  0.58100000  0.94610000  1.0 0.1104492215
H  H183  1  0.86180000  0.90100000  0.10910000  1.0 0.120434162
H  H184  1  0.90100000  0.86180000  0.89090000  1.0 0.120434162
H  H185  1  0.38310000  0.18090000  0.09690000  1.0 0.1298117059
H  H186  1  0.18090000  0.38310000  0.90310000  1.0 0.1298117059
H  H187  1  0.47210000  0.10650000  0.07160000  1.0 0.1104492215
H  H188  1  0.10650000  0.47210000  0.92840000  1.0 0.1104492215
H  H189  1  0.49200000  0.08160000  0.12380000  1.0 0.1298117059
H  H190  1  0.08160000  0.49200000  0.87620000  1.0 0.1298117059
H  H191  1  0.37292000  0.29372000  0.13970000  1.0 0.1298117059
H  H192  1  0.29372000  0.37292000  0.86030000  1.0 0.1298117059
H  H193  1  0.47990000  0.19490000  0.16820000  1.0 0.1387422156
H  H194  1  0.19490000  0.47990000  0.83180000  1.0 0.1387422156
H  H195  1  0.45990000  0.27310000  0.13910000  1.0 0.1104492215
H  H196  1  0.27310000  0.45990000  0.86090000  1.0 0.1104492215
H  H197  1  0.34630000  0.33630000  0.06470000  1.0 0.1298117059
H  H198  1  0.33630000  0.34630000  0.93530000  1.0 0.1298117059
H  H199  1  0.43940000  0.30660000  0.07570000  1.0 0.1003453738
H  H200  1  0.30660000  0.43940000  0.92430000  1.0 0.1003453738
H  H201  1  0.43300000  0.26600000  0.03780000  1.0 0.120434162
H  H202  1  0.26600000  0.43300000  0.96220000  1.0 0.120434162
H  H203  1  0.09540000  0.92360000  0.11320000  1.0 0.1298117059
H  H204  1  0.92360000  0.09540000  0.88680000  1.0 0.1298117059
H  H205  1  0.83460000  0.19460000  0.13360000  1.0 0.1104492215
H  H206  1  0.19460000  0.83460000  0.86640000  1.0 0.1104492215
H  H207  1  0.73520000  0.32880000  0.21450000  1.0 0.1298117059
H  H208  1  0.32880000  0.73520000  0.78550000  1.0 0.1298117059
H  H209  1  0.76280000  0.31000000  0.16710000  1.0 0.1298117059
H  H210  1  0.31000000  0.76280000  0.83290000  1.0 0.1298117059
H  H211  1  0.74520000  0.25980000  0.19120000  1.0 0.120434162
H  H212  1  0.25980000  0.74520000  0.80880000  1.0 0.120434162
H  H213  1  0.88470000  0.27330000  0.24150000  1.0 0.1298117059
H  H214  1  0.27330000  0.88470000  0.75850000  1.0 0.1298117059
H  H215  1  0.99220000  0.16560000  0.23930000  1.0 0.1387422156
H  H216  1  0.16560000  0.99220000  0.76070000  1.0 0.1387422156
H  H217  1  0.91920000  0.24780000  0.19560000  1.0 0.1298117059
H  H218  1  0.24780000  0.91920000  0.80440000  1.0 0.1298117059
H  H219  1  0.84690000  0.19930000  0.27890000  1.0 0.1298117059
H  H220  1  0.19930000  0.84690000  0.72110000  1.0 0.1298117059
H  H221  1  0.86100000  0.12760000  0.25570000  1.0 0.120434162
H  H222  1  0.12760000  0.86100000  0.74430000  1.0 0.120434162
H  H223  1  0.95490000  0.09150000  0.27730000  1.0 0.1493739478
H  H224  1  0.09150000  0.95490000  0.72270000  1.0 0.1493739478
H  H225  1  0.23290000  0.80630000  0.16660000  1.0 0.1104492215
H  H226  1  0.80630000  0.23290000  0.83340000  1.0 0.1104492215
H  H227  1  0.36610000  0.64390000  0.18990000  1.0 0.1298117059
H  H228  1  0.64390000  0.36610000  0.81010000  1.0 0.1298117059
H  H229  1  0.41250000  0.67290000  0.18010000  1.0 0.1387422156
H  H230  1  0.67290000  0.41250000  0.81990000  1.0 0.1387422156
H  H231  1  0.64310000  0.46410000  0.26760000  1.0 0.120434162
H  H232  1  0.46410000  0.64310000  0.73240000  1.0 0.120434162
H  H233  1  0.59220000  0.55700000  0.23310000  1.0 0.1298117059
H  H234  1  0.55700000  0.59220000  0.76690000  1.0 0.1298117059
H  H235  1  0.56060000  0.60100000  0.30560000  1.0 0.1104492215
H  H236  1  0.60100000  0.56060000  0.69440000  1.0 0.1104492215
H  H237  1  0.51210000  0.57350000  0.30940000  1.0 0.1104492215
H  H238  1  0.57350000  0.51210000  0.69060000  1.0 0.1104492215
H  H239  1  0.46860000  0.70100000  0.34050000  1.0 0.1104492215
H  H240  1  0.70100000  0.46860000  0.65950000  1.0 0.1104492215
H  H241  1  0.36000000  0.67180000  0.26120000  1.0 0.1003453738
H  H242  1  0.67180000  0.36000000  0.73880000  1.0 0.1003453738
H  H243  1  0.53540000  0.47940000  0.22510000  1.0 0.0922068544
H  H244  1  0.47940000  0.53540000  0.77490000  1.0 0.0922068544
H  H245  1  0.42890000  0.73670000  0.24700000  1.0 0.1104492215
H  H246  1  0.73670000  0.42890000  0.75300000  1.0 0.1104492215
H  H247  1  0.23330000  0.00790000  0.44270000  1.0 0.1104492215
H  H248  1  0.00790000  0.23330000  0.55730000  1.0 0.1104492215
H  H249  1  0.47720000  0.77520000  0.39470000  1.0 0.120434162
H  H250  1  0.77520000  0.47720000  0.60530000  1.0 0.120434162
H  H251  1  0.02620000  0.13040000  0.32410000  1.0 0.1387422156
H  H252  1  0.13040000  0.02620000  0.67590000  1.0 0.1387422156
H  H253  1  0.95190000  0.19510000  0.35660000  1.0 0.120434162
H  H254  1  0.19510000  0.95190000  0.64340000  1.0 0.120434162
H  H255  1  0.03390000  0.18110000  0.35360000  1.0 0.120434162
H  H256  1  0.18110000  0.03390000  0.64640000  1.0 0.120434162
H  H257  1  0.00340000  0.13280000  0.43690000  1.0 0.1298117059
H  H258  1  0.13280000  0.00340000  0.56310000  1.0 0.1298117059
H  H259  1  0.11590000  0.03090000  0.45890000  1.0 0.1298117059
H  H260  1  0.03090000  0.11590000  0.54110000  1.0 0.1298117059
H  H261  1  0.08300000  0.12320000  0.43850000  1.0 0.120434162
H  H262  1  0.12320000  0.08300000  0.56150000  1.0 0.120434162
H  H263  1  0.07620000  0.98980000  0.35560000  1.0 0.1298117059
H  H264  1  0.98980000  0.07620000  0.64440000  1.0 0.1298117059
H  H265  1  0.09570000  0.96010000  0.40740000  1.0 0.120434162
H  H266  1  0.96010000  0.09570000  0.59260000  1.0 0.120434162
H  H267  1  0.98970000  0.06610000  0.38170000  1.0 0.120434162
H  H268  1  0.06610000  0.98970000  0.61830000  1.0 0.120434162
H  H269  1  0.20830000  0.01210000  0.00200000  1.0 0.1003453738
H  H270  1  0.01210000  0.20830000  0.99800000  1.0 0.1003453738
H  H271  1  0.33410000  0.88330000  0.89860000  1.0 0.1387422156
H  H272  1  0.88330000  0.33410000  0.10140000  1.0 0.1387422156
H  H273  1  0.26650000  0.88310000  0.91340000  1.0 0.1493739478
H  H274  1  0.88310000  0.26650000  0.08660000  1.0 0.1493739478
H  H275  1  0.21770000  0.98390000  0.89110000  1.0 0.1387422156
H  H276  1  0.98390000  0.21770000  0.10890000  1.0 0.1387422156
H  H277  1  0.42250000  0.85770000  0.95380000  1.0 0.1387422156
H  H278  1  0.85770000  0.42250000  0.04620000  1.0 0.1387422156
H  H279  1  0.36430000  0.94070000  0.98280000  1.0 0.1387422156
H  H280  1  0.94070000  0.36430000  0.01720000  1.0 0.1387422156
H  H281  1  0.40590000  0.84170000  0.00010000  1.0 0.1387422156
H  H282  1  0.84170000  0.40590000  0.99990000  1.0 0.1387422156
H  H283  1  0.54910000  0.32890000  0.04840000  1.0 0.1003453738
H  H284  1  0.32890000  0.54910000  0.95160000  1.0 0.1003453738
H  H285  1  0.54360000  0.50940000  0.05390000  1.0 0.1387422156
H  H286  1  0.50940000  0.54360000  0.94610000  1.0 0.1387422156
H  H287  1  0.44630000  0.57450000  0.07340000  1.0 0.1493739478
H  H288  1  0.57450000  0.44630000  0.92660000  1.0 0.1493739478
H  H289  1  0.55100000  0.49420000  0.10570000  1.0 0.120434162
H  H290  1  0.49420000  0.55100000  0.89430000  1.0 0.120434162
H  H291  1  0.50290000  0.36730000  0.10530000  1.0 0.1298117059
H  H292  1  0.36730000  0.50290000  0.89470000  1.0 0.1298117059
H  H293  1  0.54090000  0.38690000  0.13970000  1.0 0.1387422156
H  H294  1  0.38690000  0.54090000  0.86030000  1.0 0.1387422156
H  H295  1  0.42950000  0.47610000  0.11370000  1.0 0.1493739478
H  H296  1  0.47610000  0.42950000  0.88630000  1.0 0.1493739478
H  H297  1  0.34090000  0.04950000  0.55140000  1.0 0.1003453738
H  H298  1  0.04950000  0.34090000  0.44860000  1.0 0.1003453738
H  H299  1  0.33060000  0.20580000  0.55970000  1.0 0.1493739478
H  H300  1  0.20580000  0.33060000  0.44030000  1.0 0.1493739478
H  H301  1  0.22450000  0.29450000  0.57180000  1.0 0.1598967277
H  H302  1  0.29450000  0.22450000  0.42820000  1.0 0.1598967277
H  H303  1  0.31930000  0.20830000  0.60970000  1.0 0.1298117059
H  H304  1  0.20830000  0.31930000  0.39030000  1.0 0.1298117059
H  H305  1  0.22230000  0.13150000  0.59850000  1.0 0.1387422156
H  H306  1  0.13150000  0.22230000  0.40150000  1.0 0.1387422156
H  H307  1  0.24810000  0.15830000  0.63560000  1.0 0.1387422156
H  H308  1  0.15830000  0.24810000  0.36440000  1.0 0.1387422156
H  H309  1  0.15110000  0.24370000  0.59860000  1.0 0.1598967277
H  H310  1  0.24370000  0.15110000  0.40140000  1.0 0.1598967277
H  H311  1  0.70700000  0.47740000  0.48920000  1.0 0.1104492215
H  H312  1  0.47740000  0.70700000  0.51080000  1.0 0.1104492215
H  H313  1  0.78390000  0.39150000  0.37780000  1.0 0.1387422156
H  H314  1  0.39150000  0.78390000  0.62220000  1.0 0.1387422156
H  H315  1  0.71090000  0.41430000  0.40490000  1.0 0.1298117059
H  H316  1  0.41430000  0.71090000  0.59510000  1.0 0.1298117059
H  H317  1  0.67890000  0.50270000  0.37830000  1.0 0.1387422156
H  H318  1  0.50270000  0.67890000  0.62170000  1.0 0.1387422156
H  H319  1  0.91360000  0.33220000  0.42130000  1.0 0.1298117059
H  H320  1  0.33220000  0.91360000  0.57870000  1.0 0.1298117059
H  H321  1  0.88300000  0.41360000  0.44420000  1.0 0.1387422156
H  H322  1  0.41360000  0.88300000  0.55580000  1.0 0.1387422156
H  H323  1  0.91110000  0.32890000  0.47240000  1.0 0.1298117059
H  H324  1  0.32890000  0.91110000  0.52760000  1.0 0.1387422156
C  C1  1  0.64170000  0.93050000  0.54310000  1.0 0.5896886848
C  C2  1  0.93050000  0.64170000  0.45690000  1.0 0.5896886848
C  C3  1  0.66060000  0.97000000  0.57340000  1.0 -0.0276387129
C  C4  1  0.97000000  0.66060000  0.42660000  1.0 -0.0276387129
C  C5  1  0.58140000  0.07060000  0.57650000  1.0 -0.1413209177
C  C6  1  0.07060000  0.58140000  0.42350000  1.0 -0.1413209177
C  C7  1  0.59230000  0.10290000  0.61010000  1.0 -0.0522671044
C  C8  1  0.10290000  0.59230000  0.38990000  1.0 -0.0522671044
C  C9  1  0.68230000  0.03470000  0.64060000  1.0 0.2202560467
C  C10  1  0.03470000  0.68230000  0.35940000  1.0 0.2202560467
C  C11  1  0.76140000  0.93420000  0.63740000  1.0 -0.0806593485
C  C12  1  0.93420000  0.76140000  0.36260000  1.0 -0.0806593485
C  C13  1  0.75060000  0.90180000  0.60380000  1.0 -0.1510303958
C  C14  1  0.90180000  0.75060000  0.39620000  1.0 -0.1510303958
C  C15  1  0.54190000  0.26190000  0.60560000  1.0 -0.4334850994
C  C16  1  0.26190000  0.54190000  0.39440000  1.0 -0.4334850994
C  C17  1  0.51160000  0.21740000  0.60330000  1.0 0.2811518275
C  C18  1  0.21740000  0.51160000  0.39670000  1.0 0.2811518275
C  C19  1  0.45710000  0.25510000  0.64300000  1.0 -0.479699618
C  C20  1  0.25510000  0.45710000  0.35700000  1.0 -0.479699618
C  C21  1  0.44080000  0.27980000  0.55620000  1.0 -0.4509531669
C  C22  1  0.27980000  0.44080000  0.44380000  1.0 -0.4594649412
C  C23  1  0.85950000  0.85770000  0.66810000  1.0 0.0922068544
C  C24  1  0.85770000  0.85950000  0.33190000  1.0 0.0791563101
C  C25  1  0.97440000  0.79940000  0.73150000  1.0 0.0024572529
C  C26  1  0.79940000  0.97440000  0.26850000  1.0 0.0024572529
C  C27  1  0.05860000  0.70020000  0.71560000  1.0 -0.2486016092
C  C28  1  0.70020000  0.05860000  0.28440000  1.0 -0.2486016092
C  C29  1  0.16160000  0.62480000  0.74810000  1.0 -0.1510303958
C  C30  1  0.62480000  0.16160000  0.25190000  1.0 -0.1510303958
C  C31  1  0.17390000  0.67590000  0.77040000  1.0 -0.1510303958
C  C32  1  0.67590000  0.17390000  0.22960000  1.0 -0.1510303958
C  C33  1  0.08670000  0.76370000  0.79100000  1.0 -0.2225752361
C  C34  1  0.76370000  0.08670000  0.20900000  1.0 -0.2225752361
C  C35  1  0.99690000  0.83670000  0.75490000  1.0 0.031516334
C  C36  1  0.83670000  0.99690000  0.24510000  1.0 0.031516334
C  C37  1  0.89100000  0.96100000  0.80530000  1.0 0.0190767232
C  C38  1  0.96100000  0.89100000  0.19470000  1.0 0.0190767232
C  C39  1  0.80560000  0.04380000  0.81570000  1.0 -0.0609368309
C  C40  1  0.04380000  0.80560000  0.18430000  1.0 -0.0609368309
C  C41  1  0.71560000  0.12340000  0.78540000  1.0 0.2467773669
C  C42  1  0.12340000  0.71560000  0.21460000  1.0 0.2467773669
C  C43  1  0.63530000  0.21450000  0.79820000  1.0 -0.0522671044
C  C44  1  0.21450000  0.63530000  0.20180000  1.0 -0.0522671044
C  C45  1  0.64510000  0.22590000  0.84120000  1.0 -0.1413209177
C  C46  1  0.22590000  0.64510000  0.15880000  1.0 -0.1413209177
C  C47  1  0.73500000  0.14620000  0.87150000  1.0 -0.0806593485
C  C48  1  0.14620000  0.73500000  0.12850000  1.0 -0.0806593485
C  C49  1  0.81530000  0.05510000  0.85870000  1.0 -0.1510303958
C  C50  1  0.05510000  0.81530000  0.14130000  1.0 -0.1510303958
C  C51  1  0.53110000  0.29310000  0.76630000  1.0 0.2977402858
C  C52  1  0.29310000  0.53110000  0.23370000  1.0 0.2977402858
C  C53  1  0.53910000  0.32110000  0.72170000  1.0 -0.479699618
C  C54  1  0.32110000  0.53910000  0.27830000  1.0 -0.479699618
C  C55  1  0.45350000  0.38550000  0.78870000  1.0 -0.479699618
C  C56  1  0.38550000  0.45350000  0.21130000  1.0 -0.479699618
C  C57  1  0.48610000  0.26470000  0.75740000  1.0 -0.4885761168
C  C58  1  0.26470000  0.48610000  0.24260000  1.0 -0.4885761168
C  C59  1  0.73760000  0.16340000  0.91580000  1.0 0.5452388339
C  C60  1  0.16340000  0.73760000  0.08420000  1.0 0.5452388339
C  C61  1  0.81350000  0.26950000  0.95180000  1.0 0.5280252509
C  C62  1  0.26950000  0.81350000  0.04820000  1.0 0.5280252509
C  C63  1  0.80510000  0.33770000  0.92150000  1.0 -0.0414168327
C  C64  1  0.33770000  0.80510000  0.07850000  1.0 -0.0414168327
C  C65  1  0.87400000  0.29120000  0.89360000  1.0 -0.1884262152
C  C66  1  0.29120000  0.87400000  0.10640000  1.0 -0.1884262152
C  C67  1  0.86350000  0.34830000  0.86120000  1.0 -0.0522671044
C  C68  1  0.34830000  0.86350000  0.13880000  1.0 -0.0522671044
C  C69  1  0.78390000  0.45190000  0.85660000  1.0 0.2314555608
C  C70  1  0.45190000  0.78390000  0.14340000  1.0 0.2314555608
C  C71  1  0.71500000  0.49840000  0.88450000  1.0 -0.0522671044
C  C72  1  0.49840000  0.71500000  0.11550000  1.0 -0.0522671044
C  C73  1  0.72550000  0.44130000  0.91700000  1.0 -0.1610894389
C  C74  1  0.44130000  0.72550000  0.08300000  1.0 -0.1610894389
C  C75  1  0.62940000  0.61240000  0.88710000  1.0 0.2977402858
C  C76  1  0.61240000  0.62940000  0.11290000  1.0 0.2977402858
C  C77  1  0.55030000  0.66770000  0.84420000  1.0 -0.4885761168
C  C78  1  0.66770000  0.55030000  0.15580000  1.0 -0.4885761168
C  C79  1  0.68050000  0.63450000  0.89490000  1.0 -0.4680904783
C  C80  1  0.63450000  0.68050000  0.10510000  1.0 -0.4680904783
C  C81  1  0.57180000  0.64500000  0.92590000  1.0 -0.4885761168
C  C82  1  0.64500000  0.57180000  0.07410000  1.0 -0.4885761168
C  C83  1  0.92990000  0.30010000  0.83390000  1.0 0.031516334
C  C84  1  0.30010000  0.92990000  0.16610000  1.0 0.031516334
C  C85  1  0.02260000  0.27960000  0.77820000  1.0 0.0481531757
C  C86  1  0.27960000  0.02260000  0.22180000  1.0 0.0481531757
C  C87  1  0.11080000  0.16480000  0.79410000  1.0 -0.2313318538
C  C88  1  0.16480000  0.11080000  0.20590000  1.0 -0.2313318538
C  C89  1  0.18240000  0.13500000  0.76570000  1.0 -0.1510303958
C  C90  1  0.13500000  0.18240000  0.23430000  1.0 -0.1510303958
C  C91  1  0.14590000  0.16870000  0.71490000  1.0 -0.1610894389
C  C92  1  0.16870000  0.14590000  0.28510000  1.0 -0.1610894389
C  C93  1  0.05400000  0.28340000  0.70380000  1.0 -0.2313318538
C  C94  1  0.28340000  0.05400000  0.29620000  1.0 -0.2313318538
C  C95  1  0.97340000  0.32460000  0.73030000  1.0 0.0714678429
C  C96  1  0.32460000  0.97340000  0.26970000  1.0 0.0714678429
C  C97  1  0.85010000  0.48670000  0.68690000  1.0 0.0481531757
C  C98  1  0.48670000  0.85010000  0.31310000  1.0 0.0481531757
C  C99  1  0.75350000  0.59290000  0.67420000  1.0 -0.0609368309
C  C100  1  0.59290000  0.75350000  0.32580000  1.0 -0.0609368309
C  C101  1  0.68920000  0.64720000  0.70400000  1.0 0.2467773669
C  C102  1  0.64720000  0.68920000  0.29600000  1.0 0.2467773669
C  C103  1  0.60030000  0.75030000  0.69140000  1.0 -0.0683809854
C  C104  1  0.75030000  0.60030000  0.30860000  1.0 -0.0683809854
C  C105  1  0.57570000  0.79930000  0.64900000  1.0 -0.1510303958
C  C106  1  0.79930000  0.57570000  0.35100000  1.0 -0.1510303958
C  C107  1  0.64000000  0.74520000  0.61920000  1.0 -0.0414168327
C  C108  1  0.74520000  0.64000000  0.38080000  1.0 -0.0414168327
C  C109  1  0.72890000  0.64190000  0.63180000  1.0 -0.1510303958
C  C110  1  0.64190000  0.72890000  0.36820000  1.0 -0.1510303958
C  C111  1  0.52420000  0.81600000  0.72320000  1.0 0.3174245171
C  C112  1  0.81600000  0.52420000  0.27680000  1.0 0.3174245171
C  C113  1  0.48360000  0.78340000  0.73470000  1.0 -0.5201560743
C  C114  1  0.78340000  0.48360000  0.26530000  1.0 -0.5201560743
C  C115  1  0.57920000  0.80040000  0.76700000  1.0 -0.479699618
C  C116  1  0.80040000  0.57920000  0.23300000  1.0 -0.479699618
C  C117  1  0.43640000  0.93000000  0.70230000  1.0 -0.5109854328
C  C118  1  0.93000000  0.43640000  0.29770000  1.0 -0.5109854328
C  C119  1  0.60540000  0.79240000  0.57060000  1.0 0.595539432
C  C120  1  0.79240000  0.60540000  0.42940000  1.0 0.595539432
C  C121  1  0.52570000  0.95670000  0.41580000  1.0 0.5642736368
C  C122  1  0.95670000  0.52570000  0.58420000  1.0 0.5642736368
C  C123  1  0.54090000  0.96890000  0.36900000  1.0 -0.0244404972
C  C124  1  0.96890000  0.54090000  0.63100000  1.0 -0.0276387129
C  C125  1  0.46490000  0.06010000  0.33910000  1.0 -0.1510303958
C  C126  1  0.06010000  0.46490000  0.66090000  1.0 -0.1510303958
C  C127  1  0.48080000  0.07000000  0.29750000  1.0 -0.0414168327
C  C128  1  0.07000000  0.48080000  0.70250000  1.0 -0.0414168327
C  C129  1  0.57290000  0.98870000  0.28570000  1.0 0.2016219571
C  C130  1  0.98870000  0.57290000  0.71430000  1.0 0.2016219571
C  C131  1  0.64900000  0.89740000  0.31560000  1.0 -0.0683809854
C  C132  1  0.89740000  0.64900000  0.68440000  1.0 -0.0683809854
C  C133  1  0.63310000  0.88750000  0.35720000  1.0 -0.1610894389
C  C134  1  0.88750000  0.63310000  0.64280000  1.0 -0.1610894389
C  C135  1  0.38820000  0.16800000  0.26570000  1.0 0.2897511982
C  C136  1  0.16800000  0.38820000  0.73430000  1.0 0.2897511982
C  C137  1  0.28930000  0.24150000  0.28180000  1.0 -0.479699618
C  C138  1  0.24150000  0.28930000  0.71820000  1.0 -0.479699618
C  C139  1  0.40730000  0.22130000  0.25610000  1.0 -0.4680904783
C  C140  1  0.22130000  0.40730000  0.74390000  1.0 -0.4680904783
C  C141  1  0.05060000  0.53160000  0.28330000  1.0 -0.1510303958
C  C142  1  0.53160000  0.05060000  0.71670000  1.0 -0.1510303958
C  C143  1  0.36710000  0.15690000  0.21920000  1.0 -0.4594649412
C  C144  1  0.15690000  0.36710000  0.78080000  1.0 -0.4509531669
C  C145  1  0.75200000  0.80640000  0.30350000  1.0 0.1003453738
C  C146  1  0.80640000  0.75200000  0.69650000  1.0 0.1003453738
C  C147  1  0.88680000  0.71320000  0.26660000  1.0 0.031516334
C  C148  1  0.71320000  0.88680000  0.73340000  1.0 0.031516334
C  C149  1  0.94800000  0.61500000  0.29670000  1.0 -0.2378067821
C  C150  1  0.61500000  0.94800000  0.70330000  1.0 -0.2378067821
C  C151  1  0.04680000  0.53220000  0.23270000  1.0 -0.1510303958
C  C152  1  0.53220000  0.04680000  0.76730000  1.0 -0.1510303958
C  C153  1  0.98470000  0.63070000  0.20690000  1.0 -0.2313318538
C  C154  1  0.63070000  0.98470000  0.79310000  1.0 -0.2313318538
C  C155  1  0.88280000  0.71240000  0.21710000  1.0 0.0405869931
C  C156  1  0.71240000  0.88280000  0.78290000  1.0 0.0405869931
C  C157  1  0.82260000  0.84120000  0.16360000  1.0 0.0714678429
C  C158  1  0.84120000  0.82260000  0.83640000  1.0 0.0714678429
C  C159  1  0.75610000  0.94050000  0.13780000  1.0 -0.0683809854
C  C160  1  0.94050000  0.75610000  0.86220000  1.0 -0.0683809854
C  C161  1  0.65340000  0.01700000  0.13610000  1.0 0.2202560467
C  C162  1  0.01700000  0.65340000  0.86390000  1.0 0.2202560467
C  C163  1  0.58780000  0.10540000  0.10470000  1.0 -0.0276387129
C  C164  1  0.10540000  0.58780000  0.89530000  1.0 -0.0276387129
C  C165  1  0.62490000  0.11710000  0.07500000  1.0 -0.1510303958
C  C166  1  0.11710000  0.62490000  0.92500000  1.0 -0.1510303958
C  C167  1  0.72750000  0.04050000  0.07660000  1.0 -0.0414168327
C  C168  1  0.04050000  0.72750000  0.92340000  1.0 -0.0414168327
C  C169  1  0.79320000  0.95220000  0.10800000  1.0 -0.1610894389
C  C170  1  0.95220000  0.79320000  0.89200000  1.0 -0.1610894389
C  C171  1  0.47210000  0.18990000  0.10130000  1.0 0.2977402858
C  C172  1  0.18990000  0.47210000  0.89870000  1.0 0.2977402858
C  C173  1  0.45300000  0.13440000  0.09810000  1.0 -0.4381399192
C  C174  1  0.13440000  0.45300000  0.90190000  1.0 -0.4381399192
C  C175  1  0.44320000  0.24320000  0.14080000  1.0 -0.4885761168
C  C176  1  0.24320000  0.44320000  0.85920000  1.0 -0.4885761168
C  C177  1  0.41740000  0.28380000  0.06650000  1.0 -0.4594649412
C  C178  1  0.28380000  0.41740000  0.93350000  1.0 -0.4594649412
C  C179  1  0.90000000  0.09100000  0.07170000  1.0 0.5705594979
C  C180  1  0.09100000  0.90000000  0.92830000  1.0 0.5705594979
C  C181  1  0.76810000  0.05530000  0.04570000  1.0 0.5896886848
C  C182  1  0.05530000  0.76810000  0.95430000  1.0 0.5896886848
C  C183  1  0.95770000  0.06330000  0.11610000  1.0 -0.0414168327
C  C184  1  0.06330000  0.95770000  0.88390000  1.0 -0.0414168327
C  C185  1  0.05790000  0.96950000  0.13200000  1.0 -0.1661105491
C  C186  1  0.96950000  0.05790000  0.86800000  1.0 -0.1610894389
C  C187  1  0.10230000  0.94410000  0.17590000  1.0 -0.0609368309
C  C188  1  0.94410000  0.10230000  0.82410000  1.0 -0.0609368309
C  C189  1  0.04640000  0.01260000  0.20390000  1.0 0.2202560467
C  C190  1  0.01260000  0.04640000  0.79610000  1.0 0.2202560467
C  C191  1  0.94610000  0.10650000  0.18810000  1.0 -0.0414168327
C  C192  1  0.10650000  0.94610000  0.81190000  1.0 -0.0414168327
C  C193  1  0.90180000  0.13180000  0.14420000  1.0 -0.1610894389
C  C194  1  0.13180000  0.90180000  0.85580000  1.0 -0.1610894389
C  C195  1  0.77100000  0.28040000  0.19540000  1.0 -0.4885761168
C  C196  1  0.28040000  0.77100000  0.80460000  1.0 -0.4885761168
C  C197  1  0.88270000  0.18910000  0.21700000  1.0 0.2977402858
C  C198  1  0.18910000  0.88270000  0.78300000  1.0 0.2977402858
C  C199  1  0.92340000  0.22200000  0.22400000  1.0 -0.5109854328
C  C200  1  0.22200000  0.92340000  0.77600000  1.0 -0.5109854328
C  C201  1  0.88670000  0.14810000  0.26130000  1.0 -0.4594649412
C  C202  1  0.14810000  0.88670000  0.73870000  1.0 -0.4594649412
C  C203  1  0.20360000  0.84720000  0.18770000  1.0 0.0791563101
C  C204  1  0.84720000  0.20360000  0.81230000  1.0 0.0791563101
C  C205  1  0.40730000  0.64470000  0.20320000  1.0 -0.2726947851
C  C206  1  0.64470000  0.40730000  0.79680000  1.0 -0.2726947851
C  C207  1  0.57940000  0.53260000  0.25300000  1.0 -0.2093933932
C  C208  1  0.53260000  0.57940000  0.74700000  1.0 -0.2093933932
C  C209  1  0.52120000  0.60080000  0.28880000  1.0 -0.200394053
C  C210  1  0.60080000  0.52120000  0.71120000  1.0 -0.200394053
C  C211  1  0.40050000  0.76250000  0.33080000  1.0 0.0791563101
C  C212  1  0.76250000  0.40050000  0.66920000  1.0 0.0791563101
C  C213  1  0.36420000  0.70400000  0.24000000  1.0 0.0616261885
C  C214  1  0.70400000  0.36420000  0.76000000  1.0 0.0616261885
C  C215  1  0.51410000  0.53630000  0.22690000  1.0 -0.0414168327
C  C216  1  0.53630000  0.51410000  0.77310000  1.0 -0.0414168327
C  C217  1  0.41960000  0.70760000  0.26670000  1.0 0.0024572529
C  C218  1  0.70760000  0.41960000  0.73330000  1.0 0.0024572529
C  C219  1  0.34780000  0.84620000  0.35820000  1.0 -0.0683809854
C  C220  1  0.84620000  0.34780000  0.64180000  1.0 -0.0683809854
C  C221  1  0.24460000  0.92500000  0.35530000  1.0 0.2097534053
C  C222  1  0.92500000  0.24460000  0.64470000  1.0 0.2097534053
C  C223  1  0.20180000  0.98560000  0.38700000  1.0 -0.0414168327
C  C224  1  0.98560000  0.20180000  0.61300000  1.0 -0.0414168327
C  C225  1  0.26210000  0.96730000  0.42150000  1.0 -0.1510303958
C  C226  1  0.96730000  0.26210000  0.57850000  1.0 -0.1510303958
C  C227  1  0.36520000  0.88840000  0.42440000  1.0 -0.0683809854
C  C228  1  0.88840000  0.36520000  0.57560000  1.0 -0.0683809854
C  C229  1  0.40810000  0.82790000  0.39270000  1.0 -0.1610894389
C  C230  1  0.82790000  0.40810000  0.60730000  1.0 -0.1610894389
C  C231  1  0.01920000  0.14940000  0.35250000  1.0 -0.4680904783
C  C232  1  0.14940000  0.01920000  0.64750000  1.0 -0.4680904783
C  C233  1  0.09250000  0.05550000  0.38970000  1.0 0.2897511982
C  C234  1  0.05550000  0.09250000  0.61030000  1.0 0.2897511982
C  C235  1  0.07170000  0.08870000  0.43540000  1.0 -0.4680904783
C  C236  1  0.08870000  0.07170000  0.56460000  1.0 -0.4680904783
C  C237  1  0.06050000  0.01410000  0.38300000  1.0 -0.4509531669
C  C238  1  0.01410000  0.06050000  0.61700000  1.0 -0.4509531669
C  C239  1  0.42930000  0.87710000  0.45590000  1.0 0.5705594979
C  C240  1  0.87710000  0.42930000  0.54410000  1.0 0.5705594979
C  C241  1  0.20450000  0.99450000  0.97600000  1.0 0.2016219571
C  C242  1  0.99450000  0.20450000  0.02400000  1.0 0.2016219571
C  C243  1  0.27470000  0.92070000  0.91070000  1.0 -0.3087104894
C  C244  1  0.92070000  0.27470000  0.08930000  1.0 -0.3087104894
C  C245  1  0.37690000  0.89030000  0.97420000  1.0 -0.3313775497
C  C246  1  0.89030000  0.37690000  0.02580000  1.0 -0.3313775497
C  C247  1  0.56040000  0.36240000  0.04460000  1.0 0.3174245171
C  C248  1  0.36240000  0.56040000  0.95540000  1.0 0.3174245171
C  C249  1  0.51580000  0.50980000  0.07720000  1.0 -0.3575491942
C  C250  1  0.50980000  0.51580000  0.92280000  1.0 -0.3575491942
C  C251  1  0.49770000  0.41370000  0.11180000  1.0 -0.3575491942
C  C252  1  0.41370000  0.49770000  0.88820000  1.0 -0.3575491942
C  C253  1  0.31440000  0.10980000  0.54450000  1.0 0.2977402858
C  C254  1  0.10980000  0.31440000  0.45550000  1.0 0.2977402858
C  C255  1  0.28820000  0.22420000  0.57980000  1.0 -0.3313775497
C  C256  1  0.22420000  0.28820000  0.42020000  1.0 -0.3313775497
C  C257  1  0.21990000  0.17590000  0.60480000  1.0 -0.3419848717
C  C258  1  0.17590000  0.21990000  0.39520000  1.0 -0.3419848717
C  C259  1  0.71150000  0.49750000  0.46310000  1.0 0.2811518275
C  C260  1  0.49750000  0.71150000  0.53690000  1.0 0.2811518275
C  C261  1  0.73400000  0.43600000  0.39560000  1.0 -0.3244944848
C  C262  1  0.43600000  0.73400000  0.60440000  1.0 -0.3244944848
C  C263  1  0.87980000  0.37180000  0.44400000  1.0 -0.3313775497
C  C264  1  0.37180000  0.87980000  0.55600000  1.0 -0.3313775497
N  N1  1  0.87920000  0.87480000  0.70100000  1.0 -0.2313318538
N  N2  1  0.87480000  0.87920000  0.29900000  1.0 -0.2313318538
N  N3  1  0.89710000  0.93430000  0.76600000  1.0 -0.2378067821
N  N4  1  0.93430000  0.89710000  0.23400000  1.0 -0.2378067821
N  N5  1  0.92970000  0.33830000  0.79820000  1.0 -0.2486016092
N  N6  1  0.33830000  0.92970000  0.20180000  1.0 -0.2486016092
N  N7  1  0.88530000  0.42650000  0.72600000  1.0 -0.2486016092
N  N8  1  0.42650000  0.88530000  0.27400000  1.0 -0.2486016092
N  N9  1  0.78090000  0.80370000  0.27100000  1.0 -0.2093933932
N  N10  1  0.80370000  0.78090000  0.72900000  1.0 -0.2093933932
N  N11  1  0.80900000  0.81800000  0.19680000  1.0 -0.2313318538
N  N12  1  0.81800000  0.80900000  0.80320000  1.0 -0.2313318538
N  N13  1  0.25690000  0.81290000  0.22560000  1.0 -0.2313318538
N  N14  1  0.81290000  0.25690000  0.77440000  1.0 -0.2313318538
N  N15  1  0.35660000  0.77400000  0.29740000  1.0 -0.2093933932
N  N16  1  0.77400000  0.35660000  0.70260000  1.0 -0.2093933932
N  N17  1  0.28600000  0.93560000  0.95310000  1.0 0.0481531757
N  N18  1  0.93560000  0.28600000  0.04690000  1.0 0.0481531757
N  N19  1  0.52760000  0.43220000  0.07490000  1.0 0.0405869931
N  N20  1  0.43220000  0.52760000  0.92510000  1.0 0.0405869931
N  N21  1  0.27520000  0.16900000  0.57720000  1.0 0.031516334
N  N22  1  0.16900000  0.27520000  0.42280000  1.0 0.031516334
N  N23  1  0.77750000  0.43350000  0.43380000  1.0 0.0190767232
N  N24  1  0.43350000  0.77750000  0.56620000  1.0 0.0190767232
O  O1  1  0.55610000  0.99590000  0.51760000  1.0 -0.5686513372
O  O2  1  0.99590000  0.55610000  0.48240000  1.0 -0.5686513372
O  O3  1  0.71960000  0.84020000  0.54240000  1.0 -0.5591211803
O  O4  1  0.84020000  0.71960000  0.45760000  1.0 -0.5591211803
O  O5  1  0.68770000  0.06650000  0.67430000  1.0 -0.4334850994
O  O6  1  0.06650000  0.68770000  0.32570000  1.0 -0.4334850994
O  O7  1  0.70920000  0.10580000  0.74640000  1.0 -0.4119574167
O  O8  1  0.10580000  0.70920000  0.25360000  1.0 -0.4119574167
O  O9  1  0.81330000  0.09870000  0.94510000  1.0 -0.5109854328
O  O10  1  0.09870000  0.81330000  0.05490000  1.0 -0.5109854328
O  O11  1  0.66680000  0.24760000  0.92500000  1.0 -0.479699618
O  O12  1  0.24760000  0.66680000  0.07500000  1.0 -0.479699618
O  O13  1  0.87600000  0.18620000  0.95550000  1.0 -0.479699618
O  O14  1  0.18620000  0.87600000  0.04450000  1.0 -0.479699618
O  O15  1  0.73120000  0.32700000  0.96790000  1.0 -0.5544308014
O  O16  1  0.32700000  0.73120000  0.03210000  1.0 -0.5544308014
O  O17  1  0.76100000  0.51080000  0.82240000  1.0 -0.4119574167
O  O18  1  0.51080000  0.76100000  0.17760000  1.0 -0.4119574167
O  O19  1  0.70990000  0.60050000  0.74290000  1.0 -0.4190342613
O  O20  1  0.60050000  0.70990000  0.25710000  1.0 -0.4190342613
O  O21  1  0.53730000  0.88630000  0.56220000  1.0 -0.5413618473
O  O22  1  0.88630000  0.53730000  0.43780000  1.0 -0.5413618473
O  O23  1  0.66490000  0.74150000  0.54070000  1.0 -0.663279552
O  O24  1  0.74150000  0.66490000  0.45930000  1.0 -0.663279552
O  O25  1  0.43720000  0.03440000  0.42120000  1.0 -0.5413618473
O  O26  1  0.03440000  0.43720000  0.57880000  1.0 -0.5413618473
O  O27  1  0.60120000  0.87300000  0.44460000  1.0 -0.6130955107
O  O28  1  0.87300000  0.60120000  0.55540000  1.0 -0.6130955107
O  O29  1  0.57980000  0.00760000  0.24310000  1.0 -0.479699618
O  O30  1  0.00760000  0.57980000  0.75690000  1.0 -0.4885761168
O  O31  1  0.62080000  0.01280000  0.17080000  1.0 -0.4334850994
O  O32  1  0.01280000  0.62080000  0.82920000  1.0 -0.4334850994
O  O33  1  0.86230000  0.97810000  0.04160000  1.0 -0.5840038247
O  O34  1  0.97810000  0.86230000  0.95840000  1.0 -0.5840038247
O  O35  1  0.71610000  0.13890000  0.02500000  1.0 -0.5544308014
O  O36  1  0.13890000  0.71610000  0.97500000  1.0 -0.5544308014
O  O37  1  0.94790000  0.04470000  0.04220000  1.0 -0.5840038247
O  O38  1  0.04470000  0.94790000  0.95780000  1.0 -0.5840038247
O  O39  1  0.81150000  0.17630000  0.06190000  1.0 -0.4885761168
O  O40  1  0.17630000  0.81150000  0.93810000  1.0 -0.4885761168
O  O41  1  0.08790000  0.99450000  0.24610000  1.0 -0.4680904783
O  O42  1  0.99450000  0.08790000  0.75390000  1.0 -0.4680904783
O  O43  1  0.18610000  0.95170000  0.31660000  1.0 -0.4680904783
O  O44  1  0.95170000  0.18610000  0.68340000  1.0 -0.4680904783
O  O45  1  0.38990000  0.94230000  0.47900000  1.0 -0.5413618473
O  O46  1  0.94230000  0.38990000  0.52100000  1.0 -0.5413618473
O  O47  1  0.52500000  0.79600000  0.46310000  1.0 -0.5890014358
O  O48  1  0.79600000  0.52500000  0.53690000  1.0 -0.5890014358
O  O49  1  0.12790000  0.02390000  0.96240000  1.0 -0.479699618
O  O50  1  0.02390000  0.12790000  0.03760000  1.0 -0.479699618
O  O51  1  0.60250000  0.34930000  0.01540000  1.0 -0.3763961084
O  O52  1  0.34930000  0.60250000  0.98460000  1.0 -0.3763961084
O  O53  1  0.66270000  0.58110000  0.44900000  1.0 -0.4190342613
O  O54  1  0.58110000  0.66270000  0.55100000  1.0 -0.4190342613
O  O55  1  0.31580000  0.13300000  0.50780000  1.0 -0.3867340721
O  O56  1  0.13300000  0.31580000  0.49220000  1.0 -0.3867340721
