# DDEC6 charges by PACMAN v1.1 (https://github.com/mtap-research/PACMAN-charge/)
data_KUTDAG_ASR_pacman
_symmetry_space_group_name_H-M   'P 1'
_cell_length_a   21.40560000
_cell_length_b   21.40560000
_cell_length_c   30.93100000
_cell_angle_alpha   85.82280000
_cell_angle_beta   94.17720000
_cell_angle_gamma   38.94050000
_symmetry_Int_Tables_number   1
_chemical_formula_structural   CdCoH34C30(NO3)2
_chemical_formula_sum   'Cd8 Co8 H272 C240 N16 O48'
_cell_volume   8692.34325627
_cell_formula_units_Z   8
loop_
 _symmetry_equiv_pos_site_id
 _symmetry_equiv_pos_as_xyz
  1  'x, y, z'
loop_
 _atom_site_type_symbol
 _atom_site_label
 _atom_site_symmetry_multiplicity
 _atom_site_fract_x
 _atom_site_fract_y
 _atom_site_fract_z
 _atom_site_occupancy
 _atom_site_charge
Cd  Cd1  1  0.95300000  0.95300000  0.00000000  1.0 1.1199388659
Cd  Cd2  1  0.72162000  0.22740000  0.99341000  1.0 1.0393107093
Cd  Cd3  1  0.22740000  0.72162000  0.00659000  1.0 1.0393107093
Cd  Cd4  1  0.04032000  0.04032000  0.00000000  1.0 1.1199388659
Cd  Cd5  1  0.66040000  0.66040000  0.50000000  1.0 1.091474787
Cd  Cd6  1  0.47656000  0.97276000  0.49761000  1.0 1.0217787779
Cd  Cd7  1  0.97276000  0.47656000  0.50239000  1.0 1.0217787779
Cd  Cd8  1  0.74730000  0.74730000  0.50000000  1.0 1.1041420853
Co  Co1  1  0.79451000  0.99563000  0.72266000  1.0 0.5709641135
Co  Co2  1  0.99563000  0.79451000  0.27734000  1.0 0.5709641135
Co  Co3  1  0.81791000  0.47503000  0.77245000  1.0 0.5790767427
Co  Co4  1  0.47503000  0.81791000  0.22755000  1.0 0.589594181
Co  Co5  1  0.69962000  0.90410000  0.22249000  1.0 0.6470559394
Co  Co6  1  0.90410000  0.69962000  0.77751000  1.0 0.644343034
Co  Co7  1  0.22157000  0.88205000  0.27076000  1.0 0.6310681856
Co  Co8  1  0.88205000  0.22157000  0.72924000  1.0 0.6310681856
H  H1  1  0.52810000  0.12170000  0.55380000  1.0 0.1198064485
H  H2  1  0.12170000  0.52810000  0.44620000  1.0 0.1198064485
H  H3  1  0.80850000  0.83430000  0.60520000  1.0 0.1198064485
H  H4  1  0.83430000  0.80850000  0.39480000  1.0 0.1198064485
H  H5  1  0.60980000  0.22840000  0.57560000  1.0 0.1198064485
H  H6  1  0.22840000  0.60980000  0.42440000  1.0 0.1198064485
H  H7  1  0.51720000  0.32720000  0.59230000  1.0 0.1198064485
H  H8  1  0.32720000  0.51720000  0.40770000  1.0 0.1198064485
H  H9  1  0.61380000  0.22640000  0.62650000  1.0 0.1302679628
H  H10  1  0.22640000  0.61380000  0.37350000  1.0 0.1302679628
H  H11  1  0.43820000  0.24620000  0.63990000  1.0 0.1198064485
H  H12  1  0.24620000  0.43820000  0.36010000  1.0 0.1198064485
H  H13  1  0.51430000  0.23430000  0.66480000  1.0 0.1375986406
H  H14  1  0.23430000  0.51430000  0.33520000  1.0 0.1375986406
H  H15  1  0.41440000  0.33680000  0.63240000  1.0 0.1302679628
H  H16  1  0.33680000  0.41440000  0.36760000  1.0 0.1302679628
H  H17  1  0.40870000  0.27290000  0.55550000  1.0 0.1198064485
H  H18  1  0.27290000  0.40870000  0.44450000  1.0 0.1198064485
H  H19  1  0.38730000  0.36110000  0.55830000  1.0 0.1198064485
H  H20  1  0.36110000  0.38730000  0.44170000  1.0 0.1198064485
H  H21  1  0.46620000  0.27880000  0.53110000  1.0 0.1198064485
H  H22  1  0.27880000  0.46620000  0.46890000  1.0 0.1198064485
H  H23  1  0.90800000  0.80380000  0.66470000  1.0 0.1198064485
H  H24  1  0.80380000  0.90800000  0.33530000  1.0 0.1198064485
H  H25  1  0.96640000  0.77520000  0.75560000  1.0 0.1097934757
H  H26  1  0.77520000  0.96640000  0.24440000  1.0 0.1097934757
H  H27  1  0.04620000  0.66960000  0.70970000  1.0 0.1198064485
H  H28  1  0.66960000  0.04620000  0.29030000  1.0 0.1198064485
H  H29  1  0.08680000  0.70300000  0.69420000  1.0 0.1198064485
H  H30  1  0.70300000  0.08680000  0.30580000  1.0 0.1198064485
H  H31  1  0.21990000  0.55530000  0.75020000  1.0 0.1097934757
H  H32  1  0.55530000  0.21990000  0.24980000  1.0 0.1097934757
H  H33  1  0.14490000  0.59690000  0.78200000  1.0 0.1097934757
H  H34  1  0.59690000  0.14490000  0.21800000  1.0 0.1097934757
H  H35  1  0.24120000  0.61340000  0.80050000  1.0 0.1097934757
H  H36  1  0.61340000  0.24120000  0.19950000  1.0 0.1097934757
H  H37  1  0.18510000  0.69010000  0.75510000  1.0 0.1015065552
H  H38  1  0.69010000  0.18510000  0.24490000  1.0 0.1015065552
H  H39  1  0.07470000  0.73150000  0.82060000  1.0 0.1198064485
H  H40  1  0.73150000  0.07470000  0.17940000  1.0 0.1198064485
H  H41  1  0.10820000  0.77620000  0.81600000  1.0 0.1198064485
H  H42  1  0.77620000  0.10820000  0.18400000  1.0 0.1198064485
H  H43  1  0.01780000  0.85760000  0.74000000  1.0 0.1015065552
H  H44  1  0.85760000  0.01780000  0.26000000  1.0 0.1015065552
H  H45  1  0.95670000  0.90470000  0.82830000  1.0 0.1097934757
H  H46  1  0.90470000  0.95670000  0.17170000  1.0 0.1097934757
H  H47  1  0.57800000  0.29200000  0.84870000  1.0 0.1097934757
H  H48  1  0.29200000  0.57800000  0.15130000  1.0 0.1097934757
H  H49  1  0.87160000  0.00940000  0.88050000  1.0 0.1198064485
H  H50  1  0.00940000  0.87160000  0.11950000  1.0 0.1198064485
H  H51  1  0.47490000  0.38510000  0.70030000  1.0 0.1302679628
H  H52  1  0.38510000  0.47490000  0.29970000  1.0 0.1302679628
H  H53  1  0.56830000  0.34770000  0.72620000  1.0 0.1198064485
H  H54  1  0.34770000  0.56830000  0.27380000  1.0 0.1198064485
H  H55  1  0.58450000  0.27090000  0.70690000  1.0 0.1477854481
H  H56  1  0.27090000  0.58450000  0.29310000  1.0 0.1477854481
H  H57  1  0.38710000  0.45470000  0.76310000  1.0 0.1302679628
H  H58  1  0.45470000  0.38710000  0.23690000  1.0 0.1302679628
H  H59  1  0.43490000  0.38410000  0.80950000  1.0 0.1302679628
H  H60  1  0.38410000  0.43490000  0.19050000  1.0 0.1302679628
H  H61  1  0.47610000  0.41690000  0.79470000  1.0 0.1198064485
H  H62  1  0.41690000  0.47610000  0.20530000  1.0 0.1198064485
H  H63  1  0.41560000  0.33680000  0.72810000  1.0 0.1302679628
H  H64  1  0.33680000  0.41560000  0.27190000  1.0 0.1302679628
H  H65  1  0.52300000  0.22060000  0.73800000  1.0 0.1302679628
H  H66  1  0.22060000  0.52300000  0.26200000  1.0 0.1302679628
H  H67  1  0.46060000  0.27040000  0.77550000  1.0 0.1302679628
H  H68  1  0.27040000  0.46060000  0.22450000  1.0 0.1302679628
H  H69  1  0.91840000  0.22640000  0.89310000  1.0 0.1097934757
H  H70  1  0.22640000  0.91840000  0.10690000  1.0 0.1097934757
H  H71  1  0.66710000  0.47870000  0.93130000  1.0 0.1198064485
H  H72  1  0.47870000  0.66710000  0.06870000  1.0 0.1198064485
H  H73  1  0.57120000  0.66200000  0.81780000  1.0 0.1375986406
H  H74  1  0.66200000  0.57120000  0.18220000  1.0 0.1375986406
H  H75  1  0.51390000  0.66090000  0.84590000  1.0 0.1198064485
H  H76  1  0.66090000  0.51390000  0.15410000  1.0 0.1198064485
H  H77  1  0.49360000  0.74900000  0.84350000  1.0 0.1302679628
H  H78  1  0.74900000  0.49360000  0.15650000  1.0 0.1302679628
H  H79  1  0.71700000  0.62100000  0.86520000  1.0 0.1302679628
H  H80  1  0.62100000  0.71700000  0.13480000  1.0 0.1302679628
H  H81  1  0.63110000  0.71190000  0.88760000  1.0 0.1198064485
H  H82  1  0.71190000  0.63110000  0.11240000  1.0 0.1198064485
H  H83  1  0.72930000  0.60330000  0.91690000  1.0 0.1198064485
H  H84  1  0.60330000  0.72930000  0.08310000  1.0 0.1198064485
H  H85  1  0.54040000  0.63920000  0.92230000  1.0 0.1198064485
H  H86  1  0.63920000  0.54040000  0.07770000  1.0 0.1198064485
H  H87  1  0.62630000  0.60990000  0.95120000  1.0 0.1198064485
H  H88  1  0.60990000  0.62630000  0.04880000  1.0 0.1198064485
H  H89  1  0.53020000  0.72000000  0.92260000  1.0 0.1302679628
H  H90  1  0.72000000  0.53020000  0.07740000  1.0 0.1302679628
H  H91  1  0.98110000  0.23070000  0.84090000  1.0 0.1097934757
H  H92  1  0.23070000  0.98110000  0.15910000  1.0 0.1097934757
H  H93  1  0.04700000  0.29640000  0.78810000  1.0 0.1097934757
H  H94  1  0.29640000  0.04700000  0.21190000  1.0 0.1097934757
H  H95  1  0.12830000  0.15230000  0.81900000  1.0 0.1198064485
H  H96  1  0.15230000  0.12830000  0.18100000  1.0 0.1198064485
H  H97  1  0.07820000  0.15100000  0.78010000  1.0 0.1302679628
H  H98  1  0.15100000  0.07820000  0.21990000  1.0 0.1302679628
H  H99  1  0.21250000  0.14710000  0.77130000  1.0 0.1015065552
H  H100  1  0.14710000  0.21250000  0.22870000  1.0 0.1015065552
H  H101  1  0.24050000  0.05410000  0.77060000  1.0 0.1198064485
H  H102  1  0.05410000  0.24050000  0.22940000  1.0 0.1198064485
H  H103  1  0.12390000  0.13770000  0.70290000  1.0 0.1097934757
H  H104  1  0.13770000  0.12390000  0.29710000  1.0 0.1097934757
H  H105  1  0.19290000  0.14230000  0.69640000  1.0 0.1097934757
H  H106  1  0.14230000  0.19290000  0.30360000  1.0 0.1097934757
H  H107  1  0.01640000  0.30540000  0.67410000  1.0 0.1198064485
H  H108  1  0.30540000  0.01640000  0.32590000  1.0 0.1198064485
H  H109  1  0.07420000  0.30320000  0.70950000  1.0 0.1302679628
H  H110  1  0.30320000  0.07420000  0.29050000  1.0 0.1302679628
H  H111  1  0.95690000  0.30110000  0.71850000  1.0 0.1097934757
H  H112  1  0.30110000  0.95690000  0.28150000  1.0 0.1097934757
H  H113  1  0.89060000  0.47020000  0.66730000  1.0 0.1015065552
H  H114  1  0.47020000  0.89060000  0.33270000  1.0 0.1015065552
H  H115  1  0.50450000  0.87550000  0.63300000  1.0 0.1198064485
H  H116  1  0.87550000  0.50450000  0.36700000  1.0 0.1198064485
H  H117  1  0.77390000  0.60850000  0.61210000  1.0 0.1198064485
H  H118  1  0.60850000  0.77390000  0.38790000  1.0 0.1198064485
H  H119  1  0.42950000  0.84150000  0.75440000  1.0 0.1302679628
H  H120  1  0.84150000  0.42950000  0.24560000  1.0 0.1302679628
H  H121  1  0.43850000  0.80510000  0.71030000  1.0 0.1375986406
H  H122  1  0.80510000  0.43850000  0.28970000  1.0 0.1375986406
H  H123  1  0.52940000  0.72820000  0.75130000  1.0 0.1302679628
H  H124  1  0.72820000  0.52940000  0.24870000  1.0 0.1302679628
H  H125  1  0.52390000  0.84530000  0.78320000  1.0 0.1302679628
H  H126  1  0.84530000  0.52390000  0.21680000  1.0 0.1302679628
H  H127  1  0.62390000  0.73350000  0.77860000  1.0 0.1477854481
H  H128  1  0.73350000  0.62390000  0.22140000  1.0 0.1477854481
H  H129  1  0.60370000  0.81950000  0.76090000  1.0 0.1198064485
H  H130  1  0.81950000  0.60370000  0.23910000  1.0 0.1198064485
H  H131  1  0.39040000  0.97860000  0.71910000  1.0 0.1302679628
H  H132  1  0.97860000  0.39040000  0.28090000  1.0 0.1302679628
H  H133  1  0.46810000  0.95450000  0.69560000  1.0 0.1198064485
H  H134  1  0.95450000  0.46810000  0.30440000  1.0 0.1198064485
H  H135  1  0.39910000  0.95710000  0.67110000  1.0 0.1302679628
H  H136  1  0.95710000  0.39910000  0.32890000  1.0 0.1302679628
H  H137  1  0.40400000  0.11060000  0.34840000  1.0 0.1198064485
H  H138  1  0.11060000  0.40400000  0.65160000  1.0 0.1198064485
H  H139  1  0.69320000  0.82300000  0.38120000  1.0 0.1302679628
H  H140  1  0.82300000  0.69320000  0.61880000  1.0 0.1302679628
H  H141  1  0.29240000  0.25120000  0.30840000  1.0 0.1302679628
H  H142  1  0.25120000  0.29240000  0.69160000  1.0 0.1302679628
H  H143  1  0.23420000  0.30220000  0.25880000  1.0 0.1302679628
H  H144  1  0.30220000  0.23420000  0.74120000  1.0 0.1302679628
H  H145  1  0.26500000  0.21200000  0.28300000  1.0 0.1198064485
H  H146  1  0.21200000  0.26500000  0.71700000  1.0 0.1198064485
H  H147  1  0.42350000  0.22370000  0.28600000  1.0 0.1302679628
H  H148  1  0.22370000  0.42350000  0.71400000  1.0 0.1302679628
H  H149  1  0.47000000  0.17360000  0.24520000  1.0 0.1375986406
H  H150  1  0.17360000  0.47000000  0.75480000  1.0 0.1375986406
H  H151  1  0.35410000  0.28030000  0.23850000  1.0 0.1302679628
H  H152  1  0.28030000  0.35410000  0.76150000  1.0 0.1302679628
H  H153  1  0.09440000  0.46460000  0.30740000  1.0 0.1198064485
H  H154  1  0.46460000  0.09440000  0.69260000  1.0 0.1198064485
H  H155  1  0.08900000  0.54280000  0.30380000  1.0 0.1198064485
H  H156  1  0.54280000  0.08900000  0.69620000  1.0 0.1198064485
H  H157  1  0.42440000  0.10480000  0.20730000  1.0 0.1477854481
H  H158  1  0.10480000  0.42440000  0.79270000  1.0 0.1477854481
H  H159  1  0.34140000  0.12720000  0.22310000  1.0 0.1198064485
H  H160  1  0.12720000  0.34140000  0.77690000  1.0 0.1198064485
H  H161  1  0.31180000  0.21680000  0.19920000  1.0 0.1302679628
H  H162  1  0.21680000  0.31180000  0.80080000  1.0 0.1302679628
H  H163  1  0.79520000  0.74640000  0.33130000  1.0 0.1097934757
H  H164  1  0.74640000  0.79520000  0.66870000  1.0 0.1097934757
H  H165  1  0.92190000  0.71730000  0.27880000  1.0 0.1015065552
H  H166  1  0.71730000  0.92190000  0.72120000  1.0 0.1015065552
H  H167  1  0.93800000  0.62220000  0.32320000  1.0 0.1302679628
H  H168  1  0.62220000  0.93800000  0.67680000  1.0 0.1302679628
H  H169  1  0.91860000  0.59600000  0.28270000  1.0 0.1302679628
H  H170  1  0.59600000  0.91860000  0.71730000  1.0 0.1302679628
H  H171  1  0.12620000  0.48200000  0.23870000  1.0 0.1198064485
H  H172  1  0.48200000  0.12620000  0.76130000  1.0 0.1198064485
H  H173  1  0.03380000  0.50880000  0.23270000  1.0 0.1015065552
H  H174  1  0.50880000  0.03380000  0.76730000  1.0 0.1015065552
H  H175  1  0.99220000  0.62660000  0.18200000  1.0 0.1198064485
H  H176  1  0.62660000  0.99220000  0.81800000  1.0 0.1198064485
H  H177  1  0.01800000  0.65320000  0.21970000  1.0 0.1302679628
H  H178  1  0.65320000  0.01800000  0.78030000  1.0 0.1302679628
H  H179  1  0.86570000  0.68590000  0.20870000  1.0 0.1097934757
H  H180  1  0.68590000  0.86570000  0.79130000  1.0 0.1097934757
H  H181  1  0.90330000  0.77750000  0.16050000  1.0 0.1097934757
H  H182  1  0.77750000  0.90330000  0.83950000  1.0 0.1097934757
H  H183  1  0.57820000  0.17120000  0.05150000  1.0 0.1198064485
H  H184  1  0.17120000  0.57820000  0.94850000  1.0 0.1198064485
H  H185  1  0.86600000  0.89700000  0.10810000  1.0 0.1198064485
H  H186  1  0.89700000  0.86600000  0.89190000  1.0 0.1198064485
H  H187  1  0.37880000  0.18060000  0.09660000  1.0 0.1198064485
H  H188  1  0.18060000  0.37880000  0.90340000  1.0 0.1198064485
H  H189  1  0.47330000  0.09730000  0.07530000  1.0 0.1198064485
H  H190  1  0.09730000  0.47330000  0.92470000  1.0 0.1198064485
H  H191  1  0.48580000  0.08220000  0.12700000  1.0 0.1302679628
H  H192  1  0.08220000  0.48580000  0.87300000  1.0 0.1302679628
H  H193  1  0.36430000  0.29190000  0.13530000  1.0 0.1302679628
H  H194  1  0.29190000  0.36430000  0.86470000  1.0 0.1302679628
H  H195  1  0.47000000  0.19360000  0.16650000  1.0 0.1302679628
H  H196  1  0.19360000  0.47000000  0.83350000  1.0 0.1302679628
H  H197  1  0.45180000  0.27280000  0.13920000  1.0 0.1198064485
H  H198  1  0.27280000  0.45180000  0.86080000  1.0 0.1198064485
H  H199  1  0.34100000  0.31320000  0.05650000  1.0 0.1302679628
H  H200  1  0.31320000  0.34100000  0.94350000  1.0 0.1302679628
H  H201  1  0.42510000  0.29870000  0.05740000  1.0 0.1198064485
H  H202  1  0.29870000  0.42510000  0.94260000  1.0 0.1198064485
H  H203  1  0.43210000  0.23210000  0.03320000  1.0 0.1198064485
H  H204  1  0.23210000  0.43210000  0.96680000  1.0 0.1198064485
H  H205  1  0.09540000  0.92180000  0.11390000  1.0 0.1302679628
H  H206  1  0.92180000  0.09540000  0.88610000  1.0 0.1302679628
H  H207  1  0.82950000  0.19130000  0.13530000  1.0 0.1198064485
H  H208  1  0.19130000  0.82950000  0.86470000  1.0 0.1198064485
H  H209  1  0.72960000  0.33000000  0.21420000  1.0 0.1302679628
H  H210  1  0.33000000  0.72960000  0.78580000  1.0 0.1302679628
H  H211  1  0.75580000  0.31380000  0.16700000  1.0 0.1302679628
H  H212  1  0.31380000  0.75580000  0.83300000  1.0 0.1302679628
H  H213  1  0.73760000  0.26260000  0.19000000  1.0 0.1198064485
H  H214  1  0.26260000  0.73760000  0.81000000  1.0 0.1198064485
H  H215  1  0.99120000  0.16340000  0.23930000  1.0 0.1375986406
H  H216  1  0.16340000  0.99120000  0.76070000  1.0 0.1375986406
H  H217  1  0.91230000  0.25330000  0.19800000  1.0 0.1302679628
H  H218  1  0.25330000  0.91230000  0.80200000  1.0 0.1302679628
H  H219  1  0.88350000  0.26910000  0.24470000  1.0 0.1302679628
H  H220  1  0.26910000  0.88350000  0.75530000  1.0 0.1302679628
H  H221  1  0.94830000  0.09010000  0.27640000  1.0 0.1477854481
H  H222  1  0.09010000  0.94830000  0.72360000  1.0 0.1477854481
H  H223  1  0.84140000  0.20160000  0.27730000  1.0 0.1302679628
H  H224  1  0.20160000  0.84140000  0.72270000  1.0 0.1302679628
H  H225  1  0.84950000  0.13290000  0.25450000  1.0 0.1198064485
H  H226  1  0.13290000  0.84950000  0.74550000  1.0 0.1198064485
H  H227  1  0.24920000  0.80440000  0.16750000  1.0 0.1097934757
H  H228  1  0.80440000  0.24920000  0.83250000  1.0 0.1097934757
H  H229  1  0.41460000  0.66760000  0.17920000  1.0 0.1198064485
H  H230  1  0.66760000  0.41460000  0.82080000  1.0 0.1198064485
H  H231  1  0.37090000  0.63570000  0.19180000  1.0 0.1198064485
H  H232  1  0.63570000  0.37090000  0.80820000  1.0 0.1198064485
H  H233  1  0.64860000  0.45980000  0.26860000  1.0 0.1097934757
H  H234  1  0.45980000  0.64860000  0.73140000  1.0 0.1097934757
H  H235  1  0.59520000  0.55640000  0.23610000  1.0 0.1198064485
H  H236  1  0.55640000  0.59520000  0.76390000  1.0 0.1198064485
H  H237  1  0.54250000  0.55750000  0.31810000  1.0 0.1198064485
H  H238  1  0.55750000  0.54250000  0.68190000  1.0 0.1198064485
H  H239  1  0.58440000  0.59160000  0.30580000  1.0 0.1198064485
H  H240  1  0.59160000  0.58440000  0.69420000  1.0 0.1198064485
H  H241  1  0.47970000  0.69930000  0.34020000  1.0 0.1015065552
H  H242  1  0.69930000  0.47970000  0.65980000  1.0 0.1015065552
H  H243  1  0.35970000  0.67390000  0.26100000  1.0 0.1015065552
H  H244  1  0.67390000  0.35970000  0.73900000  1.0 0.1015065552
H  H245  1  0.55420000  0.49220000  0.20840000  1.0 0.1097934757
H  H246  1  0.49220000  0.55420000  0.79160000  1.0 0.1097934757
H  H247  1  0.50850000  0.50710000  0.24950000  1.0 0.1015065552
H  H248  1  0.50710000  0.50850000  0.75050000  1.0 0.1015065552
H  H249  1  0.43660000  0.73020000  0.24770000  1.0 0.1015065552
H  H250  1  0.73020000  0.43660000  0.75230000  1.0 0.1015065552
H  H251  1  0.22900000  0.01600000  0.43890000  1.0 0.1198064485
H  H252  1  0.01600000  0.22900000  0.56110000  1.0 0.1198064485
H  H253  1  0.48000000  0.77740000  0.39520000  1.0 0.1198064485
H  H254  1  0.77740000  0.48000000  0.60480000  1.0 0.1198064485
H  H255  1  0.95030000  0.20250000  0.35190000  1.0 0.1302679628
H  H256  1  0.20250000  0.95030000  0.64810000  1.0 0.1302679628
H  H257  1  0.04040000  0.17320000  0.34130000  1.0 0.1198064485
H  H258  1  0.17320000  0.04040000  0.65870000  1.0 0.1198064485
H  H259  1  0.02240000  0.12060000  0.32330000  1.0 0.1375986406
H  H260  1  0.12060000  0.02240000  0.67670000  1.0 0.1375986406
H  H261  1  0.99440000  0.14640000  0.43430000  1.0 0.1302679628
H  H262  1  0.14640000  0.99440000  0.56570000  1.0 0.1302679628
H  H263  1  0.10510000  0.03970000  0.45810000  1.0 0.1198064485
H  H264  1  0.03970000  0.10510000  0.54190000  1.0 0.1198064485
H  H265  1  0.08140000  0.12800000  0.44000000  1.0 0.1198064485
H  H266  1  0.12800000  0.08140000  0.56000000  1.0 0.1198064485
H  H267  1  0.98740000  0.07020000  0.38750000  1.0 0.1097934757
H  H268  1  0.07020000  0.98740000  0.61250000  1.0 0.1097934757
H  H269  1  0.06580000  0.00080000  0.35720000  1.0 0.1198064485
H  H270  1  0.00080000  0.06580000  0.64280000  1.0 0.1198064485
H  H271  1  0.09910000  0.96130000  0.40860000  1.0 0.1198064485
H  H272  1  0.96130000  0.09910000  0.59140000  1.0 0.1198064485
C  C1  1  0.64703000  0.93023000  0.54550000  1.0 0.589594181
C  C2  1  0.93023000  0.64703000  0.45450000  1.0 0.589594181
C  C3  1  0.66607000  0.97247000  0.57432000  1.0 -0.0299966789
C  C4  1  0.97247000  0.66607000  0.42568000  1.0 -0.0299966789
C  C5  1  0.58871000  0.07551000  0.57458000  1.0 -0.1391425304
C  C6  1  0.07551000  0.58871000  0.42542000  1.0 -0.1391425304
C  C7  1  0.60193000  0.10953000  0.60590000  1.0 -0.0470178444
C  C8  1  0.10953000  0.60193000  0.39410000  1.0 -0.0470178444
C  C9  1  0.69249000  0.04049000  0.63700000  1.0 0.2269265211
C  C10  1  0.04049000  0.69249000  0.36300000  1.0 0.2269265211
C  C11  1  0.76995000  0.93735000  0.63672000  1.0 -0.0797008009
C  C12  1  0.93735000  0.76995000  0.36328000  1.0 -0.0797008009
C  C13  1  0.75674000  0.90334000  0.60539000  1.0 -0.1589805978
C  C14  1  0.90334000  0.75674000  0.39461000  1.0 -0.1589805978
C  C15  1  0.57064000  0.25444000  0.59820000  1.0 -0.4413143093
C  C16  1  0.25444000  0.57064000  0.40180000  1.0 -0.4413143093
C  C17  1  0.52398000  0.22458000  0.59880000  1.0 0.2877197495
C  C18  1  0.22458000  0.52398000  0.40120000  1.0 0.2877197495
C  C19  1  0.46740000  0.26420000  0.63760000  1.0 -0.4715236039
C  C20  1  0.26420000  0.46740000  0.36240000  1.0 -0.4715236039
C  C21  1  0.43840000  0.29060000  0.55700000  1.0 -0.4491792107
C  C22  1  0.29060000  0.43840000  0.44300000  1.0 -0.4491792107
C  C23  1  0.85670000  0.86970000  0.66960000  1.0 0.0570221065
C  C24  1  0.86970000  0.85670000  0.33040000  1.0 0.0570221065
C  C25  1  0.98030000  0.79510000  0.73260000  1.0 0.0094004026
C  C26  1  0.79510000  0.98030000  0.26740000  1.0 0.0094004026
C  C27  1  0.06710000  0.69450000  0.71890000  1.0 -0.231814734
C  C28  1  0.69450000  0.06710000  0.28110000  1.0 -0.231814734
C  C29  1  0.15970000  0.61610000  0.75970000  1.0 -0.1589805978
C  C30  1  0.61610000  0.15970000  0.24030000  1.0 -0.1589805978
C  C31  1  0.17800000  0.66440000  0.77860000  1.0 -0.1589805978
C  C32  1  0.66440000  0.17800000  0.22140000  1.0 -0.1589805978
C  C33  1  0.09130000  0.75190000  0.80030000  1.0 -0.2200442398
C  C34  1  0.75190000  0.09130000  0.19970000  1.0 -0.2200442398
C  C35  1  0.00150000  0.83470000  0.75880000  1.0 0.0570221065
C  C36  1  0.83470000  0.00150000  0.24120000  1.0 0.0570221065
C  C37  1  0.89640000  0.95060000  0.80730000  1.0 0.0743476605
C  C38  1  0.95060000  0.89640000  0.19270000  1.0 0.0743476605
C  C39  1  0.80385000  0.04725000  0.81751000  1.0 -0.0797008009
C  C40  1  0.04725000  0.80385000  0.18249000  1.0 -0.0797008009
C  C41  1  0.71258000  0.12478000  0.78676000  1.0 0.248809003
C  C42  1  0.12478000  0.71258000  0.21324000  1.0 0.248809003
C  C43  1  0.62800000  0.21640000  0.79845000  1.0 -0.0592271296
C  C44  1  0.21640000  0.62800000  0.20155000  1.0 -0.0592271296
C  C45  1  0.63460000  0.23060000  0.84090000  1.0 -0.1391425304
C  C46  1  0.23060000  0.63460000  0.15910000  1.0 -0.1391425304
C  C47  1  0.72600000  0.15300000  0.87163000  1.0 -0.0592271296
C  C48  1  0.15300000  0.72600000  0.12837000  1.0 -0.0592271296
C  C49  1  0.81055000  0.06135000  0.85995000  1.0 -0.1391425304
C  C50  1  0.06135000  0.81055000  0.14005000  1.0 -0.1391425304
C  C51  1  0.52643000  0.30483000  0.76396000  1.0 0.3024756765
C  C52  1  0.30483000  0.52643000  0.23604000  1.0 0.3024756765
C  C53  1  0.53980000  0.32940000  0.72020000  1.0 -0.4715236039
C  C54  1  0.32940000  0.53980000  0.27980000  1.0 -0.4715236039
C  C55  1  0.44880000  0.39900000  0.78480000  1.0 -0.4715236039
C  C56  1  0.39900000  0.44880000  0.21520000  1.0 -0.4715236039
C  C57  1  0.47672000  0.28092000  0.75010000  1.0 -0.4887317823
C  C58  1  0.28092000  0.47672000  0.24990000  1.0 -0.4887317823
C  C59  1  0.73070000  0.16810000  0.91700000  1.0 0.589594181
C  C60  1  0.16810000  0.73070000  0.08300000  1.0 0.589594181
C  C61  1  0.80790000  0.27730000  0.95410000  1.0 0.5790767427
C  C62  1  0.27730000  0.80790000  0.04590000  1.0 0.5790767427
C  C63  1  0.79479000  0.34279000  0.91759000  1.0 -0.0216381789
C  C64  1  0.34279000  0.79479000  0.08241000  1.0 -0.0216381789
C  C65  1  0.86386000  0.29666000  0.88990000  1.0 -0.1728622758
C  C66  1  0.29666000  0.86386000  0.11010000  1.0 -0.1728622758
C  C67  1  0.85140000  0.35560000  0.85730000  1.0 -0.0690424064
C  C68  1  0.35560000  0.85140000  0.14270000  1.0 -0.0690424064
C  C69  1  0.76990000  0.46070000  0.85240000  1.0 0.2381199753
C  C70  1  0.46070000  0.76990000  0.14760000  1.0 0.2381199753
C  C71  1  0.70090000  0.50670000  0.88010000  1.0 -0.0592271296
C  C72  1  0.50670000  0.70090000  0.11990000  1.0 -0.0592271296
C  C73  1  0.71337000  0.44777000  0.91270000  1.0 -0.1391425304
C  C74  1  0.44777000  0.71337000  0.08730000  1.0 -0.1391425304
C  C75  1  0.63056000  0.61596000  0.88510000  1.0 0.2877197495
C  C76  1  0.61596000  0.63056000  0.11490000  1.0 0.2877197495
C  C77  1  0.54420000  0.67780000  0.84420000  1.0 -0.4606947148
C  C78  1  0.67780000  0.54420000  0.15580000  1.0 -0.4606947148
C  C79  1  0.68190000  0.64030000  0.88910000  1.0 -0.4413143093
C  C80  1  0.64030000  0.68190000  0.11090000  1.0 -0.4413143093
C  C81  1  0.57690000  0.64930000  0.92390000  1.0 -0.4413143093
C  C82  1  0.64930000  0.57690000  0.07610000  1.0 -0.4413143093
C  C83  1  0.92650000  0.30110000  0.83260000  1.0 0.0003222539
C  C84  1  0.30110000  0.92650000  0.16740000  1.0 0.0003222539
C  C85  1  0.01900000  0.27860000  0.77770000  1.0 0.040956807
C  C86  1  0.27860000  0.01900000  0.22230000  1.0 0.040956807
C  C87  1  0.10070000  0.17530000  0.78740000  1.0 -0.2200442398
C  C88  1  0.17530000  0.10070000  0.21260000  1.0 -0.2200442398
C  C89  1  0.18560000  0.12760000  0.76280000  1.0 -0.1391425304
C  C90  1  0.12760000  0.18560000  0.23720000  1.0 -0.1391425304
C  C91  1  0.14300000  0.16420000  0.71250000  1.0 -0.149116035
C  C92  1  0.16420000  0.14300000  0.28750000  1.0 -0.149116035
C  C93  1  0.05020000  0.27960000  0.70500000  1.0 -0.1885336185
C  C94  1  0.27960000  0.05020000  0.29500000  1.0 -0.1885336185
C  C95  1  0.98380000  0.32060000  0.72830000  1.0 0.0475952426
C  C96  1  0.32060000  0.98380000  0.27170000  1.0 0.0475952426
C  C97  1  0.84780000  0.49860000  0.68730000  1.0 -0.0216381789
C  C98  1  0.49860000  0.84780000  0.31270000  1.0 -0.0216381789
C  C99  1  0.75282000  0.60062000  0.67399000  1.0 -0.0690424064
C  C100  1  0.60062000  0.75282000  0.32601000  1.0 -0.0690424064
C  C101  1  0.68453000  0.65753000  0.70186000  1.0 0.2666051245
C  C102  1  0.65753000  0.68453000  0.29814000  1.0 0.2666051245
C  C103  1  0.59150000  0.76050000  0.68652000  1.0 -0.0690424064
C  C104  1  0.76050000  0.59150000  0.31348000  1.0 -0.0690424064
C  C105  1  0.56680000  0.80660000  0.64330000  1.0 -0.1165501861
C  C106  1  0.80660000  0.56680000  0.35670000  1.0 -0.1165501861
C  C107  1  0.63510000  0.74970000  0.61543000  1.0 -0.1015900815
C  C108  1  0.74970000  0.63510000  0.38457000  1.0 -0.1015900815
C  C109  1  0.72819000  0.64659000  0.63077000  1.0 -0.1280631901
C  C110  1  0.64659000  0.72819000  0.36923000  1.0 -0.1280631901
C  C111  1  0.51846000  0.82506000  0.71890000  1.0 0.3082482076
C  C112  1  0.82506000  0.51846000  0.28110000  1.0 0.3082482076
C  C113  1  0.47480000  0.79740000  0.73530000  1.0 -0.4998694305
C  C114  1  0.79740000  0.47480000  0.26470000  1.0 -0.4998694305
C  C115  1  0.57270000  0.80390000  0.76480000  1.0 -0.4799507552
C  C116  1  0.80390000  0.57270000  0.23520000  1.0 -0.4799507552
C  C117  1  0.43630000  0.93970000  0.69930000  1.0 -0.4887317823
C  C118  1  0.93970000  0.43630000  0.30070000  1.0 -0.4887317823
C  C119  1  0.60820000  0.79300000  0.57260000  1.0 0.4876170313
C  C120  1  0.79300000  0.60820000  0.42740000  1.0 0.4876170313
C  C121  1  0.52490000  0.96490000  0.41684000  1.0 0.5627923465
C  C122  1  0.96490000  0.52490000  0.58316000  1.0 0.5627923465
C  C123  1  0.54635000  0.96535000  0.37177000  1.0 -0.0299966789
C  C124  1  0.96535000  0.54635000  0.62823000  1.0 -0.0299966789
C  C125  1  0.46651000  0.05591000  0.34082000  1.0 -0.149116035
C  C126  1  0.05591000  0.46651000  0.65918000  1.0 -0.149116035
C  C127  1  0.48020000  0.06460000  0.29859000  1.0 -0.0402273697
C  C128  1  0.06460000  0.48020000  0.70141000  1.0 -0.0402273697
C  C129  1  0.57380000  0.98280000  0.28731000  1.0 0.2143518782
C  C130  1  0.98280000  0.57380000  0.71269000  1.0 0.2143518782
C  C131  1  0.65350000  0.89230000  0.31826000  1.0 -0.0592271296
C  C132  1  0.89230000  0.65350000  0.68174000  1.0 -0.0592271296
C  C133  1  0.63989000  0.88349000  0.36049000  1.0 -0.149116035
C  C134  1  0.88349000  0.63989000  0.63951000  1.0 -0.149116035
C  C135  1  0.38727000  0.16307000  0.26500000  1.0 0.3024756765
C  C136  1  0.16307000  0.38727000  0.73500000  1.0 0.3024756765
C  C137  1  0.28510000  0.23930000  0.28020000  1.0 -0.4887317823
C  C138  1  0.23930000  0.28510000  0.71980000  1.0 -0.4887317823
C  C139  1  0.41093000  0.21513000  0.25800000  1.0 -0.4799507552
C  C140  1  0.21513000  0.41093000  0.74200000  1.0 -0.4799507552
C  C141  1  0.05810000  0.52950000  0.29140000  1.0 -0.149116035
C  C142  1  0.52950000  0.05810000  0.70860000  1.0 -0.149116035
C  C143  1  0.36390000  0.15190000  0.21930000  1.0 -0.4799507552
C  C144  1  0.15190000  0.36390000  0.78070000  1.0 -0.4799507552
C  C145  1  0.74960000  0.80440000  0.30890000  1.0 0.0570221065
C  C146  1  0.80440000  0.74960000  0.69110000  1.0 0.0570221065
C  C147  1  0.88910000  0.70430000  0.26834000  1.0 0.0475952426
C  C148  1  0.70430000  0.88910000  0.73166000  1.0 0.0475952426
C  C149  1  0.94500000  0.61520000  0.29270000  1.0 -0.1985657656
C  C150  1  0.61520000  0.94500000  0.70730000  1.0 -0.1985657656
C  C151  1  0.05690000  0.53130000  0.24270000  1.0 -0.1391425304
C  C152  1  0.53130000  0.05690000  0.75730000  1.0 -0.1391425304
C  C153  1  0.99160000  0.63260000  0.21280000  1.0 -0.231814734
C  C154  1  0.63260000  0.99160000  0.78720000  1.0 -0.231814734
C  C155  1  0.89260000  0.70440000  0.22007000  1.0 0.0475952426
C  C156  1  0.70440000  0.89260000  0.77993000  1.0 0.0475952426
C  C157  1  0.83937000  0.82977000  0.16730000  1.0 0.1097934757
C  C158  1  0.82977000  0.83937000  0.83270000  1.0 0.1097934757
C  C159  1  0.76185000  0.93685000  0.13918000  1.0 -0.0797008009
C  C160  1  0.93685000  0.76185000  0.86082000  1.0 -0.0797008009
C  C161  1  0.65831000  0.01331000  0.13813000  1.0 0.1969534016
C  C162  1  0.01331000  0.65831000  0.86187000  1.0 0.1969534016
C  C163  1  0.58953000  0.10113000  0.10530000  1.0 -0.0402273697
C  C164  1  0.10113000  0.58953000  0.89470000  1.0 -0.0402273697
C  C165  1  0.62430000  0.11250000  0.07350000  1.0 -0.1391425304
C  C166  1  0.11250000  0.62430000  0.92650000  1.0 -0.1391425304
C  C167  1  0.72781000  0.03601000  0.07460000  1.0 -0.0216381789
C  C168  1  0.03601000  0.72781000  0.92540000  1.0 -0.0216381789
C  C169  1  0.79670000  0.94810000  0.10739000  1.0 -0.1589805978
C  C170  1  0.94810000  0.79670000  0.89261000  1.0 -0.1589805978
C  C171  1  0.47282000  0.18522000  0.10087000  1.0 0.2877197495
C  C172  1  0.18522000  0.47282000  0.89913000  1.0 0.2877197495
C  C173  1  0.45060000  0.13120000  0.09990000  1.0 -0.4491792107
C  C174  1  0.13120000  0.45060000  0.90010000  1.0 -0.4491792107
C  C175  1  0.43640000  0.24100000  0.13900000  1.0 -0.4799507552
C  C176  1  0.24100000  0.43640000  0.86100000  1.0 -0.4799507552
C  C177  1  0.41210000  0.26470000  0.05800000  1.0 -0.4491792107
C  C178  1  0.26470000  0.41210000  0.94200000  1.0 -0.4491792107
C  C179  1  0.90340000  0.08840000  0.06858000  1.0 0.589594181
C  C180  1  0.08840000  0.90340000  0.93142000  1.0 0.589594181
C  C181  1  0.76432000  0.05232000  0.04040000  1.0 0.5980621731
C  C182  1  0.05232000  0.76432000  0.95960000  1.0 0.5980621731
C  C183  1  0.95463000  0.06063000  0.11748000  1.0 -0.0299966789
C  C184  1  0.06063000  0.95463000  0.88252000  1.0 -0.0299966789
C  C185  1  0.05776000  0.96756000  0.13256000  1.0 -0.1391425304
C  C186  1  0.96756000  0.05776000  0.86744000  1.0 -0.1391425304
C  C187  1  0.10460000  0.94300000  0.17553000  1.0 -0.0864454949
C  C188  1  0.94300000  0.10460000  0.82447000  1.0 -0.0864454949
C  C189  1  0.04840000  0.01140000  0.20342000  1.0 0.2167271903
C  C190  1  0.01140000  0.04840000  0.79658000  1.0 0.2167271903
C  C191  1  0.94530000  0.10450000  0.18834000  1.0 -0.0470178444
C  C192  1  0.10450000  0.94530000  0.81166000  1.0 -0.0470178444
C  C193  1  0.89843000  0.12903000  0.14537000  1.0 -0.1280631901
C  C194  1  0.12903000  0.89843000  0.85463000  1.0 -0.1280631901
C  C195  1  0.76460000  0.28260000  0.19480000  1.0 -0.4715236039
C  C196  1  0.28260000  0.76460000  0.80520000  1.0 -0.4715236039
C  C197  1  0.87916000  0.18776000  0.21620000  1.0 0.3024756765
C  C198  1  0.18776000  0.87916000  0.78380000  1.0 0.3024756765
C  C199  1  0.92043000  0.22163000  0.22540000  1.0 -0.5071877682
C  C200  1  0.22163000  0.92043000  0.77460000  1.0 -0.5071877682
C  C201  1  0.87970000  0.14950000  0.26020000  1.0 -0.4715236039
C  C202  1  0.14950000  0.87970000  0.73980000  1.0 -0.4715236039
C  C203  1  0.21280000  0.84300000  0.18850000  1.0 0.1015065552
C  C204  1  0.84300000  0.21280000  0.81150000  1.0 0.0947301319
C  C205  1  0.41030000  0.64050000  0.20340000  1.0 -0.2123372996
C  C206  1  0.64050000  0.41030000  0.79660000  1.0 -0.2123372996
C  C207  1  0.58330000  0.53070000  0.25620000  1.0 -0.1589805978
C  C208  1  0.53070000  0.58330000  0.74380000  1.0 -0.1589805978
C  C209  1  0.54380000  0.58820000  0.29420000  1.0 -0.231814734
C  C210  1  0.58820000  0.54380000  0.70580000  1.0 -0.231814734
C  C211  1  0.41020000  0.76080000  0.33070000  1.0 0.1015065552
C  C212  1  0.76080000  0.41020000  0.66930000  1.0 0.1015065552
C  C213  1  0.36210000  0.70810000  0.23990000  1.0 0.040956807
C  C214  1  0.70810000  0.36210000  0.76010000  1.0 0.040956807
C  C215  1  0.51700000  0.53600000  0.22950000  1.0 -0.1589805978
C  C216  1  0.53600000  0.51700000  0.77050000  1.0 -0.1589805978
C  C217  1  0.42620000  0.70320000  0.26840000  1.0 0.0094004026
C  C218  1  0.70320000  0.42620000  0.73160000  1.0 0.0094004026
C  C219  1  0.35103000  0.84423000  0.35903000  1.0 -0.0797008009
C  C220  1  0.84423000  0.35103000  0.64097000  1.0 -0.0797008009
C  C221  1  0.24642000  0.92282000  0.35529000  1.0 0.2167271903
C  C222  1  0.92282000  0.24642000  0.64471000  1.0 0.2167271903
C  C223  1  0.20073000  0.98713000  0.38520000  1.0 -0.0470178444
C  C224  1  0.98713000  0.20073000  0.61480000  1.0 -0.0470178444
C  C225  1  0.25970000  0.97290000  0.41890000  1.0 -0.1165501861
C  C226  1  0.97290000  0.25970000  0.58110000  1.0 -0.1165501861
C  C227  1  0.36427000  0.89427000  0.42264000  1.0 -0.0592271296
C  C228  1  0.89427000  0.36427000  0.57736000  1.0 -0.0592271296
C  C229  1  0.40996000  0.82996000  0.39271000  1.0 -0.1589805978
C  C230  1  0.82996000  0.40996000  0.60729000  1.0 -0.1589805978
C  C231  1  0.01900000  0.14800000  0.34760000  1.0 -0.4715236039
C  C232  1  0.14800000  0.01900000  0.65240000  1.0 -0.4715236039
C  C233  1  0.08897000  0.06417000  0.38990000  1.0 0.2877197495
C  C234  1  0.06417000  0.08897000  0.61010000  1.0 0.2877197495
C  C235  1  0.06520000  0.09780000  0.43480000  1.0 -0.4491792107
C  C236  1  0.09780000  0.06520000  0.56520000  1.0 -0.4491792107
C  C237  1  0.05734000  0.01994000  0.38540000  1.0 -0.4331943536
C  C238  1  0.01994000  0.05734000  0.61460000  1.0 -0.4331943536
C  C239  1  0.43100000  0.88400000  0.45120000  1.0 0.589594181
C  C240  1  0.88400000  0.43100000  0.54880000  1.0 0.589594181
N  N1  1  0.88070000  0.87790000  0.70390000  1.0 -0.2500818216
N  N2  1  0.87790000  0.88070000  0.29610000  1.0 -0.2500818216
N  N3  1  0.89750000  0.92610000  0.76980000  1.0 -0.2769482726
N  N4  1  0.92610000  0.89750000  0.23020000  1.0 -0.2769482726
N  N5  1  0.92713000  0.34253000  0.79720000  1.0 -0.3141520613
N  N6  1  0.34253000  0.92713000  0.20280000  1.0 -0.3141520613
N  N7  1  0.88830000  0.43150000  0.72780000  1.0 -0.3865631515
N  N8  1  0.43150000  0.88830000  0.27220000  1.0 -0.3865631515
N  N9  1  0.78200000  0.79500000  0.27280000  1.0 -0.2875390494
N  N10  1  0.79500000  0.78200000  0.72720000  1.0 -0.2875390494
N  N11  1  0.82198000  0.80898000  0.19840000  1.0 -0.2769482726
N  N12  1  0.80898000  0.82198000  0.80160000  1.0 -0.2769482726
N  N13  1  0.25400000  0.81160000  0.22690000  1.0 -0.2409168327
N  N14  1  0.81160000  0.25400000  0.77310000  1.0 -0.2409168327
N  N15  1  0.36510000  0.77690000  0.29620000  1.0 -0.259666785
N  N16  1  0.77690000  0.36510000  0.70380000  1.0 -0.259666785
O  O1  1  0.55978000  0.99478000  0.51977000  1.0 -0.5707154417
O  O2  1  0.99478000  0.55978000  0.48023000  1.0 -0.5707154417
O  O3  1  0.72085000  0.84085000  0.54340000  1.0 -0.5300028765
O  O4  1  0.84085000  0.72085000  0.45660000  1.0 -0.5300028765
O  O5  1  0.68758000  0.07498000  0.67230000  1.0 -0.4413143093
O  O6  1  0.07498000  0.68758000  0.32770000  1.0 -0.4413143093
O  O7  1  0.70104000  0.11324000  0.74704000  1.0 -0.4491792107
O  O8  1  0.11324000  0.70104000  0.25296000  1.0 -0.4491792107
O  O9  1  0.81508000  0.09728000  0.94750000  1.0 -0.6208164388
O  O10  1  0.09728000  0.81508000  0.05250000  1.0 -0.6208164388
O  O11  1  0.66050000  0.25290000  0.92650000  1.0 -0.4887317823
O  O12  1  0.25290000  0.66050000  0.07350000  1.0 -0.4887317823
O  O13  1  0.87870000  0.18030000  0.95640000  1.0 -0.6364499176
O  O14  1  0.18030000  0.87870000  0.04360000  1.0 -0.6364499176
O  O15  1  0.71060000  0.33940000  0.96460000  1.0 -0.6520153427
O  O16  1  0.33940000  0.71060000  0.03540000  1.0 -0.6520153427
O  O17  1  0.75245000  0.51325000  0.81793000  1.0 -0.4160527134
O  O18  1  0.51325000  0.75245000  0.18207000  1.0 -0.4160527134
O  O19  1  0.70098000  0.61718000  0.74106000  1.0 -0.4160527134
O  O20  1  0.61718000  0.70098000  0.25894000  1.0 -0.4160527134
O  O21  1  0.52620000  0.90080000  0.56080000  1.0 -0.5949009502
O  O22  1  0.90080000  0.52620000  0.43920000  1.0 -0.5949009502
O  O23  1  0.66150000  0.74670000  0.54290000  1.0 -0.6208164388
O  O24  1  0.74670000  0.66150000  0.45710000  1.0 -0.6208164388
O  O25  1  0.44110000  0.04510000  0.42220000  1.0 -0.4998694305
O  O26  1  0.04510000  0.44110000  0.57780000  1.0 -0.4998694305
O  O27  1  0.59310000  0.88630000  0.44390000  1.0 -0.5390511
O  O28  1  0.88630000  0.59310000  0.55610000  1.0 -0.5390511
O  O29  1  0.59020000  0.99000000  0.24670000  1.0 -0.4715236039
O  O30  1  0.99000000  0.59020000  0.75330000  1.0 -0.4715236039
O  O31  1  0.62904000  0.00064000  0.17300000  1.0 -0.4998694305
O  O32  1  0.00064000  0.62904000  0.82700000  1.0 -0.4998694305
O  O33  1  0.86340000  0.97520000  0.04430000  1.0 -0.6085327709
O  O34  1  0.97520000  0.86340000  0.95570000  1.0 -0.6085327709
O  O35  1  0.69870000  0.14310000  0.02110000  1.0 -0.5707154417
O  O36  1  0.14310000  0.69870000  0.97890000  1.0 -0.5707154417
O  O37  1  0.95505000  0.03945000  0.04066000  1.0 -0.5817474568
O  O38  1  0.03945000  0.95505000  0.95934000  1.0 -0.5817474568
O  O39  1  0.81650000  0.17090000  0.06160000  1.0 -0.4715236039
O  O40  1  0.17090000  0.81650000  0.93840000  1.0 -0.4715236039
O  O41  1  0.09421000  0.99001000  0.24399000  1.0 -0.4413143093
O  O42  1  0.99001000  0.09421000  0.75601000  1.0 -0.4413143093
O  O43  1  0.18130000  0.94990000  0.32120000  1.0 -0.4715236039
O  O44  1  0.94990000  0.18130000  0.67880000  1.0 -0.4715236039
O  O45  1  0.38570000  0.95250000  0.47130000  1.0 -0.5071877682
O  O46  1  0.95250000  0.38570000  0.52870000  1.0 -0.5071877682
O  O47  1  0.52410000  0.79730000  0.46150000  1.0 -0.5988477314
O  O48  1  0.79730000  0.52410000  0.53850000  1.0 -0.5988477314
