# DDEC6 charges by PACMAN v1.1 (https://github.com/mtap-research/PACMAN-charge/)
data_KUTKUH_FSR_pacman
_symmetry_space_group_name_H-M   'P 1'
_cell_length_a   18.62770000
_cell_length_b   18.62770000
_cell_length_c   17.97600000
_cell_angle_alpha   87.49890000
_cell_angle_beta   92.50110000
_cell_angle_gamma   49.02180000
_symmetry_Int_Tables_number   1
_chemical_formula_structural   CdH32C48(N3O5)2
_chemical_formula_sum   'Cd4 H128 C192 N24 O40'
_cell_volume   4682.94441705
_cell_formula_units_Z   4
loop_
 _symmetry_equiv_pos_site_id
 _symmetry_equiv_pos_as_xyz
  1  'x, y, z'
loop_
 _atom_site_type_symbol
 _atom_site_label
 _atom_site_symmetry_multiplicity
 _atom_site_fract_x
 _atom_site_fract_y
 _atom_site_fract_z
 _atom_site_occupancy
 _atom_site_charge
Cd  Cd1  1  0.04126000  0.51632000  0.33810000  1.0 0.8035894989
Cd  Cd2  1  0.51632000  0.04126000  0.16190000  1.0 0.8035894989
Cd  Cd3  1  0.95874000  0.48368000  0.66190000  1.0 0.8035894989
Cd  Cd4  1  0.48368000  0.95874000  0.83810000  1.0 0.8035894989
H  H1  1  0.29500000  0.62320000  0.51450000  1.0 0.1293361678
H  H2  1  0.62320000  0.29500000  0.98550000  1.0 0.1293361678
H  H3  1  0.70500000  0.37680000  0.48550000  1.0 0.1293361678
H  H4  1  0.37680000  0.70500000  0.01450000  1.0 0.1293361678
H  H5  1  0.37050000  0.57430000  0.30440000  1.0 0.1210517355
H  H6  1  0.57430000  0.37050000  0.19560000  1.0 0.1210517355
H  H7  1  0.62950000  0.42570000  0.69560000  1.0 0.1210517355
H  H8  1  0.42570000  0.62950000  0.80440000  1.0 0.1210517355
H  H9  1  0.27270000  0.54030000  0.28040000  1.0 0.1210517355
H  H10  1  0.54030000  0.27270000  0.21960000  1.0 0.1210517355
H  H11  1  0.72730000  0.45970000  0.71960000  1.0 0.1210517355
H  H12  1  0.45970000  0.72730000  0.78040000  1.0 0.1210517355
H  H13  1  0.75430000  0.83690000  0.33670000  1.0 0.1293361678
H  H14  1  0.83690000  0.75430000  0.16330000  1.0 0.1293361678
H  H15  1  0.24570000  0.16310000  0.66330000  1.0 0.1293361678
H  H16  1  0.16310000  0.24570000  0.83670000  1.0 0.1293361678
H  H17  1  0.61570000  0.96610000  0.38350000  1.0 0.1210517355
H  H18  1  0.96610000  0.61570000  0.11650000  1.0 0.1210517355
H  H19  1  0.38430000  0.03390000  0.61650000  1.0 0.1210517355
H  H20  1  0.03390000  0.38430000  0.88350000  1.0 0.1210517355
H  H21  1  0.62330000  0.78570000  0.51950000  1.0 0.1210517355
H  H22  1  0.78570000  0.62330000  0.98050000  1.0 0.1210517355
H  H23  1  0.37670000  0.21430000  0.48050000  1.0 0.1210517355
H  H24  1  0.21430000  0.37670000  0.01950000  1.0 0.1210517355
H  H25  1  0.75790000  0.65910000  0.46670000  1.0 0.1210517355
H  H26  1  0.65910000  0.75790000  0.03330000  1.0 0.1210517355
H  H27  1  0.24210000  0.34090000  0.53330000  1.0 0.1210517355
H  H28  1  0.34090000  0.24210000  0.96670000  1.0 0.1210517355
H  H29  1  0.21060000  0.27040000  0.35280000  1.0 0.0988787295
H  H30  1  0.27040000  0.21060000  0.14720000  1.0 0.0988787295
H  H31  1  0.78940000  0.72960000  0.64720000  1.0 0.0988787295
H  H32  1  0.72960000  0.78940000  0.85280000  1.0 0.0988787295
H  H33  1  0.99550000  0.41710000  0.47300000  1.0 0.1210517355
H  H34  1  0.41710000  0.99550000  0.02700000  1.0 0.1210517355
H  H35  1  0.00450000  0.58290000  0.52700000  1.0 0.1210517355
H  H36  1  0.58290000  0.00450000  0.97300000  1.0 0.1210517355
H  H37  1  0.11620000  0.18900000  0.54230000  1.0 0.1293361678
H  H38  1  0.18900000  0.11620000  0.95770000  1.0 0.1293361678
H  H39  1  0.88380000  0.81100000  0.45770000  1.0 0.1293361678
H  H40  1  0.81100000  0.88380000  0.04230000  1.0 0.1293361678
H  H41  1  0.00840000  0.28220000  0.52970000  1.0 0.1293361678
H  H42  1  0.28220000  0.00840000  0.97030000  1.0 0.1293361678
H  H43  1  0.99160000  0.71780000  0.47030000  1.0 0.1293361678
H  H44  1  0.71780000  0.99160000  0.02970000  1.0 0.1293361678
H  H45  1  0.98270000  0.05790000  0.35590000  1.0 0.1210517355
H  H46  1  0.05790000  0.98270000  0.14410000  1.0 0.1210517355
H  H47  1  0.01730000  0.94210000  0.64410000  1.0 0.1210517355
H  H48  1  0.94210000  0.01730000  0.85590000  1.0 0.1210517355
H  H49  1  0.18690000  0.90650000  0.48430000  1.0 0.0988787295
H  H50  1  0.90650000  0.18690000  0.01570000  1.0 0.0988787295
H  H51  1  0.81310000  0.09350000  0.51570000  1.0 0.0988787295
H  H52  1  0.09350000  0.81310000  0.98430000  1.0 0.0988787295
H  H53  1  0.25150000  0.03670000  0.43360000  1.0 0.0916276316
H  H54  1  0.03670000  0.25150000  0.06640000  1.0 0.0916276316
H  H55  1  0.74850000  0.96330000  0.56640000  1.0 0.0916276316
H  H56  1  0.96330000  0.74850000  0.93360000  1.0 0.0916276316
H  H57  1  0.30970000  0.99990000  0.51260000  1.0 0.1119081031
H  H58  1  0.99990000  0.30970000  0.98740000  1.0 0.1119081031
H  H59  1  0.69030000  0.00010000  0.48740000  1.0 0.1119081031
H  H60  1  0.00010000  0.69030000  0.01260000  1.0 0.1119081031
H  H61  1  0.15320000  0.88440000  0.29540000  1.0 0.1293361678
H  H62  1  0.88440000  0.15320000  0.20460000  1.0 0.1293361678
H  H63  1  0.84680000  0.11560000  0.70460000  1.0 0.1293361678
H  H64  1  0.11560000  0.84680000  0.79540000  1.0 0.1293361678
H  H65  1  0.79720000  0.30740000  0.34790000  1.0 0.0988787295
H  H66  1  0.30740000  0.79720000  0.15210000  1.0 0.0988787295
H  H67  1  0.20280000  0.69260000  0.65210000  1.0 0.0988787295
H  H68  1  0.69260000  0.20280000  0.84790000  1.0 0.0988787295
H  H69  1  0.33000000  0.95980000  0.17910000  1.0 0.0916276316
H  H70  1  0.95980000  0.33000000  0.32090000  1.0 0.0916276316
H  H71  1  0.67000000  0.04020000  0.82090000  1.0 0.0916276316
H  H72  1  0.04020000  0.67000000  0.67910000  1.0 0.0916276316
H  H73  1  0.42950000  0.89010000  0.14730000  1.0 0.1119081031
H  H74  1  0.89010000  0.42950000  0.35270000  1.0 0.1119081031
H  H75  1  0.57050000  0.10990000  0.85270000  1.0 0.1119081031
H  H76  1  0.10990000  0.57050000  0.64730000  1.0 0.1119081031
H  H77  1  0.50550000  0.78850000  0.34150000  1.0 0.1293361678
H  H78  1  0.78850000  0.50550000  0.15850000  1.0 0.1293361678
H  H79  1  0.49450000  0.21150000  0.65850000  1.0 0.1293361678
H  H80  1  0.21150000  0.49450000  0.84150000  1.0 0.1293361678
H  H81  1  0.46100000  0.84420000  0.41230000  1.0 0.1210517355
H  H82  1  0.84420000  0.46100000  0.08770000  1.0 0.1210517355
H  H83  1  0.53900000  0.15580000  0.58770000  1.0 0.1210517355
H  H84  1  0.15580000  0.53900000  0.91230000  1.0 0.1210517355
H  H85  1  0.35690000  0.12810000  0.29720000  1.0 0.1119081031
H  H86  1  0.12810000  0.35690000  0.20280000  1.0 0.1119081031
H  H87  1  0.64310000  0.87190000  0.70280000  1.0 0.1119081031
H  H88  1  0.87190000  0.64310000  0.79720000  1.0 0.1119081031
H  H89  1  0.55610000  0.86430000  0.26350000  1.0 0.1293361678
H  H90  1  0.86430000  0.55610000  0.23650000  1.0 0.1293361678
H  H91  1  0.44390000  0.13570000  0.73650000  1.0 0.1293361678
H  H92  1  0.13570000  0.44390000  0.76350000  1.0 0.1293361678
H  H93  1  0.64450000  0.49150000  0.41840000  1.0 0.1293361678
H  H94  1  0.49150000  0.64450000  0.08160000  1.0 0.1293361678
H  H95  1  0.35550000  0.50850000  0.58160000  1.0 0.1293361678
H  H96  1  0.50850000  0.35550000  0.91840000  1.0 0.1293361678
H  H97  1  0.60520000  0.66720000  0.61270000  1.0 0.1210517355
H  H98  1  0.66720000  0.60520000  0.88730000  1.0 0.1210517355
H  H99  1  0.39480000  0.33280000  0.38730000  1.0 0.1210517355
H  H100  1  0.33280000  0.39480000  0.11270000  1.0 0.1210517355
H  H101  1  0.47310000  0.70130000  0.54990000  1.0 0.1210517355
H  H102  1  0.70130000  0.47310000  0.95010000  1.0 0.1210517355
H  H103  1  0.52690000  0.29870000  0.45010000  1.0 0.1210517355
H  H104  1  0.29870000  0.52690000  0.04990000  1.0 0.1210517355
H  H105  1  0.73400000  0.24480000  0.29720000  1.0 0.1390114292
H  H106  1  0.24480000  0.73400000  0.20280000  1.0 0.1390114292
H  H107  1  0.26600000  0.75520000  0.70280000  1.0 0.1390114292
H  H108  1  0.75520000  0.26600000  0.79720000  1.0 0.1390114292
H  H109  1  0.83390000  0.14150000  0.31300000  1.0 0.1210517355
H  H110  1  0.14150000  0.83390000  0.18700000  1.0 0.1210517355
H  H111  1  0.16610000  0.85850000  0.68700000  1.0 0.1210517355
H  H112  1  0.85850000  0.16610000  0.81300000  1.0 0.1210517355
H  H113  1  0.77860000  0.20100000  0.37980000  1.0 0.1390114292
H  H114  1  0.20100000  0.77860000  0.12020000  1.0 0.1390114292
H  H115  1  0.22140000  0.79900000  0.62020000  1.0 0.1390114292
H  H116  1  0.79900000  0.22140000  0.87980000  1.0 0.1390114292
H  H117  1  0.15210000  0.81650000  0.43480000  1.0 0.1390114292
H  H118  1  0.81650000  0.15210000  0.06520000  1.0 0.1390114292
H  H119  1  0.84790000  0.18350000  0.56520000  1.0 0.1390114292
H  H120  1  0.18350000  0.84790000  0.93480000  1.0 0.1390114292
H  H121  1  0.06430000  0.90350000  0.47180000  1.0 0.1293361678
H  H122  1  0.90350000  0.06430000  0.02820000  1.0 0.1293361678
H  H123  1  0.93570000  0.09650000  0.52820000  1.0 0.1293361678
H  H124  1  0.09650000  0.93570000  0.97180000  1.0 0.1293361678
H  H125  1  0.06460000  0.90740000  0.38460000  1.0 0.1210517355
H  H126  1  0.90740000  0.06460000  0.11540000  1.0 0.1210517355
H  H127  1  0.93540000  0.09260000  0.61540000  1.0 0.1210517355
H  H128  1  0.09260000  0.93540000  0.88460000  1.0 0.1210517355
C  C1  1  0.15990000  0.54990000  0.34800000  1.0 0.3632265835
C  C2  1  0.54990000  0.15990000  0.15200000  1.0 0.3632265835
C  C3  1  0.84010000  0.45010000  0.65200000  1.0 0.3632265835
C  C4  1  0.45010000  0.84010000  0.84800000  1.0 0.3632265835
C  C5  1  0.22520000  0.56140000  0.38300000  1.0 -0.0632903769
C  C6  1  0.56140000  0.22520000  0.11700000  1.0 -0.0632903769
C  C7  1  0.77480000  0.43860000  0.61700000  1.0 -0.0632903769
C  C8  1  0.43860000  0.77480000  0.88300000  1.0 -0.0632903769
C  C9  1  0.23190000  0.58630000  0.45310000  1.0 0.0112519225
C  C10  1  0.58630000  0.23190000  0.04690000  1.0 0.0112519225
C  C11  1  0.76810000  0.41370000  0.54690000  1.0 0.0112519225
C  C12  1  0.41370000  0.76810000  0.95310000  1.0 0.0112519225
C  C13  1  0.29060000  0.60660000  0.46750000  1.0 -0.2366446944
C  C14  1  0.60660000  0.29060000  0.03250000  1.0 -0.2366446944
C  C15  1  0.70940000  0.39340000  0.53250000  1.0 -0.2366446944
C  C16  1  0.39340000  0.70940000  0.96750000  1.0 -0.2366446944
C  C17  1  0.34250000  0.60210000  0.41180000  1.0 0.1482655205
C  C18  1  0.60210000  0.34250000  0.08820000  1.0 0.1482655205
C  C19  1  0.65750000  0.39790000  0.58820000  1.0 0.1482655205
C  C20  1  0.39790000  0.65750000  0.91180000  1.0 0.1482655205
C  C21  1  0.33560000  0.57760000  0.34170000  1.0 -0.1357699389
C  C22  1  0.57760000  0.33560000  0.15830000  1.0 -0.1357699389
C  C23  1  0.66440000  0.42240000  0.65830000  1.0 -0.1357699389
C  C24  1  0.42240000  0.66440000  0.84170000  1.0 -0.1357699389
C  C25  1  0.27720000  0.55700000  0.32730000  1.0 -0.1292205395
C  C26  1  0.55700000  0.27720000  0.17270000  1.0 -0.1292205395
C  C27  1  0.72280000  0.44300000  0.67270000  1.0 -0.1292205395
C  C28  1  0.44300000  0.72280000  0.82730000  1.0 -0.1292205395
C  C29  1  0.86150000  0.65610000  0.37060000  1.0 0.5296509324
C  C30  1  0.65610000  0.86150000  0.12940000  1.0 0.5296509324
C  C31  1  0.13850000  0.34390000  0.62940000  1.0 0.5296509324
C  C32  1  0.34390000  0.13850000  0.87060000  1.0 0.5296509324
C  C33  1  0.76900000  0.73800000  0.39790000  1.0 -0.0102484141
C  C34  1  0.73800000  0.76900000  0.10210000  1.0 -0.0102484141
C  C35  1  0.23100000  0.26200000  0.60210000  1.0 -0.0102484141
C  C36  1  0.26200000  0.23100000  0.89790000  1.0 -0.0102484141
C  C37  1  0.72790000  0.82630000  0.37360000  1.0 -0.1081148972
C  C38  1  0.82630000  0.72790000  0.12640000  1.0 -0.1081148972
C  C39  1  0.27210000  0.17370000  0.62640000  1.0 -0.1081148972
C  C40  1  0.17370000  0.27210000  0.87360000  1.0 -0.1081148972
C  C41  1  0.64510000  0.90430000  0.40270000  1.0 -0.1707471216
C  C42  1  0.90430000  0.64510000  0.09730000  1.0 -0.1707471216
C  C43  1  0.35490000  0.09570000  0.59730000  1.0 -0.1707471216
C  C44  1  0.09570000  0.35490000  0.90270000  1.0 -0.1707471216
C  C45  1  0.60650000  0.89070000  0.45980000  1.0 0.0988787295
C  C46  1  0.89070000  0.60650000  0.04020000  1.0 0.0988787295
C  C47  1  0.39350000  0.10930000  0.54020000  1.0 0.0988787295
C  C48  1  0.10930000  0.39350000  0.95980000  1.0 0.0988787295
C  C49  1  0.64890000  0.79770000  0.48280000  1.0 -0.1707471216
C  C50  1  0.79770000  0.64890000  0.01720000  1.0 -0.1707471216
C  C51  1  0.35110000  0.20230000  0.51720000  1.0 -0.1707471216
C  C52  1  0.20230000  0.35110000  0.98280000  1.0 -0.1707471216
C  C53  1  0.73010000  0.72150000  0.45120000  1.0 -0.1201256443
C  C54  1  0.72150000  0.73010000  0.04880000  1.0 -0.1201256443
C  C55  1  0.26990000  0.27850000  0.54880000  1.0 -0.1201256443
C  C56  1  0.27850000  0.26990000  0.95120000  1.0 -0.1201256443
C  C57  1  0.52380000  0.96560000  0.50020000  1.0 -0.0463903432
C  C58  1  0.96560000  0.52380000  0.99980000  1.0 -0.0463903432
C  C59  1  0.47620000  0.03440000  0.49980000  1.0 -0.0463903432
C  C60  1  0.03440000  0.47620000  0.00020000  1.0 -0.0463903432
C  C61  1  0.16510000  0.28630000  0.38490000  1.0 0.1293361678
C  C62  1  0.28630000  0.16510000  0.11510000  1.0 0.1293361678
C  C63  1  0.83490000  0.71370000  0.61510000  1.0 0.1293361678
C  C64  1  0.71370000  0.83490000  0.88490000  1.0 0.1293361678
C  C65  1  0.04780000  0.36780000  0.44970000  1.0 0.0629409051
C  C66  1  0.36780000  0.04780000  0.05030000  1.0 0.0629409051
C  C67  1  0.95220000  0.63220000  0.55030000  1.0 0.0629409051
C  C68  1  0.63220000  0.95220000  0.94970000  1.0 0.0629409051
C  C69  1  0.06370000  0.23390000  0.50430000  1.0 -0.1462745199
C  C70  1  0.23390000  0.06370000  0.99570000  1.0 -0.1462745199
C  C71  1  0.93630000  0.76610000  0.49570000  1.0 -0.1462745199
C  C72  1  0.76610000  0.93630000  0.00430000  1.0 -0.1462745199
C  C73  1  0.04230000  0.18210000  0.46150000  1.0 -0.102192906
C  C74  1  0.18210000  0.04230000  0.03850000  1.0 -0.102192906
C  C75  1  0.95770000  0.81790000  0.53850000  1.0 -0.102192906
C  C76  1  0.81790000  0.95770000  0.96150000  1.0 -0.102192906
C  C77  1  0.96000000  0.23160000  0.41520000  1.0 0.1482655205
C  C78  1  0.23160000  0.96000000  0.08480000  1.0 0.1482655205
C  C79  1  0.04000000  0.76840000  0.58480000  1.0 0.1482655205
C  C80  1  0.76840000  0.04000000  0.91520000  1.0 0.1482655205
C  C81  1  0.93140000  0.18880000  0.37600000  1.0 -0.0252115557
C  C82  1  0.18880000  0.93140000  0.12400000  1.0 -0.0252115557
C  C83  1  0.06860000  0.81120000  0.62400000  1.0 -0.0204524639
C  C84  1  0.81120000  0.06860000  0.87600000  1.0 -0.0204524639
C  C85  1  0.99670000  0.08930000  0.38340000  1.0 -0.1707471216
C  C86  1  0.08930000  0.99670000  0.11660000  1.0 -0.1707471216
C  C87  1  0.00330000  0.91070000  0.61660000  1.0 -0.1707471216
C  C88  1  0.91070000  0.00330000  0.88340000  1.0 -0.1707471216
C  C89  1  0.08020000  0.03560000  0.42910000  1.0 -0.0204524639
C  C90  1  0.03560000  0.08020000  0.07090000  1.0 -0.0204524639
C  C91  1  0.91980000  0.96440000  0.57090000  1.0 -0.0204524639
C  C92  1  0.96440000  0.91980000  0.92910000  1.0 -0.0204524639
C  C93  1  0.10160000  0.08440000  0.46650000  1.0 0.1390114292
C  C94  1  0.08440000  0.10160000  0.03350000  1.0 0.1390114292
C  C95  1  0.89840000  0.91560000  0.53350000  1.0 0.1390114292
C  C96  1  0.91560000  0.89840000  0.96650000  1.0 0.1390114292
C  C97  1  0.15040000  0.92860000  0.43520000  1.0 0.0029093586
C  C98  1  0.92860000  0.15040000  0.06480000  1.0 0.0029093586
C  C99  1  0.84960000  0.07140000  0.56480000  1.0 0.0029093586
C  C100  1  0.07140000  0.84960000  0.93520000  1.0 0.0029093586
C  C101  1  0.26890000  0.99730000  0.47970000  1.0 0.1119081031
C  C102  1  0.99730000  0.26890000  0.02030000  1.0 0.1119081031
C  C103  1  0.73110000  0.00270000  0.52030000  1.0 0.1119081031
C  C104  1  0.00270000  0.73110000  0.97970000  1.0 0.1119081031
C  C105  1  0.22160000  0.89560000  0.37590000  1.0 -0.0102484141
C  C106  1  0.89560000  0.22160000  0.12410000  1.0 -0.0102484141
C  C107  1  0.77840000  0.10440000  0.62410000  1.0 -0.0102484141
C  C108  1  0.10440000  0.77840000  0.87590000  1.0 -0.0102484141
C  C109  1  0.20570000  0.87950000  0.30630000  1.0 -0.1598793806
C  C110  1  0.87950000  0.20570000  0.19370000  1.0 -0.1598793806
C  C111  1  0.79430000  0.12050000  0.69370000  1.0 -0.1598793806
C  C112  1  0.12050000  0.79430000  0.80630000  1.0 -0.1598793806
C  C113  1  0.26610000  0.85610000  0.25170000  1.0 -0.0204524639
C  C114  1  0.85610000  0.26610000  0.24830000  1.0 -0.0204524639
C  C115  1  0.73390000  0.14390000  0.74830000  1.0 -0.0204524639
C  C116  1  0.14390000  0.73390000  0.75170000  1.0 -0.0204524639
C  C117  1  0.34290000  0.84970000  0.26860000  1.0 0.1482655205
C  C118  1  0.84970000  0.34290000  0.23140000  1.0 0.1390114292
C  C119  1  0.65710000  0.15030000  0.73140000  1.0 0.1482655205
C  C120  1  0.15030000  0.65710000  0.76860000  1.0 0.1482655205
C  C121  1  0.36220000  0.86360000  0.33820000  1.0 -0.102192906
C  C122  1  0.86360000  0.36220000  0.16180000  1.0 -0.102192906
C  C123  1  0.63780000  0.13640000  0.66180000  1.0 -0.102192906
C  C124  1  0.13640000  0.63780000  0.83820000  1.0 -0.102192906
C  C125  1  0.29930000  0.88750000  0.39250000  1.0 0.1482655205
C  C126  1  0.88750000  0.29930000  0.10750000  1.0 0.1482655205
C  C127  1  0.70070000  0.11250000  0.60750000  1.0 0.1482655205
C  C128  1  0.11250000  0.70070000  0.89250000  1.0 0.1482655205
C  C129  1  0.84080000  0.24540000  0.32760000  1.0 0.0029093586
C  C130  1  0.24540000  0.84080000  0.17240000  1.0 0.0029093586
C  C131  1  0.15920000  0.75460000  0.67240000  1.0 0.0029093586
C  C132  1  0.75460000  0.15920000  0.82760000  1.0 0.0029093586
C  C133  1  0.37440000  0.89820000  0.15950000  1.0 0.0988787295
C  C134  1  0.89820000  0.37440000  0.34050000  1.0 0.0988787295
C  C135  1  0.62560000  0.10180000  0.84050000  1.0 0.0988787295
C  C136  1  0.10180000  0.62560000  0.65950000  1.0 0.0988787295
C  C137  1  0.45070000  0.84850000  0.35840000  1.0 -0.1598793806
C  C138  1  0.84850000  0.45070000  0.14160000  1.0 -0.1598793806
C  C139  1  0.54930000  0.15150000  0.64160000  1.0 -0.1598793806
C  C140  1  0.15150000  0.54930000  0.85840000  1.0 -0.1598793806
C  C141  1  0.39360000  0.06240000  0.29860000  1.0 0.1293361678
C  C142  1  0.06240000  0.39360000  0.20140000  1.0 0.1293361678
C  C143  1  0.60640000  0.93760000  0.70140000  1.0 0.1293361678
C  C144  1  0.93760000  0.60640000  0.79860000  1.0 0.1293361678
C  C145  1  0.50170000  0.92010000  0.27980000  1.0 0.0341339144
C  C146  1  0.92010000  0.50170000  0.22020000  1.0 0.0341339144
C  C147  1  0.49830000  0.07990000  0.72020000  1.0 0.0341339144
C  C148  1  0.07990000  0.49830000  0.77980000  1.0 0.0341339144
C  C149  1  0.42130000  0.60530000  0.41700000  1.0 -0.1201256443
C  C150  1  0.60530000  0.42130000  0.08300000  1.0 -0.1201256443
C  C151  1  0.57870000  0.39470000  0.58300000  1.0 -0.1201256443
C  C152  1  0.39470000  0.57870000  0.91700000  1.0 -0.1201256443
C  C153  1  0.45250000  0.62050000  0.47800000  1.0 -0.1081148972
C  C154  1  0.62050000  0.45250000  0.02200000  1.0 -0.102192906
C  C155  1  0.54750000  0.37950000  0.52200000  1.0 -0.1081148972
C  C156  1  0.37950000  0.54750000  0.97800000  1.0 -0.1081148972
C  C157  1  0.54570000  0.59970000  0.47790000  1.0 0.1482655205
C  C158  1  0.59970000  0.54570000  0.02210000  1.0 0.1482655205
C  C159  1  0.45430000  0.40030000  0.52210000  1.0 0.1482655205
C  C160  1  0.40030000  0.45430000  0.97790000  1.0 0.1482655205
C  C161  1  0.63650000  0.52670000  0.45730000  1.0 -0.2073934318
C  C162  1  0.52670000  0.63650000  0.04270000  1.0 -0.2073934318
C  C163  1  0.36350000  0.47330000  0.54270000  1.0 -0.2073934318
C  C164  1  0.47330000  0.36350000  0.95730000  1.0 -0.2073934318
C  C165  1  0.70400000  0.55900000  0.55320000  1.0 -0.074104212
C  C166  1  0.55900000  0.70400000  0.94680000  1.0 -0.074104212
C  C167  1  0.29600000  0.44100000  0.44680000  1.0 -0.074104212
C  C168  1  0.44100000  0.29600000  0.05320000  1.0 -0.074104212
C  C169  1  0.61310000  0.63190000  0.57370000  1.0 -0.1201256443
C  C170  1  0.63190000  0.61310000  0.92630000  1.0 -0.1201256443
C  C171  1  0.38690000  0.36810000  0.42630000  1.0 -0.1201256443
C  C172  1  0.36810000  0.38690000  0.07370000  1.0 -0.1201256443
C  C173  1  0.53400000  0.65240000  0.53610000  1.0 -0.1707471216
C  C174  1  0.65240000  0.53400000  0.96390000  1.0 -0.1707471216
C  C175  1  0.46600000  0.34760000  0.46390000  1.0 -0.1707471216
C  C176  1  0.34760000  0.46600000  0.03610000  1.0 -0.1707471216
C  C177  1  0.71570000  0.50630000  0.49500000  1.0 0.0341339144
C  C178  1  0.50630000  0.71570000  0.00500000  1.0 0.0363046883
C  C179  1  0.28430000  0.49370000  0.50500000  1.0 0.0341339144
C  C180  1  0.49370000  0.28430000  0.99500000  1.0 0.0363046883
C  C181  1  0.79240000  0.20440000  0.32960000  1.0 -0.4220973121
C  C182  1  0.20440000  0.79240000  0.17040000  1.0 -0.4220973121
C  C183  1  0.20760000  0.79560000  0.67040000  1.0 -0.4220973121
C  C184  1  0.79560000  0.20760000  0.82960000  1.0 -0.4220973121
C  C185  1  0.78870000  0.54170000  0.59050000  1.0 0.3284325658
C  C186  1  0.54170000  0.78870000  0.90950000  1.0 0.3284325658
C  C187  1  0.21130000  0.45830000  0.40950000  1.0 0.3284325658
C  C188  1  0.45830000  0.21130000  0.09050000  1.0 0.3284325658
C  C189  1  0.10340000  0.88480000  0.43120000  1.0 -0.4297583045
C  C190  1  0.88480000  0.10340000  0.06880000  1.0 -0.4297583045
C  C191  1  0.89660000  0.11520000  0.56880000  1.0 -0.4297583045
C  C192  1  0.11520000  0.89660000  0.93120000  1.0 -0.4297583045
N  N1  1  0.08790000  0.27830000  0.45910000  1.0 0.1582762806
N  N2  1  0.27830000  0.08790000  0.04090000  1.0 0.1582762806
N  N3  1  0.91210000  0.72170000  0.54090000  1.0 0.1582762806
N  N4  1  0.72170000  0.91210000  0.95910000  1.0 0.1582762806
N  N5  1  0.16440000  0.22320000  0.41810000  1.0 -0.2666605802
N  N6  1  0.22320000  0.16440000  0.08190000  1.0 -0.2666605802
N  N7  1  0.83560000  0.77680000  0.58190000  1.0 -0.2666605802
N  N8  1  0.77680000  0.83560000  0.91810000  1.0 -0.2666605802
N  N9  1  0.09410000  0.37690000  0.40110000  1.0 -0.3649653734
N  N10  1  0.37690000  0.09410000  0.09890000  1.0 -0.3649653734
N  N11  1  0.90590000  0.62310000  0.59890000  1.0 -0.3649653734
N  N12  1  0.62310000  0.90590000  0.90110000  1.0 -0.3649653734
N  N13  1  0.44320000  0.92500000  0.32500000  1.0 0.1773957371
N  N14  1  0.92500000  0.44320000  0.17500000  1.0 0.1773957371
N  N15  1  0.55680000  0.07500000  0.67500000  1.0 0.1773957371
N  N16  1  0.07500000  0.55680000  0.82500000  1.0 0.1773957371
N  N17  1  0.37370000  0.01610000  0.33770000  1.0 -0.2576264346
N  N18  1  0.01610000  0.37370000  0.16230000  1.0 -0.2576264346
N  N19  1  0.62630000  0.98390000  0.66230000  1.0 -0.2576264346
N  N20  1  0.98390000  0.62630000  0.83770000  1.0 -0.2576264346
N  N21  1  0.46970000  0.00690000  0.26210000  1.0 -0.3112496676
N  N22  1  0.00690000  0.46970000  0.23790000  1.0 -0.3112496676
N  N23  1  0.53030000  0.99310000  0.73790000  1.0 -0.3112496676
N  N24  1  0.99310000  0.53030000  0.76210000  1.0 -0.3112496676
O  O1  1  0.13310000  0.53510000  0.28650000  1.0 -0.4297583045
O  O2  1  0.53510000  0.13310000  0.21350000  1.0 -0.4297583045
O  O3  1  0.86690000  0.46490000  0.71350000  1.0 -0.4297583045
O  O4  1  0.46490000  0.86690000  0.78650000  1.0 -0.4297583045
O  O5  1  0.11960000  0.54760000  0.40400000  1.0 -0.0204524639
O  O6  1  0.54760000  0.11960000  0.09600000  1.0 -0.0204524639
O  O7  1  0.88040000  0.45240000  0.59600000  1.0 -0.0204524639
O  O8  1  0.45240000  0.88040000  0.90400000  1.0 -0.0204524639
O  O9  1  0.89530000  0.57370000  0.39110000  1.0 -0.5533600093
O  O10  1  0.57370000  0.89530000  0.10890000  1.0 -0.5533600093
O  O11  1  0.10470000  0.42630000  0.60890000  1.0 -0.5533600093
O  O12  1  0.42630000  0.10470000  0.89110000  1.0 -0.5533600093
O  O13  1  0.90530000  0.67210000  0.33410000  1.0 -0.5210107507
O  O14  1  0.67210000  0.90530000  0.16590000  1.0 -0.5210107507
O  O15  1  0.09470000  0.32790000  0.66590000  1.0 -0.5210107507
O  O16  1  0.32790000  0.09470000  0.83410000  1.0 -0.5210107507
O  O17  1  0.89970000  0.33010000  0.40720000  1.0 -0.2576264346
O  O18  1  0.33010000  0.89970000  0.09280000  1.0 -0.2576264346
O  O19  1  0.10030000  0.66990000  0.59280000  1.0 -0.2576264346
O  O20  1  0.66990000  0.10030000  0.90720000  1.0 -0.2576264346
O  O21  1  0.18548000  0.03328000  0.51410000  1.0 -0.2012889327
O  O22  1  0.03328000  0.18548000  0.98590000  1.0 -0.2012889327
O  O23  1  0.81452000  0.96672000  0.48590000  1.0 -0.2012889327
O  O24  1  0.96672000  0.81452000  0.01410000  1.0 -0.2012889327
O  O25  1  0.32072000  0.89932000  0.46340000  1.0 -0.2218384759
O  O26  1  0.89932000  0.32072000  0.03660000  1.0 -0.2218384759
O  O27  1  0.67928000  0.10068000  0.53660000  1.0 -0.2218384759
O  O28  1  0.10068000  0.67928000  0.96340000  1.0 -0.2218384759
O  O29  1  0.40420000  0.82700000  0.21560000  1.0 -0.1874225417
O  O30  1  0.82700000  0.40420000  0.28440000  1.0 -0.1874225417
O  O31  1  0.59580000  0.17300000  0.78440000  1.0 -0.1874225417
O  O32  1  0.17300000  0.59580000  0.71560000  1.0 -0.1874225417
O  O33  1  0.78090000  0.58310000  0.64580000  1.0 -0.3475977224
O  O34  1  0.58310000  0.78090000  0.85420000  1.0 -0.3443450572
O  O35  1  0.21910000  0.41690000  0.35420000  1.0 -0.3475977224
O  O36  1  0.41690000  0.21910000  0.14580000  1.0 -0.3475977224
O  O37  1  0.87740000  0.46540000  0.57070000  1.0 -0.1081148972
O  O38  1  0.46540000  0.87740000  0.92930000  1.0 -0.1081148972
O  O39  1  0.12260000  0.53460000  0.42930000  1.0 -0.1081148972
O  O40  1  0.53460000  0.12260000  0.07070000  1.0 -0.1081148972
