# DDEC6 charges by PACMAN v1.1 (https://github.com/mtap-research/PACMAN-charge/)
data_KUVMUL_ASR_pacman
_symmetry_space_group_name_H-M   'P 1'
_cell_length_a   18.69500000
_cell_length_b   20.12200000
_cell_length_c   21.06800000
_cell_angle_alpha   111.92400000
_cell_angle_beta   92.82400000
_cell_angle_gamma   94.97300000
_symmetry_Int_Tables_number   1
_chemical_formula_structural   Cu4Si2H79C114(N4O5)2
_chemical_formula_sum   'Cu8 Si4 H158 C228 N16 O20'
_cell_volume   7295.90633885
_cell_formula_units_Z   2
loop_
 _symmetry_equiv_pos_site_id
 _symmetry_equiv_pos_as_xyz
  1  'x, y, z'
loop_
 _atom_site_type_symbol
 _atom_site_label
 _atom_site_symmetry_multiplicity
 _atom_site_fract_x
 _atom_site_fract_y
 _atom_site_fract_z
 _atom_site_occupancy
 _atom_site_charge
Cu  Cu1  1  0.46422000  0.04946000  0.49109000  1.0 0.6990670017
Cu  Cu2  1  0.53578000  0.95054000  0.50891000  1.0 0.6990670017
Cu  Cu3  1  0.46973000  0.26075000  0.01415000  1.0 0.0502025657
Cu  Cu4  1  0.53027000  0.73925000  0.98585000  1.0 0.0502025657
Cu  Cu5  1  0.53728000  0.44702000  0.49721000  1.0 0.7198702148
Cu  Cu6  1  0.46272000  0.55298000  0.50279000  1.0 0.7198702148
Cu  Cu7  1  0.00640000  0.76081000  0.00691000  1.0 0.2517480305
Cu  Cu8  1  0.99360000  0.23919000  0.99309000  1.0 0.2517480305
Si  Si1  1  0.10190000  0.63300000  0.58340000  1.0 0.6302361241
Si  Si2  1  0.89810000  0.36700000  0.41660000  1.0 0.6302361241
Si  Si3  1  0.89930000  0.86310000  0.41510000  1.0 0.6498429031
Si  Si4  1  0.10070000  0.13690000  0.58490000  1.0 0.6498429031
H  H1  1  0.94180000  0.61530000  0.55360000  1.0 0.1104320429
H  H2  1  0.05820000  0.38470000  0.44640000  1.0 0.1104320429
H  H3  1  0.84330000  0.62310000  0.61690000  1.0 0.1196058795
H  H4  1  0.15670000  0.37690000  0.38310000  1.0 0.1196058795
H  H5  1  0.97680000  0.65050000  0.78320000  1.0 0.1104320429
H  H6  1  0.02320000  0.34950000  0.21680000  1.0 0.1104320429
H  H7  1  0.07400000  0.63730000  0.71760000  1.0 0.1104320429
H  H8  1  0.92600000  0.36270000  0.28240000  1.0 0.1104320429
H  H9  1  0.67190000  0.65900000  0.96270000  1.0 0.0905940094
H  H10  1  0.32810000  0.34100000  0.03730000  1.0 0.0905940094
H  H11  1  0.76260000  0.62210000  0.88900000  1.0 0.1390013539
H  H12  1  0.23740000  0.37790000  0.11100000  1.0 0.1390013539
H  H13  1  0.68920000  0.73960000  0.78750000  1.0 0.1390013539
H  H14  1  0.31080000  0.26040000  0.21250000  1.0 0.1390013539
H  H15  1  0.59650000  0.76860000  0.85900000  1.0 0.1011303647
H  H16  1  0.40350000  0.23140000  0.14100000  1.0 0.1011303647
H  H17  1  0.12650000  0.74370000  0.52570000  1.0 0.1104320429
H  H18  1  0.87350000  0.25630000  0.47430000  1.0 0.1104320429
H  H19  1  0.10790000  0.75040000  0.41860000  1.0 0.1196058795
H  H20  1  0.89210000  0.24960000  0.58140000  1.0 0.1196058795
H  H21  1  0.01550000  0.54510000  0.33930000  1.0 0.1196058795
H  H22  1  0.98450000  0.45490000  0.66070000  1.0 0.1196058795
H  H23  1  0.04630000  0.53410000  0.44330000  1.0 0.1104320429
H  H24  1  0.95370000  0.46590000  0.55670000  1.0 0.1104320429
H  H25  1  0.92310000  0.68000000  0.06830000  1.0 0.1011303647
H  H26  1  0.07690000  0.32000000  0.93170000  1.0 0.1011303647
H  H27  1  0.93470000  0.63610000  0.15840000  1.0 0.1390013539
H  H28  1  0.06530000  0.36390000  0.84160000  1.0 0.1390013539
H  H29  1  0.14380000  0.71920000  0.19560000  1.0 0.1390013539
H  H30  1  0.85620000  0.28080000  0.80440000  1.0 0.1390013539
H  H31  1  0.12840000  0.75610000  0.10180000  1.0 0.1196058795
H  H32  1  0.87160000  0.24390000  0.89820000  1.0 0.1104320429
H  H33  1  0.25630000  0.67950000  0.63100000  1.0 0.1104320429
H  H34  1  0.74370000  0.32050000  0.36900000  1.0 0.1104320429
H  H35  1  0.32590000  0.78610000  0.70340000  1.0 0.1196058795
H  H36  1  0.67410000  0.21390000  0.29660000  1.0 0.1196058795
H  H37  1  0.14450000  0.88660000  0.73360000  1.0 0.1196058795
H  H38  1  0.85550000  0.11340000  0.26640000  1.0 0.1196058795
H  H39  1  0.07670000  0.77940000  0.66270000  1.0 0.1104320429
H  H40  1  0.92330000  0.22060000  0.33730000  1.0 0.1104320429
H  H41  1  0.32130000  0.20040000  0.94620000  1.0 0.1011303647
H  H42  1  0.67870000  0.79960000  0.05380000  1.0 0.1011303647
H  H43  1  0.26150000  0.08700000  0.87040000  1.0 0.1500886402
H  H44  1  0.73850000  0.91300000  0.12960000  1.0 0.1500886402
H  H45  1  0.45430000  0.00930000  0.84110000  1.0 0.1303921214
H  H46  1  0.54570000  0.99070000  0.15890000  1.0 0.1303921214
H  H47  1  0.51050000  0.12430000  0.91840000  1.0 0.0905940094
H  H48  1  0.48950000  0.87570000  0.08160000  1.0 0.0905940094
H  H49  1  0.09450000  0.50840000  0.62770000  1.0 0.1011303647
H  H50  1  0.90550000  0.49160000  0.37230000  1.0 0.1011303647
H  H51  1  0.15370000  0.40640000  0.60220000  1.0 0.1196058795
H  H52  1  0.84630000  0.59360000  0.39780000  1.0 0.1196058795
H  H53  1  0.27500000  0.46700000  0.47700000  1.0 0.1303921214
H  H54  1  0.72500000  0.53300000  0.52300000  1.0 0.1303921214
H  H55  1  0.21690000  0.56980000  0.50410000  1.0 0.1104320429
H  H56  1  0.78310000  0.43020000  0.49590000  1.0 0.1104320429
H  H57  1  0.48830000  0.20580000  0.50970000  1.0 0.1011303647
H  H58  1  0.51170000  0.79420000  0.49030000  1.0 0.1011303647
H  H59  1  0.42310000  0.30650000  0.53060000  1.0 0.1500886402
H  H60  1  0.57690000  0.69350000  0.46940000  1.0 0.1500886402
H  H61  1  0.24120000  0.17000000  0.45080000  1.0 0.1303921214
H  H62  1  0.75880000  0.83000000  0.54920000  1.0 0.1303921214
H  H63  1  0.31100000  0.07420000  0.43620000  1.0 0.1011303647
H  H64  1  0.68900000  0.92580000  0.56380000  1.0 0.1011303647
H  H65  1  0.91530000  0.96410000  0.55820000  1.0 0.1104320429
H  H66  1  0.08470000  0.03590000  0.44180000  1.0 0.1104320429
H  H67  1  0.94670000  0.96380000  0.66520000  1.0 0.1196058795
H  H68  1  0.05330000  0.03620000  0.33480000  1.0 0.1196058795
H  H69  1  0.93670000  0.74870000  0.58030000  1.0 0.1196058795
H  H70  1  0.06330000  0.25130000  0.41970000  1.0 0.1196058795
H  H71  1  0.92040000  0.75180000  0.47260000  1.0 0.1104320429
H  H72  1  0.07960000  0.24820000  0.52740000  1.0 0.1104320429
H  H73  1  0.89050000  0.78510000  0.93070000  1.0 0.1104320429
H  H74  1  0.10950000  0.21490000  0.06930000  1.0 0.1104320429
H  H75  1  0.86610000  0.81320000  0.83100000  1.0 0.1390013539
H  H76  1  0.13390000  0.18680000  0.16900000  1.0 0.1390013539
H  H77  1  0.08100000  0.85240000  0.82610000  1.0 0.1390013539
H  H78  1  0.91900000  0.14760000  0.17390000  1.0 0.1390013539
H  H79  1  0.09980000  0.81670000  0.92120000  1.0 0.1104320429
H  H80  1  0.90020000  0.18330000  0.07880000  1.0 0.1104320429
H  H81  1  0.74450000  0.81610000  0.37160000  1.0 0.1104320429
H  H82  1  0.25550000  0.18390000  0.62840000  1.0 0.1104320429
H  H83  1  0.67460000  0.70720000  0.30550000  1.0 0.1196058795
H  H84  1  0.32540000  0.29280000  0.69450000  1.0 0.1196058795
H  H85  1  0.85610000  0.61070000  0.25790000  1.0 0.1104320429
H  H86  1  0.14390000  0.38930000  0.74210000  1.0 0.1104320429
H  H87  1  0.92440000  0.71760000  0.32990000  1.0 0.1011303647
H  H88  1  0.07560000  0.28240000  0.67010000  1.0 0.1104320429
H  H89  1  0.62600000  0.30550000  0.03470000  1.0 0.1011303647
H  H90  1  0.37400000  0.69450000  0.96530000  1.0 0.1011303647
H  H91  1  0.70940000  0.40400000  0.10880000  1.0 0.1390013539
H  H92  1  0.29060000  0.59600000  0.89120000  1.0 0.1390013539
H  H93  1  0.54100000  0.51300000  0.18300000  1.0 0.1390013539
H  H94  1  0.45900000  0.48700000  0.81700000  1.0 0.1390013539
H  H95  1  0.46210000  0.41000000  0.11370000  1.0 0.0905940094
H  H96  1  0.53790000  0.59000000  0.88630000  1.0 0.0905940094
H  H97  1  0.92610000  0.99340000  0.38250000  1.0 0.1104320429
H  H98  1  0.07390000  0.00660000  0.61750000  1.0 0.1104320429
H  H99  1  0.86800000  0.09490000  0.39830000  1.0 0.1196058795
H  H100  1  0.13200000  0.90510000  0.60170000  1.0 0.1196058795
H  H101  1  0.71260000  0.02230000  0.49020000  1.0 0.1196058795
H  H102  1  0.28740000  0.97770000  0.50980000  1.0 0.1196058795
H  H103  1  0.77310000  0.92300000  0.47720000  1.0 0.1011303647
H  H104  1  0.22690000  0.07700000  0.52280000  1.0 0.1011303647
H  H105  1  0.53100000  0.28510000  0.41730000  1.0 0.1104320429
H  H106  1  0.46900000  0.71490000  0.58270000  1.0 0.1104320429
H  H107  1  0.59490000  0.18570000  0.40270000  1.0 0.1390013539
H  H108  1  0.40510000  0.81430000  0.59730000  1.0 0.1390013539
H  H109  1  0.73800000  0.31610000  0.55930000  1.0 0.1303921214
H  H110  1  0.26200000  0.68390000  0.44070000  1.0 0.1303921214
H  H111  1  0.66910000  0.41080000  0.56910000  1.0 0.1104320429
H  H112  1  0.33090000  0.58920000  0.43090000  1.0 0.1104320429
H  H113  1  0.93540000  0.85110000  0.28030000  1.0 0.1104320429
H  H114  1  0.06460000  0.14890000  0.71970000  1.0 0.1104320429
H  H115  1  0.03820000  0.86760000  0.22910000  1.0 0.1303921214
H  H116  1  0.96180000  0.13240000  0.77090000  1.0 0.1303921214
H  H117  1  0.16010000  0.89510000  0.40230000  1.0 0.1104320429
H  H118  1  0.83990000  0.10490000  0.59770000  1.0 0.1104320429
H  H119  1  0.05740000  0.88410000  0.45460000  1.0 0.1104320429
H  H120  1  0.94260000  0.11590000  0.54540000  1.0 0.1104320429
H  H121  1  0.45250000  0.01850000  0.28250000  1.0 0.1104320429
H  H122  1  0.54750000  0.98150000  0.71750000  1.0 0.1104320429
H  H123  1  0.34980000  0.97670000  0.32490000  1.0 0.1390013539
H  H124  1  0.65020000  0.02330000  0.67510000  1.0 0.1390013539
H  H125  1  0.24900000  0.89810000  0.13390000  1.0 0.1390013539
H  H126  1  0.75100000  0.10190000  0.86610000  1.0 0.1390013539
H  H127  1  0.36040000  0.92400000  0.09250000  1.0 0.0905940094
H  H128  1  0.63960000  0.07600000  0.90750000  1.0 0.0905940094
H  H129  1  0.65080000  0.16080000  0.66970000  1.0 0.1610393033
H  H130  1  0.34920000  0.83920000  0.33030000  1.0 0.1610393033
H  H131  1  0.65410000  0.20010000  0.61620000  1.0 0.1610393033
H  H132  1  0.34590000  0.79990000  0.38380000  1.0 0.1610393033
H  H133  1  0.70380000  0.13740000  0.60970000  1.0 0.1500886402
H  H134  1  0.29620000  0.86260000  0.39030000  1.0 0.1500886402
H  H135  1  0.64520000  0.95280000  0.32910000  1.0 0.1610393033
H  H136  1  0.35480000  0.04720000  0.67090000  1.0 0.1610393033
H  H137  1  0.63650000  0.03500000  0.34140000  1.0 0.1500886402
H  H138  1  0.36350000  0.96500000  0.65860000  1.0 0.1500886402
H  H139  1  0.57640000  0.97210000  0.29400000  1.0 0.1500886402
H  H140  1  0.42360000  0.02790000  0.70600000  1.0 0.1500886402
H  H141  1  0.62890000  0.66310000  0.68520000  1.0 0.1610393033
H  H142  1  0.37110000  0.33690000  0.31480000  1.0 0.1610393033
H  H143  1  0.66960000  0.67760000  0.62570000  1.0 0.1610393033
H  H144  1  0.33040000  0.32240000  0.37430000  1.0 0.1610393033
H  H145  1  0.68940000  0.61370000  0.64890000  1.0 0.1610393033
H  H146  1  0.31060000  0.38630000  0.35110000  1.0 0.1610393033
H  H147  1  0.35510000  0.50490000  0.66540000  1.0 0.1610393033
H  H148  1  0.64490000  0.49510000  0.33460000  1.0 0.1610393033
H  H149  1  0.42610000  0.47950000  0.69090000  1.0 0.1610393033
H  H150  1  0.57390000  0.52050000  0.30910000  1.0 0.1610393033
H  H151  1  0.36720000  0.42140000  0.63580000  1.0 0.1500886402
H  H152  1  0.63280000  0.57860000  0.36420000  1.0 0.1500886402
H  H153  1  0.06490000  0.99970000  0.12550000  1.0 0.1390013539
H  H154  1  0.93510000  0.00030000  0.87450000  1.0 0.1500886402
H  H155  1  0.14000000  0.96780000  0.12800000  1.0 0.1390013539
H  H156  1  0.86000000  0.03220000  0.87200000  1.0 0.1390013539
H  H157  1  0.08440000  0.96970000  0.18380000  1.0 0.1303921214
H  H158  1  0.91560000  0.03030000  0.81620000  1.0 0.1303921214
C  C1  1  0.01870000  0.62740000  0.62780000  1.0 -0.2090322639
C  C2  1  0.98130000  0.37260000  0.37220000  1.0 -0.2090322639
C  C3  1  0.94950000  0.62230000  0.60070000  1.0 -0.0900315371
C  C4  1  0.05050000  0.37770000  0.39930000  1.0 -0.0900315371
C  C5  1  0.89040000  0.62680000  0.63800000  1.0 -0.1404523541
C  C6  1  0.10960000  0.37320000  0.36200000  1.0 -0.1404523541
C  C7  1  0.90070000  0.63660000  0.70660000  1.0 0.1303921214
C  C8  1  0.09930000  0.36340000  0.29340000  1.0 0.1303921214
C  C9  1  0.96930000  0.64220000  0.73580000  1.0 -0.1404523541
C  C10  1  0.03070000  0.35780000  0.26420000  1.0 -0.1404523541
C  C11  1  0.02720000  0.63590000  0.69710000  1.0 -0.0900315371
C  C12  1  0.97280000  0.36410000  0.30290000  1.0 -0.0900315371
C  C13  1  0.84210000  0.64760000  0.74840000  1.0 -0.0900315371
C  C14  1  0.15790000  0.35240000  0.25160000  1.0 -0.0900315371
C  C15  1  0.67430000  0.67460000  0.92540000  1.0 0.0502025657
C  C16  1  0.32570000  0.32540000  0.07460000  1.0 0.0502025657
C  C17  1  0.73060000  0.65380000  0.88280000  1.0 -0.2175672749
C  C18  1  0.26940000  0.34620000  0.11720000  1.0 -0.2175672749
C  C19  1  0.73810000  0.68070000  0.83160000  1.0 0.1500886402
C  C20  1  0.26190000  0.31930000  0.16840000  1.0 0.1500886402
C  C21  1  0.68660000  0.72200000  0.82340000  1.0 -0.199883609
C  C22  1  0.31340000  0.27800000  0.17660000  1.0 -0.199883609
C  C23  1  0.63060000  0.73910000  0.86610000  1.0 0.0602192036
C  C24  1  0.36940000  0.26090000  0.13390000  1.0 0.0602192036
C  C25  1  0.79590000  0.66140000  0.78680000  1.0 -0.0991280125
C  C26  1  0.20410000  0.33860000  0.21320000  1.0 -0.0991280125
C  C27  1  0.08250000  0.63940000  0.49770000  1.0 -0.199883609
C  C28  1  0.91750000  0.36060000  0.50230000  1.0 -0.199883609
C  C29  1  0.10420000  0.70270000  0.48800000  1.0 -0.0811723662
C  C30  1  0.89580000  0.29730000  0.51200000  1.0 -0.0811723662
C  C31  1  0.09360000  0.70650000  0.42420000  1.0 -0.1484315276
C  C32  1  0.90640000  0.29350000  0.57580000  1.0 -0.1484315276
C  C33  1  0.06260000  0.64780000  0.36880000  1.0 0.1303921214
C  C34  1  0.93740000  0.35220000  0.63120000  1.0 0.1303921214
C  C35  1  0.04050000  0.58470000  0.37660000  1.0 -0.1484315276
C  C36  1  0.95950000  0.41530000  0.62340000  1.0 -0.1484315276
C  C37  1  0.05520000  0.57970000  0.43960000  1.0 -0.0811723662
C  C38  1  0.94480000  0.42030000  0.56040000  1.0 -0.0811723662
C  C39  1  0.05570000  0.65250000  0.30260000  1.0 -0.0900315371
C  C40  1  0.94430000  0.34750000  0.69740000  1.0 -0.0900315371
C  C41  1  0.96800000  0.68760000  0.09440000  1.0 0.0905940094
C  C42  1  0.03200000  0.31240000  0.90560000  1.0 0.0905940094
C  C43  1  0.97450000  0.66250000  0.14890000  1.0 -0.1908933618
C  C44  1  0.02550000  0.33750000  0.85110000  1.0 -0.1908933618
C  C45  1  0.03930000  0.67690000  0.18740000  1.0 0.1610393033
C  C46  1  0.96070000  0.32310000  0.81260000  1.0 0.1610393033
C  C47  1  0.09810000  0.71080000  0.17040000  1.0 -0.199883609
C  C48  1  0.90190000  0.28920000  0.82960000  1.0 -0.199883609
C  C49  1  0.08850000  0.73290000  0.11470000  1.0 0.1011303647
C  C50  1  0.91150000  0.26710000  0.88530000  1.0 0.1011303647
C  C51  1  0.04530000  0.66100000  0.25010000  1.0 -0.0900315371
C  C52  1  0.95470000  0.33900000  0.74990000  1.0 -0.0900315371
C  C53  1  0.15930000  0.71780000  0.64230000  1.0 -0.199883609
C  C54  1  0.84070000  0.28220000  0.35770000  1.0 -0.199883609
C  C55  1  0.23330000  0.72150000  0.65300000  1.0 -0.0811723662
C  C56  1  0.76670000  0.27850000  0.34700000  1.0 -0.0811723662
C  C57  1  0.27530000  0.78490000  0.69510000  1.0 -0.1484315276
C  C58  1  0.72470000  0.21510000  0.30490000  1.0 -0.1484315276
C  C59  1  0.24120000  0.84540000  0.72430000  1.0 0.1390013539
C  C60  1  0.75880000  0.15460000  0.27570000  1.0 0.1390013539
C  C61  1  0.16720000  0.84420000  0.71300000  1.0 -0.1558388421
C  C62  1  0.83280000  0.15580000  0.28700000  1.0 -0.1558388421
C  C63  1  0.12720000  0.78030000  0.67150000  1.0 -0.0900315371
C  C64  1  0.87280000  0.21970000  0.32850000  1.0 -0.0900315371
C  C65  1  0.28170000  0.91220000  0.76670000  1.0 -0.0900315371
C  C66  1  0.71830000  0.08780000  0.23330000  1.0 -0.0900315371
C  C67  1  0.34800000  0.16070000  0.92620000  1.0 0.0905940094
C  C68  1  0.65200000  0.83930000  0.07380000  1.0 0.0905940094
C  C69  1  0.31230000  0.09330000  0.88060000  1.0 -0.2090322639
C  C70  1  0.68770000  0.90670000  0.11940000  1.0 -0.2090322639
C  C71  1  0.35270000  0.03730000  0.85150000  1.0 0.1610393033
C  C72  1  0.64730000  0.96270000  0.14850000  1.0 0.1610393033
C  C73  1  0.42620000  0.04720000  0.86320000  1.0 -0.199883609
C  C74  1  0.57380000  0.95280000  0.13680000  1.0 -0.199883609
C  C75  1  0.45950000  0.11570000  0.90960000  1.0 0.0767896354
C  C76  1  0.54050000  0.88430000  0.09040000  1.0 0.0767896354
C  C77  1  0.31640000  0.96730000  0.80430000  1.0 -0.0991280125
C  C78  1  0.68360000  0.03270000  0.19570000  1.0 -0.0991280125
C  C79  1  0.14920000  0.55050000  0.56780000  1.0 -0.199883609
C  C80  1  0.85080000  0.44950000  0.43220000  1.0 -0.199883609
C  C81  1  0.13110000  0.50070000  0.59690000  1.0 -0.0900315371
C  C82  1  0.86890000  0.49930000  0.40310000  1.0 -0.0900315371
C  C83  1  0.16630000  0.43960000  0.58110000  1.0 -0.1404523541
C  C84  1  0.83370000  0.56040000  0.41890000  1.0 -0.1404523541
C  C85  1  0.21830000  0.42510000  0.53650000  1.0 0.1390013539
C  C86  1  0.78170000  0.57490000  0.46350000  1.0 0.1390013539
C  C87  1  0.23810000  0.47480000  0.50760000  1.0 -0.1269529734
C  C88  1  0.76190000  0.52520000  0.49240000  1.0 -0.1269529734
C  C89  1  0.20300000  0.53590000  0.52410000  1.0 -0.0900315371
C  C90  1  0.79700000  0.46410000  0.47590000  1.0 -0.0900315371
C  C91  1  0.25290000  0.36150000  0.52220000  1.0 -0.0900315371
C  C92  1  0.74710000  0.63850000  0.47780000  1.0 -0.0900315371
C  C93  1  0.43740000  0.19880000  0.50010000  1.0 0.1011303647
C  C94  1  0.56260000  0.80120000  0.49990000  1.0 0.1011303647
C  C95  1  0.39870000  0.25910000  0.51140000  1.0 -0.1736551473
C  C96  1  0.60130000  0.74090000  0.48860000  1.0 -0.1736551473
C  C97  1  0.32610000  0.24840000  0.49440000  1.0 0.1801326822
C  C98  1  0.67390000  0.75160000  0.50560000  1.0 0.1801326822
C  C99  1  0.29130000  0.17900000  0.46490000  1.0 -0.199883609
C  C100  1  0.70870000  0.82100000  0.53510000  1.0 -0.199883609
C  C101  1  0.33370000  0.12230000  0.45680000  1.0 0.0905940094
C  C102  1  0.66630000  0.87770000  0.54320000  1.0 0.0905940094
C  C103  1  0.28470000  0.30970000  0.50440000  1.0 -0.10586788
C  C104  1  0.71530000  0.69030000  0.49560000  1.0 -0.10586788
C  C105  1  0.91680000  0.85960000  0.50250000  1.0 -0.199883609
C  C106  1  0.08320000  0.14040000  0.49750000  1.0 -0.199883609
C  C107  1  0.92240000  0.91950000  0.56180000  1.0 -0.0900315371
C  C108  1  0.07760000  0.08050000  0.43820000  1.0 -0.0900315371
C  C109  1  0.93770000  0.91960000  0.62650000  1.0 -0.1484315276
C  C110  1  0.06230000  0.08040000  0.37350000  1.0 -0.1484315276
C  C111  1  0.93970000  0.85480000  0.63410000  1.0 0.1390013539
C  C112  1  0.06030000  0.14520000  0.36590000  1.0 0.1390013539
C  C113  1  0.93360000  0.79380000  0.57610000  1.0 -0.1484315276
C  C114  1  0.06640000  0.20620000  0.42390000  1.0 -0.1484315276
C  C115  1  0.92320000  0.79550000  0.51170000  1.0 -0.0900315371
C  C116  1  0.07680000  0.20450000  0.48830000  1.0 -0.0900315371
C  C117  1  0.95110000  0.85070000  0.70040000  1.0 -0.0900315371
C  C118  1  0.04890000  0.14930000  0.29960000  1.0 -0.0900315371
C  C119  1  0.92880000  0.79650000  0.90710000  1.0 0.0737551464
C  C120  1  0.07120000  0.20350000  0.09290000  1.0 0.0737551464
C  C121  1  0.91410000  0.81400000  0.84850000  1.0 -0.1908933618
C  C122  1  0.08590000  0.18600000  0.15150000  1.0 -0.1908933618
C  C123  1  0.97200000  0.83210000  0.81830000  1.0 0.1728030703
C  C124  1  0.02800000  0.16790000  0.18170000  1.0 0.1801326822
C  C125  1  0.04140000  0.83630000  0.84520000  1.0 -0.1908933618
C  C126  1  0.95860000  0.16370000  0.15480000  1.0 -0.1908933618
C  C127  1  0.05240000  0.81600000  0.90220000  1.0 0.1104320429
C  C128  1  0.94760000  0.18400000  0.09780000  1.0 0.1104320429
C  C129  1  0.95910000  0.84550000  0.75480000  1.0 -0.0900315371
C  C130  1  0.04090000  0.15450000  0.24520000  1.0 -0.0900315371
C  C131  1  0.84170000  0.77760000  0.35890000  1.0 -0.199883609
C  C132  1  0.15830000  0.22240000  0.64110000  1.0 -0.199883609
C  C133  1  0.76740000  0.77400000  0.34990000  1.0 -0.0811723662
C  C134  1  0.23260000  0.22600000  0.65010000  1.0 -0.0811723662
C  C135  1  0.72570000  0.70990000  0.30970000  1.0 -0.1484315276
C  C136  1  0.27430000  0.29010000  0.69030000  1.0 -0.1404523541
C  C137  1  0.76010000  0.65050000  0.27610000  1.0 0.1303921214
C  C138  1  0.23990000  0.34950000  0.72390000  1.0 0.1303921214
C  C139  1  0.83330000  0.65210000  0.28200000  1.0 -0.1558388421
C  C140  1  0.16670000  0.34790000  0.71800000  1.0 -0.1558388421
C  C141  1  0.87350000  0.71600000  0.32440000  1.0 -0.0900315371
C  C142  1  0.12650000  0.28400000  0.67560000  1.0 -0.0900315371
C  C143  1  0.71750000  0.58660000  0.22900000  1.0 -0.0900315371
C  C144  1  0.28250000  0.41340000  0.77100000  1.0 -0.0900315371
C  C145  1  0.60890000  0.34720000  0.06640000  1.0 0.0767896354
C  C146  1  0.39110000  0.65280000  0.93360000  1.0 0.0767896354
C  C147  1  0.65890000  0.40700000  0.10850000  1.0 -0.199883609
C  C148  1  0.34110000  0.59300000  0.89150000  1.0 -0.199883609
C  C149  1  0.63210000  0.46920000  0.14860000  1.0 0.1610393033
C  C150  1  0.36790000  0.53080000  0.85140000  1.0 0.1610393033
C  C151  1  0.55950000  0.47110000  0.15310000  1.0 -0.2090322639
C  C152  1  0.44050000  0.52890000  0.84690000  1.0 -0.199883609
C  C153  1  0.51270000  0.40900000  0.11200000  1.0 0.0905940094
C  C154  1  0.48730000  0.59100000  0.88800000  1.0 0.0767896354
C  C155  1  0.67980000  0.53260000  0.19380000  1.0 -0.0900315371
C  C156  1  0.32020000  0.46740000  0.80620000  1.0 -0.0900315371
C  C157  1  0.85280000  0.94490000  0.42550000  1.0 -0.199883609
C  C158  1  0.14720000  0.05510000  0.57450000  1.0 -0.199883609
C  C159  1  0.88240000  0.99880000  0.40410000  1.0 -0.0900315371
C  C160  1  0.11760000  0.00120000  0.59590000  1.0 -0.0900315371
C  C161  1  0.84830000  0.05950000  0.41420000  1.0 -0.1404523541
C  C162  1  0.15170000  0.94050000  0.58580000  1.0 -0.1404523541
C  C163  1  0.78650000  0.06910000  0.44700000  1.0 0.1303921214
C  C164  1  0.21350000  0.93090000  0.55300000  1.0 0.1303921214
C  C165  1  0.75650000  0.01690000  0.46900000  1.0 -0.1269529734
C  C166  1  0.24350000  0.98310000  0.53100000  1.0 -0.1269529734
C  C167  1  0.79190000  0.95720000  0.45940000  1.0 -0.0900315371
C  C168  1  0.20810000  0.04280000  0.54060000  1.0 -0.0900315371
C  C169  1  0.74900000  0.13140000  0.45870000  1.0 -0.0900315371
C  C170  1  0.25100000  0.86860000  0.54130000  1.0 -0.0900315371
C  C171  1  0.57440000  0.29170000  0.44540000  1.0 0.0905940094
C  C172  1  0.42560000  0.70830000  0.55460000  1.0 0.0905940094
C  C173  1  0.61190000  0.23180000  0.43670000  1.0 -0.1908933618
C  C174  1  0.38810000  0.76820000  0.56330000  1.0 -0.1908933618
C  C175  1  0.67420000  0.24150000  0.47890000  1.0 0.1728030703
C  C176  1  0.32580000  0.75850000  0.52110000  1.0 0.1728030703
C  C177  1  0.69620000  0.30840000  0.52890000  1.0 -0.199883609
C  C178  1  0.30380000  0.69160000  0.47110000  1.0 -0.199883609
C  C179  1  0.65490000  0.36490000  0.53380000  1.0 0.0905940094
C  C180  1  0.34510000  0.63510000  0.46620000  1.0 0.0905940094
C  C181  1  0.71430000  0.18050000  0.47060000  1.0 -0.0991280125
C  C182  1  0.28570000  0.81950000  0.52940000  1.0 -0.0991280125
C  C183  1  0.98520000  0.86650000  0.37440000  1.0 -0.2090322639
C  C184  1  0.01480000  0.13350000  0.62560000  1.0 -0.2090322639
C  C185  1  0.98110000  0.86120000  0.30580000  1.0 -0.0900315371
C  C186  1  0.01890000  0.13880000  0.69420000  1.0 -0.0900315371
C  C187  1  0.04190000  0.87060000  0.27520000  1.0 -0.1269529734
C  C188  1  0.95810000  0.12940000  0.72480000  1.0 -0.1269529734
C  C189  1  0.10830000  0.88430000  0.31110000  1.0 0.1196058795
C  C190  1  0.89170000  0.11570000  0.68890000  1.0 0.1196058795
C  C191  1  0.11410000  0.88760000  0.37790000  1.0 -0.1404523541
C  C192  1  0.88590000  0.11240000  0.62210000  1.0 -0.1404523541
C  C193  1  0.05300000  0.87990000  0.40820000  1.0 -0.0991280125
C  C194  1  0.94700000  0.12010000  0.59180000  1.0 -0.0991280125
C  C195  1  0.17180000  0.89830000  0.28210000  1.0 -0.0900315371
C  C196  1  0.82820000  0.10170000  0.71790000  1.0 -0.0900315371
C  C197  1  0.41190000  0.99140000  0.25210000  1.0 0.0905940094
C  C198  1  0.58810000  0.00860000  0.74790000  1.0 0.0905940094
C  C199  1  0.35010000  0.96800000  0.27740000  1.0 -0.1908933618
C  C200  1  0.64990000  0.03200000  0.72260000  1.0 -0.1908933618
C  C201  1  0.29100000  0.93300000  0.23340000  1.0 0.1728030703
C  C202  1  0.70900000  0.06700000  0.76660000  1.0 0.1728030703
C  C203  1  0.29110000  0.91930000  0.16440000  1.0 -0.1908933618
C  C204  1  0.70890000  0.08070000  0.83560000  1.0 -0.1908933618
C  C205  1  0.35650000  0.93800000  0.14040000  1.0 0.0767896354
C  C206  1  0.64350000  0.06200000  0.85960000  1.0 0.0767896354
C  C207  1  0.22470000  0.91220000  0.25930000  1.0 -0.0991280125
C  C208  1  0.77530000  0.08780000  0.74070000  1.0 -0.0991280125
C  C209  1  0.59570000  0.09700000  0.57380000  1.0 0.6630365899
C  C210  1  0.40430000  0.90300000  0.42620000  1.0 0.6630365899
C  C211  1  0.65680000  0.15420000  0.62180000  1.0 -0.5675218736
C  C212  1  0.34320000  0.84580000  0.37820000  1.0 -0.5675218736
C  C213  1  0.56870000  0.99540000  0.39970000  1.0 0.6498429031
C  C214  1  0.43130000  0.00460000  0.60030000  1.0 0.6498429031
C  C215  1  0.61060000  0.98810000  0.33500000  1.0 -0.5631300875
C  C216  1  0.38940000  0.01190000  0.66500000  1.0 -0.5631300875
C  C217  1  0.59120000  0.58700000  0.58660000  1.0 0.6630365899
C  C218  1  0.40880000  0.41300000  0.41340000  1.0 0.6630365899
C  C219  1  0.65030000  0.64040000  0.64180000  1.0 -0.5675218736
C  C220  1  0.34970000  0.35960000  0.35820000  1.0 -0.5675218736
C  C221  1  0.43120000  0.48130000  0.59190000  1.0 0.6498429031
C  C222  1  0.56880000  0.51870000  0.40810000  1.0 0.6498429031
C  C223  1  0.39120000  0.47080000  0.65160000  1.0 -0.5631300875
C  C224  1  0.60880000  0.52920000  0.34840000  1.0 -0.5675218736
C  C225  1  0.05100000  0.88270000  0.08560000  1.0 0.6081892303
C  C226  1  0.94900000  0.11730000  0.91440000  1.0 0.6081892303
C  C227  1  0.08890000  0.96300000  0.13580000  1.0 -0.5631300875
C  C228  1  0.91110000  0.03700000  0.86420000  1.0 -0.5631300875
N  N1  1  0.62400000  0.71460000  0.91720000  1.0 -0.2405745932
N  N2  1  0.37600000  0.28540000  0.08280000  1.0 -0.2405745932
N  N3  1  0.02520000  0.72170000  0.08040000  1.0 -0.199883609
N  N4  1  0.97480000  0.27830000  0.91960000  1.0 -0.199883609
N  N5  1  0.41860000  0.16800000  0.94090000  1.0 -0.1908933618
N  N6  1  0.58140000  0.83200000  0.05910000  1.0 -0.1908933618
N  N7  1  0.40300000  0.13240000  0.47620000  1.0 -0.2313864441
N  N8  1  0.59700000  0.86760000  0.52380000  1.0 -0.2313864441
N  N9  1  0.99610000  0.79630000  0.92800000  1.0 -0.199883609
N  N10  1  0.00390000  0.20370000  0.07200000  1.0 -0.199883609
N  N11  1  0.53770000  0.34960000  0.07130000  1.0 -0.2090322639
N  N12  1  0.46230000  0.65040000  0.92870000  1.0 -0.2090322639
N  N13  1  0.59710000  0.35750000  0.49140000  1.0 -0.2313864441
N  N14  1  0.40290000  0.64250000  0.50860000  1.0 -0.2313864441
N  N15  1  0.41210000  0.97480000  0.18470000  1.0 -0.2553589889
N  N16  1  0.58790000  0.02520000  0.81530000  1.0 -0.2544489452
O  O1  1  0.54300000  0.11600000  0.55090000  1.0 -0.5101249664
O  O2  1  0.45700000  0.88400000  0.44910000  1.0 -0.5101249664
O  O3  1  0.60600000  0.03400000  0.56820000  1.0 -0.5427136371
O  O4  1  0.39400000  0.96600000  0.43180000  1.0 -0.5427136371
O  O5  1  0.52040000  0.03500000  0.40940000  1.0 -0.517697523
O  O6  1  0.47960000  0.96500000  0.59060000  1.0 -0.517697523
O  O7  1  0.58390000  0.95100000  0.42430000  1.0 -0.517697523
O  O8  1  0.41610000  0.04900000  0.57570000  1.0 -0.517697523
O  O9  1  0.60320000  0.52300000  0.56660000  1.0 -0.517697523
O  O10  1  0.39680000  0.47700000  0.43340000  1.0 -0.517697523
O  O11  1  0.53930000  0.61400000  0.57170000  1.0 -0.5101249664
O  O12  1  0.46070000  0.38600000  0.42830000  1.0 -0.5101249664
O  O13  1  0.47820000  0.44050000  0.57140000  1.0 -0.517697523
O  O14  1  0.52180000  0.55950000  0.42860000  1.0 -0.517697523
O  O15  1  0.41520000  0.53240000  0.57770000  1.0 -0.5101249664
O  O16  1  0.58480000  0.46760000  0.42230000  1.0 -0.5101249664
O  O17  1  0.09950000  0.85200000  0.05660000  1.0 -0.5427136371
O  O18  1  0.90050000  0.14800000  0.94340000  1.0 -0.5427136371
O  O19  1  0.98760000  0.88120000  0.09800000  1.0 -0.5675218736
O  O20  1  0.01240000  0.11880000  0.90200000  1.0 -0.5675218736
