# DDEC6 charges by PACMAN v1.1 (https://github.com/mtap-research/PACMAN-charge/)
data_KUYPIF_FSR_pacman
_symmetry_space_group_name_H-M   'P 1'
_cell_length_a   16.83720000
_cell_length_b   16.83720000
_cell_length_c   6.94030000
_cell_angle_alpha   90.00000000
_cell_angle_beta   90.00000000
_cell_angle_gamma   144.45100000
_symmetry_Int_Tables_number   1
_chemical_formula_structural   Zn2H7C19N4O7
_chemical_formula_sum   'Zn4 H14 C38 N8 O14'
_cell_volume   1143.91104545
_cell_formula_units_Z   2
loop_
 _symmetry_equiv_pos_site_id
 _symmetry_equiv_pos_as_xyz
  1  'x, y, z'
loop_
 _atom_site_type_symbol
 _atom_site_label
 _atom_site_symmetry_multiplicity
 _atom_site_fract_x
 _atom_site_fract_y
 _atom_site_fract_z
 _atom_site_occupancy
 _atom_site_charge
Zn  Zn1  1  0.09617000  0.90383000  0.25000000  1.0 0.8615352983
Zn  Zn2  1  0.90383000  0.09617000  0.75000000  1.0 0.8615352983
Zn  Zn3  1  0.00000000  0.00000000  0.00000000  1.0 0.8480651255
Zn  Zn4  1  0.00000000  0.00000000  0.50000000  1.0 0.8480651255
H  H1  1  0.21760000  0.26240000  0.95870000  1.0 0.3918268668
H  H2  1  0.78240000  0.73760000  0.45870000  1.0 0.3918268668
H  H3  1  0.26240000  0.21760000  0.04130000  1.0 0.3918268668
H  H4  1  0.73760000  0.78240000  0.54130000  1.0 0.3918268668
H  H5  1  0.78240000  0.73760000  0.04130000  1.0 0.3918268668
H  H6  1  0.21760000  0.26240000  0.54130000  1.0 0.3918268668
H  H7  1  0.73760000  0.78240000  0.95870000  1.0 0.3918268668
H  H8  1  0.26240000  0.21760000  0.45870000  1.0 0.3918268668
H  H9  1  0.41580000  0.58420000  0.75000000  1.0 0.1224687273
H  H10  1  0.58420000  0.41580000  0.25000000  1.0 0.1224687273
H  H11  1  0.11330000  0.50090000  0.75000000  1.0 0.1454290475
H  H12  1  0.88670000  0.49910000  0.25000000  1.0 0.1437968041
H  H13  1  0.50090000  0.11330000  0.25000000  1.0 0.1454290475
H  H14  1  0.49910000  0.88670000  0.75000000  1.0 0.1454290475
C  C1  1  0.38680000  0.61320000  0.75000000  1.0 -0.1105836307
C  C2  1  0.61320000  0.38680000  0.25000000  1.0 -0.1105836307
C  C3  1  0.25310000  0.52290000  0.75000000  1.0 -0.0141184617
C  C4  1  0.74690000  0.47710000  0.25000000  1.0 -0.0141184617
C  C5  1  0.52290000  0.25310000  0.25000000  1.0 -0.0141184617
C  C6  1  0.47710000  0.74690000  0.75000000  1.0 -0.0141184617
C  C7  1  0.15370000  0.37630000  0.75000000  1.0 0.546041506
C  C8  1  0.84630000  0.62370000  0.25000000  1.0 0.546041506
C  C9  1  0.37630000  0.15370000  0.25000000  1.0 0.546041506
C  C10  1  0.62370000  0.84630000  0.75000000  1.0 0.546041506
C  C11  1  0.20630000  0.56550000  0.75000000  1.0 -0.1182441929
C  C12  1  0.79370000  0.43450000  0.25000000  1.0 -0.1182441929
C  C13  1  0.56550000  0.20630000  0.25000000  1.0 -0.1182441929
C  C14  1  0.43450000  0.79370000  0.75000000  1.0 -0.1182441929
C  C15  1  0.29910000  0.70090000  0.75000000  1.0 0.0756308759
C  C16  1  0.70090000  0.29910000  0.25000000  1.0 0.0756308759
C  C17  1  0.25180000  0.74820000  0.75000000  1.0 0.0375641199
C  C18  1  0.74820000  0.25180000  0.25000000  1.0 0.0375641199
C  C19  1  0.15970000  0.70090000  0.89000000  1.0 -0.0310713838
C  C20  1  0.84030000  0.29910000  0.39000000  1.0 -0.0310713838
C  C21  1  0.70090000  0.15970000  0.11000000  1.0 -0.0310713838
C  C22  1  0.29910000  0.84030000  0.61000000  1.0 -0.0310713838
C  C23  1  0.84030000  0.29910000  0.11000000  1.0 -0.0310713838
C  C24  1  0.15970000  0.70090000  0.61000000  1.0 -0.0310713838
C  C25  1  0.29910000  0.84030000  0.89000000  1.0 -0.0310713838
C  C26  1  0.70090000  0.15970000  0.39000000  1.0 -0.0310713838
C  C27  1  0.11660000  0.74540000  0.89100000  1.0 -0.0188442039
C  C28  1  0.88340000  0.25460000  0.39100000  1.0 -0.0188442039
C  C29  1  0.74540000  0.11660000  0.10900000  1.0 -0.0188442039
C  C30  1  0.25460000  0.88340000  0.60900000  1.0 -0.0188442039
C  C31  1  0.88340000  0.25460000  0.10900000  1.0 -0.0188442039
C  C32  1  0.11660000  0.74540000  0.60900000  1.0 -0.0188442039
C  C33  1  0.25460000  0.88340000  0.89100000  1.0 -0.0188442039
C  C34  1  0.74540000  0.11660000  0.39100000  1.0 -0.0188442039
C  C35  1  0.16490000  0.83510000  0.75000000  1.0 -0.0141184617
C  C36  1  0.83510000  0.16490000  0.25000000  1.0 -0.0141184617
C  C37  1  0.11880000  0.88120000  0.75000000  1.0 0.2927000696
C  C38  1  0.88120000  0.11880000  0.25000000  1.0 0.2927000696
N  N1  1  0.09530000  0.90470000  0.59110000  1.0 -0.218645138
N  N2  1  0.90470000  0.09530000  0.09110000  1.0 -0.218645138
N  N3  1  0.90470000  0.09530000  0.40890000  1.0 -0.218645138
N  N4  1  0.09530000  0.90470000  0.90890000  1.0 -0.218645138
N  N5  1  0.05610000  0.94390000  0.66130000  1.0 0.0105185058
N  N6  1  0.94390000  0.05610000  0.16130000  1.0 0.0105185058
N  N7  1  0.94390000  0.05610000  0.33870000  1.0 0.0105185058
N  N8  1  0.05610000  0.94390000  0.83870000  1.0 0.0105185058
O  O1  1  0.03190000  0.29270000  0.75000000  1.0 -0.4902867054
O  O2  1  0.96810000  0.70730000  0.25000000  1.0 -0.4902867054
O  O3  1  0.29270000  0.03190000  0.25000000  1.0 -0.4902867054
O  O4  1  0.70730000  0.96810000  0.75000000  1.0 -0.4902867054
O  O5  1  0.18870000  0.33333333  0.75000000  1.0 -0.512367261
O  O6  1  0.81130000  0.66666667  0.25000000  1.0 -0.512367261
O  O7  1  0.33333333  0.18870000  0.25000000  1.0 -0.512367261
O  O8  1  0.66666667  0.81130000  0.75000000  1.0 -0.512367261
O  O9  1  0.03370000  0.96630000  0.25000000  1.0 -0.8335345512
O  O10  1  0.96630000  0.03370000  0.75000000  1.0 -0.8353530293
O  O11  1  0.21340000  0.21340000  0.00000000  1.0 -0.671150965
O  O12  1  0.78660000  0.78660000  0.50000000  1.0 -0.671150965
O  O13  1  0.78660000  0.78660000  0.00000000  1.0 -0.671150965
O  O14  1  0.21340000  0.21340000  0.50000000  1.0 -0.671150965
