# DDEC6 charges by PACMAN v1.1 (https://github.com/mtap-research/PACMAN-charge/)
data_KUZQAA_ASR_pacman
_symmetry_space_group_name_H-M   'P 1'
_cell_length_a   15.90180000
_cell_length_b   15.90180000
_cell_length_c   15.90180000
_cell_angle_alpha   96.50080000
_cell_angle_beta   96.50080000
_cell_angle_gamma   140.67500000
_symmetry_Int_Tables_number   1
_chemical_formula_structural   AlC6NO5
_chemical_formula_sum   'Al8 C48 N8 O40'
_cell_volume   2399.62916387
_cell_formula_units_Z   8
loop_
 _symmetry_equiv_pos_site_id
 _symmetry_equiv_pos_as_xyz
  1  'x, y, z'
loop_
 _atom_site_type_symbol
 _atom_site_label
 _atom_site_symmetry_multiplicity
 _atom_site_fract_x
 _atom_site_fract_y
 _atom_site_fract_z
 _atom_site_occupancy
 _atom_site_charge
Al  Al1  1  0.40510000  0.46980000  0.44090000  1.0 1.5800120309
Al  Al2  1  0.02890000  0.96420000  0.55910000  1.0 1.5800120309
Al  Al3  1  0.21420000  0.15510000  0.43530000  1.0 1.5800120309
Al  Al4  1  0.71980000  0.77890000  0.56470000  1.0 1.5800120309
Al  Al5  1  0.40510000  0.96420000  0.93530000  1.0 1.5800120309
Al  Al6  1  0.02890000  0.46980000  0.06470000  1.0 1.5800120309
Al  Al7  1  0.21420000  0.77890000  0.05910000  1.0 1.5800120309
Al  Al8  1  0.71980000  0.15510000  0.94090000  1.0 1.5800120309
C  C1  1  0.52300000  0.78640000  0.37140000  1.0 -0.020218955
C  C2  1  0.54550000  0.73420000  0.41770000  1.0 0.5853651688
C  C3  1  0.58690000  0.91040000  0.39330000  1.0 -0.020218955
C  C4  1  0.11540000  0.22620000  0.33560000  1.0 0.582956751
C  C5  1  0.85360000  0.02760000  0.24120000  1.0 0.0024309782
C  C6  1  0.99640000  0.16690000  0.27730000  1.0 0.0313492306
C  C7  1  0.41500000  0.15160000  0.62860000  1.0 -0.020218955
C  C8  1  0.31650000  0.12780000  0.58230000  1.0 0.5853651688
C  C9  1  0.51710000  0.19360000  0.60670000  1.0 -0.020218955
C  C10  1  0.89060000  0.77980000  0.66440000  1.0 0.582956751
C  C11  1  0.78640000  0.61240000  0.75880000  1.0 0.0024309782
C  C12  1  0.88960000  0.71910000  0.72270000  1.0 0.0313492306
C  C13  1  0.40160000  0.27300000  0.23660000  1.0 -0.020218955
C  C14  1  0.37780000  0.29550000  0.31130000  1.0 0.582956751
C  C15  1  0.44360000  0.33690000  0.17650000  1.0 -0.020218955
C  C16  1  0.02980000  0.86540000  0.38920000  1.0 0.582956751
C  C17  1  0.86240000  0.60360000  0.32600000  1.0 0.0024309782
C  C18  1  0.96910000  0.74640000  0.32950000  1.0 0.0313492306
C  C19  1  0.03640000  0.16500000  0.76340000  1.0 -0.0256102904
C  C20  1  0.98420000  0.06650000  0.68870000  1.0 0.582956751
C  C21  1  0.16040000  0.26710000  0.82350000  1.0 -0.020218955
C  C22  1  0.47620000  0.64060000  0.61080000  1.0 0.582956751
C  C23  1  0.27760000  0.53640000  0.67400000  1.0 0.0024309782
C  C24  1  0.41690000  0.63960000  0.67050000  1.0 0.0313492306
C  C25  1  0.52300000  0.15160000  0.73660000  1.0 -0.020218955
C  C26  1  0.54550000  0.12780000  0.81130000  1.0 0.582956751
C  C27  1  0.58690000  0.19360000  0.67650000  1.0 -0.020218955
C  C28  1  0.11540000  0.77980000  0.88920000  1.0 0.582956751
C  C29  1  0.85360000  0.61240000  0.82600000  1.0 0.0024309782
C  C30  1  0.99640000  0.71910000  0.82950000  1.0 0.0313492306
C  C31  1  0.41500000  0.78640000  0.26340000  1.0 -0.020218955
C  C32  1  0.31650000  0.73420000  0.18870000  1.0 0.5853651688
C  C33  1  0.51710000  0.91040000  0.32350000  1.0 -0.020218955
C  C34  1  0.89060000  0.22620000  0.11080000  1.0 0.582956751
C  C35  1  0.78640000  0.02760000  0.17400000  1.0 0.0024309782
C  C36  1  0.88960000  0.16690000  0.17050000  1.0 0.0313492306
C  C37  1  0.40160000  0.16500000  0.12860000  1.0 -0.0256102904
C  C38  1  0.37780000  0.06650000  0.08230000  1.0 0.5853651688
C  C39  1  0.44360000  0.26710000  0.10670000  1.0 -0.020218955
C  C40  1  0.02980000  0.64060000  0.16440000  1.0 0.582956751
C  C41  1  0.86240000  0.53640000  0.25880000  1.0 0.0024309782
C  C42  1  0.96910000  0.63960000  0.22270000  1.0 0.0313492306
C  C43  1  0.03640000  0.27300000  0.87140000  1.0 -0.0256102904
C  C44  1  0.98420000  0.29550000  0.91770000  1.0 0.5853651688
C  C45  1  0.16040000  0.33690000  0.89330000  1.0 -0.020218955
C  C46  1  0.47620000  0.86540000  0.83560000  1.0 0.582956751
C  C47  1  0.27760000  0.60360000  0.74120000  1.0 0.0024309782
C  C48  1  0.41690000  0.74640000  0.77730000  1.0 0.0313492306
N  N1  1  0.42000000  0.71100000  0.29100000  1.0 -0.0842656716
N  N2  1  0.00000000  0.23830000  0.23830000  1.0 -0.1283876225
N  N3  1  0.42000000  0.12900000  0.70900000  1.0 -0.0842656716
N  N4  1  0.00000000  0.76170000  0.76170000  1.0 -0.1234067528
N  N5  1  0.37900000  0.17000000  0.20900000  1.0 -0.0853858813
N  N6  1  0.01170000  0.75000000  0.26170000  1.0 -0.1234067528
N  N7  1  0.96100000  0.17000000  0.79100000  1.0 -0.0853858813
N  N8  1  0.48830000  0.75000000  0.73830000  1.0 -0.1283876225
O  O1  1  0.34970000  0.34780000  0.49150000  1.0 -0.6922428341
O  O2  1  0.64270000  0.80680000  0.48550000  1.0 -0.465945959
O  O3  1  0.45440000  0.60290000  0.38530000  1.0 -0.4923736676
O  O4  1  0.21610000  0.35050000  0.37460000  1.0 -0.4819086082
O  O5  1  0.10540000  0.14170000  0.34910000  1.0 -0.5013498886
O  O6  1  0.85630000  0.85820000  0.50850000  1.0 -0.6922428341
O  O7  1  0.32130000  0.15720000  0.51450000  1.0 -0.465945959
O  O8  1  0.21760000  0.06910000  0.61470000  1.0 -0.4923736676
O  O9  1  0.97590000  0.84150000  0.62540000  1.0 -0.4819086082
O  O10  1  0.79260000  0.75630000  0.65090000  1.0 -0.5013498886
O  O11  1  0.10820000  0.09970000  0.50190000  1.0 -0.6922428341
O  O12  1  0.40720000  0.39270000  0.33590000  1.0 -0.4643303527
O  O13  1  0.31910000  0.20440000  0.35150000  1.0 -0.4923736676
O  O14  1  0.09150000  0.96610000  0.36560000  1.0 -0.4819086082
O  O15  1  0.00630000  0.85540000  0.46370000  1.0 -0.5013498886
O  O16  1  0.59780000  0.60630000  0.49810000  1.0 -0.6922428341
O  O17  1  0.05680000  0.07130000  0.66410000  1.0 -0.4643303527
O  O18  1  0.85290000  0.96760000  0.64850000  1.0 -0.4923736676
O  O19  1  0.60050000  0.72590000  0.63440000  1.0 -0.4819086082
O  O20  1  0.39170000  0.54260000  0.53630000  1.0 -0.5013498886
O  O21  1  0.34970000  0.85820000  0.00190000  1.0 -0.695256479
O  O22  1  0.64270000  0.15720000  0.83590000  1.0 -0.4643303527
O  O23  1  0.45440000  0.06910000  0.85150000  1.0 -0.4923736676
O  O24  1  0.21610000  0.84150000  0.86560000  1.0 -0.4819086082
O  O25  1  0.10540000  0.75630000  0.96370000  1.0 -0.5013498886
O  O26  1  0.85630000  0.34780000  0.99810000  1.0 -0.6922428341
O  O27  1  0.32130000  0.80680000  0.16410000  1.0 -0.465945959
O  O28  1  0.21760000  0.60290000  0.14850000  1.0 -0.4923736676
O  O29  1  0.97590000  0.35050000  0.13440000  1.0 -0.4819086082
O  O30  1  0.79260000  0.14170000  0.03630000  1.0 -0.5013498886
O  O31  1  0.10820000  0.60630000  0.00850000  1.0 -0.6922428341
O  O32  1  0.40720000  0.07130000  0.01450000  1.0 -0.4643303527
O  O33  1  0.31910000  0.96760000  0.11470000  1.0 -0.4923736676
O  O34  1  0.09150000  0.72590000  0.12540000  1.0 -0.4819086082
O  O35  1  0.00630000  0.54260000  0.15090000  1.0 -0.5013498886
O  O36  1  0.59780000  0.09970000  0.99150000  1.0 -0.6922428341
O  O37  1  0.05680000  0.39270000  0.98550000  1.0 -0.465945959
O  O38  1  0.85290000  0.20440000  0.88530000  1.0 -0.4923736676
O  O39  1  0.60050000  0.96610000  0.87460000  1.0 -0.4819086082
O  O40  1  0.39170000  0.85540000  0.84910000  1.0 -0.5013498886
