# DDEC6 charges by PACMAN v1.1 (https://github.com/mtap-research/PACMAN-charge/)
data_LABMUZ_FSR_pacman
_symmetry_space_group_name_H-M   'P 1'
_cell_length_a   19.05140000
_cell_length_b   19.05140000
_cell_length_c   30.96580000
_cell_angle_alpha   79.00720000
_cell_angle_beta   100.99300000
_cell_angle_gamma   133.99000000
_symmetry_Int_Tables_number   1
_chemical_formula_structural   Zn4H66C63(IN)12
_chemical_formula_sum   'Zn16 H264 C252 I48 N48'
_cell_volume   7910.76159658
_cell_formula_units_Z   4
loop_
 _symmetry_equiv_pos_site_id
 _symmetry_equiv_pos_as_xyz
  1  'x, y, z'
loop_
 _atom_site_type_symbol
 _atom_site_label
 _atom_site_symmetry_multiplicity
 _atom_site_fract_x
 _atom_site_fract_y
 _atom_site_fract_z
 _atom_site_occupancy
 _atom_site_charge
Zn  Zn1  1  0.22391000  0.97361000  0.06105000  1.0 0.3695107218
Zn  Zn2  1  0.97361000  0.22391000  0.43895000  1.0 0.3750028672
Zn  Zn3  1  0.77609000  0.02639000  0.93895000  1.0 0.3695107218
Zn  Zn4  1  0.02639000  0.77609000  0.56105000  1.0 0.3695107218
Zn  Zn5  1  0.68076000  0.02784000  0.22671000  1.0 0.3083508896
Zn  Zn6  1  0.02784000  0.68076000  0.27329000  1.0 0.3083508896
Zn  Zn7  1  0.31924000  0.97216000  0.77329000  1.0 0.3083508896
Zn  Zn8  1  0.97216000  0.31924000  0.72671000  1.0 0.3083508896
Zn  Zn9  1  0.30185000  0.45727000  0.90234000  1.0 0.3901878359
Zn  Zn10  1  0.45727000  0.30185000  0.59766000  1.0 0.3901878359
Zn  Zn11  1  0.69815000  0.54273000  0.09766000  1.0 0.3901878359
Zn  Zn12  1  0.54273000  0.69815000  0.40234000  1.0 0.3901878359
Zn  Zn13  1  0.96840000  0.32300000  0.71860000  1.0 0.3396174671
Zn  Zn14  1  0.32300000  0.96840000  0.78140000  1.0 0.3396174671
Zn  Zn15  1  0.03160000  0.67700000  0.28140000  1.0 0.3396174671
Zn  Zn16  1  0.67700000  0.03160000  0.21860000  1.0 0.3396174671
H  H1  1  0.04320000  0.89160000  0.99660000  1.0 0.1002995909
H  H2  1  0.89160000  0.04320000  0.50340000  1.0 0.1002995909
H  H3  1  0.95680000  0.10840000  0.00340000  1.0 0.1002995909
H  H4  1  0.10840000  0.95680000  0.49660000  1.0 0.1002995909
H  H5  1  0.11850000  0.98170000  0.11430000  1.0 0.1002995909
H  H6  1  0.98170000  0.11850000  0.38570000  1.0 0.1002995909
H  H7  1  0.88150000  0.01830000  0.88570000  1.0 0.1002995909
H  H8  1  0.01830000  0.88150000  0.61430000  1.0 0.1002995909
H  H9  1  0.89390000  0.84630000  0.99440000  1.0 0.1403190789
H  H10  1  0.84630000  0.89390000  0.50560000  1.0 0.1403190789
H  H11  1  0.10610000  0.15370000  0.00560000  1.0 0.1403190789
H  H12  1  0.15370000  0.10610000  0.49440000  1.0 0.1403190789
H  H13  1  0.97080000  0.93640000  0.11640000  1.0 0.1317774318
H  H14  1  0.93640000  0.97080000  0.38360000  1.0 0.1317774318
H  H15  1  0.02920000  0.06360000  0.88360000  1.0 0.1317774318
H  H16  1  0.06360000  0.02920000  0.61640000  1.0 0.1317774318
H  H17  1  0.84080000  0.95720000  0.15690000  1.0 0.1403190789
H  H18  1  0.95720000  0.84080000  0.34310000  1.0 0.1403190789
H  H19  1  0.15920000  0.04280000  0.84310000  1.0 0.1403190789
H  H20  1  0.04280000  0.15920000  0.65690000  1.0 0.1403190789
H  H21  1  0.58540000  0.85860000  0.08970000  1.0 0.1464122893
H  H22  1  0.85860000  0.58540000  0.41030000  1.0 0.1464122893
H  H23  1  0.41460000  0.14140000  0.91030000  1.0 0.1464122893
H  H24  1  0.14140000  0.41460000  0.58970000  1.0 0.1464122893
H  H25  1  0.64430000  0.65750000  0.97770000  1.0 0.1403190789
H  H26  1  0.65750000  0.64430000  0.52230000  1.0 0.1403190789
H  H27  1  0.35570000  0.34250000  0.02230000  1.0 0.1403190789
H  H28  1  0.34250000  0.35570000  0.47770000  1.0 0.1403190789
H  H29  1  0.48210000  0.69250000  0.01880000  1.0 0.1403190789
H  H30  1  0.69250000  0.48210000  0.48120000  1.0 0.1403190789
H  H31  1  0.51790000  0.30750000  0.98120000  1.0 0.1403190789
H  H32  1  0.30750000  0.51790000  0.51880000  1.0 0.1403190789
H  H33  1  0.82100000  0.02000000  0.20580000  1.0 0.1002995909
H  H34  1  0.02000000  0.82100000  0.29420000  1.0 0.1002995909
H  H35  1  0.17900000  0.98000000  0.79420000  1.0 0.1002995909
H  H36  1  0.98000000  0.17900000  0.70580000  1.0 0.1002995909
H  H37  1  0.57510000  0.92730000  0.13940000  1.0 0.1002995909
H  H38  1  0.92730000  0.57510000  0.36060000  1.0 0.1002995909
H  H39  1  0.42490000  0.07270000  0.86060000  1.0 0.1002995909
H  H40  1  0.07270000  0.42490000  0.63940000  1.0 0.1002995909
H  H41  1  0.50870000  0.53930000  0.93340000  1.0 0.090118216
H  H42  1  0.53930000  0.50870000  0.56660000  1.0 0.090118216
H  H43  1  0.49130000  0.46070000  0.06660000  1.0 0.090118216
H  H44  1  0.46070000  0.49130000  0.43340000  1.0 0.090118216
H  H45  1  0.35340000  0.57780000  0.97090000  1.0 0.1002995909
H  H46  1  0.57780000  0.35340000  0.52910000  1.0 0.1002995909
H  H47  1  0.64660000  0.42220000  0.02910000  1.0 0.1002995909
H  H48  1  0.42220000  0.64660000  0.47090000  1.0 0.1002995909
H  H49  1  0.19330000  0.50570000  0.83850000  1.0 0.0820327212
H  H50  1  0.50570000  0.19330000  0.66150000  1.0 0.0820327212
H  H51  1  0.80670000  0.49430000  0.16150000  1.0 0.0820327212
H  H52  1  0.49430000  0.80670000  0.33850000  1.0 0.0820327212
H  H53  1  0.47200000  0.64700000  0.86310000  1.0 0.1089115651
H  H54  1  0.64700000  0.47200000  0.63690000  1.0 0.1089115651
H  H55  1  0.52800000  0.35300000  0.13690000  1.0 0.1089115651
H  H56  1  0.35300000  0.52800000  0.36310000  1.0 0.1089115651
H  H57  1  0.22810000  0.62150000  0.78040000  1.0 0.1221332873
H  H58  1  0.62150000  0.22810000  0.71960000  1.0 0.1221332873
H  H59  1  0.77190000  0.37850000  0.21960000  1.0 0.1221332873
H  H60  1  0.37850000  0.77190000  0.28040000  1.0 0.1221332873
H  H61  1  0.51520000  0.76860000  0.80760000  1.0 0.1317774318
H  H62  1  0.76860000  0.51520000  0.69240000  1.0 0.1317774318
H  H63  1  0.48480000  0.23140000  0.19240000  1.0 0.1317774318
H  H64  1  0.23140000  0.48480000  0.30760000  1.0 0.1317774318
H  H65  1  0.61190000  0.10630000  0.67080000  1.0 0.1403190789
H  H66  1  0.10630000  0.61190000  0.82920000  1.0 0.1403190789
H  H67  1  0.38810000  0.89370000  0.32920000  1.0 0.1403190789
H  H68  1  0.89370000  0.38810000  0.17080000  1.0 0.1403190789
H  H69  1  0.67550000  0.97070000  0.76120000  1.0 0.1403190789
H  H70  1  0.97070000  0.67550000  0.73880000  1.0 0.1403190789
H  H71  1  0.32450000  0.02930000  0.23880000  1.0 0.1403190789
H  H72  1  0.02930000  0.32450000  0.26120000  1.0 0.1403190789
H  H73  1  0.37110000  0.95510000  0.62280000  1.0 0.1403190789
H  H74  1  0.95510000  0.37110000  0.87720000  1.0 0.1403190789
H  H75  1  0.62890000  0.04490000  0.37720000  1.0 0.1403190789
H  H76  1  0.04490000  0.62890000  0.12280000  1.0 0.1403190789
H  H77  1  0.16810000  0.70870000  0.69810000  1.0 0.1089115651
H  H78  1  0.70870000  0.16810000  0.80190000  1.0 0.1089115651
H  H79  1  0.83190000  0.29130000  0.30190000  1.0 0.1089115651
H  H80  1  0.29130000  0.83190000  0.19810000  1.0 0.1089115651
H  H81  1  0.77740000  0.24800000  0.67550000  1.0 0.1002995909
H  H82  1  0.24800000  0.77740000  0.82450000  1.0 0.1002995909
H  H83  1  0.22260000  0.75200000  0.32450000  1.0 0.1002995909
H  H84  1  0.75200000  0.22260000  0.17550000  1.0 0.1002995909
H  H85  1  0.83850000  0.11410000  0.76120000  1.0 0.090118216
H  H86  1  0.11410000  0.83850000  0.73880000  1.0 0.090118216
H  H87  1  0.16150000  0.88590000  0.23880000  1.0 0.090118216
H  H88  1  0.88590000  0.16150000  0.26120000  1.0 0.090118216
H  H89  1  0.24410000  0.92390000  0.57530000  1.0 0.090118216
H  H90  1  0.92390000  0.24410000  0.92470000  1.0 0.090118216
H  H91  1  0.75590000  0.07610000  0.42470000  1.0 0.090118216
H  H92  1  0.07610000  0.75590000  0.07530000  1.0 0.090118216
H  H93  1  0.04710000  0.68750000  0.64920000  1.0 0.090118216
H  H94  1  0.68750000  0.04710000  0.85080000  1.0 0.090118216
H  H95  1  0.95290000  0.31250000  0.35080000  1.0 0.090118216
H  H96  1  0.31250000  0.95290000  0.14920000  1.0 0.090118216
H  H97  1  0.94230000  0.50610000  0.58930000  1.0 0.1089115651
H  H98  1  0.50610000  0.94230000  0.91070000  1.0 0.1089115651
H  H99  1  0.05770000  0.49390000  0.41070000  1.0 0.1089115651
H  H100  1  0.49390000  0.05770000  0.08930000  1.0 0.1089115651
H  H101  1  0.96910000  0.54510000  0.53910000  1.0 0.0820327212
H  H102  1  0.54510000  0.96910000  0.96090000  1.0 0.0820327212
H  H103  1  0.03090000  0.45490000  0.46090000  1.0 0.0820327212
H  H104  1  0.45490000  0.03090000  0.03910000  1.0 0.0820327212
H  H105  1  0.92900000  0.40660000  0.52730000  1.0 0.0594620335
H  H106  1  0.40660000  0.92900000  0.97270000  1.0 0.0594620335
H  H107  1  0.07100000  0.59340000  0.47270000  1.0 0.0594620335
H  H108  1  0.59340000  0.07100000  0.02730000  1.0 0.0594620335
H  H109  1  0.00570000  0.45170000  0.56990000  1.0 0.0392360134
H  H110  1  0.45170000  0.00570000  0.93010000  1.0 0.0392360134
H  H111  1  0.99430000  0.54830000  0.43010000  1.0 0.0392360134
H  H112  1  0.54830000  0.99430000  0.06990000  1.0 0.0392360134
H  H113  1  0.88000000  0.33780000  0.61670000  1.0 0.0705620944
H  H114  1  0.33780000  0.88000000  0.88330000  1.0 0.0705620944
H  H115  1  0.12000000  0.66220000  0.38330000  1.0 0.0705620944
H  H116  1  0.66220000  0.12000000  0.11670000  1.0 0.0705620944
H  H117  1  0.87610000  0.28090000  0.58290000  1.0 0.090118216
H  H118  1  0.28090000  0.87610000  0.91710000  1.0 0.090118216
H  H119  1  0.12390000  0.71910000  0.41710000  1.0 0.090118216
H  H120  1  0.71910000  0.12390000  0.08290000  1.0 0.090118216
H  H121  1  0.74890000  0.25910000  0.53980000  1.0 0.0820327212
H  H122  1  0.25910000  0.74890000  0.96020000  1.0 0.0820327212
H  H123  1  0.25110000  0.74090000  0.46020000  1.0 0.0820327212
H  H124  1  0.74090000  0.25110000  0.03980000  1.0 0.0820327212
H  H125  1  0.71960000  0.21420000  0.58950000  1.0 0.090118216
H  H126  1  0.21420000  0.71960000  0.91050000  1.0 0.090118216
H  H127  1  0.28040000  0.78580000  0.41050000  1.0 0.090118216
H  H128  1  0.78580000  0.28040000  0.08950000  1.0 0.090118216
H  H129  1  0.68130000  0.30970000  0.56450000  1.0 0.0594620335
H  H130  1  0.30970000  0.68130000  0.93550000  1.0 0.0594620335
H  H131  1  0.31870000  0.69030000  0.43550000  1.0 0.0594620335
H  H132  1  0.69030000  0.31870000  0.06450000  1.0 0.0594620335
H  H133  1  0.76390000  0.35750000  0.60500000  1.0 0.090118216
H  H134  1  0.35750000  0.76390000  0.89500000  1.0 0.090118216
H  H135  1  0.23610000  0.64250000  0.39500000  1.0 0.090118216
H  H136  1  0.64250000  0.23610000  0.10500000  1.0 0.090118216
H  H137  1  0.80270000  0.42250000  0.51340000  1.0 0.0705620944
H  H138  1  0.42250000  0.80270000  0.98660000  1.0 0.0705620944
H  H139  1  0.19730000  0.57750000  0.48660000  1.0 0.0705620944
H  H140  1  0.57750000  0.19730000  0.01340000  1.0 0.0705620944
H  H141  1  0.81060000  0.48200000  0.54750000  1.0 0.090118216
H  H142  1  0.48200000  0.81060000  0.95250000  1.0 0.090118216
H  H143  1  0.18940000  0.51800000  0.45250000  1.0 0.090118216
H  H144  1  0.51800000  0.18940000  0.04750000  1.0 0.090118216
H  H145  1  0.61220000  0.10260000  0.59640000  1.0 0.1002995909
H  H146  1  0.10260000  0.61220000  0.90360000  1.0 0.1002995909
H  H147  1  0.38780000  0.89740000  0.40360000  1.0 0.1002995909
H  H148  1  0.89740000  0.38780000  0.09640000  1.0 0.1002995909
H  H149  1  0.72640000  0.09880000  0.61470000  1.0 0.090118216
H  H150  1  0.09880000  0.72640000  0.88530000  1.0 0.090118216
H  H151  1  0.27360000  0.90120000  0.38530000  1.0 0.090118216
H  H152  1  0.90120000  0.27360000  0.11470000  1.0 0.090118216
H  H153  1  0.96170000  0.34790000  0.55660000  1.0 0.090118216
H  H154  1  0.34790000  0.96170000  0.94340000  1.0 0.090118216
H  H155  1  0.03830000  0.65210000  0.44340000  1.0 0.090118216
H  H156  1  0.65210000  0.03830000  0.05660000  1.0 0.090118216
H  H157  1  0.72070000  0.39330000  0.50400000  1.0 0.090118216
H  H158  1  0.39330000  0.72070000  0.99600000  1.0 0.090118216
H  H159  1  0.27930000  0.60670000  0.49600000  1.0 0.090118216
H  H160  1  0.60670000  0.27930000  0.00400000  1.0 0.090118216
H  H161  1  0.89040000  0.52560000  0.47970000  1.0 0.0705620944
H  H162  1  0.52560000  0.89040000  0.02030000  1.0 0.0705620944
H  H163  1  0.10960000  0.47440000  0.52030000  1.0 0.0705620944
H  H164  1  0.47440000  0.10960000  0.97970000  1.0 0.0705620944
H  H165  1  0.54230000  0.14910000  0.56880000  1.0 0.1221332873
H  H166  1  0.14910000  0.54230000  0.93120000  1.0 0.1221332873
H  H167  1  0.45770000  0.85090000  0.43120000  1.0 0.1221332873
H  H168  1  0.85090000  0.45770000  0.06880000  1.0 0.1221332873
H  H169  1  0.56580000  0.20780000  0.52110000  1.0 0.1317774318
H  H170  1  0.20780000  0.56580000  0.97890000  1.0 0.1317774318
H  H171  1  0.43420000  0.79220000  0.47890000  1.0 0.1317774318
H  H172  1  0.79220000  0.43420000  0.02110000  1.0 0.1317774318
H  H173  1  0.59960000  0.26280000  0.56410000  1.0 0.0705620944
H  H174  1  0.26280000  0.59960000  0.93590000  1.0 0.0705620944
H  H175  1  0.40040000  0.73720000  0.43590000  1.0 0.0705620944
H  H176  1  0.73720000  0.40040000  0.06410000  1.0 0.0705620944
H  H177  1  0.94230000  0.22230000  0.63400000  1.0 0.1002995909
H  H178  1  0.22230000  0.94230000  0.86600000  1.0 0.1002995909
H  H179  1  0.05770000  0.77770000  0.36600000  1.0 0.1002995909
H  H180  1  0.77770000  0.05770000  0.13400000  1.0 0.1002995909
H  H181  1  0.00110000  0.19990000  0.57920000  1.0 0.1221332873
H  H182  1  0.19990000  0.00110000  0.92080000  1.0 0.1221332873
H  H183  1  0.99890000  0.80010000  0.42080000  1.0 0.1221332873
H  H184  1  0.80010000  0.99890000  0.07920000  1.0 0.1221332873
H  H185  1  0.00690000  0.28790000  0.56020000  1.0 0.090118216
H  H186  1  0.28790000  0.00690000  0.93980000  1.0 0.090118216
H  H187  1  0.99310000  0.71210000  0.43980000  1.0 0.090118216
H  H188  1  0.71210000  0.99310000  0.06020000  1.0 0.1002995909
H  H189  1  0.91850000  0.18130000  0.54300000  1.0 0.0820327212
H  H190  1  0.18130000  0.91850000  0.95700000  1.0 0.0820327212
H  H191  1  0.08150000  0.81870000  0.45700000  1.0 0.0820327212
H  H192  1  0.81870000  0.08150000  0.04300000  1.0 0.0820327212
H  H193  1  0.86190000  0.05230000  0.62590000  1.0 0.0118744115
H  H194  1  0.05230000  0.86190000  0.87410000  1.0 0.0118744115
H  H195  1  0.13810000  0.94770000  0.37410000  1.0 0.0118744115
H  H196  1  0.94770000  0.13810000  0.12590000  1.0 0.0118744115
H  H197  1  0.79170000  0.04370000  0.58480000  1.0 0.0392360134
H  H198  1  0.04370000  0.79170000  0.91520000  1.0 0.0392360134
H  H199  1  0.20830000  0.95630000  0.41520000  1.0 0.0392360134
H  H200  1  0.95630000  0.20830000  0.08480000  1.0 0.0392360134
H  H201  1  0.77700000  0.04620000  0.63350000  1.0 0.0820327212
H  H202  1  0.04620000  0.77700000  0.86650000  1.0 0.0820327212
H  H203  1  0.22300000  0.95380000  0.36650000  1.0 0.0820327212
H  H204  1  0.95380000  0.22300000  0.13350000  1.0 0.0820327212
H  H205  1  0.05630000  0.47850000  0.52180000  1.0 0.0511346036
H  H206  1  0.47850000  0.05630000  0.97820000  1.0 0.0511346036
H  H207  1  0.94370000  0.52150000  0.47820000  1.0 0.0511346036
H  H208  1  0.52150000  0.94370000  0.02180000  1.0 0.0511346036
H  H209  1  0.08260000  0.57960000  0.51730000  1.0 0.090118216
H  H210  1  0.57960000  0.08260000  0.98270000  1.0 0.090118216
H  H211  1  0.91740000  0.42040000  0.48270000  1.0 0.090118216
H  H212  1  0.42040000  0.91740000  0.01730000  1.0 0.090118216
H  H213  1  0.04890000  0.52450000  0.47430000  1.0 0.0594620335
H  H214  1  0.52450000  0.04890000  0.02570000  1.0 0.0594620335
H  H215  1  0.95110000  0.47550000  0.52570000  1.0 0.0594620335
H  H216  1  0.47550000  0.95110000  0.97430000  1.0 0.0594620335
H  H217  1  0.74270000  0.99270000  0.54560000  1.0 0.090118216
H  H218  1  0.99270000  0.74270000  0.95440000  1.0 0.090118216
H  H219  1  0.25730000  0.00730000  0.45440000  1.0 0.090118216
H  H220  1  0.00730000  0.25730000  0.04560000  1.0 0.090118216
H  H221  1  0.66960000  0.88740000  0.57410000  1.0 0.1221332873
H  H222  1  0.88740000  0.66960000  0.92590000  1.0 0.1221332873
H  H223  1  0.33040000  0.11260000  0.42590000  1.0 0.1221332873
H  H224  1  0.11260000  0.33040000  0.07410000  1.0 0.1221332873
H  H225  1  0.88260000  0.04520000  0.59530000  1.0 0.0820327212
H  H226  1  0.04520000  0.88260000  0.90470000  1.0 0.0820327212
H  H227  1  0.11740000  0.95480000  0.40470000  1.0 0.0820327212
H  H228  1  0.95480000  0.11740000  0.09530000  1.0 0.0820327212
H  H229  1  0.82660000  0.93340000  0.59070000  1.0 0.1002995909
H  H230  1  0.93340000  0.82660000  0.90930000  1.0 0.1002995909
H  H231  1  0.17340000  0.06660000  0.40930000  1.0 0.1002995909
H  H232  1  0.06660000  0.17340000  0.09070000  1.0 0.1002995909
H  H233  1  0.83470000  0.92850000  0.66360000  1.0 0.090118216
H  H234  1  0.92850000  0.83470000  0.83640000  1.0 0.090118216
H  H235  1  0.16530000  0.07150000  0.33640000  1.0 0.090118216
H  H236  1  0.07150000  0.16530000  0.16360000  1.0 0.090118216
H  H237  1  0.83220000  0.01120000  0.66110000  1.0 0.0392360134
H  H238  1  0.01120000  0.83220000  0.83890000  1.0 0.0321310734
H  H239  1  0.16780000  0.98880000  0.33890000  1.0 0.0321310734
H  H240  1  0.98880000  0.16780000  0.16110000  1.0 0.0321310734
H  H241  1  0.65580000  0.81080000  0.64090000  1.0 0.1089115651
H  H242  1  0.81080000  0.65580000  0.85910000  1.0 0.1089115651
H  H243  1  0.34420000  0.18920000  0.35910000  1.0 0.1089115651
H  H244  1  0.18920000  0.34420000  0.14090000  1.0 0.1089115651
H  H245  1  0.68090000  0.84950000  0.68840000  1.0 0.1002995909
H  H246  1  0.84950000  0.68090000  0.81160000  1.0 0.1002995909
H  H247  1  0.31910000  0.15050000  0.31160000  1.0 0.1002995909
H  H248  1  0.15050000  0.31910000  0.18840000  1.0 0.1002995909
H  H249  1  0.63310000  0.93470000  0.66120000  1.0 0.1002995909
H  H250  1  0.93470000  0.63310000  0.83880000  1.0 0.1002995909
H  H251  1  0.36690000  0.06530000  0.33880000  1.0 0.1002995909
H  H252  1  0.06530000  0.36690000  0.16120000  1.0 0.1002995909
H  H253  1  0.58650000  0.87610000  0.61740000  1.0 0.1002995909
H  H254  1  0.87610000  0.58650000  0.88260000  1.0 0.1002995909
H  H255  1  0.41350000  0.12390000  0.38260000  1.0 0.1002995909
H  H256  1  0.12390000  0.41350000  0.11740000  1.0 0.1002995909
H  H257  1  0.72000000  0.05260000  0.59880000  1.0 0.0594620335
H  H258  1  0.05260000  0.72000000  0.90120000  1.0 0.0594620335
H  H259  1  0.28000000  0.94740000  0.40120000  1.0 0.0594620335
H  H260  1  0.94740000  0.28000000  0.09880000  1.0 0.0594620335
H  H261  1  0.79440000  0.04800000  0.63130000  1.0 0.0594620335
H  H262  1  0.04800000  0.79440000  0.86870000  1.0 0.0594620335
H  H263  1  0.20560000  0.95200000  0.36870000  1.0 0.0594620335
H  H264  1  0.95200000  0.20560000  0.13130000  1.0 0.0594620335
C  C1  1  0.02805000  0.90075000  0.02123000  1.0 0.0594620335
C  C2  1  0.90075000  0.02805000  0.47877000  1.0 0.0594620335
C  C3  1  0.97195000  0.09925000  0.97877000  1.0 0.0594620335
C  C4  1  0.09925000  0.97195000  0.52123000  1.0 0.0594620335
C  C5  1  0.07130000  0.95250000  0.08973000  1.0 0.0820327212
C  C6  1  0.95250000  0.07130000  0.41027000  1.0 0.0820327212
C  C7  1  0.92870000  0.04750000  0.91027000  1.0 0.0820327212
C  C8  1  0.04750000  0.92870000  0.58973000  1.0 0.0820327212
C  C9  1  0.93916000  0.87384000  0.01970000  1.0 -0.1310080633
C  C10  1  0.87384000  0.93916000  0.48030000  1.0 -0.1418941976
C  C11  1  0.06084000  0.12616000  0.98030000  1.0 -0.1418941976
C  C12  1  0.12616000  0.06084000  0.51970000  1.0 -0.1310080633
C  C13  1  0.98410000  0.92690000  0.09114000  1.0 -0.1418941976
C  C14  1  0.92690000  0.98410000  0.40886000  1.0 -0.1418941976
C  C15  1  0.01590000  0.07310000  0.90886000  1.0 -0.1418941976
C  C16  1  0.07310000  0.01590000  0.59114000  1.0 -0.1418941976
C  C17  1  0.91674000  0.88746000  0.05509000  1.0 0.0594620335
C  C18  1  0.88746000  0.91674000  0.44491000  1.0 0.0594620335
C  C19  1  0.08326000  0.11254000  0.94491000  1.0 0.0511346036
C  C20  1  0.11254000  0.08326000  0.55509000  1.0 0.0511346036
C  C21  1  0.82140000  0.85680000  0.05609000  1.0 0.3695107218
C  C22  1  0.85680000  0.82140000  0.44391000  1.0 0.3695107218
C  C23  1  0.17860000  0.14320000  0.94391000  1.0 0.3695107218
C  C24  1  0.14320000  0.17860000  0.55609000  1.0 0.3695107218
C  C25  1  0.72594000  0.86126000  0.08590000  1.0 0.3311499121
C  C26  1  0.86126000  0.72594000  0.41410000  1.0 0.3311499121
C  C27  1  0.27406000  0.13874000  0.91410000  1.0 0.3311499121
C  C28  1  0.13874000  0.27406000  0.58590000  1.0 0.3311499121
C  C29  1  0.66269000  0.76391000  0.03149000  1.0 0.3695107218
C  C30  1  0.76391000  0.66269000  0.46851000  1.0 0.3695107218
C  C31  1  0.33731000  0.23609000  0.96851000  1.0 0.3695107218
C  C32  1  0.23609000  0.33731000  0.53149000  1.0 0.3695107218
C  C33  1  0.71513000  0.90167000  0.11764000  1.0 0.0321310734
C  C34  1  0.90167000  0.71513000  0.38236000  1.0 0.0321310734
C  C35  1  0.28487000  0.09833000  0.88236000  1.0 0.0321310734
C  C36  1  0.09833000  0.28487000  0.61764000  1.0 0.0321310734
C  C37  1  0.57738000  0.68722000  0.00298000  1.0 0.0594620335
C  C38  1  0.68722000  0.57738000  0.49702000  1.0 0.0594620335
C  C39  1  0.42262000  0.31278000  0.99702000  1.0 0.0511346036
C  C40  1  0.31278000  0.42262000  0.50298000  1.0 0.0594620335
C  C41  1  0.78541000  0.94999000  0.15282000  1.0 -0.1310080633
C  C42  1  0.94999000  0.78541000  0.34718000  1.0 -0.1310080633
C  C43  1  0.21459000  0.05001000  0.84718000  1.0 -0.1310080633
C  C44  1  0.05001000  0.21459000  0.65282000  1.0 -0.1310080633
C  C45  1  0.63518000  0.89222000  0.11302000  1.0 -0.2014469805
C  C46  1  0.89222000  0.63518000  0.38698000  1.0 -0.2014469805
C  C47  1  0.36482000  0.10778000  0.88698000  1.0 -0.2077439962
C  C48  1  0.10778000  0.36482000  0.61302000  1.0 -0.2014469805
C  C49  1  0.58454000  0.64146000  0.97713000  1.0 -0.1310080633
C  C50  1  0.64146000  0.58454000  0.52287000  1.0 -0.1310080633
C  C51  1  0.41546000  0.35854000  0.02287000  1.0 -0.1310080633
C  C52  1  0.35854000  0.41546000  0.47713000  1.0 -0.1310080633
C  C53  1  0.48988000  0.66292000  0.00111000  1.0 -0.1510501677
C  C54  1  0.66292000  0.48988000  0.49889000  1.0 -0.1510501677
C  C55  1  0.51012000  0.33708000  0.99889000  1.0 -0.1510501677
C  C56  1  0.33708000  0.51012000  0.50111000  1.0 -0.1510501677
C  C57  1  0.77323000  0.98737000  0.18177000  1.0 0.0321310734
C  C58  1  0.98737000  0.77323000  0.31823000  1.0 0.0321310734
C  C59  1  0.22677000  0.01263000  0.81823000  1.0 0.0321310734
C  C60  1  0.01263000  0.22677000  0.68177000  1.0 0.0321310734
C  C61  1  0.62922000  0.93258000  0.14304000  1.0 -0.0024909728
C  C62  1  0.93258000  0.62922000  0.35696000  1.0 -0.0024909728
C  C63  1  0.37078000  0.06742000  0.85696000  1.0 -0.0054151279
C  C64  1  0.06742000  0.37078000  0.64304000  1.0 -0.0054151279
C  C65  1  0.50380000  0.57200000  0.95038000  1.0 0.0705620944
C  C66  1  0.57200000  0.50380000  0.54962000  1.0 0.0705620944
C  C67  1  0.49620000  0.42800000  0.04962000  1.0 0.0705620944
C  C68  1  0.42800000  0.49620000  0.45038000  1.0 0.0705620944
C  C69  1  0.41359000  0.59401000  0.97259000  1.0 0.0705620944
C  C70  1  0.59401000  0.41359000  0.52741000  1.0 0.0705620944
C  C71  1  0.58641000  0.40599000  0.02741000  1.0 0.0705620944
C  C72  1  0.40599000  0.58641000  0.47259000  1.0 0.0705620944
C  C73  1  0.25926000  0.55954000  0.83178000  1.0 0.0705620944
C  C74  1  0.55954000  0.25926000  0.66822000  1.0 0.0705620944
C  C75  1  0.74074000  0.44046000  0.16822000  1.0 0.0705620944
C  C76  1  0.44046000  0.74074000  0.33178000  1.0 0.0705620944
C  C77  1  0.42195000  0.64245000  0.84620000  1.0 0.0820327212
C  C78  1  0.64245000  0.42195000  0.65380000  1.0 0.0820327212
C  C79  1  0.57805000  0.35755000  0.15380000  1.0 0.0820327212
C  C80  1  0.35755000  0.57805000  0.34620000  1.0 0.0820327212
C  C81  1  0.27966000  0.62874000  0.79737000  1.0 -0.1711646838
C  C82  1  0.62874000  0.27966000  0.70263000  1.0 -0.1711646838
C  C83  1  0.72034000  0.37126000  0.20263000  1.0 -0.1711646838
C  C84  1  0.37126000  0.72034000  0.29737000  1.0 -0.1711646838
C  C85  1  0.44851000  0.71509000  0.81312000  1.0 -0.1418941976
C  C86  1  0.71509000  0.44851000  0.68688000  1.0 -0.1418941976
C  C87  1  0.55149000  0.28491000  0.18688000  1.0 -0.1418941976
C  C88  1  0.28491000  0.55149000  0.31312000  1.0 -0.1418941976
C  C89  1  0.37577000  0.70823000  0.78806000  1.0 0.0594620335
C  C90  1  0.70823000  0.37577000  0.71194000  1.0 0.0594620335
C  C91  1  0.62423000  0.29177000  0.21194000  1.0 0.0594620335
C  C92  1  0.29177000  0.62423000  0.28806000  1.0 0.0594620335
C  C93  1  0.40326000  0.78514000  0.75228000  1.0 0.3564650478
C  C94  1  0.78514000  0.40326000  0.74772000  1.0 0.3564650478
C  C95  1  0.59674000  0.21486000  0.24772000  1.0 0.3564650478
C  C96  1  0.21486000  0.59674000  0.25228000  1.0 0.3564650478
C  C97  1  0.51992000  0.93108000  0.71680000  1.0 0.3396174671
C  C98  1  0.93108000  0.51992000  0.78320000  1.0 0.3396174671
C  C99  1  0.48008000  0.06892000  0.28320000  1.0 0.3396174671
C  C100  1  0.06892000  0.48008000  0.21680000  1.0 0.3396174671
C  C101  1  0.36089000  0.84591000  0.69526000  1.0 0.3564650478
C  C102  1  0.84591000  0.36089000  0.80474000  1.0 0.3564650478
C  C103  1  0.63911000  0.15409000  0.30474000  1.0 0.3564650478
C  C104  1  0.15409000  0.63911000  0.19526000  1.0 0.3564650478
C  C105  1  0.62511000  0.02229000  0.71584000  1.0 0.0705620944
C  C106  1  0.02229000  0.62511000  0.78416000  1.0 0.0705620944
C  C107  1  0.37489000  0.97771000  0.28416000  1.0 0.0705620944
C  C108  1  0.97771000  0.37489000  0.21584000  1.0 0.0705620944
C  C109  1  0.28309000  0.83291000  0.66514000  1.0 0.0511346036
C  C110  1  0.83291000  0.28309000  0.83486000  1.0 0.0511346036
C  C111  1  0.71691000  0.16709000  0.33486000  1.0 0.0511346036
C  C112  1  0.16709000  0.71691000  0.16514000  1.0 0.0511346036
C  C113  1  0.65695000  0.10625000  0.69011000  1.0 -0.1903620571
C  C114  1  0.10625000  0.65695000  0.80989000  1.0 -0.1903620571
C  C115  1  0.34305000  0.89375000  0.30989000  1.0 -0.1903620571
C  C116  1  0.89375000  0.34305000  0.19011000  1.0 -0.1903620571
C  C117  1  0.69455000  0.02665000  0.74291000  1.0 -0.1418941976
C  C118  1  0.02665000  0.69455000  0.75709000  1.0 -0.1510501677
C  C119  1  0.30545000  0.97335000  0.25709000  1.0 -0.1418941976
C  C120  1  0.97335000  0.30545000  0.24291000  1.0 -0.1418941976
C  C121  1  0.30510000  0.89870000  0.62850000  1.0 -0.1570089979
C  C122  1  0.89870000  0.30510000  0.87150000  1.0 -0.1570089979
C  C123  1  0.69490000  0.10130000  0.37150000  1.0 -0.1570089979
C  C124  1  0.10130000  0.69490000  0.12850000  1.0 -0.1570089979
C  C125  1  0.18538000  0.75382000  0.67291000  1.0 -0.1510501677
C  C126  1  0.75382000  0.18538000  0.82709000  1.0 -0.1510501677
C  C127  1  0.81462000  0.24618000  0.32709000  1.0 -0.1570089979
C  C128  1  0.24618000  0.81462000  0.17291000  1.0 -0.1570089979
C  C129  1  0.75599000  0.19041000  0.69305000  1.0 -0.0024909728
C  C130  1  0.19041000  0.75599000  0.80695000  1.0 -0.0054151279
C  C131  1  0.24401000  0.80959000  0.30695000  1.0 -0.0054151279
C  C132  1  0.80959000  0.24401000  0.19305000  1.0 -0.0024909728
C  C133  1  0.79135000  0.11265000  0.74315000  1.0 0.0321310734
C  C134  1  0.11265000  0.79135000  0.75685000  1.0 0.0321310734
C  C135  1  0.20865000  0.88735000  0.25685000  1.0 0.0321310734
C  C136  1  0.88735000  0.20865000  0.24315000  1.0 0.0321310734
C  C137  1  0.22903000  0.87997000  0.60073000  1.0 0.0705620944
C  C138  1  0.87997000  0.22903000  0.89927000  1.0 0.0705620944
C  C139  1  0.77097000  0.12003000  0.39927000  1.0 0.0705620944
C  C140  1  0.12003000  0.77097000  0.10073000  1.0 0.0705620944
C  C141  1  0.11372000  0.74148000  0.64365000  1.0 0.0820327212
C  C142  1  0.74148000  0.11372000  0.85635000  1.0 0.0820327212
C  C143  1  0.88628000  0.25852000  0.35635000  1.0 0.0820327212
C  C144  1  0.25852000  0.88628000  0.14365000  1.0 0.0820327212
C  C145  1  0.92470000  0.48570000  0.55910000  1.0 -0.1903620571
C  C146  1  0.48570000  0.92470000  0.94090000  1.0 -0.1903620571
C  C147  1  0.07530000  0.51430000  0.44090000  1.0 -0.1903620571
C  C148  1  0.51430000  0.07530000  0.05910000  1.0 -0.1903620571
C  C149  1  0.93800000  0.42000000  0.55820000  1.0 -0.0857067643
C  C150  1  0.42000000  0.93800000  0.94180000  1.0 -0.0857067643
C  C151  1  0.06200000  0.58000000  0.44180000  1.0 -0.0857067643
C  C152  1  0.58000000  0.06200000  0.05820000  1.0 -0.0857067643
C  C153  1  0.86660000  0.32480000  0.58530000  1.0 -0.0595480262
C  C154  1  0.32480000  0.86660000  0.91470000  1.0 -0.0595480262
C  C155  1  0.13340000  0.67520000  0.41470000  1.0 -0.0595480262
C  C156  1  0.67520000  0.13340000  0.08530000  1.0 -0.0595480262
C  C157  1  0.76420000  0.27560000  0.57070000  1.0 -0.0595480262
C  C158  1  0.27560000  0.76420000  0.92930000  1.0 -0.0517895964
C  C159  1  0.23580000  0.72440000  0.42930000  1.0 -0.0517895964
C  C160  1  0.72440000  0.23580000  0.07070000  1.0 -0.0517895964
C  C161  1  0.75010000  0.34230000  0.57400000  1.0 -0.0595480262
C  C162  1  0.34230000  0.75010000  0.92600000  1.0 -0.0595480262
C  C163  1  0.24990000  0.65770000  0.42600000  1.0 -0.0595480262
C  C164  1  0.65770000  0.24990000  0.07400000  1.0 -0.0595480262
C  C165  1  0.81880000  0.43720000  0.54470000  1.0 -0.0404809518
C  C166  1  0.43720000  0.81880000  0.95530000  1.0 -0.0404809518
C  C167  1  0.18120000  0.56280000  0.45530000  1.0 -0.0404809518
C  C168  1  0.56280000  0.18120000  0.04470000  1.0 -0.0404809518
C  C169  1  0.68400000  0.23800000  0.55600000  1.0 0.0392360134
C  C170  1  0.23800000  0.68400000  0.94400000  1.0 0.0392360134
C  C171  1  0.31600000  0.76200000  0.44400000  1.0 0.0392360134
C  C172  1  0.76200000  0.31600000  0.05600000  1.0 0.0321310734
C  C173  1  0.67400000  0.15600000  0.58500000  1.0 -0.0779065391
C  C174  1  0.15600000  0.67400000  0.91500000  1.0 -0.0779065391
C  C175  1  0.32600000  0.84400000  0.41500000  1.0 -0.0779065391
C  C176  1  0.84400000  0.32600000  0.08500000  1.0 -0.0779065391
C  C177  1  0.74700000  0.15500000  0.59700000  1.0 -0.2196890604
C  C178  1  0.15500000  0.74700000  0.90300000  1.0 -0.2196890604
C  C179  1  0.25300000  0.84500000  0.40300000  1.0 -0.2196890604
C  C180  1  0.84500000  0.25300000  0.09700000  1.0 -0.2196890604
C  C181  1  0.84400000  0.22000000  0.58700000  1.0 -0.0517895964
C  C182  1  0.22000000  0.84400000  0.91300000  1.0 -0.0517895964
C  C183  1  0.15600000  0.78000000  0.41300000  1.0 -0.0517895964
C  C184  1  0.78000000  0.15600000  0.08700000  1.0 -0.0517895964
C  C185  1  0.89500000  0.31300000  0.56000000  1.0 -0.1310080633
C  C186  1  0.31300000  0.89500000  0.94000000  1.0 -0.1310080633
C  C187  1  0.10500000  0.68700000  0.44000000  1.0 -0.1310080633
C  C188  1  0.68700000  0.10500000  0.06000000  1.0 -0.1310080633
C  C189  1  0.86300000  0.36100000  0.53700000  1.0 -0.0275940019
C  C190  1  0.36100000  0.86300000  0.96300000  1.0 -0.0275940019
C  C191  1  0.13700000  0.63900000  0.46300000  1.0 -0.0275940019
C  C192  1  0.63900000  0.13700000  0.03700000  1.0 -0.0275940019
C  C193  1  0.76200000  0.32400000  0.53600000  1.0 -0.0275940019
C  C194  1  0.32400000  0.76200000  0.96400000  1.0 -0.0275940019
C  C195  1  0.23800000  0.67600000  0.46400000  1.0 -0.0275940019
C  C196  1  0.67600000  0.23800000  0.03600000  1.0 -0.0275940019
C  C197  1  0.77100000  0.39300000  0.51200000  1.0 -0.1117186783
C  C198  1  0.39300000  0.77100000  0.98800000  1.0 -0.1117186783
C  C199  1  0.22900000  0.60700000  0.48800000  1.0 -0.1117186783
C  C200  1  0.60700000  0.22900000  0.01200000  1.0 -0.1117186783
C  C201  1  0.87100000  0.46900000  0.49800000  1.0 -0.1185152618
C  C202  1  0.46900000  0.87100000  0.00200000  1.0 -0.1185152618
C  C203  1  0.12900000  0.53100000  0.50200000  1.0 -0.1185152618
C  C204  1  0.53100000  0.12900000  0.99800000  1.0 -0.1185152618
C  C205  1  0.92800000  0.45600000  0.51100000  1.0 -0.0275940019
C  C206  1  0.45600000  0.92800000  0.98900000  1.0 -0.0275940019
C  C207  1  0.07200000  0.54400000  0.48900000  1.0 -0.0275940019
C  C208  1  0.54400000  0.07200000  0.01100000  1.0 -0.0275940019
C  C209  1  0.59000000  0.21200000  0.55200000  1.0 -0.3994820205
C  C210  1  0.21200000  0.59000000  0.94800000  1.0 -0.3994820205
C  C211  1  0.41000000  0.78800000  0.44800000  1.0 -0.3994820205
C  C212  1  0.78800000  0.41000000  0.05200000  1.0 -0.3994820205
C  C213  1  0.90000000  0.19000000  0.60600000  1.0 -0.0275940019
C  C214  1  0.19000000  0.90000000  0.89400000  1.0 -0.0404809518
C  C215  1  0.10000000  0.81000000  0.39400000  1.0 -0.0404809518
C  C216  1  0.81000000  0.10000000  0.10600000  1.0 -0.0275940019
C  C217  1  0.96300000  0.21700000  0.56900000  1.0 -0.2196890604
C  C218  1  0.21700000  0.96300000  0.93100000  1.0 -0.2196890604
C  C219  1  0.03700000  0.78300000  0.43100000  1.0 -0.2196890604
C  C220  1  0.78300000  0.03700000  0.06900000  1.0 -0.2196890604
C  C221  1  0.82500000  0.07100000  0.61300000  1.0 -0.1711646838
C  C222  1  0.07100000  0.82500000  0.88700000  1.0 -0.1789351392
C  C223  1  0.17500000  0.92900000  0.38700000  1.0 -0.1711646838
C  C224  1  0.92900000  0.17500000  0.11300000  1.0 -0.1789351392
C  C225  1  0.04000000  0.51600000  0.50600000  1.0 -0.1117186783
C  C226  1  0.51600000  0.04000000  0.99400000  1.0 -0.1117186783
C  C227  1  0.96000000  0.48400000  0.49400000  1.0 -0.1117186783
C  C228  1  0.48400000  0.96000000  0.00600000  1.0 -0.1117186783
C  C229  1  0.73000000  0.95760000  0.57540000  1.0 -0.1903620571
C  C230  1  0.95760000  0.73000000  0.92460000  1.0 -0.1903620571
C  C231  1  0.27000000  0.04240000  0.42460000  1.0 -0.1903620571
C  C232  1  0.04240000  0.27000000  0.07540000  1.0 -0.1903620571
C  C233  1  0.82130000  0.97590000  0.60050000  1.0 -0.1418941976
C  C234  1  0.97590000  0.82130000  0.89950000  1.0 -0.1418941976
C  C235  1  0.17870000  0.02410000  0.39950000  1.0 -0.1418941976
C  C236  1  0.02410000  0.17870000  0.10050000  1.0 -0.1418941976
C  C237  1  0.80220000  0.95120000  0.64810000  1.0 -0.1570089979
C  C238  1  0.95120000  0.80220000  0.85190000  1.0 -0.1570089979
C  C239  1  0.19780000  0.04880000  0.35190000  1.0 -0.1570089979
C  C240  1  0.04880000  0.19780000  0.14810000  1.0 -0.1570089979
C  C241  1  0.68950000  0.86930000  0.65640000  1.0 -0.1789351392
C  C242  1  0.86930000  0.68950000  0.84360000  1.0 -0.1789351392
C  C243  1  0.31050000  0.13070000  0.34360000  1.0 -0.1789351392
C  C244  1  0.13070000  0.31050000  0.15640000  1.0 -0.1789351392
C  C245  1  0.64670000  0.91850000  0.63730000  1.0 -0.1789351392
C  C246  1  0.91850000  0.64670000  0.86270000  1.0 -0.1789351392
C  C247  1  0.35330000  0.08150000  0.36270000  1.0 -0.1789351392
C  C248  1  0.08150000  0.35330000  0.13730000  1.0 -0.1789351392
C  C249  1  0.73210000  0.00990000  0.61230000  1.0 -0.1185152618
C  C250  1  0.00990000  0.73210000  0.88770000  1.0 -0.1185152618
C  C251  1  0.26790000  0.99010000  0.38770000  1.0 -0.1185152618
C  C252  1  0.99010000  0.26790000  0.11230000  1.0 -0.1185152618
I  I1  1  0.23678000  0.93682000  0.98845000  1.0 0.0118744115
I  I2  1  0.93682000  0.23678000  0.51155000  1.0 0.0118744115
I  I3  1  0.76322000  0.06318000  0.01155000  1.0 0.0118744115
I  I4  1  0.06318000  0.76322000  0.48845000  1.0 0.0118744115
I  I5  1  0.34795000  0.13085000  0.09330000  1.0 -0.4193262024
I  I6  1  0.13085000  0.34795000  0.40670000  1.0 -0.4193262024
I  I7  1  0.65205000  0.86915000  0.90670000  1.0 -0.4193262024
I  I8  1  0.86915000  0.65205000  0.59330000  1.0 -0.4193262024
I  I9  1  0.70452000  0.96218000  0.30180000  1.0 0.0004194529
I  I10  1  0.96218000  0.70452000  0.19820000  1.0 0.0004194529
I  I11  1  0.29548000  0.03782000  0.69820000  1.0 0.0004194529
I  I12  1  0.03782000  0.29548000  0.80180000  1.0 0.0004194529
I  I13  1  0.52955000  0.00035000  0.20360000  1.0 -0.0024909728
I  I14  1  0.00035000  0.52955000  0.29640000  1.0 -0.0024909728
I  I15  1  0.47045000  0.99965000  0.79640000  1.0 -0.0024909728
I  I16  1  0.99965000  0.47045000  0.70360000  1.0 -0.0024909728
I  I17  1  0.14923000  0.37837000  0.94190000  1.0 -0.4633777639
I  I18  1  0.37837000  0.14923000  0.55810000  1.0 -0.4633777639
I  I19  1  0.85077000  0.62163000  0.05810000  1.0 -0.4633777639
I  I20  1  0.62163000  0.85077000  0.44190000  1.0 -0.4633777639
I  I21  1  0.32573000  0.36987000  0.86862000  1.0 -0.1789351392
I  I22  1  0.36987000  0.32573000  0.63138000  1.0 -0.1789351392
I  I23  1  0.67427000  0.63013000  0.13138000  1.0 -0.1789351392
I  I24  1  0.63013000  0.67427000  0.36862000  1.0 -0.1789351392
I  I25  1  0.23700000  0.94076000  0.98974000  1.0 0.0118744115
I  I26  1  0.94076000  0.23700000  0.51026000  1.0 0.0118744115
I  I27  1  0.76300000  0.05924000  0.01026000  1.0 0.0118744115
I  I28  1  0.05924000  0.76300000  0.48974000  1.0 0.0118744115
I  I29  1  0.35181000  0.13349000  0.10007000  1.0 -0.4633777639
I  I30  1  0.13349000  0.35181000  0.39993000  1.0 -0.4633777639
I  I31  1  0.64819000  0.86651000  0.89993000  1.0 -0.4633777639
I  I32  1  0.86651000  0.64819000  0.60007000  1.0 -0.4633777639
I  I33  1  0.62129000  0.65791000  0.36598000  1.0 -0.2196890604
I  I34  1  0.65791000  0.62129000  0.13402000  1.0 -0.2196890604
I  I35  1  0.37871000  0.34209000  0.63402000  1.0 -0.2196890604
I  I36  1  0.34209000  0.37871000  0.86598000  1.0 -0.2196890604
I  I37  1  0.62552000  0.85186000  0.43588000  1.0 -0.4103868058
I  I38  1  0.85186000  0.62552000  0.06412000  1.0 -0.4103868058
I  I39  1  0.37448000  0.14814000  0.56412000  1.0 -0.4103868058
I  I40  1  0.14814000  0.37448000  0.93588000  1.0 -0.4103868058
I  I41  1  0.04612000  0.31368000  0.79309000  1.0 -0.0404809518
I  I42  1  0.31368000  0.04612000  0.70691000  1.0 -0.0404809518
I  I43  1  0.95388000  0.68632000  0.20691000  1.0 -0.0404809518
I  I44  1  0.68632000  0.95388000  0.29309000  1.0 -0.0404809518
I  I45  1  0.98393000  0.46967000  0.69160000  1.0 0.0231153859
I  I46  1  0.46967000  0.98393000  0.80840000  1.0 0.0231153859
I  I47  1  0.01607000  0.53033000  0.30840000  1.0 0.0231153859
I  I48  1  0.53033000  0.01607000  0.19160000  1.0 0.0231153859
N  N1  1  0.19725000  0.86535000  0.10779000  1.0 -0.2077439962
N  N2  1  0.86535000  0.19725000  0.39221000  1.0 -0.2077439962
N  N3  1  0.80275000  0.13465000  0.89221000  1.0 -0.2077439962
N  N4  1  0.13465000  0.80275000  0.60779000  1.0 -0.2077439962
N  N5  1  0.09277000  0.93883000  0.05606000  1.0 -0.1903620571
N  N6  1  0.93883000  0.09277000  0.44394000  1.0 -0.1903620571
N  N7  1  0.90723000  0.06117000  0.94394000  1.0 -0.1903620571
N  N8  1  0.06117000  0.90723000  0.55606000  1.0 -0.1903620571
N  N9  1  0.81439000  0.89301000  0.08608000  1.0 -0.4103868058
N  N10  1  0.89301000  0.81439000  0.41392000  1.0 -0.4103868058
N  N11  1  0.18561000  0.10699000  0.91392000  1.0 -0.4103868058
N  N12  1  0.10699000  0.18561000  0.58608000  1.0 -0.4103868058
N  N13  1  0.74899000  0.79361000  0.02713000  1.0 -0.3809867142
N  N14  1  0.79361000  0.74899000  0.47287000  1.0 -0.3809867142
N  N15  1  0.25101000  0.20639000  0.97287000  1.0 -0.3809867142
N  N16  1  0.20639000  0.25101000  0.52713000  1.0 -0.3809867142
N  N17  1  0.64755000  0.79665000  0.05960000  1.0 -0.3994820205
N  N18  1  0.79665000  0.64755000  0.44040000  1.0 -0.3994820205
N  N19  1  0.35245000  0.20335000  0.94040000  1.0 -0.3994820205
N  N20  1  0.20335000  0.35245000  0.55960000  1.0 -0.3994820205
N  N21  1  0.69619000  0.97901000  0.17717000  1.0 -0.2196890604
N  N22  1  0.97901000  0.69619000  0.32283000  1.0 -0.2196890604
N  N23  1  0.30381000  0.02099000  0.82283000  1.0 -0.2196890604
N  N24  1  0.02099000  0.30381000  0.67717000  1.0 -0.2196890604
N  N25  1  0.41961000  0.54939000  0.94755000  1.0 -0.1789351392
N  N26  1  0.54939000  0.41961000  0.55245000  1.0 -0.1789351392
N  N27  1  0.58039000  0.45061000  0.05245000  1.0 -0.1789351392
N  N28  1  0.45061000  0.58039000  0.44755000  1.0 -0.1789351392
N  N29  1  0.80577000  0.17823000  0.21904000  1.0 -0.2014469805
N  N30  1  0.17823000  0.80577000  0.28096000  1.0 -0.2014469805
N  N31  1  0.19423000  0.82177000  0.78096000  1.0 -0.2014469805
N  N32  1  0.82177000  0.19423000  0.71904000  1.0 -0.2014469805
N  N33  1  0.33009000  0.56691000  0.85564000  1.0 -0.1711646838
N  N34  1  0.56691000  0.33009000  0.64436000  1.0 -0.1711646838
N  N35  1  0.66991000  0.43309000  0.14436000  1.0 -0.1711646838
N  N36  1  0.43309000  0.66991000  0.35564000  1.0 -0.1711646838
N  N37  1  0.49871000  0.86063000  0.74781000  1.0 -0.4103868058
N  N38  1  0.86063000  0.49871000  0.75219000  1.0 -0.4103868058
N  N39  1  0.50129000  0.13937000  0.25219000  1.0 -0.4103868058
N  N40  1  0.13937000  0.50129000  0.24781000  1.0 -0.4103868058
N  N41  1  0.33128000  0.77476000  0.72760000  1.0 -0.4103868058
N  N42  1  0.77476000  0.33128000  0.77240000  1.0 -0.4103868058
N  N43  1  0.66872000  0.22524000  0.27240000  1.0 -0.4103868058
N  N44  1  0.22524000  0.66872000  0.22760000  1.0 -0.4103868058
N  N45  1  0.45450000  0.92650000  0.68868000  1.0 -0.4193262024
N  N46  1  0.92650000  0.45450000  0.81132000  1.0 -0.4193262024
N  N47  1  0.54550000  0.07350000  0.31132000  1.0 -0.4193262024
N  N48  1  0.07350000  0.54550000  0.18868000  1.0 -0.4193262024
