# DDEC6 charges by PACMAN v1.1 (https://github.com/mtap-research/PACMAN-charge/)
data_LABNOU_FSR_pacman
_symmetry_space_group_name_H-M   'P 1'
_cell_length_a   18.98660000
_cell_length_b   18.98660000
_cell_length_c   30.34690000
_cell_angle_alpha   80.74760000
_cell_angle_beta   99.25240000
_cell_angle_gamma   133.61400000
_symmetry_Int_Tables_number   1
_chemical_formula_structural   Zn3H78C83I12(N2O3)6
_chemical_formula_sum   'Zn12 H312 C332 I48 N48 O72'
_cell_volume   7798.32716242
_cell_formula_units_Z   4
loop_
 _symmetry_equiv_pos_site_id
 _symmetry_equiv_pos_as_xyz
  1  'x, y, z'
loop_
 _atom_site_type_symbol
 _atom_site_label
 _atom_site_symmetry_multiplicity
 _atom_site_fract_x
 _atom_site_fract_y
 _atom_site_fract_z
 _atom_site_occupancy
 _atom_site_charge
Zn  Zn1  1  0.54617000  0.70507000  0.40318000  1.0 0.3319986814
Zn  Zn2  1  0.29493000  0.45383000  0.90318000  1.0 0.3354211771
Zn  Zn3  1  0.03963000  0.77679000  0.55935000  1.0 0.3188171291
Zn  Zn4  1  0.22321000  0.96037000  0.05935000  1.0 0.3188171291
Zn  Zn5  1  0.97368000  0.31302000  0.72889000  1.0 0.2427533069
Zn  Zn6  1  0.68698000  0.02632000  0.22889000  1.0 0.2427533069
Zn  Zn7  1  0.70507000  0.54617000  0.09682000  1.0 0.3319986814
Zn  Zn8  1  0.45383000  0.29493000  0.59682000  1.0 0.3319986814
Zn  Zn9  1  0.77679000  0.03963000  0.94065000  1.0 0.3188171291
Zn  Zn10  1  0.96037000  0.22321000  0.44065000  1.0 0.3188171291
Zn  Zn11  1  0.31302000  0.97368000  0.77111000  1.0 0.2427533069
Zn  Zn12  1  0.02632000  0.68698000  0.27111000  1.0 0.2427533069
H  H1  1  0.43350000  0.41070000  0.20880000  1.0 0.1192564668
H  H2  1  0.41070000  0.43350000  0.29120000  1.0 0.1192564668
H  H3  1  0.42260000  0.48640000  0.14130000  1.0 0.0522678022
H  H4  1  0.48640000  0.42260000  0.35870000  1.0 0.0522678022
H  H5  1  0.20160000  0.14660000  0.16220000  1.0 0.0892754934
H  H6  1  0.14660000  0.20160000  0.33780000  1.0 0.0892754934
H  H7  1  0.68290000  0.54210000  0.26180000  1.0 0.0892754934
H  H8  1  0.54210000  0.68290000  0.23820000  1.0 0.0892754934
H  H9  1  0.72790000  0.49570000  0.28140000  1.0 0.1510214196
H  H10  1  0.49570000  0.72790000  0.21860000  1.0 0.1510214196
H  H11  1  0.65760000  0.45840000  0.23650000  1.0 0.0805938114
H  H12  1  0.45840000  0.65760000  0.26350000  1.0 0.0805938114
H  H13  1  0.78740000  0.46200000  0.40290000  1.0 0.1192564668
H  H14  1  0.46200000  0.78740000  0.09710000  1.0 0.1192564668
H  H15  1  0.72180000  0.34720000  0.40270000  1.0 0.1096958397
H  H16  1  0.34720000  0.72180000  0.09730000  1.0 0.1096958397
H  H17  1  0.76670000  0.41550000  0.35760000  1.0 0.179002049
H  H18  1  0.41550000  0.76670000  0.14240000  1.0 0.179002049
H  H19  1  0.32310000  0.52110000  0.04740000  1.0 0.0708616666
H  H20  1  0.52110000  0.32310000  0.45260000  1.0 0.0708616666
H  H21  1  0.33550000  0.52290000  0.10070000  1.0 0.0892754934
H  H22  1  0.52290000  0.33550000  0.39930000  1.0 0.0892754934
H  H23  1  0.41060000  0.53460000  0.07490000  1.0 0.0621794539
H  H24  1  0.53460000  0.41060000  0.42510000  1.0 0.0621794539
H  H25  1  0.04020000  0.08080000  0.07180000  1.0 0.1192564668
H  H26  1  0.08080000  0.04020000  0.42820000  1.0 0.1192564668
H  H27  1  0.10370000  0.07710000  0.11200000  1.0 0.1905933493
H  H28  1  0.07710000  0.10370000  0.38800000  1.0 0.1905933493
H  H29  1  0.04630000  0.10690000  0.12070000  1.0 0.1650892669
H  H30  1  0.10690000  0.04630000  0.37930000  1.0 0.1650892669
H  H31  1  0.07560000  0.95620000  0.20130000  1.0 0.1905933493
H  H32  1  0.95620000  0.07560000  0.29870000  1.0 0.1905933493
H  H33  1  0.18650000  0.02150000  0.19080000  1.0 0.0708616666
H  H34  1  0.02150000  0.18650000  0.30920000  1.0 0.0708616666
H  H35  1  0.14890000  0.96050000  0.23800000  1.0 0.1003505133
H  H36  1  0.96050000  0.14890000  0.26200000  1.0 0.1003505133
H  H37  1  0.57080000  0.23300000  0.47560000  1.0 0.1096958397
H  H38  1  0.23300000  0.57080000  0.02440000  1.0 0.1096958397
H  H39  1  0.59980000  0.31760000  0.43830000  1.0 0.0892754934
H  H40  1  0.31760000  0.59980000  0.06170000  1.0 0.0892754934
H  H41  1  0.48820000  0.22900000  0.44920000  1.0 0.0805938114
H  H42  1  0.22900000  0.48820000  0.05080000  1.0 0.0805938114
H  H43  1  0.28090000  0.93630000  0.40760000  1.0 0.0892754934
H  H44  1  0.93630000  0.28090000  0.09240000  1.0 0.0892754934
H  H45  1  0.31220000  0.02480000  0.43120000  1.0 0.0892754934
H  H46  1  0.02480000  0.31220000  0.06880000  1.0 0.0892754934
H  H47  1  0.23430000  0.98130000  0.38890000  1.0 0.1192564668
H  H48  1  0.98130000  0.23430000  0.11110000  1.0 0.1192564668
H  H49  1  0.00470000  0.02630000  0.21010000  1.0 0.0805938114
H  H50  1  0.02630000  0.00470000  0.28990000  1.0 0.0805938114
H  H51  1  0.92120000  0.00440000  0.23410000  1.0 0.0892754934
H  H52  1  0.00440000  0.92120000  0.26590000  1.0 0.0892754934
H  H53  1  0.85010000  0.90230000  0.17220000  1.0 0.0708616666
H  H54  1  0.90230000  0.85010000  0.32780000  1.0 0.0708616666
H  H55  1  0.89310000  0.85550000  0.19590000  1.0 0.0621794539
H  H56  1  0.85550000  0.89310000  0.30410000  1.0 0.0621794539
H  H57  1  0.72270000  0.75550000  0.21220000  1.0 0.0892754934
H  H58  1  0.75550000  0.72270000  0.28780000  1.0 0.0892754934
H  H59  1  0.75900000  0.84340000  0.23900000  1.0 0.0892754934
H  H60  1  0.84340000  0.75900000  0.26100000  1.0 0.0892754934
H  H61  1  0.43310000  0.13770000  0.36670000  1.0 0.1388978051
H  H62  1  0.13770000  0.43310000  0.13330000  1.0 0.1388978051
H  H63  1  0.59950000  0.21690000  0.39490000  1.0 0.2183757336
H  H64  1  0.21690000  0.59950000  0.10510000  1.0 0.2183757336
H  H65  1  0.53690000  0.37790000  0.28530000  1.0 0.1388978051
H  H66  1  0.37790000  0.53690000  0.21470000  1.0 0.1388978051
H  H67  1  0.53270000  0.49730000  0.19760000  1.0 0.0805938114
H  H68  1  0.49730000  0.53270000  0.30240000  1.0 0.0805938114
H  H69  1  0.42750000  0.46190000  0.19520000  1.0 0.0621794539
H  H70  1  0.46190000  0.42750000  0.30480000  1.0 0.0621794539
H  H71  1  0.46150000  0.42550000  0.23690000  1.0 0.0621794539
H  H72  1  0.42550000  0.46150000  0.26310000  1.0 0.0621794539
H  H73  1  0.34960000  0.44560000  0.08470000  1.0 0.1192564668
H  H74  1  0.44560000  0.34960000  0.41530000  1.0 0.1192564668
H  H75  1  0.33180000  0.43200000  0.13640000  1.0 0.0805938114
H  H76  1  0.43200000  0.33180000  0.36360000  1.0 0.0805938114
H  H77  1  0.41070000  0.43370000  0.12240000  1.0 0.0892754934
H  H78  1  0.43370000  0.41070000  0.37760000  1.0 0.0892754934
H  H79  1  0.83840000  0.38700000  0.41400000  1.0 0.1003505133
H  H80  1  0.38700000  0.83840000  0.08600000  1.0 0.1003505133
H  H81  1  0.75740000  0.37120000  0.43660000  1.0 0.0805938114
H  H82  1  0.37120000  0.75740000  0.06340000  1.0 0.0805938114
H  H83  1  0.72870000  0.28310000  0.41390000  1.0 0.0805938114
H  H84  1  0.28310000  0.72870000  0.08610000  1.0 0.0805938114
H  H85  1  0.73370000  0.58610000  0.26750000  1.0 0.0708616666
H  H86  1  0.58610000  0.73370000  0.23250000  1.0 0.0708616666
H  H87  1  0.62630000  0.48210000  0.25910000  1.0 0.1192564668
H  H88  1  0.48210000  0.62630000  0.24090000  1.0 0.1192564668
H  H89  1  0.65800000  0.53000000  0.30560000  1.0 0.1003505133
H  H90  1  0.53000000  0.65800000  0.19440000  1.0 0.1003505133
H  H91  1  0.25570000  0.98830000  0.39290000  1.0 0.1192564668
H  H92  1  0.98830000  0.25570000  0.10710000  1.0 0.1192564668
H  H93  1  0.33720000  0.10480000  0.38610000  1.0 0.1192564668
H  H94  1  0.10480000  0.33720000  0.11390000  1.0 0.1192564668
H  H95  1  0.22410000  0.04850000  0.37840000  1.0 0.0291823731
H  H96  1  0.04850000  0.22410000  0.12160000  1.0 0.0291823731
H  H97  1  0.02160000  0.17060000  0.10260000  1.0 0.0621794539
H  H98  1  0.17060000  0.02160000  0.39740000  1.0 0.0621794539
H  H99  1  0.07130000  0.19530000  0.15240000  1.0 0.0708616666
H  H100  1  0.19530000  0.07130000  0.34760000  1.0 0.0708616666
H  H101  1  0.13740000  0.25620000  0.11060000  1.0 0.1003505133
H  H102  1  0.25620000  0.13740000  0.38940000  1.0 0.1003505133
H  H103  1  0.93970000  0.88650000  0.19750000  1.0 0.0621794539
H  H104  1  0.88650000  0.93970000  0.30250000  1.0 0.0621794539
H  H105  1  0.98840000  0.94300000  0.24240000  1.0 0.0621794539
H  H106  1  0.94300000  0.98840000  0.25760000  1.0 0.0621794539
H  H107  1  0.94740000  0.97460000  0.20210000  1.0 0.0708616666
H  H108  1  0.97460000  0.94740000  0.29790000  1.0 0.0708616666
H  H109  1  0.56650000  0.58930000  0.79120000  1.0 0.1192564668
H  H110  1  0.58930000  0.56650000  0.70880000  1.0 0.1192564668
H  H111  1  0.57740000  0.51360000  0.85870000  1.0 0.0522678022
H  H112  1  0.51360000  0.57740000  0.64130000  1.0 0.0522678022
H  H113  1  0.79840000  0.85340000  0.83780000  1.0 0.0892754934
H  H114  1  0.85340000  0.79840000  0.66220000  1.0 0.0892754934
H  H115  1  0.31710000  0.45790000  0.73820000  1.0 0.0892754934
H  H116  1  0.45790000  0.31710000  0.76180000  1.0 0.0892754934
H  H117  1  0.27210000  0.50430000  0.71860000  1.0 0.1510214196
H  H118  1  0.50430000  0.27210000  0.78140000  1.0 0.1510214196
H  H119  1  0.34240000  0.54160000  0.76350000  1.0 0.0805938114
H  H120  1  0.54160000  0.34240000  0.73650000  1.0 0.0805938114
H  H121  1  0.21260000  0.53800000  0.59710000  1.0 0.1192564668
H  H122  1  0.53800000  0.21260000  0.90290000  1.0 0.1192564668
H  H123  1  0.27820000  0.65280000  0.59730000  1.0 0.1096958397
H  H124  1  0.65280000  0.27820000  0.90270000  1.0 0.1096958397
H  H125  1  0.23330000  0.58450000  0.64240000  1.0 0.179002049
H  H126  1  0.58450000  0.23330000  0.85760000  1.0 0.179002049
H  H127  1  0.67690000  0.47890000  0.95260000  1.0 0.0708616666
H  H128  1  0.47890000  0.67690000  0.54740000  1.0 0.0708616666
H  H129  1  0.66450000  0.47710000  0.89930000  1.0 0.0892754934
H  H130  1  0.47710000  0.66450000  0.60070000  1.0 0.0892754934
H  H131  1  0.58940000  0.46540000  0.92510000  1.0 0.0621794539
H  H132  1  0.46540000  0.58940000  0.57490000  1.0 0.0621794539
H  H133  1  0.95980000  0.91920000  0.92820000  1.0 0.1192564668
H  H134  1  0.91920000  0.95980000  0.57180000  1.0 0.1192564668
H  H135  1  0.89630000  0.92290000  0.88800000  1.0 0.1905933493
H  H136  1  0.92290000  0.89630000  0.61200000  1.0 0.1905933493
H  H137  1  0.95370000  0.89310000  0.87930000  1.0 0.1650892669
H  H138  1  0.89310000  0.95370000  0.62070000  1.0 0.1650892669
H  H139  1  0.92440000  0.04380000  0.79870000  1.0 0.1905933493
H  H140  1  0.04380000  0.92440000  0.70130000  1.0 0.1905933493
H  H141  1  0.81350000  0.97850000  0.80920000  1.0 0.0708616666
H  H142  1  0.97850000  0.81350000  0.69080000  1.0 0.0708616666
H  H143  1  0.85110000  0.03950000  0.76200000  1.0 0.1003505133
H  H144  1  0.03950000  0.85110000  0.73800000  1.0 0.1003505133
H  H145  1  0.42920000  0.76700000  0.52440000  1.0 0.1096958397
H  H146  1  0.76700000  0.42920000  0.97560000  1.0 0.1096958397
H  H147  1  0.40020000  0.68240000  0.56170000  1.0 0.0892754934
H  H148  1  0.68240000  0.40020000  0.93830000  1.0 0.0892754934
H  H149  1  0.51180000  0.77100000  0.55080000  1.0 0.0805938114
H  H150  1  0.77100000  0.51180000  0.94920000  1.0 0.0805938114
H  H151  1  0.71910000  0.06370000  0.59240000  1.0 0.0892754934
H  H152  1  0.06370000  0.71910000  0.90760000  1.0 0.0892754934
H  H153  1  0.68780000  0.97520000  0.56880000  1.0 0.0892754934
H  H154  1  0.97520000  0.68780000  0.93120000  1.0 0.0892754934
H  H155  1  0.76570000  0.01870000  0.61110000  1.0 0.1192564668
H  H156  1  0.01870000  0.76570000  0.88890000  1.0 0.1192564668
H  H157  1  0.99530000  0.97370000  0.78990000  1.0 0.0805938114
H  H158  1  0.97370000  0.99530000  0.71010000  1.0 0.0805938114
H  H159  1  0.07880000  0.99560000  0.76590000  1.0 0.0892754934
H  H160  1  0.99560000  0.07880000  0.73410000  1.0 0.0892754934
H  H161  1  0.14990000  0.09770000  0.82780000  1.0 0.0708616666
H  H162  1  0.09770000  0.14990000  0.67220000  1.0 0.0708616666
H  H163  1  0.10690000  0.14450000  0.80410000  1.0 0.0621794539
H  H164  1  0.14450000  0.10690000  0.69590000  1.0 0.0621794539
H  H165  1  0.27730000  0.24450000  0.78780000  1.0 0.0892754934
H  H166  1  0.24450000  0.27730000  0.71220000  1.0 0.0892754934
H  H167  1  0.24100000  0.15660000  0.76100000  1.0 0.0892754934
H  H168  1  0.15660000  0.24100000  0.73900000  1.0 0.0892754934
H  H169  1  0.56690000  0.86230000  0.63330000  1.0 0.1388978051
H  H170  1  0.86230000  0.56690000  0.86670000  1.0 0.1388978051
H  H171  1  0.40050000  0.78310000  0.60510000  1.0 0.2183757336
H  H172  1  0.78310000  0.40050000  0.89490000  1.0 0.2183757336
H  H173  1  0.46310000  0.62210000  0.71470000  1.0 0.1388978051
H  H174  1  0.62210000  0.46310000  0.78530000  1.0 0.1388978051
H  H175  1  0.46730000  0.50270000  0.80240000  1.0 0.0805938114
H  H176  1  0.50270000  0.46730000  0.69760000  1.0 0.0805938114
H  H177  1  0.57250000  0.53810000  0.80480000  1.0 0.0621794539
H  H178  1  0.53810000  0.57250000  0.69520000  1.0 0.0621794539
H  H179  1  0.53850000  0.57450000  0.76310000  1.0 0.0621794539
H  H180  1  0.57450000  0.53850000  0.73690000  1.0 0.0621794539
H  H181  1  0.65040000  0.55440000  0.91530000  1.0 0.1192564668
H  H182  1  0.55440000  0.65040000  0.58470000  1.0 0.1192564668
H  H183  1  0.66820000  0.56800000  0.86360000  1.0 0.0805938114
H  H184  1  0.56800000  0.66820000  0.63640000  1.0 0.0805938114
H  H185  1  0.58930000  0.56630000  0.87760000  1.0 0.0892754934
H  H186  1  0.56630000  0.58930000  0.62240000  1.0 0.0892754934
H  H187  1  0.16160000  0.61300000  0.58600000  1.0 0.1003505133
H  H188  1  0.61300000  0.16160000  0.91400000  1.0 0.1003505133
H  H189  1  0.24260000  0.62880000  0.56340000  1.0 0.0805938114
H  H190  1  0.62880000  0.24260000  0.93660000  1.0 0.0805938114
H  H191  1  0.27130000  0.71690000  0.58610000  1.0 0.0805938114
H  H192  1  0.71690000  0.27130000  0.91390000  1.0 0.0805938114
H  H193  1  0.26630000  0.41390000  0.73250000  1.0 0.0708616666
H  H194  1  0.41390000  0.26630000  0.76750000  1.0 0.0708616666
H  H195  1  0.37370000  0.51790000  0.74090000  1.0 0.1192564668
H  H196  1  0.51790000  0.37370000  0.75910000  1.0 0.1192564668
H  H197  1  0.34200000  0.47000000  0.69440000  1.0 0.1003505133
H  H198  1  0.47000000  0.34200000  0.80560000  1.0 0.1003505133
H  H199  1  0.74430000  0.01170000  0.60710000  1.0 0.1192564668
H  H200  1  0.01170000  0.74430000  0.89290000  1.0 0.1192564668
H  H201  1  0.66280000  0.89520000  0.61390000  1.0 0.1192564668
H  H202  1  0.89520000  0.66280000  0.88610000  1.0 0.1192564668
H  H203  1  0.77590000  0.95150000  0.62160000  1.0 0.0291823731
H  H204  1  0.95150000  0.77590000  0.87840000  1.0 0.0291823731
H  H205  1  0.97840000  0.82940000  0.89740000  1.0 0.0621794539
H  H206  1  0.82940000  0.97840000  0.60260000  1.0 0.0621794539
H  H207  1  0.92870000  0.80470000  0.84760000  1.0 0.0708616666
H  H208  1  0.80470000  0.92870000  0.65240000  1.0 0.0708616666
H  H209  1  0.86260000  0.74380000  0.88940000  1.0 0.1003505133
H  H210  1  0.74380000  0.86260000  0.61060000  1.0 0.1003505133
H  H211  1  0.06030000  0.11350000  0.80250000  1.0 0.0621794539
H  H212  1  0.11350000  0.06030000  0.69750000  1.0 0.0621794539
H  H213  1  0.01160000  0.05700000  0.75760000  1.0 0.0621794539
H  H214  1  0.05700000  0.01160000  0.74240000  1.0 0.0621794539
H  H215  1  0.05260000  0.02540000  0.79790000  1.0 0.0708616666
H  H216  1  0.02540000  0.05260000  0.70210000  1.0 0.0708616666
H  H217  1  0.41910000  0.64250000  0.47260000  1.0 0.0805938114
H  H218  1  0.35750000  0.58090000  0.97260000  1.0 0.0805938114
H  H219  1  0.46980000  0.49960000  0.42870000  1.0 0.0892754934
H  H220  1  0.50040000  0.53020000  0.92870000  1.0 0.0892754934
H  H221  1  0.30000000  0.50740000  0.51690000  1.0 0.129026881
H  H222  1  0.49260000  0.70000000  0.01690000  1.0 0.129026881
H  H223  1  0.35050000  0.35950000  0.47120000  1.0 0.129026881
H  H224  1  0.64050000  0.64950000  0.97120000  1.0 0.129026881
H  H225  1  0.15880000  0.09920000  0.48970000  1.0 0.1096958397
H  H226  1  0.90080000  0.84120000  0.98970000  1.0 0.1096958397
H  H227  1  0.08270000  0.03730000  0.61390000  1.0 0.1192564668
H  H228  1  0.96270000  0.91730000  0.11390000  1.0 0.1192564668
H  H229  1  0.00170000  0.13650000  0.63940000  1.0 0.129026881
H  H230  1  0.86350000  0.99830000  0.13940000  1.0 0.129026881
H  H231  1  0.16380000  0.41680000  0.59800000  1.0 0.1096958397
H  H232  1  0.58320000  0.83620000  0.09800000  1.0 0.1096958397
H  H233  1  0.12200000  0.95480000  0.49340000  1.0 0.0805938114
H  H234  1  0.04520000  0.87800000  0.99340000  1.0 0.0805938114
H  H235  1  0.05970000  0.90050000  0.61690000  1.0 0.0805938114
H  H236  1  0.09950000  0.94030000  0.11690000  1.0 0.0805938114
H  H237  1  0.93870000  0.15590000  0.68950000  1.0 0.1096958397
H  H238  1  0.84410000  0.06130000  0.18950000  1.0 0.1096958397
H  H239  1  0.09830000  0.42970000  0.64960000  1.0 0.0621794539
H  H240  1  0.57030000  0.90170000  0.14960000  1.0 0.0621794539
H  H241  1  0.25300000  0.93260000  0.58110000  1.0 0.0621794539
H  H242  1  0.06740000  0.74700000  0.08110000  1.0 0.0621794539
H  H243  1  0.05920000  0.67100000  0.63770000  1.0 0.0708616666
H  H244  1  0.32900000  0.94080000  0.13770000  1.0 0.0708616666
H  H245  1  0.37870000  0.96130000  0.62820000  1.0 0.1192564668
H  H246  1  0.03870000  0.62130000  0.12820000  1.0 0.1192564668
H  H247  1  0.17710000  0.69130000  0.68670000  1.0 0.1096958397
H  H248  1  0.30870000  0.82290000  0.18670000  1.0 0.1096958397
H  H249  1  0.67010000  0.97770000  0.77530000  1.0 0.1192564668
H  H250  1  0.02230000  0.32990000  0.27530000  1.0 0.1192564668
H  H251  1  0.62260000  0.09900000  0.66880000  1.0 0.129026881
H  H252  1  0.90100000  0.37740000  0.16880000  1.0 0.129026881
H  H253  1  0.23010000  0.61790000  0.77900000  1.0 0.1192564668
H  H254  1  0.38210000  0.76990000  0.27900000  1.0 0.1192564668
H  H255  1  0.51530000  0.76630000  0.80960000  1.0 0.1192564668
H  H256  1  0.23370000  0.48470000  0.30960000  1.0 0.1192564668
H  H257  1  0.83360000  0.12060000  0.77730000  1.0 0.0621794539
H  H258  1  0.87940000  0.16640000  0.27730000  1.0 0.0621794539
H  H259  1  0.78670000  0.23730000  0.67380000  1.0 0.0892754934
H  H260  1  0.76270000  0.21330000  0.17380000  1.0 0.0892754934
H  H261  1  0.19210000  0.50310000  0.83680000  1.0 0.0621794539
H  H262  1  0.49690000  0.80790000  0.33680000  1.0 0.0621794539
H  H263  1  0.46920000  0.64100000  0.86190000  1.0 0.1003505133
H  H264  1  0.35900000  0.53080000  0.36190000  1.0 0.1003505133
H  H265  1  0.64250000  0.41910000  0.02740000  1.0 0.0805938114
H  H266  1  0.58090000  0.35750000  0.52740000  1.0 0.0805938114
H  H267  1  0.49960000  0.46980000  0.07130000  1.0 0.0892754934
H  H268  1  0.53020000  0.50040000  0.57130000  1.0 0.0892754934
H  H269  1  0.50740000  0.30000000  0.98310000  1.0 0.129026881
H  H270  1  0.70000000  0.49260000  0.48310000  1.0 0.129026881
H  H271  1  0.35950000  0.35050000  0.02880000  1.0 0.129026881
H  H272  1  0.64950000  0.64050000  0.52880000  1.0 0.129026881
H  H273  1  0.09920000  0.15880000  0.01030000  1.0 0.1096958397
H  H274  1  0.84120000  0.90080000  0.51030000  1.0 0.1096958397
H  H275  1  0.03730000  0.08270000  0.88610000  1.0 0.1192564668
H  H276  1  0.91730000  0.96270000  0.38610000  1.0 0.1192564668
H  H277  1  0.13650000  0.00170000  0.86060000  1.0 0.129026881
H  H278  1  0.99830000  0.86350000  0.36060000  1.0 0.129026881
H  H279  1  0.41680000  0.16380000  0.90200000  1.0 0.1096958397
H  H280  1  0.83620000  0.58320000  0.40200000  1.0 0.1096958397
H  H281  1  0.95480000  0.12200000  0.00660000  1.0 0.0805938114
H  H282  1  0.87800000  0.04520000  0.50660000  1.0 0.0805938114
H  H283  1  0.90050000  0.05970000  0.88310000  1.0 0.0805938114
H  H284  1  0.94030000  0.09950000  0.38310000  1.0 0.0805938114
H  H285  1  0.15590000  0.93870000  0.81050000  1.0 0.1096958397
H  H286  1  0.06130000  0.84410000  0.31050000  1.0 0.1096958397
H  H287  1  0.42970000  0.09830000  0.85040000  1.0 0.0621794539
H  H288  1  0.90170000  0.57030000  0.35040000  1.0 0.0621794539
H  H289  1  0.93260000  0.25300000  0.91890000  1.0 0.0621794539
H  H290  1  0.74700000  0.06740000  0.41890000  1.0 0.0621794539
H  H291  1  0.67100000  0.05920000  0.86230000  1.0 0.0708616666
H  H292  1  0.94080000  0.32900000  0.36230000  1.0 0.0708616666
H  H293  1  0.96130000  0.37870000  0.87180000  1.0 0.1192564668
H  H294  1  0.62130000  0.03870000  0.37180000  1.0 0.1192564668
H  H295  1  0.69130000  0.17710000  0.81330000  1.0 0.1096958397
H  H296  1  0.82290000  0.30870000  0.31330000  1.0 0.1096958397
H  H297  1  0.97770000  0.67010000  0.72470000  1.0 0.1192564668
H  H298  1  0.32990000  0.02230000  0.22470000  1.0 0.1192564668
H  H299  1  0.09900000  0.62260000  0.83120000  1.0 0.129026881
H  H300  1  0.37740000  0.90100000  0.33120000  1.0 0.129026881
H  H301  1  0.61790000  0.23010000  0.72100000  1.0 0.1192564668
H  H302  1  0.76990000  0.38210000  0.22100000  1.0 0.1192564668
H  H303  1  0.76630000  0.51530000  0.69040000  1.0 0.1192564668
H  H304  1  0.48470000  0.23370000  0.19040000  1.0 0.1192564668
H  H305  1  0.12060000  0.83360000  0.72270000  1.0 0.0621794539
H  H306  1  0.16640000  0.87940000  0.22270000  1.0 0.0621794539
H  H307  1  0.23730000  0.78670000  0.82620000  1.0 0.0892754934
H  H308  1  0.21330000  0.76270000  0.32620000  1.0 0.0892754934
H  H309  1  0.50310000  0.19210000  0.66320000  1.0 0.0621794539
H  H310  1  0.80790000  0.49690000  0.16320000  1.0 0.0621794539
H  H311  1  0.64100000  0.46920000  0.63810000  1.0 0.1003505133
H  H312  1  0.53080000  0.35900000  0.13810000  1.0 0.1003505133
C  C1  1  0.32810000  0.22390000  0.23200000  1.0 0.1096958397
C  C2  1  0.22390000  0.32810000  0.26800000  1.0 0.1096958397
C  C3  1  0.26070000  0.13730000  0.24980000  1.0 0.0291823731
C  C4  1  0.13730000  0.26070000  0.25020000  1.0 0.0291823731
C  C5  1  0.28590000  0.09770000  0.29220000  1.0 0.1096958397
C  C6  1  0.09770000  0.28590000  0.20780000  1.0 0.1096958397
C  C7  1  0.38510000  0.16890000  0.31720000  1.0 -0.0588682196
C  C8  1  0.16890000  0.38510000  0.18280000  1.0 -0.0588682196
C  C9  1  0.45290000  0.26030000  0.29470000  1.0 0.0522678022
C  C10  1  0.26030000  0.45290000  0.20530000  1.0 0.0522678022
C  C11  1  0.54770000  0.32830000  0.30500000  1.0 -0.1411017827
C  C12  1  0.32830000  0.54770000  0.19500000  1.0 -0.1411017827
C  C13  1  0.58030000  0.31490000  0.35040000  1.0 0.0522678022
C  C14  1  0.31490000  0.58030000  0.14960000  1.0 0.0522678022
C  C15  1  0.50790000  0.22270000  0.37400000  1.0 0.0291823731
C  C16  1  0.22270000  0.50790000  0.12600000  1.0 0.0291823731
C  C17  1  0.41160000  0.14120000  0.35760000  1.0 0.0291823731
C  C18  1  0.14120000  0.41160000  0.14240000  1.0 0.0291823731
C  C19  1  0.32140000  0.27260000  0.19050000  1.0 -0.0214728488
C  C20  1  0.27260000  0.32140000  0.30950000  1.0 -0.0214728488
C  C21  1  0.38430000  0.37230000  0.18590000  1.0 0.0039113184
C  C22  1  0.37230000  0.38430000  0.31410000  1.0 0.0039113184
C  C23  1  0.37480000  0.41740000  0.14610000  1.0 -0.1992667018
C  C24  1  0.41740000  0.37480000  0.35390000  1.0 -0.1992667018
C  C25  1  0.29670000  0.36250000  0.11390000  1.0 0.1510214196
C  C26  1  0.36250000  0.29670000  0.38610000  1.0 0.1510214196
C  C27  1  0.22670000  0.25790000  0.12250000  1.0 0.0805938114
C  C28  1  0.25790000  0.22670000  0.37750000  1.0 0.0805938114
C  C29  1  0.24350000  0.21550000  0.15890000  1.0 -0.0509218575
C  C30  1  0.21550000  0.24350000  0.34110000  1.0 -0.0509218575
C  C31  1  0.67020000  0.48180000  0.26580000  1.0 -0.011685323
C  C32  1  0.48180000  0.67020000  0.23420000  1.0 -0.011685323
C  C33  1  0.73910000  0.40490000  0.38530000  1.0 0.0201580483
C  C34  1  0.40490000  0.73910000  0.11470000  1.0 0.0201580483
C  C35  1  0.34290000  0.50310000  0.07530000  1.0 -0.3789689294
C  C36  1  0.50310000  0.34290000  0.42470000  1.0 -0.3789689294
C  C37  1  0.08280000  0.11080000  0.09900000  1.0 -0.0214728488
C  C38  1  0.11080000  0.08280000  0.40100000  1.0 -0.0214728488
C  C39  1  0.14360000  0.99840000  0.21410000  1.0 -0.2309751569
C  C40  1  0.99840000  0.14360000  0.28590000  1.0 -0.2309751569
C  C41  1  0.55020000  0.24780000  0.44670000  1.0 -0.4511399581
C  C42  1  0.24780000  0.55020000  0.05330000  1.0 -0.4511399581
C  C43  1  0.29400000  0.99600000  0.40250000  1.0 -0.2109330087
C  C44  1  0.99600000  0.29400000  0.09750000  1.0 -0.2109330087
C  C45  1  0.94730000  0.97670000  0.22790000  1.0 -0.1596883661
C  C46  1  0.97670000  0.94730000  0.27210000  1.0 -0.1596883661
C  C47  1  0.86800000  0.88400000  0.20140000  1.0 -0.0976668364
C  C48  1  0.88400000  0.86800000  0.29860000  1.0 -0.0976668364
C  C49  1  0.77840000  0.81160000  0.22950000  1.0 -0.261007545
C  C50  1  0.81160000  0.77840000  0.27050000  1.0 -0.261007545
C  C51  1  0.38330000  0.19670000  0.28970000  1.0 0.0291823731
C  C52  1  0.19670000  0.38330000  0.21030000  1.0 0.0291823731
C  C53  1  0.29820000  0.11900000  0.30150000  1.0 0.0201580483
C  C54  1  0.11900000  0.29820000  0.19850000  1.0 0.0201580483
C  C55  1  0.20720000  0.07480000  0.26790000  1.0 0.2131322124
C  C56  1  0.07480000  0.20720000  0.23210000  1.0 0.2131322124
C  C57  1  0.22720000  0.12480000  0.22060000  1.0 0.0291823731
C  C58  1  0.12480000  0.22720000  0.27940000  1.0 0.0291823731
C  C59  1  0.31470000  0.21930000  0.21690000  1.0 0.0039113184
C  C60  1  0.21930000  0.31470000  0.28310000  1.0 0.0039113184
C  C61  1  0.34170000  0.28230000  0.18250000  1.0 0.0201580483
C  C62  1  0.28230000  0.34170000  0.31750000  1.0 0.0201580483
C  C63  1  0.26310000  0.25690000  0.14920000  1.0 0.0375225953
C  C64  1  0.25690000  0.26310000  0.35080000  1.0 0.0375225953
C  C65  1  0.17360000  0.15440000  0.15100000  1.0 -0.0588682196
C  C66  1  0.15440000  0.17360000  0.34900000  1.0 -0.0588682196
C  C67  1  0.14490000  0.09310000  0.19110000  1.0 -0.011685323
C  C68  1  0.09310000  0.14490000  0.30890000  1.0 -0.011685323
C  C69  1  0.47600000  0.24420000  0.31790000  1.0 -0.0023850812
C  C70  1  0.24420000  0.47600000  0.18210000  1.0 -0.0023850812
C  C71  1  0.48800000  0.20000000  0.35430000  1.0 0.0039113184
C  C72  1  0.20000000  0.48800000  0.14570000  1.0 0.0039113184
C  C73  1  0.58630000  0.24990000  0.37380000  1.0 -0.0509218575
C  C74  1  0.24990000  0.58630000  0.12620000  1.0 -0.0509218575
C  C75  1  0.66170000  0.34970000  0.36010000  1.0 0.1003505133
C  C76  1  0.34970000  0.66170000  0.13990000  1.0 0.1003505133
C  C77  1  0.64600000  0.38820000  0.31930000  1.0 0.0892754934
C  C78  1  0.38820000  0.64600000  0.18070000  1.0 0.0892754934
C  C79  1  0.55080000  0.34320000  0.30420000  1.0 -0.1265626126
C  C80  1  0.34320000  0.55080000  0.19580000  1.0 -0.1265626126
C  C81  1  0.46490000  0.44310000  0.20500000  1.0 -0.2309751569
C  C82  1  0.44310000  0.46490000  0.29500000  1.0 -0.2309751569
C  C83  1  0.34700000  0.41300000  0.11400000  1.0 0.0201580483
C  C84  1  0.41300000  0.34700000  0.38600000  1.0 0.0201580483
C  C85  1  0.76990000  0.35410000  0.41200000  1.0 -0.2309751569
C  C86  1  0.35410000  0.76990000  0.08800000  1.0 -0.2309751569
C  C87  1  0.68020000  0.52180000  0.28160000  1.0 -0.1190378692
C  C88  1  0.52180000  0.68020000  0.21840000  1.0 -0.1190378692
C  C89  1  0.27250000  0.04550000  0.37530000  1.0 -0.1875163456
C  C90  1  0.04550000  0.27250000  0.12470000  1.0 -0.1875163456
C  C91  1  0.07860000  0.19140000  0.12200000  1.0 -0.3317676834
C  C92  1  0.19140000  0.07860000  0.37800000  1.0 -0.3317676834
C  C93  1  0.98000000  0.95000000  0.20980000  1.0 -0.0976668364
C  C94  1  0.95000000  0.98000000  0.29020000  1.0 -0.0976668364
C  C95  1  0.67190000  0.77610000  0.76800000  1.0 0.1096958397
C  C96  1  0.77610000  0.67190000  0.73200000  1.0 0.1096958397
C  C97  1  0.73930000  0.86270000  0.75020000  1.0 0.0291823731
C  C98  1  0.86270000  0.73930000  0.74980000  1.0 0.0291823731
C  C99  1  0.71410000  0.90230000  0.70780000  1.0 0.1096958397
C  C100  1  0.90230000  0.71410000  0.79220000  1.0 0.1096958397
C  C101  1  0.61490000  0.83110000  0.68280000  1.0 -0.0588682196
C  C102  1  0.83110000  0.61490000  0.81720000  1.0 -0.0588682196
C  C103  1  0.54710000  0.73970000  0.70530000  1.0 0.0522678022
C  C104  1  0.73970000  0.54710000  0.79470000  1.0 0.0522678022
C  C105  1  0.45230000  0.67170000  0.69500000  1.0 -0.1411017827
C  C106  1  0.67170000  0.45230000  0.80500000  1.0 -0.1411017827
C  C107  1  0.41970000  0.68510000  0.64960000  1.0 0.0522678022
C  C108  1  0.68510000  0.41970000  0.85040000  1.0 0.0522678022
C  C109  1  0.49210000  0.77730000  0.62600000  1.0 0.0291823731
C  C110  1  0.77730000  0.49210000  0.87400000  1.0 0.0291823731
C  C111  1  0.58840000  0.85880000  0.64240000  1.0 0.0291823731
C  C112  1  0.85880000  0.58840000  0.85760000  1.0 0.0291823731
C  C113  1  0.67860000  0.72740000  0.80950000  1.0 -0.0214728488
C  C114  1  0.72740000  0.67860000  0.69050000  1.0 -0.0214728488
C  C115  1  0.61570000  0.62770000  0.81410000  1.0 0.0039113184
C  C116  1  0.62770000  0.61570000  0.68590000  1.0 0.0039113184
C  C117  1  0.62520000  0.58260000  0.85390000  1.0 -0.1992667018
C  C118  1  0.58260000  0.62520000  0.64610000  1.0 -0.1992667018
C  C119  1  0.70330000  0.63750000  0.88610000  1.0 0.1510214196
C  C120  1  0.63750000  0.70330000  0.61390000  1.0 0.1510214196
C  C121  1  0.77330000  0.74210000  0.87750000  1.0 0.0892754934
C  C122  1  0.74210000  0.77330000  0.62250000  1.0 0.0892754934
C  C123  1  0.75650000  0.78450000  0.84110000  1.0 -0.0509218575
C  C124  1  0.78450000  0.75650000  0.65890000  1.0 -0.0509218575
C  C125  1  0.32980000  0.51820000  0.73420000  1.0 -0.011685323
C  C126  1  0.51820000  0.32980000  0.76580000  1.0 -0.011685323
C  C127  1  0.26090000  0.59510000  0.61470000  1.0 0.0201580483
C  C128  1  0.59510000  0.26090000  0.88530000  1.0 0.0201580483
C  C129  1  0.65710000  0.49690000  0.92470000  1.0 -0.3789689294
C  C130  1  0.49690000  0.65710000  0.57530000  1.0 -0.3789689294
C  C131  1  0.91720000  0.88920000  0.90100000  1.0 -0.0214728488
C  C132  1  0.88920000  0.91720000  0.59900000  1.0 -0.0214728488
C  C133  1  0.85640000  0.00160000  0.78590000  1.0 -0.2309751569
C  C134  1  0.00160000  0.85640000  0.71410000  1.0 -0.2309751569
C  C135  1  0.44980000  0.75220000  0.55330000  1.0 -0.4511399581
C  C136  1  0.75220000  0.44980000  0.94670000  1.0 -0.4511399581
C  C137  1  0.70600000  0.00400000  0.59750000  1.0 -0.2109330087
C  C138  1  0.00400000  0.70600000  0.90250000  1.0 -0.2109330087
C  C139  1  0.05270000  0.02330000  0.77210000  1.0 -0.1596883661
C  C140  1  0.02330000  0.05270000  0.72790000  1.0 -0.1596883661
C  C141  1  0.13200000  0.11600000  0.79860000  1.0 -0.0976668364
C  C142  1  0.11600000  0.13200000  0.70140000  1.0 -0.0976668364
C  C143  1  0.22160000  0.18840000  0.77050000  1.0 -0.261007545
C  C144  1  0.18840000  0.22160000  0.72950000  1.0 -0.261007545
C  C145  1  0.61670000  0.80330000  0.71030000  1.0 0.0291823731
C  C146  1  0.80330000  0.61670000  0.78970000  1.0 0.0291823731
C  C147  1  0.70180000  0.88100000  0.69850000  1.0 0.0201580483
C  C148  1  0.88100000  0.70180000  0.80150000  1.0 0.0201580483
C  C149  1  0.79280000  0.92520000  0.73210000  1.0 0.2131322124
C  C150  1  0.92520000  0.79280000  0.76790000  1.0 0.2131322124
C  C151  1  0.77280000  0.87520000  0.77940000  1.0 0.0291823731
C  C152  1  0.87520000  0.77280000  0.72060000  1.0 0.0291823731
C  C153  1  0.68530000  0.78070000  0.78310000  1.0 0.0039113184
C  C154  1  0.78070000  0.68530000  0.71690000  1.0 0.0039113184
C  C155  1  0.65830000  0.71770000  0.81750000  1.0 0.0201580483
C  C156  1  0.71770000  0.65830000  0.68250000  1.0 0.0201580483
C  C157  1  0.73690000  0.74310000  0.85080000  1.0 0.0375225953
C  C158  1  0.74310000  0.73690000  0.64920000  1.0 0.0375225953
C  C159  1  0.82640000  0.84560000  0.84900000  1.0 -0.0588682196
C  C160  1  0.84560000  0.82640000  0.65100000  1.0 -0.0588682196
C  C161  1  0.85510000  0.90690000  0.80890000  1.0 -0.011685323
C  C162  1  0.90690000  0.85510000  0.69110000  1.0 -0.011685323
C  C163  1  0.52400000  0.75580000  0.68210000  1.0 -0.0023850812
C  C164  1  0.75580000  0.52400000  0.81790000  1.0 -0.0023850812
C  C165  1  0.51200000  0.80000000  0.64570000  1.0 0.0039113184
C  C166  1  0.80000000  0.51200000  0.85430000  1.0 0.0039113184
C  C167  1  0.41370000  0.75010000  0.62620000  1.0 -0.0509218575
C  C168  1  0.75010000  0.41370000  0.87380000  1.0 -0.0509218575
C  C169  1  0.33830000  0.65030000  0.63990000  1.0 0.1003505133
C  C170  1  0.65030000  0.33830000  0.86010000  1.0 0.1003505133
C  C171  1  0.35400000  0.61180000  0.68070000  1.0 0.0892754934
C  C172  1  0.61180000  0.35400000  0.81930000  1.0 0.0892754934
C  C173  1  0.44920000  0.65680000  0.69580000  1.0 -0.1265626126
C  C174  1  0.65680000  0.44920000  0.80420000  1.0 -0.1265626126
C  C175  1  0.53510000  0.55690000  0.79500000  1.0 -0.2309751569
C  C176  1  0.55690000  0.53510000  0.70500000  1.0 -0.2309751569
C  C177  1  0.65300000  0.58700000  0.88600000  1.0 0.0201580483
C  C178  1  0.58700000  0.65300000  0.61400000  1.0 0.0201580483
C  C179  1  0.23010000  0.64590000  0.58800000  1.0 -0.2309751569
C  C180  1  0.64590000  0.23010000  0.91200000  1.0 -0.2309751569
C  C181  1  0.31980000  0.47820000  0.71840000  1.0 -0.1190378692
C  C182  1  0.47820000  0.31980000  0.78160000  1.0 -0.1190378692
C  C183  1  0.72750000  0.95450000  0.62470000  1.0 -0.1875163456
C  C184  1  0.95450000  0.72750000  0.87530000  1.0 -0.1875163456
C  C185  1  0.92140000  0.80860000  0.87800000  1.0 -0.3317676834
C  C186  1  0.80860000  0.92140000  0.62200000  1.0 -0.3317676834
C  C187  1  0.02000000  0.05000000  0.79020000  1.0 -0.0976668364
C  C188  1  0.05000000  0.02000000  0.70980000  1.0 -0.0884076199
C  C189  1  0.40520000  0.58400000  0.47250000  1.0 0.0805938114
C  C190  1  0.41600000  0.59480000  0.97250000  1.0 0.0805938114
C  C191  1  0.43450000  0.50130000  0.44680000  1.0 0.0291823731
C  C192  1  0.49870000  0.56550000  0.94680000  1.0 0.0291823731
C  C193  1  0.33380000  0.50380000  0.49880000  1.0 -0.148235993
C  C194  1  0.49620000  0.66620000  0.99880000  1.0 -0.148235993
C  C195  1  0.36358000  0.41742000  0.47220000  1.0 -0.1801171428
C  C196  1  0.58258000  0.63642000  0.97220000  1.0 -0.1801171428
C  C197  1  0.31285000  0.41895000  0.49850000  1.0 0.0621794539
C  C198  1  0.58105000  0.68715000  0.99850000  1.0 0.0621794539
C  C199  1  0.23533000  0.33147000  0.52650000  1.0 0.3816076876
C  C200  1  0.66853000  0.76467000  0.02650000  1.0 0.3816076876
C  C201  1  0.14628000  0.17472000  0.55030000  1.0 0.3816076876
C  C202  1  0.82528000  0.85372000  0.05030000  1.0 0.3816076876
C  C203  1  0.13342000  0.26558000  0.58090000  1.0 0.3636503712
C  C204  1  0.73442000  0.86658000  0.08090000  1.0 0.3636503712
C  C205  1  0.12214000  0.08186000  0.55050000  1.0 0.0621794539
C  C206  1  0.91814000  0.87786000  0.05050000  1.0 0.0621794539
C  C207  1  0.09222000  0.27578000  0.61380000  1.0 0.0621794539
C  C208  1  0.72422000  0.90778000  0.11380000  1.0 0.0621794539
C  C209  1  0.13450000  0.05710000  0.51620000  1.0 -0.1801171428
C  C210  1  0.94290000  0.86550000  0.01620000  1.0 -0.1713038719
C  C211  1  0.09200000  0.02200000  0.58840000  1.0 -0.2109330087
C  C212  1  0.97800000  0.90800000  0.08840000  1.0 -0.2109330087
C  C213  1  0.02420000  0.19880000  0.64120000  1.0 -0.2309751569
C  C214  1  0.80120000  0.97580000  0.14120000  1.0 -0.2309751569
C  C215  1  0.11840000  0.36160000  0.61730000  1.0 -0.1875163456
C  C216  1  0.63840000  0.88160000  0.11730000  1.0 -0.1875163456
C  C217  1  0.11260000  0.97080000  0.51850000  1.0 0.0201580483
C  C218  1  0.02920000  0.88740000  0.01850000  1.0 0.0201580483
C  C219  1  0.07510000  0.93890000  0.58930000  1.0 -0.011685323
C  C220  1  0.06110000  0.92490000  0.08930000  1.0 -0.011685323
C  C221  1  0.98800000  0.21140000  0.67150000  1.0 -0.0214728488
C  C222  1  0.78860000  0.01200000  0.17150000  1.0 -0.0214728488
C  C223  1  0.07980000  0.36900000  0.64830000  1.0 -0.0274936852
C  C224  1  0.63100000  0.92020000  0.14830000  1.0 -0.0214728488
C  C225  1  0.23770000  0.88290000  0.60310000  1.0 0.0708616666
C  C226  1  0.11710000  0.76230000  0.10310000  1.0 0.0708616666
C  C227  1  0.12520000  0.73100000  0.63610000  1.0 0.0522678022
C  C228  1  0.26900000  0.87480000  0.13610000  1.0 0.0522678022
C  C229  1  0.31330000  0.90090000  0.63120000  1.0 -0.1992667018
C  C230  1  0.09910000  0.68670000  0.13120000  1.0 -0.1992667018
C  C231  1  0.19480000  0.74260000  0.66520000  1.0 -0.1801171428
C  C232  1  0.25740000  0.80520000  0.16520000  1.0 -0.1801171428
C  C233  1  0.29179000  0.82961000  0.66320000  1.0 0.0708616666
C  C234  1  0.17039000  0.70821000  0.16320000  1.0 0.0708616666
C  C235  1  0.36718000  0.84242000  0.69450000  1.0 0.3319986814
C  C236  1  0.15758000  0.63282000  0.19450000  1.0 0.3319986814
C  C237  1  0.52388000  0.93052000  0.71970000  1.0 0.3319986814
C  C238  1  0.06948000  0.47612000  0.21970000  1.0 0.3319986814
C  C239  1  0.40626000  0.78274000  0.75320000  1.0 0.3636503712
C  C240  1  0.21726000  0.59374000  0.25320000  1.0 0.3657588684
C  C241  1  0.62878000  0.02202000  0.72060000  1.0 0.0621794539
C  C242  1  0.97798000  0.37122000  0.22060000  1.0 0.0621794539
C  C243  1  0.37716000  0.70544000  0.78900000  1.0 0.0708616666
C  C244  1  0.29456000  0.62284000  0.28900000  1.0 0.0708616666
C  C245  1  0.69260000  0.03020000  0.75360000  1.0 -0.2309751569
C  C246  1  0.96980000  0.30740000  0.25360000  1.0 -0.2309751569
C  C247  1  0.66480000  0.10080000  0.69140000  1.0 -0.1596883661
C  C248  1  0.89920000  0.33520000  0.19140000  1.0 -0.1596883661
C  C249  1  0.28058000  0.62542000  0.79680000  1.0 -0.1875163456
C  C250  1  0.37458000  0.71942000  0.29680000  1.0 -0.1875163456
C  C251  1  0.44830000  0.71190000  0.81420000  1.0 -0.2361566997
C  C252  1  0.28810000  0.55170000  0.31420000  1.0 -0.2361566997
C  C253  1  0.78990000  0.11570000  0.75460000  1.0 0.0098443213
C  C254  1  0.88430000  0.21010000  0.25460000  1.0 0.0098443213
C  C255  1  0.76290000  0.18330000  0.69470000  1.0 0.0805938114
C  C256  1  0.81670000  0.23710000  0.19470000  1.0 0.0805938114
C  C257  1  0.25850000  0.55670000  0.83080000  1.0 0.0522678022
C  C258  1  0.44330000  0.74150000  0.33080000  1.0 0.0522678022
C  C259  1  0.42020000  0.63820000  0.84590000  1.0 0.0291823731
C  C260  1  0.36180000  0.57980000  0.34590000  1.0 0.0291823731
C  C261  1  0.58400000  0.40520000  0.02750000  1.0 0.0805938114
C  C262  1  0.59480000  0.41600000  0.52750000  1.0 0.0805938114
C  C263  1  0.50130000  0.43450000  0.05320000  1.0 0.0291823731
C  C264  1  0.56550000  0.49870000  0.55320000  1.0 0.0291823731
C  C265  1  0.50380000  0.33380000  0.00120000  1.0 -0.148235993
C  C266  1  0.66620000  0.49620000  0.50120000  1.0 -0.148235993
C  C267  1  0.41742000  0.36358000  0.02780000  1.0 -0.1801171428
C  C268  1  0.63642000  0.58258000  0.52780000  1.0 -0.1801171428
C  C269  1  0.41895000  0.31285000  0.00150000  1.0 0.0621794539
C  C270  1  0.68715000  0.58105000  0.50150000  1.0 0.0621794539
C  C271  1  0.33147000  0.23533000  0.97350000  1.0 0.3816076876
C  C272  1  0.76467000  0.66853000  0.47350000  1.0 0.3816076876
C  C273  1  0.17472000  0.14628000  0.94970000  1.0 0.3816076876
C  C274  1  0.85372000  0.82528000  0.44970000  1.0 0.3816076876
C  C275  1  0.26558000  0.13342000  0.91910000  1.0 0.3636503712
C  C276  1  0.86658000  0.73442000  0.41910000  1.0 0.3636503712
C  C277  1  0.08186000  0.12214000  0.94950000  1.0 0.0621794539
C  C278  1  0.87786000  0.91814000  0.44950000  1.0 0.0621794539
C  C279  1  0.27578000  0.09222000  0.88620000  1.0 0.0621794539
C  C280  1  0.90778000  0.72422000  0.38620000  1.0 0.0621794539
C  C281  1  0.05710000  0.13450000  0.98380000  1.0 -0.1801171428
C  C282  1  0.86550000  0.94290000  0.48380000  1.0 -0.1801171428
C  C283  1  0.02200000  0.09200000  0.91160000  1.0 -0.2109330087
C  C284  1  0.90800000  0.97800000  0.41160000  1.0 -0.2109330087
C  C285  1  0.19880000  0.02420000  0.85880000  1.0 -0.2309751569
C  C286  1  0.97580000  0.80120000  0.35880000  1.0 -0.2309751569
C  C287  1  0.36160000  0.11840000  0.88270000  1.0 -0.1875163456
C  C288  1  0.88160000  0.63840000  0.38270000  1.0 -0.1875163456
C  C289  1  0.97080000  0.11260000  0.98150000  1.0 0.0201580483
C  C290  1  0.88740000  0.02920000  0.48150000  1.0 0.0201580483
C  C291  1  0.93890000  0.07510000  0.91070000  1.0 -0.011685323
C  C292  1  0.92490000  0.06110000  0.41070000  1.0 -0.011685323
C  C293  1  0.21140000  0.98800000  0.82850000  1.0 -0.0274936852
C  C294  1  0.01200000  0.78860000  0.32850000  1.0 -0.0274936852
C  C295  1  0.36900000  0.07980000  0.85170000  1.0 -0.0214728488
C  C296  1  0.92020000  0.63100000  0.35170000  1.0 -0.0214728488
C  C297  1  0.88290000  0.23770000  0.89690000  1.0 0.0708616666
C  C298  1  0.76230000  0.11710000  0.39690000  1.0 0.0708616666
C  C299  1  0.73100000  0.12520000  0.86390000  1.0 0.0522678022
C  C300  1  0.87480000  0.26900000  0.36390000  1.0 0.0522678022
C  C301  1  0.90090000  0.31330000  0.86880000  1.0 -0.1992667018
C  C302  1  0.68670000  0.09910000  0.36880000  1.0 -0.1992667018
C  C303  1  0.74260000  0.19480000  0.83480000  1.0 -0.1801171428
C  C304  1  0.80520000  0.25740000  0.33480000  1.0 -0.1801171428
C  C305  1  0.82961000  0.29179000  0.83680000  1.0 0.0708616666
C  C306  1  0.70821000  0.17039000  0.33680000  1.0 0.0708616666
C  C307  1  0.84242000  0.36718000  0.80550000  1.0 0.3319986814
C  C308  1  0.63282000  0.15758000  0.30550000  1.0 0.3319986814
C  C309  1  0.93052000  0.52388000  0.78030000  1.0 0.3319986814
C  C310  1  0.47612000  0.06948000  0.28030000  1.0 0.3188171291
C  C311  1  0.78274000  0.40626000  0.74680000  1.0 0.3636503712
C  C312  1  0.59374000  0.21726000  0.24680000  1.0 0.3636503712
C  C313  1  0.02202000  0.62878000  0.77940000  1.0 0.0621794539
C  C314  1  0.37122000  0.97798000  0.27940000  1.0 0.0621794539
C  C315  1  0.70544000  0.37716000  0.71100000  1.0 0.0708616666
C  C316  1  0.62284000  0.29456000  0.21100000  1.0 0.0708616666
C  C317  1  0.03020000  0.69260000  0.74640000  1.0 -0.2309751569
C  C318  1  0.30740000  0.96980000  0.24640000  1.0 -0.2309751569
C  C319  1  0.10080000  0.66480000  0.80860000  1.0 -0.1596883661
C  C320  1  0.33520000  0.89920000  0.30860000  1.0 -0.1596883661
C  C321  1  0.62542000  0.28058000  0.70320000  1.0 -0.1875163456
C  C322  1  0.71942000  0.37458000  0.20320000  1.0 -0.1875163456
C  C323  1  0.71190000  0.44830000  0.68580000  1.0 -0.2361566997
C  C324  1  0.55170000  0.28810000  0.18580000  1.0 -0.2361566997
C  C325  1  0.11570000  0.78990000  0.74540000  1.0 0.0098443213
C  C326  1  0.21010000  0.88430000  0.24540000  1.0 0.0098443213
C  C327  1  0.18330000  0.76290000  0.80530000  1.0 0.0805938114
C  C328  1  0.23710000  0.81670000  0.30530000  1.0 0.0805938114
C  C329  1  0.55670000  0.25850000  0.66920000  1.0 0.0522678022
C  C330  1  0.74150000  0.44330000  0.16920000  1.0 0.0522678022
C  C331  1  0.63820000  0.42020000  0.65410000  1.0 0.0291823731
C  C332  1  0.57980000  0.36180000  0.15410000  1.0 0.0291823731
I  I1  1  0.63465000  0.67495000  0.36483000  1.0 -0.4614149904
I  I2  1  0.32505000  0.36535000  0.86483000  1.0 -0.4614149904
I  I3  1  0.61770000  0.84550000  0.44117000  1.0 0.0201580483
I  I4  1  0.15450000  0.38230000  0.94117000  1.0 0.0201580483
I  I5  1  0.88131000  0.65941000  0.59500000  1.0 -0.1801171428
I  I6  1  0.34059000  0.11869000  0.09500000  1.0 -0.1875163456
I  I7  1  0.08085000  0.76695000  0.48435000  1.0 0.0708616666
I  I8  1  0.23305000  0.91915000  0.98435000  1.0 0.0708616666
I  I9  1  0.04790000  0.28672000  0.80148000  1.0 -0.0214728488
I  I10  1  0.71328000  0.95210000  0.30148000  1.0 -0.0214728488
I  I11  1  0.01216000  0.46952000  0.70838000  1.0 0.0291823731
I  I12  1  0.53048000  0.98784000  0.20838000  1.0 0.0291823731
I  I13  1  0.64574000  0.68986000  0.36930000  1.0 -0.4432498789
I  I14  1  0.31014000  0.35426000  0.86930000  1.0 -0.4432498789
I  I15  1  0.60430000  0.85370000  0.44417000  1.0 0.0201580483
I  I16  1  0.14630000  0.39570000  0.94417000  1.0 0.0201580483
I  I17  1  0.26032000  0.95208000  0.98940000  1.0 0.0522678022
I  I18  1  0.04792000  0.73968000  0.48940000  1.0 0.0522678022
I  I19  1  0.34887000  0.11913000  0.10400000  1.0 -0.2475641979
I  I20  1  0.88087000  0.65113000  0.60400000  1.0 -0.2475641979
I  I21  1  0.69870000  0.96130000  0.29940000  1.0 -0.011685323
I  I22  1  0.03870000  0.30130000  0.79940000  1.0 -0.011685323
I  I23  1  0.53700000  0.01080000  0.19870000  1.0 0.0621794539
I  I24  1  0.98920000  0.46300000  0.69870000  1.0 0.0621794539
I  I25  1  0.67495000  0.63465000  0.13517000  1.0 -0.4614149904
I  I26  1  0.36535000  0.32505000  0.63517000  1.0 -0.4614149904
I  I27  1  0.84550000  0.61770000  0.05883000  1.0 0.0201580483
I  I28  1  0.38230000  0.15450000  0.55883000  1.0 0.0201580483
I  I29  1  0.65941000  0.88131000  0.90500000  1.0 -0.1875163456
I  I30  1  0.11869000  0.34059000  0.40500000  1.0 -0.1801171428
I  I31  1  0.76695000  0.08085000  0.01565000  1.0 0.0708616666
I  I32  1  0.91915000  0.23305000  0.51565000  1.0 0.0708616666
I  I33  1  0.28672000  0.04790000  0.69852000  1.0 -0.0214728488
I  I34  1  0.95210000  0.71328000  0.19852000  1.0 -0.0214728488
I  I35  1  0.46952000  0.01216000  0.79162000  1.0 0.0291823731
I  I36  1  0.98784000  0.53048000  0.29162000  1.0 0.0291823731
I  I37  1  0.68986000  0.64574000  0.13070000  1.0 -0.4432498789
I  I38  1  0.35426000  0.31014000  0.63070000  1.0 -0.4432498789
I  I39  1  0.85370000  0.60430000  0.05583000  1.0 0.0291823731
I  I40  1  0.39570000  0.14630000  0.55583000  1.0 0.0201580483
I  I41  1  0.95208000  0.26032000  0.51060000  1.0 0.0375225953
I  I42  1  0.73968000  0.04792000  0.01060000  1.0 0.0375225953
I  I43  1  0.11913000  0.34887000  0.39600000  1.0 -0.2475641979
I  I44  1  0.65113000  0.88087000  0.89600000  1.0 -0.2475641979
I  I45  1  0.96130000  0.69870000  0.20060000  1.0 -0.011685323
I  I46  1  0.30130000  0.03870000  0.70060000  1.0 -0.011685323
I  I47  1  0.01080000  0.53700000  0.30130000  1.0 0.0621794539
I  I48  1  0.46300000  0.98920000  0.80130000  1.0 0.0621794539
N  N1  1  0.43742000  0.67258000  0.35569000  1.0 -0.1992667018
N  N2  1  0.32742000  0.56258000  0.85569000  1.0 -0.1992667018
N  N3  1  0.45513000  0.58367000  0.44700000  1.0 -0.1875163456
N  N4  1  0.41633000  0.54487000  0.94700000  1.0 -0.1875163456
N  N5  1  0.21097000  0.24783000  0.52177000  1.0 -0.4277847196
N  N6  1  0.75217000  0.78903000  0.02177000  1.0 -0.4277847196
N  N7  1  0.20046000  0.34514000  0.55540000  1.0 -0.4277847196
N  N8  1  0.65486000  0.79954000  0.05540000  1.0 -0.4277847196
N  N9  1  0.10436000  0.17864000  0.57983000  1.0 -0.4277847196
N  N10  1  0.82136000  0.89564000  0.07983000  1.0 -0.4245333946
N  N11  1  0.07907000  0.90973000  0.55430000  1.0 -0.1992667018
N  N12  1  0.09027000  0.92093000  0.05430000  1.0 -0.1992667018
N  N13  1  0.01732000  0.29528000  0.67710000  1.0 -0.218749681
N  N14  1  0.70472000  0.98268000  0.17710000  1.0 -0.218749681
N  N15  1  0.14631000  0.80109000  0.60550000  1.0 -0.1875163456
N  N16  1  0.19891000  0.85369000  0.10550000  1.0 -0.1875163456
N  N17  1  0.82494000  0.19126000  0.72530000  1.0 -0.1992667018
N  N18  1  0.80874000  0.17506000  0.22530000  1.0 -0.1992667018
N  N19  1  0.46092000  0.92488000  0.68989000  1.0 -0.4511399581
N  N20  1  0.07512000  0.53908000  0.18989000  1.0 -0.4511399581
N  N21  1  0.33570000  0.77030000  0.72648000  1.0 -0.4703576206
N  N22  1  0.22970000  0.66430000  0.22648000  1.0 -0.4703576206
N  N23  1  0.50069000  0.86071000  0.75125000  1.0 -0.4703576206
N  N24  1  0.13929000  0.49931000  0.25125000  1.0 -0.4703576206
N  N25  1  0.67258000  0.43742000  0.14431000  1.0 -0.1992667018
N  N26  1  0.56258000  0.32742000  0.64431000  1.0 -0.1992667018
N  N27  1  0.58367000  0.45513000  0.05300000  1.0 -0.1875163456
N  N28  1  0.54487000  0.41633000  0.55300000  1.0 -0.1875163456
N  N29  1  0.24783000  0.21097000  0.97823000  1.0 -0.4277847196
N  N30  1  0.78903000  0.75217000  0.47823000  1.0 -0.4277847196
N  N31  1  0.34514000  0.20046000  0.94460000  1.0 -0.4277847196
N  N32  1  0.79954000  0.65486000  0.44460000  1.0 -0.4277847196
N  N33  1  0.17864000  0.10436000  0.92017000  1.0 -0.4277847196
N  N34  1  0.89564000  0.82136000  0.42017000  1.0 -0.4277847196
N  N35  1  0.90973000  0.07907000  0.94570000  1.0 -0.1992667018
N  N36  1  0.92093000  0.09027000  0.44570000  1.0 -0.1992667018
N  N37  1  0.29528000  0.01732000  0.82290000  1.0 -0.218749681
N  N38  1  0.98268000  0.70472000  0.32290000  1.0 -0.218749681
N  N39  1  0.80109000  0.14631000  0.89450000  1.0 -0.1875163456
N  N40  1  0.85369000  0.19891000  0.39450000  1.0 -0.1875163456
N  N41  1  0.19126000  0.82494000  0.77470000  1.0 -0.1992667018
N  N42  1  0.17506000  0.80874000  0.27470000  1.0 -0.1992667018
N  N43  1  0.92488000  0.46092000  0.81011000  1.0 -0.4511399581
N  N44  1  0.53908000  0.07512000  0.31011000  1.0 -0.4511399581
N  N45  1  0.77030000  0.33570000  0.77352000  1.0 -0.4703576206
N  N46  1  0.66430000  0.22970000  0.27352000  1.0 -0.4703576206
N  N47  1  0.86071000  0.50069000  0.74875000  1.0 -0.4703576206
N  N48  1  0.49931000  0.13929000  0.24875000  1.0 -0.4703576206
O  O1  1  0.42180000  0.28540000  0.25480000  1.0 -0.1713038719
O  O2  1  0.28540000  0.42180000  0.24520000  1.0 -0.1713038719
O  O3  1  0.21080000  0.01700000  0.31040000  1.0 0.0291823731
O  O4  1  0.01700000  0.21080000  0.18960000  1.0 0.0291823731
O  O5  1  0.59810000  0.41850000  0.28860000  1.0 -0.0588682196
O  O6  1  0.41850000  0.59810000  0.21140000  1.0 -0.0588682196
O  O7  1  0.65380000  0.39020000  0.37450000  1.0 -0.1083149886
O  O8  1  0.39020000  0.65380000  0.12550000  1.0 -0.1083149886
O  O9  1  0.27880000  0.39460000  0.07970000  1.0 -0.1190378692
O  O10  1  0.39460000  0.27880000  0.42030000  1.0 -0.1190378692
O  O11  1  0.16730000  0.21310000  0.08800000  1.0 -0.0976668364
O  O12  1  0.21310000  0.16730000  0.41200000  1.0 -0.0976668364
O  O13  1  0.17330000  0.08870000  0.23410000  1.0 -0.0274936852
O  O14  1  0.08870000  0.17330000  0.26590000  1.0 -0.0274936852
O  O15  1  0.53790000  0.19410000  0.41340000  1.0 -0.148235993
O  O16  1  0.19410000  0.53790000  0.08660000  1.0 -0.148235993
O  O17  1  0.36970000  0.06350000  0.37370000  1.0 -0.0976668364
O  O18  1  0.06350000  0.36970000  0.12630000  1.0 -0.0976668364
O  O19  1  0.39220000  0.25360000  0.25090000  1.0 -0.0509218575
O  O20  1  0.25360000  0.39220000  0.24910000  1.0 -0.0509218575
O  O21  1  0.12350000  0.99370000  0.27930000  1.0 -0.3626964665
O  O22  1  0.99370000  0.12350000  0.22070000  1.0 -0.3626964665
O  O23  1  0.42820000  0.36980000  0.18380000  1.0 -0.0780564039
O  O24  1  0.36980000  0.42820000  0.31620000  1.0 -0.0780564039
O  O25  1  0.27310000  0.30890000  0.11120000  1.0 -0.0274936852
O  O26  1  0.30890000  0.27310000  0.38880000  1.0 -0.0274936852
O  O27  1  0.74560000  0.38360000  0.36940000  1.0 -0.0884076199
O  O28  1  0.38360000  0.74560000  0.13060000  1.0 -0.0884076199
O  O29  1  0.71590000  0.47310000  0.30060000  1.0 -0.1265626126
O  O30  1  0.47310000  0.71590000  0.19940000  1.0 -0.1265626126
O  O31  1  0.27420000  0.03900000  0.32870000  1.0 0.0098443213
O  O32  1  0.03900000  0.27420000  0.17130000  1.0 0.0039113184
O  O33  1  0.08890000  0.12310000  0.12200000  1.0 -0.0780564039
O  O34  1  0.12310000  0.08890000  0.37800000  1.0 -0.0780564039
O  O35  1  0.07160000  0.01640000  0.19170000  1.0 -0.1190378692
O  O36  1  0.01640000  0.07160000  0.30830000  1.0 -0.1190378692
O  O37  1  0.57820000  0.71460000  0.74520000  1.0 -0.1713038719
O  O38  1  0.71460000  0.57820000  0.75480000  1.0 -0.1713038719
O  O39  1  0.78920000  0.98300000  0.68960000  1.0 0.0291823731
O  O40  1  0.98300000  0.78920000  0.81040000  1.0 0.0291823731
O  O41  1  0.40190000  0.58150000  0.71140000  1.0 -0.0588682196
O  O42  1  0.58150000  0.40190000  0.78860000  1.0 -0.0588682196
O  O43  1  0.34620000  0.60980000  0.62550000  1.0 -0.1083149886
O  O44  1  0.60980000  0.34620000  0.87450000  1.0 -0.1083149886
O  O45  1  0.72120000  0.60540000  0.92030000  1.0 -0.1190378692
O  O46  1  0.60540000  0.72120000  0.57970000  1.0 -0.1190378692
O  O47  1  0.83270000  0.78690000  0.91200000  1.0 -0.0976668364
O  O48  1  0.78690000  0.83270000  0.58800000  1.0 -0.0976668364
O  O49  1  0.82670000  0.91130000  0.76590000  1.0 -0.0274936852
O  O50  1  0.91130000  0.82670000  0.73410000  1.0 -0.0274936852
O  O51  1  0.46210000  0.80590000  0.58660000  1.0 -0.148235993
O  O52  1  0.80590000  0.46210000  0.91340000  1.0 -0.148235993
O  O53  1  0.63030000  0.93650000  0.62630000  1.0 -0.0976668364
O  O54  1  0.93650000  0.63030000  0.87370000  1.0 -0.0976668364
O  O55  1  0.60780000  0.74640000  0.74910000  1.0 -0.0509218575
O  O56  1  0.74640000  0.60780000  0.75090000  1.0 -0.0509218575
O  O57  1  0.87650000  0.00630000  0.72070000  1.0 -0.3626964665
O  O58  1  0.00630000  0.87650000  0.77930000  1.0 -0.3626964665
O  O59  1  0.57180000  0.63020000  0.81620000  1.0 -0.0780564039
O  O60  1  0.63020000  0.57180000  0.68380000  1.0 -0.0780564039
O  O61  1  0.72690000  0.69110000  0.88880000  1.0 -0.0274936852
O  O62  1  0.69110000  0.72690000  0.61120000  1.0 -0.0274936852
O  O63  1  0.25440000  0.61640000  0.63060000  1.0 -0.0884076199
O  O64  1  0.61640000  0.25440000  0.86940000  1.0 -0.0884076199
O  O65  1  0.28410000  0.52690000  0.69940000  1.0 -0.1265626126
O  O66  1  0.52690000  0.28410000  0.80060000  1.0 -0.1265626126
O  O67  1  0.72580000  0.96100000  0.67130000  1.0 0.0098443213
O  O68  1  0.96100000  0.72580000  0.82870000  1.0 0.0098443213
O  O69  1  0.91110000  0.87690000  0.87800000  1.0 -0.0780564039
O  O70  1  0.87690000  0.91110000  0.62200000  1.0 -0.0780564039
O  O71  1  0.92840000  0.98360000  0.80830000  1.0 -0.1190378692
O  O72  1  0.98360000  0.92840000  0.69170000  1.0 -0.1190378692
