# DDEC6 charges by PACMAN v1.1 (https://github.com/mtap-research/PACMAN-charge/)
data_LABNAG_ASR_pacman
_symmetry_space_group_name_H-M   'P 1'
_cell_length_a   32.80720000
_cell_length_b   14.91230000
_cell_length_c   34.90620000
_cell_angle_alpha   90.00000000
_cell_angle_beta   105.82200000
_cell_angle_gamma   90.00000000
_symmetry_Int_Tables_number   1
_chemical_formula_structural   Zn12H95C144(IN2)24
_chemical_formula_sum   'Zn24 H190 C288 I48 N96'
_cell_volume   16430.19140620
_cell_formula_units_Z   2
loop_
 _symmetry_equiv_pos_site_id
 _symmetry_equiv_pos_as_xyz
  1  'x, y, z'
loop_
 _atom_site_type_symbol
 _atom_site_label
 _atom_site_symmetry_multiplicity
 _atom_site_fract_x
 _atom_site_fract_y
 _atom_site_fract_z
 _atom_site_occupancy
 _atom_site_charge
Zn  Zn1  1  0.98081000  0.18565000  0.08095000  1.0 0.4419643814
Zn  Zn2  1  0.67121000  0.70665000  0.15206000  1.0 0.4604288088
Zn  Zn3  1  0.81949000  0.44742000  0.36222000  1.0 0.4692292222
Zn  Zn4  1  0.98981000  0.72604000  0.58766000  1.0 0.4537125313
Zn  Zn5  1  0.17471000  0.46608000  0.65542000  1.0 0.4692292222
Zn  Zn6  1  0.67739000  0.23353000  0.62028000  1.0 0.4604288088
Zn  Zn7  1  0.30762000  0.26229000  0.36796000  1.0 0.4604288088
Zn  Zn8  1  0.48092000  0.99479000  0.58652000  1.0 0.4604288088
Zn  Zn9  1  0.30628000  0.73309000  0.86862000  1.0 0.4692292222
Zn  Zn10  1  0.17500000  0.94591000  0.11952000  1.0 0.4537125313
Zn  Zn11  1  0.49022000  0.45566000  0.08388000  1.0 0.4419643814
Zn  Zn12  1  0.80015000  0.91235000  0.87101000  1.0 0.4692292222
Zn  Zn13  1  0.01919000  0.68565000  0.91905000  1.0 0.4419643814
Zn  Zn14  1  0.32879000  0.20665000  0.84794000  1.0 0.4604288088
Zn  Zn15  1  0.18051000  0.94742000  0.63778000  1.0 0.4692292222
Zn  Zn16  1  0.01019000  0.22604000  0.41234000  1.0 0.4537125313
Zn  Zn17  1  0.82529000  0.96608000  0.34458000  1.0 0.4692292222
Zn  Zn18  1  0.32261000  0.73353000  0.37972000  1.0 0.4604288088
Zn  Zn19  1  0.69238000  0.76229000  0.63204000  1.0 0.4604288088
Zn  Zn20  1  0.51908000  0.49479000  0.41348000  1.0 0.4604288088
Zn  Zn21  1  0.69372000  0.23309000  0.13138000  1.0 0.4692292222
Zn  Zn22  1  0.82500000  0.44591000  0.88048000  1.0 0.4537125313
Zn  Zn23  1  0.50978000  0.95566000  0.91612000  1.0 0.4419643814
Zn  Zn24  1  0.19985000  0.41235000  0.12899000  1.0 0.4692292222
H  H1  1  0.93620000  0.03140000  0.10700000  1.0 0.1085364658
H  H2  1  0.88740000  0.00210000  0.14250000  1.0 0.1383192186
H  H3  1  0.88420000  0.26950000  0.16430000  1.0 0.1315614601
H  H4  1  0.93270000  0.28970000  0.12750000  1.0 0.1023633288
H  H5  1  0.72830000  0.81130000  0.11640000  1.0 0.1023633288
H  H6  1  0.77340000  0.93500000  0.12830000  1.0 0.1383192186
H  H7  1  0.74750000  0.96630000  0.23480000  1.0 0.1383192186
H  H8  1  0.70340000  0.84140000  0.21970000  1.0 0.1023633288
H  H9  1  0.86120000  0.41370000  0.29900000  1.0 0.1023633288
H  H10  1  0.86070000  0.31770000  0.24690000  1.0 0.1315614601
H  H11  1  0.76350000  0.18360000  0.27190000  1.0 0.1383192186
H  H12  1  0.76510000  0.28850000  0.32210000  1.0 0.1085364658
H  H13  1  0.89430000  0.49350000  0.43000000  1.0 0.1023633288
H  H14  1  0.94240000  0.42680000  0.48380000  1.0 0.1315614601
H  H15  1  0.88570000  0.18800000  0.45010000  1.0 0.1383192186
H  H16  1  0.83960000  0.26130000  0.39600000  1.0 0.1085364658
H  H17  1  0.93640000  0.84850000  0.52300000  1.0 0.1085364658
H  H18  1  0.93060000  0.99960000  0.50680000  1.0 0.1383192186
H  H19  1  0.02580000  0.04970000  0.60620000  1.0 0.1383192186
H  H20  1  0.02850000  0.89800000  0.61970000  1.0 0.1085364658
H  H21  1  0.09020000  0.51670000  0.59910000  1.0 0.1085364658
H  H22  1  0.02860000  0.44630000  0.56260000  1.0 0.1315614601
H  H23  1  0.09060000  0.20880000  0.58410000  1.0 0.1315614601
H  H24  1  0.15100000  0.28600000  0.61780000  1.0 0.1023633288
H  H25  1  0.94200000  0.57680000  0.60800000  1.0 0.1085364658
H  H26  1  0.89170000  0.54330000  0.64100000  1.0 0.1383192186
H  H27  1  0.88660000  0.80700000  0.66666667  1.0 0.1383192186
H  H28  1  0.93570000  0.83370000  0.63130000  1.0 0.1023633288
H  H29  1  0.74040000  0.34840000  0.59540000  1.0 0.1023633288
H  H30  1  0.78460000  0.46900000  0.61730000  1.0 0.1383192186
H  H31  1  0.74840000  0.46690000  0.71980000  1.0 0.1383192186
H  H32  1  0.70690000  0.34220000  0.69570000  1.0 0.1085364658
H  H33  1  0.86190000  0.87540000  0.82600000  1.0 0.1085364658
H  H34  1  0.87040000  0.79450000  0.77180000  1.0 0.1383192186
H  H35  1  0.75020000  0.70390000  0.75370000  1.0 0.1383192186
H  H36  1  0.74530000  0.78750000  0.80820000  1.0 0.1085364658
H  H37  1  0.58270000  0.19970000  0.59320000  1.0 0.1085364658
H  H38  1  0.52060000  0.27650000  0.56300000  1.0 0.1383192186
H  H39  1  0.58880000  0.50750000  0.57660000  1.0 0.1315614601
H  H40  1  0.64900000  0.42370000  0.60480000  1.0 0.1023633288
H  H41  1  0.37970000  0.22100000  0.43880000  1.0 0.1085364658
H  H42  1  0.43160000  0.29190000  0.48830000  1.0 0.1315614601
H  H43  1  0.38450000  0.53180000  0.44150000  1.0 0.1315614601
H  H44  1  0.33400000  0.45340000  0.39250000  1.0 0.1085364658
H  H45  1  0.53150000  0.83030000  0.60600000  1.0 0.1023633288
H  H46  1  0.53230000  0.68100000  0.58870000  1.0 0.1383192186
H  H47  1  0.42230000  0.72110000  0.50360000  1.0 0.1540619815
H  H48  1  0.44060000  0.13580000  0.62050000  1.0 0.1085364658
H  H49  1  0.39110000  0.15820000  0.65610000  1.0 0.1383192186
H  H50  1  0.37950000  0.88980000  0.66310000  1.0 0.1383192186
H  H51  1  0.42810000  0.87340000  0.62670000  1.0 0.1085364658
H  H52  1  0.25220000  0.88300000  0.81980000  1.0 0.1085364658
H  H53  1  0.25210000  0.97800000  0.76720000  1.0 0.1383192186
H  H54  1  0.35940000  0.85530000  0.75890000  1.0 0.1383192186
H  H55  1  0.35670000  0.76570000  0.81190000  1.0 0.1023633288
H  H56  1  0.19660000  0.31720000  0.71670000  1.0 0.1023633288
H  H57  1  0.23760000  0.18720000  0.73020000  1.0 0.1383192186
H  H58  1  0.28440000  0.24730000  0.63710000  1.0 0.1383192186
H  H59  1  0.24260000  0.37540000  0.62620000  1.0 0.1085364658
H  H60  1  0.38190000  0.68220000  0.93650000  1.0 0.1085364658
H  H61  1  0.43320000  0.74860000  0.98790000  1.0 0.1315614601
H  H62  1  0.38010000  0.98990000  0.95180000  1.0 0.1315614601
H  H63  1  0.33130000  0.91620000  0.90000000  1.0 0.1085364658
H  H64  1  0.42950000  0.32880000  0.02610000  1.0 0.1085364658
H  H65  1  0.42080000  0.17720000  0.01190000  1.0 0.1383192186
H  H66  1  0.52900000  0.13220000  0.09560000  1.0 0.1383192186
H  H67  1  0.53430000  0.28420000  0.10850000  1.0 0.1023633288
H  H68  1  0.64210000  0.88940000  0.12690000  1.0 0.1023633288
H  H69  1  0.58040000  0.96680000  0.09600000  1.0 0.1315614601
H  H70  1  0.52380000  0.72980000  0.06030000  1.0 0.1315614601
H  H71  1  0.58740000  0.65910000  0.09180000  1.0 0.1085364658
H  H72  1  0.24960000  0.38680000  0.30520000  1.0 0.1085364658
H  H73  1  0.25410000  0.47680000  0.25260000  1.0 0.1383192186
H  H74  1  0.37570000  0.39580000  0.27050000  1.0 0.1383192186
H  H75  1  0.36840000  0.31090000  0.32400000  1.0 0.1085364658
H  H76  1  0.20560000  0.83670000  0.19580000  1.0 0.1085364658
H  H77  1  0.25100000  0.71680000  0.22000000  1.0 0.1383192186
H  H78  1  0.28680000  0.72010000  0.11810000  1.0 0.1315614601
H  H79  1  0.24050000  0.83950000  0.09620000  1.0 0.1023633288
H  H80  1  0.45240000  0.36480000  0.14410000  1.0 0.1023633288
H  H81  1  0.40330000  0.39290000  0.17990000  1.0 0.1383192186
H  H82  1  0.37920000  0.63200000  0.12340000  1.0 0.1315614601
H  H83  1  0.42820000  0.59650000  0.08950000  1.0 0.1085364658
H  H84  1  0.08150000  0.98450000  0.09340000  1.0 0.1085364658
H  H85  1  0.01830000  0.91050000  0.06450000  1.0 0.1383192186
H  H86  1  0.08140000  0.67480000  0.08990000  1.0 0.1315614601
H  H87  1  0.14380000  0.75620000  0.11510000  1.0 0.1023633288
H  H88  1  0.88370000  0.95920000  0.92980000  1.0 0.1085364658
H  H89  1  0.93720000  0.89130000  0.97930000  1.0 0.1315614601
H  H90  1  0.87400000  0.65480000  0.95310000  1.0 0.1315614601
H  H91  1  0.82220000  0.72990000  0.90520000  1.0 0.1161519522
H  H92  1  0.01360000  0.35830000  0.11790000  1.0 0.1023633288
H  H93  1  0.01260000  0.51100000  0.10560000  1.0 0.1383192186
H  H94  1  0.92380000  0.46580000  0.00140000  1.0 0.1383192186
H  H95  1  0.92970000  0.31300000  0.01560000  1.0 0.1085364658
H  H96  1  0.06380000  0.53140000  0.89300000  1.0 0.1085364658
H  H97  1  0.11260000  0.50210000  0.85750000  1.0 0.1383192186
H  H98  1  0.11580000  0.76950000  0.83570000  1.0 0.1315614601
H  H99  1  0.06730000  0.78970000  0.87250000  1.0 0.1023633288
H  H100  1  0.27170000  0.31130000  0.88360000  1.0 0.1023633288
H  H101  1  0.22660000  0.43500000  0.87170000  1.0 0.1383192186
H  H102  1  0.25250000  0.46630000  0.76520000  1.0 0.1383192186
H  H103  1  0.29660000  0.34140000  0.78030000  1.0 0.1023633288
H  H104  1  0.13880000  0.91370000  0.70100000  1.0 0.1023633288
H  H105  1  0.13930000  0.81770000  0.75310000  1.0 0.1315614601
H  H106  1  0.23650000  0.68360000  0.72810000  1.0 0.1383192186
H  H107  1  0.23490000  0.78850000  0.67790000  1.0 0.1085364658
H  H108  1  0.10570000  0.99350000  0.57000000  1.0 0.1023633288
H  H109  1  0.05760000  0.92680000  0.51620000  1.0 0.1315614601
H  H110  1  0.11430000  0.68800000  0.54990000  1.0 0.1383192186
H  H111  1  0.16040000  0.76130000  0.60400000  1.0 0.1085364658
H  H112  1  0.06360000  0.34850000  0.47700000  1.0 0.1085364658
H  H113  1  0.06940000  0.49960000  0.49320000  1.0 0.1383192186
H  H114  1  0.97420000  0.54970000  0.39380000  1.0 0.1383192186
H  H115  1  0.97150000  0.39800000  0.38030000  1.0 0.1085364658
H  H116  1  0.90980000  0.01670000  0.40090000  1.0 0.1085364658
H  H117  1  0.97140000  0.94630000  0.43740000  1.0 0.1315614601
H  H118  1  0.90940000  0.70880000  0.41590000  1.0 0.1315614601
H  H119  1  0.84900000  0.78600000  0.38220000  1.0 0.1023633288
H  H120  1  0.05800000  0.07680000  0.39200000  1.0 0.1085364658
H  H121  1  0.10830000  0.04330000  0.35900000  1.0 0.1383192186
H  H122  1  0.11340000  0.30700000  0.33333333  1.0 0.1383192186
H  H123  1  0.06430000  0.33370000  0.36870000  1.0 0.1085364658
H  H124  1  0.25960000  0.84840000  0.40460000  1.0 0.1023633288
H  H125  1  0.21540000  0.96900000  0.38270000  1.0 0.1383192186
H  H126  1  0.25160000  0.96690000  0.28020000  1.0 0.1383192186
H  H127  1  0.29310000  0.84220000  0.30430000  1.0 0.1085364658
H  H128  1  0.13810000  0.37540000  0.17400000  1.0 0.1085364658
H  H129  1  0.12960000  0.29450000  0.22820000  1.0 0.1383192186
H  H130  1  0.24980000  0.20390000  0.24630000  1.0 0.1315614601
H  H131  1  0.25470000  0.28750000  0.19180000  1.0 0.1085364658
H  H132  1  0.41730000  0.69970000  0.40680000  1.0 0.1085364658
H  H133  1  0.47940000  0.77650000  0.43700000  1.0 0.1383192186
H  H134  1  0.41120000  0.00750000  0.42340000  1.0 0.1315614601
H  H135  1  0.35100000  0.92370000  0.39520000  1.0 0.1023633288
H  H136  1  0.62030000  0.72100000  0.56120000  1.0 0.1085364658
H  H137  1  0.56840000  0.79190000  0.51170000  1.0 0.1315614601
H  H138  1  0.61550000  0.03180000  0.55850000  1.0 0.1315614601
H  H139  1  0.66600000  0.95340000  0.60750000  1.0 0.1085364658
H  H140  1  0.46850000  0.33030000  0.39400000  1.0 0.1023633288
H  H141  1  0.46770000  0.18100000  0.41130000  1.0 0.1383192186
H  H142  1  0.57770000  0.22110000  0.49640000  1.0 0.1540619815
H  H143  1  0.55940000  0.63580000  0.37950000  1.0 0.1085364658
H  H144  1  0.60890000  0.65820000  0.34390000  1.0 0.1383192186
H  H145  1  0.62050000  0.38980000  0.33690000  1.0 0.1383192186
H  H146  1  0.57190000  0.37340000  0.37330000  1.0 0.1085364658
H  H147  1  0.74780000  0.38300000  0.18020000  1.0 0.1085364658
H  H148  1  0.74790000  0.47800000  0.23280000  1.0 0.1383192186
H  H149  1  0.64060000  0.35530000  0.24110000  1.0 0.1383192186
H  H150  1  0.64330000  0.26570000  0.18810000  1.0 0.1023633288
H  H151  1  0.80340000  0.81720000  0.28330000  1.0 0.1023633288
H  H152  1  0.76240000  0.68720000  0.26980000  1.0 0.1383192186
H  H153  1  0.71560000  0.74730000  0.36290000  1.0 0.1383192186
H  H154  1  0.75740000  0.87540000  0.37380000  1.0 0.1085364658
H  H155  1  0.61810000  0.18220000  0.06350000  1.0 0.1085364658
H  H156  1  0.56680000  0.24860000  0.01210000  1.0 0.1315614601
H  H157  1  0.61990000  0.48990000  0.04820000  1.0 0.1315614601
H  H158  1  0.66870000  0.41620000  0.10000000  1.0 0.1085364658
H  H159  1  0.57050000  0.82880000  0.97390000  1.0 0.1085364658
H  H160  1  0.57920000  0.67720000  0.98810000  1.0 0.1383192186
H  H161  1  0.47100000  0.63220000  0.90440000  1.0 0.1383192186
H  H162  1  0.46570000  0.78420000  0.89150000  1.0 0.1023633288
H  H163  1  0.35790000  0.38940000  0.87310000  1.0 0.1023633288
H  H164  1  0.41960000  0.46680000  0.90400000  1.0 0.1315614601
H  H165  1  0.47620000  0.22980000  0.93970000  1.0 0.1315614601
H  H166  1  0.41260000  0.15910000  0.90820000  1.0 0.1085364658
H  H167  1  0.75040000  0.88680000  0.69480000  1.0 0.1085364658
H  H168  1  0.74590000  0.97680000  0.74740000  1.0 0.1383192186
H  H169  1  0.62430000  0.89580000  0.72950000  1.0 0.1383192186
H  H170  1  0.63160000  0.81090000  0.67600000  1.0 0.1085364658
H  H171  1  0.79440000  0.33670000  0.80420000  1.0 0.1085364658
H  H172  1  0.74900000  0.21680000  0.78000000  1.0 0.1383192186
H  H173  1  0.71320000  0.22010000  0.88190000  1.0 0.1315614601
H  H174  1  0.75950000  0.33950000  0.90380000  1.0 0.1023633288
H  H175  1  0.54760000  0.86480000  0.85590000  1.0 0.1023633288
H  H176  1  0.59670000  0.89290000  0.82010000  1.0 0.1383192186
H  H177  1  0.62080000  0.13200000  0.87660000  1.0 0.1315614601
H  H178  1  0.57180000  0.09650000  0.91050000  1.0 0.1085364658
H  H179  1  0.91850000  0.48450000  0.90660000  1.0 0.1085364658
H  H180  1  0.98170000  0.41050000  0.93550000  1.0 0.1383192186
H  H181  1  0.91860000  0.17480000  0.91010000  1.0 0.1315614601
H  H182  1  0.85620000  0.25620000  0.88490000  1.0 0.1023633288
H  H183  1  0.11630000  0.45920000  0.07020000  1.0 0.1085364658
H  H184  1  0.06280000  0.39130000  0.02070000  1.0 0.1315614601
H  H185  1  0.12600000  0.15480000  0.04690000  1.0 0.1315614601
H  H186  1  0.17780000  0.22990000  0.09480000  1.0 0.1161519522
H  H187  1  0.98640000  0.85830000  0.88210000  1.0 0.1023633288
H  H188  1  0.98740000  0.01100000  0.89440000  1.0 0.1383192186
H  H189  1  0.07620000  0.96580000  0.99860000  1.0 0.1383192186
H  H190  1  0.07030000  0.81300000  0.98440000  1.0 0.1085364658
C  C1  1  0.92520000  0.07990000  0.11870000  1.0 0.0796693633
C  C2  1  0.89620000  0.06190000  0.13990000  1.0 -0.1411032693
C  C3  1  0.88019000  0.13270000  0.15738000  1.0 0.0796693633
C  C4  1  0.89430000  0.21950000  0.15270000  1.0 -0.1411032693
C  C5  1  0.92320000  0.23070000  0.13070000  1.0 0.0796693633
C  C6  1  0.73250000  0.84340000  0.14060000  1.0 0.0796693633
C  C7  1  0.75930000  0.91700000  0.14750000  1.0 -0.1411032693
C  C8  1  0.76524000  0.96370000  0.18288000  1.0 0.0796693633
C  C9  1  0.74410000  0.93540000  0.21033000  1.0 -0.1411032693
C  C10  1  0.71791000  0.86110000  0.20107000  1.0 0.0714107
C  C11  1  0.84090000  0.36680000  0.29300000  1.0 0.0796693633
C  C12  1  0.84130000  0.30920000  0.26240000  1.0 -0.1411032693
C  C13  1  0.81263000  0.23810000  0.25465000  1.0 0.0599849436
C  C14  1  0.78380000  0.23060000  0.27693000  1.0 -0.1411032693
C  C15  1  0.78500000  0.29330000  0.30686000  1.0 0.0796693633
C  C16  1  0.84796000  0.12010000  0.17944000  1.0 0.3698762522
C  C17  1  0.79305000  0.04390000  0.19023000  1.0 0.3776546271
C  C18  1  0.81475000  0.17280000  0.22331000  1.0 0.3776546271
C  C19  1  0.89280000  0.43070000  0.43400000  1.0 0.0796693633
C  C20  1  0.92140000  0.39150000  0.46610000  1.0 -0.1411032693
C  C21  1  0.91902000  0.30070000  0.47215000  1.0 0.0599849436
C  C22  1  0.88820000  0.25060000  0.44630000  1.0 -0.1411032693
C  C23  1  0.86080000  0.29510000  0.41423000  1.0 0.0887707198
C  C24  1  0.95480000  0.89010000  0.53987000  1.0 0.0796693633
C  C25  1  0.95130000  0.98020000  0.53000000  1.0 -0.1597892236
C  C26  1  0.97814000  0.04240000  0.55414000  1.0 0.0714107
C  C27  1  0.00720000  0.00970000  0.58848000  1.0 -0.1501426481
C  C28  1  0.00870000  0.91930000  0.59630000  1.0 0.0714107
C  C29  1  0.09010000  0.45340000  0.59592000  1.0 0.0796693633
C  C30  1  0.05310000  0.41200000  0.57467000  1.0 -0.1501426481
C  C31  1  0.05262000  0.31960000  0.57142000  1.0 0.0599849436
C  C32  1  0.08980000  0.27210000  0.58713000  1.0 -0.1501426481
C  C33  1  0.12550000  0.31860000  0.60718000  1.0 0.0887707198
C  C34  1  0.95138000  0.25740000  0.50549000  1.0 0.3698762522
C  C35  1  0.97788000  0.13840000  0.54382000  1.0 0.3625087896
C  C36  1  0.01346000  0.26910000  0.55183000  1.0 0.3698762522
C  C37  1  0.93040000  0.62390000  0.62010000  1.0 0.0796693633
C  C38  1  0.90080000  0.60350000  0.63980000  1.0 -0.1411032693
C  C39  1  0.88412000  0.67110000  0.65802000  1.0 0.0714107
C  C40  1  0.89750000  0.75870000  0.65480000  1.0 -0.1411032693
C  C41  1  0.92700000  0.77380000  0.63400000  1.0 0.0796693633
C  C42  1  0.74231000  0.37290000  0.62091000  1.0 0.0796693633
C  C43  1  0.76841000  0.44470000  0.63363000  1.0 -0.1411032693
C  C44  1  0.77086000  0.48160000  0.67085000  1.0 0.0714107
C  C45  1  0.74732000  0.44310000  0.69430000  1.0 -0.1411032693
C  C46  1  0.72242000  0.36990000  0.67962000  1.0 0.0599849436
C  C47  1  0.83910000  0.83980000  0.81100000  1.0 0.0887707198
C  C48  1  0.84440000  0.79170000  0.77880000  1.0 -0.1411032693
C  C49  1  0.81117000  0.73920000  0.75678000  1.0 0.0530096115
C  C50  1  0.77370000  0.73850000  0.76817000  1.0 -0.1411032693
C  C51  1  0.77100000  0.78840000  0.80066000  1.0 0.0796693633
C  C52  1  0.85183000  0.64970000  0.67892000  1.0 0.3625087896
C  C53  1  0.79824000  0.56120000  0.68476000  1.0 0.3776546271
C  C54  1  0.81679000  0.68300000  0.72405000  1.0 0.3776546271
C  C55  1  0.58380000  0.26260000  0.58930000  1.0 0.0796693633
C  C56  1  0.54666000  0.30790000  0.57170000  1.0 -0.1501426481
C  C57  1  0.54829000  0.40070000  0.56698000  1.0 0.0599849436
C  C58  1  0.58690000  0.44440000  0.57950000  1.0 -0.1411032693
C  C59  1  0.62250000  0.39390000  0.59630000  1.0 0.0796693633
C  C60  1  0.38100000  0.28470000  0.43920000  1.0 0.0796693633
C  C61  1  0.41200000  0.32630000  0.46880000  1.0 -0.1501426481
C  C62  1  0.41379000  0.41990000  0.46966000  1.0 0.0599849436
C  C63  1  0.38431000  0.46810000  0.44125000  1.0 -0.1411032693
C  C64  1  0.35420000  0.42070000  0.41215000  1.0 0.1023633288
C  C65  1  0.50900000  0.80770000  0.58490000  1.0 0.0714107
C  C66  1  0.50950000  0.71840000  0.57500000  1.0 -0.1696333802
C  C67  1  0.47660000  0.68360000  0.54500000  1.0 0.0796693633
C  C68  1  0.44500000  0.74200000  0.52490000  1.0 -0.1874016568
C  C69  1  0.44700000  0.83130000  0.53640000  1.0 0.0796693633
C  C70  1  0.51015000  0.45340000  0.54699000  1.0 0.3776546271
C  C71  1  0.44746000  0.46510000  0.50071000  1.0 0.3776546271
C  C72  1  0.47653000  0.58700000  0.53514000  1.0 0.3625087896
C  C73  1  0.42755000  0.08540000  0.62890000  1.0 0.0796693633
C  C74  1  0.39810000  0.09900000  0.65012000  1.0 -0.1320485836
C  C75  1  0.37901000  0.02620000  0.66263000  1.0 0.0796693633
C  C76  1  0.39120000  0.94130000  0.65410000  1.0 -0.1411032693
C  C77  1  0.42030000  0.93200000  0.63270000  1.0 0.0714107
C  C78  1  0.27440000  0.87800000  0.80720000  1.0 0.0796693633
C  C79  1  0.27410000  0.93500000  0.77600000  1.0 -0.1411032693
C  C80  1  0.30650000  0.92810000  0.75768000  1.0 0.0599849436
C  C81  1  0.33720000  0.86280000  0.77130000  1.0 -0.1411032693
C  C82  1  0.33520000  0.80930000  0.80260000  1.0 0.0796693633
C  C83  1  0.21470000  0.30260000  0.70042000  1.0 0.0714107
C  C84  1  0.23910000  0.22490000  0.70866000  1.0 -0.1411032693
C  C85  1  0.26574000  0.20280000  0.68518000  1.0 0.0796693633
C  C86  1  0.26670000  0.26030000  0.65380000  1.0 -0.1411032693
C  C87  1  0.24160000  0.33660000  0.64750000  1.0 0.0796693633
C  C88  1  0.34608000  0.03940000  0.68381000  1.0 0.3625087896
C  C89  1  0.31019000  0.99090000  0.72564000  1.0 0.3698762522
C  C90  1  0.29204000  0.12060000  0.69315000  1.0 0.3698762522
C  C91  1  0.38200000  0.74550000  0.93940000  1.0 0.0714107
C  C92  1  0.41230000  0.78440000  0.97030000  1.0 -0.1411032693
C  C93  1  0.41171000  0.87650000  0.97520000  1.0 0.0530096115
C  C94  1  0.38130000  0.92660000  0.94900000  1.0 -0.1320485836
C  C95  1  0.35230000  0.88180000  0.91830000  1.0 0.1023633288
C  C96  1  0.44990000  0.28800000  0.04110000  1.0 0.0714107
C  C97  1  0.44450000  0.19760000  0.03230000  1.0 -0.1597892236
C  C98  1  0.47380000  0.13840000  0.05320000  1.0 0.0796693633
C  C99  1  0.50750000  0.17150000  0.08120000  1.0 -0.1501426481
C  C100  1  0.51050000  0.26240000  0.08860000  1.0 0.0714107
C  C101  1  0.61750000  0.85660000  0.11350000  1.0 0.0796693633
C  C102  1  0.58080000  0.90310000  0.09510000  1.0 -0.1411032693
C  C103  1  0.54520000  0.85690000  0.07550000  1.0 0.0714107
C  C104  1  0.54770000  0.76420000  0.07410000  1.0 -0.1597892236
C  C105  1  0.58570000  0.72260000  0.09320000  1.0 0.0887707198
C  C106  1  0.44469000  0.91900000  0.00800000  1.0 0.3776546271
C  C107  1  0.47240000  0.03940000  0.04490000  1.0 0.3698762522
C  C108  1  0.50640000  0.90770000  0.05560000  1.0 0.3698762522
C  C109  1  0.27560000  0.38970000  0.29828000  1.0 0.0714107
C  C110  1  0.27790000  0.44270000  0.26678000  1.0 -0.1411032693
C  C111  1  0.31530000  0.44580000  0.25591000  1.0 0.0599849436
C  C112  1  0.34970000  0.39540000  0.27740000  1.0 -0.1320485836
C  C113  1  0.34500000  0.34490000  0.30910000  1.0 0.0796693633
C  C114  1  0.22190000  0.81180000  0.17970000  1.0 0.0796693633
C  C115  1  0.24890000  0.74040000  0.19429000  1.0 -0.1411032693
C  C116  1  0.27282000  0.70420000  0.17110000  1.0 0.0714107
C  C117  1  0.27000000  0.74230000  0.13430000  1.0 -0.1320485836
C  C118  1  0.24240000  0.81340000  0.12140000  1.0 0.0796693633
C  C119  1  0.43720000  0.41970000  0.13990000  1.0 0.0796693633
C  C120  1  0.40770000  0.43560000  0.16130000  1.0 -0.1411032693
C  C121  1  0.38510000  0.51480000  0.15470000  1.0 0.0714107
C  C122  1  0.39360000  0.57610000  0.12800000  1.0 -0.1411032693
C  C123  1  0.42300000  0.55470000  0.10820000  1.0 0.0714107
C  C124  1  0.32030000  0.50400000  0.22307000  1.0 0.3698762522
C  C125  1  0.30024000  0.62410000  0.18379000  1.0 0.3776546271
C  C126  1  0.35360000  0.53670000  0.17675000  1.0 0.3698762522
C  C127  1  0.08150000  0.92080000  0.09190000  1.0 0.0796693633
C  C128  1  0.04366000  0.87730000  0.07490000  1.0 -0.1501426481
C  C129  1  0.04332000  0.78450000  0.07335000  1.0 0.0599849436
C  C130  1  0.08090000  0.73840000  0.08950000  1.0 -0.1411032693
C  C131  1  0.11780000  0.78740000  0.10510000  1.0 0.0796693633
C  C132  1  0.88180000  0.89700000  0.93489000  1.0 0.0796693633
C  C133  1  0.91370000  0.85710000  0.96440000  1.0 -0.1411032693
C  C134  1  0.91083000  0.76640000  0.97191000  1.0 0.0530096115
C  C135  1  0.87640000  0.71740000  0.94909000  1.0 -0.1320485836
C  C136  1  0.84590000  0.76270000  0.92049000  1.0 0.0887707198
C  C137  1  0.99580000  0.38060000  0.09350000  1.0 0.0714107
C  C138  1  0.99520000  0.47170000  0.08660000  1.0 -0.1501426481
C  C139  1  0.96854000  0.50520000  0.05127000  1.0 0.0714107
C  C140  1  0.94320000  0.44520000  0.02518000  1.0 -0.1501426481
C  C141  1  0.94660000  0.35410000  0.03410000  1.0 0.0796693633
C  C142  1  0.00500000  0.73310000  0.05298000  1.0 0.3698762522
C  C143  1  0.94371000  0.72260000  0.00437000  1.0 0.3776546271
C  C144  1  0.96958000  0.60210000  0.04208000  1.0 0.3698762522
C  C145  1  0.07480000  0.57990000  0.88130000  1.0 0.0714107
C  C146  1  0.10380000  0.56190000  0.86010000  1.0 -0.1411032693
C  C147  1  0.11981000  0.63270000  0.84262000  1.0 0.0796693633
C  C148  1  0.10570000  0.71950000  0.84730000  1.0 -0.1411032693
C  C149  1  0.07680000  0.73070000  0.86930000  1.0 0.0796693633
C  C150  1  0.26750000  0.34340000  0.85940000  1.0 0.0796693633
C  C151  1  0.24070000  0.41700000  0.85250000  1.0 -0.1411032693
C  C152  1  0.23476000  0.46370000  0.81712000  1.0 0.0796693633
C  C153  1  0.25590000  0.43540000  0.78967000  1.0 -0.1411032693
C  C154  1  0.28209000  0.36110000  0.79893000  1.0 0.0714107
C  C155  1  0.15910000  0.86680000  0.70700000  1.0 0.0796693633
C  C156  1  0.15870000  0.80920000  0.73760000  1.0 -0.1411032693
C  C157  1  0.18737000  0.73810000  0.74535000  1.0 0.0599849436
C  C158  1  0.21620000  0.73060000  0.72307000  1.0 -0.1411032693
C  C159  1  0.21500000  0.79330000  0.69314000  1.0 0.0796693633
C  C160  1  0.15204000  0.62010000  0.82056000  1.0 0.3698762522
C  C161  1  0.20695000  0.54390000  0.80977000  1.0 0.3776546271
C  C162  1  0.18525000  0.67280000  0.77669000  1.0 0.3776546271
C  C163  1  0.10720000  0.93070000  0.56600000  1.0 0.0714107
C  C164  1  0.07860000  0.89150000  0.53390000  1.0 -0.1411032693
C  C165  1  0.08098000  0.80070000  0.52785000  1.0 0.0599849436
C  C166  1  0.11180000  0.75060000  0.55370000  1.0 -0.1411032693
C  C167  1  0.13920000  0.79510000  0.58577000  1.0 0.0887707198
C  C168  1  0.04520000  0.39010000  0.46013000  1.0 0.0796693633
C  C169  1  0.04870000  0.48020000  0.47000000  1.0 -0.1597892236
C  C170  1  0.02186000  0.54240000  0.44586000  1.0 0.0714107
C  C171  1  0.99280000  0.50970000  0.41152000  1.0 -0.1501426481
C  C172  1  0.99130000  0.41930000  0.40370000  1.0 0.0714107
C  C173  1  0.90990000  0.95340000  0.40408000  1.0 0.0796693633
C  C174  1  0.94690000  0.91200000  0.42533000  1.0 -0.1501426481
C  C175  1  0.94738000  0.81960000  0.42858000  1.0 0.0599849436
C  C176  1  0.91020000  0.77210000  0.41287000  1.0 -0.1501426481
C  C177  1  0.87450000  0.81860000  0.39282000  1.0 0.0887707198
C  C178  1  0.04862000  0.75740000  0.49451000  1.0 0.3698762522
C  C179  1  0.02212000  0.63840000  0.45618000  1.0 0.3625087896
C  C180  1  0.98654000  0.76910000  0.44817000  1.0 0.3698762522
C  C181  1  0.06960000  0.12390000  0.37990000  1.0 0.0796693633
C  C182  1  0.09920000  0.10350000  0.36020000  1.0 -0.1411032693
C  C183  1  0.11588000  0.17110000  0.34198000  1.0 0.0714107
C  C184  1  0.10250000  0.25870000  0.34520000  1.0 -0.1411032693
C  C185  1  0.07300000  0.27380000  0.36600000  1.0 0.0796693633
C  C186  1  0.25769000  0.87290000  0.37909000  1.0 0.0796693633
C  C187  1  0.23159000  0.94470000  0.36637000  1.0 -0.1411032693
C  C188  1  0.22914000  0.98160000  0.32915000  1.0 0.0714107
C  C189  1  0.25268000  0.94310000  0.30570000  1.0 -0.1411032693
C  C190  1  0.27758000  0.86990000  0.32038000  1.0 0.0599849436
C  C191  1  0.16090000  0.33980000  0.18900000  1.0 0.0887707198
C  C192  1  0.15560000  0.29170000  0.22120000  1.0 -0.1411032693
C  C193  1  0.18883000  0.23920000  0.24322000  1.0 0.0530096115
C  C194  1  0.22630000  0.23850000  0.23183000  1.0 -0.1411032693
C  C195  1  0.22900000  0.28840000  0.19934000  1.0 0.0796693633
C  C196  1  0.14817000  0.14970000  0.32108000  1.0 0.3625087896
C  C197  1  0.20176000  0.06120000  0.31524000  1.0 0.3776546271
C  C198  1  0.18321000  0.18300000  0.27595000  1.0 0.3776546271
C  C199  1  0.41620000  0.76260000  0.41070000  1.0 0.0796693633
C  C200  1  0.45334000  0.80790000  0.42830000  1.0 -0.1501426481
C  C201  1  0.45171000  0.90070000  0.43302000  1.0 0.0599849436
C  C202  1  0.41310000  0.94440000  0.42050000  1.0 -0.1411032693
C  C203  1  0.37750000  0.89390000  0.40370000  1.0 0.0796693633
C  C204  1  0.61900000  0.78470000  0.56080000  1.0 0.0796693633
C  C205  1  0.58800000  0.82630000  0.53120000  1.0 -0.1501426481
C  C206  1  0.58621000  0.91990000  0.53034000  1.0 0.0599849436
C  C207  1  0.61569000  0.96810000  0.55875000  1.0 -0.1411032693
C  C208  1  0.64580000  0.92070000  0.58785000  1.0 0.1023633288
C  C209  1  0.49100000  0.30770000  0.41510000  1.0 0.0714107
C  C210  1  0.49050000  0.21840000  0.42500000  1.0 -0.1696333802
C  C211  1  0.52340000  0.18360000  0.45500000  1.0 0.0796693633
C  C212  1  0.55500000  0.24200000  0.47510000  1.0 -0.1874016568
C  C213  1  0.55300000  0.33130000  0.46360000  1.0 0.0796693633
C  C214  1  0.48985000  0.95340000  0.45301000  1.0 0.3776546271
C  C215  1  0.55254000  0.96510000  0.49929000  1.0 0.3776546271
C  C216  1  0.52347000  0.08700000  0.46486000  1.0 0.3625087896
C  C217  1  0.57245000  0.58540000  0.37110000  1.0 0.0796693633
C  C218  1  0.60190000  0.59900000  0.34988000  1.0 -0.1320485836
C  C219  1  0.62099000  0.52620000  0.33737000  1.0 0.0796693633
C  C220  1  0.60880000  0.44130000  0.34590000  1.0 -0.1411032693
C  C221  1  0.57970000  0.43200000  0.36730000  1.0 0.0714107
C  C222  1  0.72560000  0.37800000  0.19280000  1.0 0.0796693633
C  C223  1  0.72590000  0.43500000  0.22400000  1.0 -0.1411032693
C  C224  1  0.69350000  0.42810000  0.24232000  1.0 0.0599849436
C  C225  1  0.66280000  0.36280000  0.22870000  1.0 -0.1411032693
C  C226  1  0.66480000  0.30930000  0.19740000  1.0 0.0796693633
C  C227  1  0.78530000  0.80260000  0.29958000  1.0 0.0714107
C  C228  1  0.76090000  0.72490000  0.29134000  1.0 -0.1411032693
C  C229  1  0.73426000  0.70280000  0.31482000  1.0 0.0796693633
C  C230  1  0.73330000  0.76030000  0.34620000  1.0 -0.1411032693
C  C231  1  0.75840000  0.83660000  0.35250000  1.0 0.0796693633
C  C232  1  0.65392000  0.53940000  0.31619000  1.0 0.3625087896
C  C233  1  0.68981000  0.49090000  0.27436000  1.0 0.3698762522
C  C234  1  0.70796000  0.62060000  0.30685000  1.0 0.3698762522
C  C235  1  0.61800000  0.24550000  0.06060000  1.0 0.0714107
C  C236  1  0.58770000  0.28440000  0.02970000  1.0 -0.1411032693
C  C237  1  0.58829000  0.37650000  0.02480000  1.0 0.0530096115
C  C238  1  0.61870000  0.42660000  0.05100000  1.0 -0.1320485836
C  C239  1  0.64770000  0.38180000  0.08170000  1.0 0.1023633288
C  C240  1  0.55010000  0.78800000  0.95890000  1.0 0.0714107
C  C241  1  0.55550000  0.69760000  0.96770000  1.0 -0.1597892236
C  C242  1  0.52620000  0.63840000  0.94680000  1.0 0.0796693633
C  C243  1  0.49250000  0.67150000  0.91880000  1.0 -0.1501426481
C  C244  1  0.48950000  0.76240000  0.91140000  1.0 0.0714107
C  C245  1  0.38250000  0.35660000  0.88650000  1.0 0.0796693633
C  C246  1  0.41920000  0.40310000  0.90490000  1.0 -0.1411032693
C  C247  1  0.45480000  0.35690000  0.92450000  1.0 0.0714107
C  C248  1  0.45230000  0.26420000  0.92590000  1.0 -0.1597892236
C  C249  1  0.41430000  0.22260000  0.90680000  1.0 0.0887707198
C  C250  1  0.55531000  0.41900000  0.99200000  1.0 0.3776546271
C  C251  1  0.52760000  0.53940000  0.95510000  1.0 0.3698762522
C  C252  1  0.49360000  0.40770000  0.94440000  1.0 0.3698762522
C  C253  1  0.72440000  0.88970000  0.70172000  1.0 0.0714107
C  C254  1  0.72210000  0.94270000  0.73322000  1.0 -0.1411032693
C  C255  1  0.68470000  0.94580000  0.74409000  1.0 0.0599849436
C  C256  1  0.65030000  0.89540000  0.72260000  1.0 -0.1320485836
C  C257  1  0.65500000  0.84490000  0.69090000  1.0 0.0796693633
C  C258  1  0.77810000  0.31180000  0.82030000  1.0 0.0796693633
C  C259  1  0.75110000  0.24040000  0.80571000  1.0 -0.1411032693
C  C260  1  0.72718000  0.20420000  0.82890000  1.0 0.0714107
C  C261  1  0.73000000  0.24230000  0.86570000  1.0 -0.1320485836
C  C262  1  0.75760000  0.31340000  0.87860000  1.0 0.0796693633
C  C263  1  0.56280000  0.91970000  0.86010000  1.0 0.0796693633
C  C264  1  0.59230000  0.93560000  0.83870000  1.0 -0.1411032693
C  C265  1  0.61490000  0.01480000  0.84530000  1.0 0.0796693633
C  C266  1  0.60640000  0.07610000  0.87200000  1.0 -0.1411032693
C  C267  1  0.57700000  0.05470000  0.89180000  1.0 0.0714107
C  C268  1  0.67970000  0.00400000  0.77693000  1.0 0.3698762522
C  C269  1  0.69976000  0.12410000  0.81621000  1.0 0.3776546271
C  C270  1  0.64640000  0.03670000  0.82325000  1.0 0.3698762522
C  C271  1  0.91850000  0.42080000  0.90810000  1.0 0.0796693633
C  C272  1  0.95634000  0.37730000  0.92510000  1.0 -0.1501426481
C  C273  1  0.95668000  0.28450000  0.92665000  1.0 0.0599849436
C  C274  1  0.91910000  0.23840000  0.91050000  1.0 -0.1411032693
C  C275  1  0.88220000  0.28740000  0.89490000  1.0 0.0796693633
C  C276  1  0.11820000  0.39700000  0.06511000  1.0 0.0796693633
C  C277  1  0.08630000  0.35710000  0.03560000  1.0 -0.1411032693
C  C278  1  0.08917000  0.26640000  0.02809000  1.0 0.0530096115
C  C279  1  0.12360000  0.21740000  0.05091000  1.0 -0.1320485836
C  C280  1  0.15410000  0.26270000  0.07951000  1.0 0.0887707198
C  C281  1  0.00420000  0.88060000  0.90650000  1.0 0.0714107
C  C282  1  0.00480000  0.97170000  0.91340000  1.0 -0.1501426481
C  C283  1  0.03146000  0.00520000  0.94873000  1.0 0.0714107
C  C284  1  0.05680000  0.94520000  0.97482000  1.0 -0.1501426481
C  C285  1  0.05340000  0.85410000  0.96590000  1.0 0.0796693633
C  C286  1  0.99500000  0.23310000  0.94702000  1.0 0.3698762522
C  C287  1  0.05629000  0.22260000  0.99563000  1.0 0.3776546271
C  C288  1  0.03042000  0.10210000  0.95792000  1.0 0.3698762522
I  I1  1  0.95545000  0.09320000  0.01740000  1.0 -0.4410957163
I  I2  1  0.05563000  0.17011000  0.12625000  1.0 -0.4307564935
I  I3  1  0.70751000  0.59971000  0.11492000  1.0 -0.4505574501
I  I4  1  0.64077000  0.67693000  0.21031000  1.0 -0.4238337294
I  I5  1  0.75273000  0.45414000  0.38468000  1.0 -0.4410957163
I  I6  1  0.85712000  0.58676000  0.34560000  1.0 -0.4595628681
I  I7  1  0.05991000  0.69625000  0.63906000  1.0 -0.4410957163
I  I8  1  0.96416000  0.62280000  0.52737000  1.0 -0.4505574501
I  I9  1  0.13893000  0.48899000  0.71087000  1.0 -0.4238337294
I  I10  1  0.21147000  0.58452000  0.62446000  1.0 -0.4410957163
I  I11  1  0.69150000  0.17503000  0.55607000  1.0 -0.4595628681
I  I12  1  0.67484000  0.12678000  0.67500000  1.0 -0.4307564935
I  I13  1  0.23792000  0.27169000  0.38531000  1.0 -0.4505574501
I  I14  1  0.34130000  0.11536000  0.35487000  1.0 -0.4595628681
I  I15  1  0.45232000  0.10174000  0.52803000  1.0 -0.4505574501
I  I16  1  0.55352000  0.02354000  0.63474000  1.0 -0.4307564935
I  I17  1  0.34016000  0.58679000  0.85442000  1.0 -0.4595628681
I  I18  1  0.23744000  0.74702000  0.88776000  1.0 -0.4505574501
I  I19  1  0.18092000  0.98331000  0.04942000  1.0 -0.4595628681
I  I20  1  0.17772000  0.06434000  0.17080000  1.0 -0.4238337294
I  I21  1  0.46468000  0.54997000  0.02095000  1.0 -0.4410957163
I  I22  1  0.56253000  0.47408000  0.13325000  1.0 -0.4307564935
I  I23  1  0.72938000  0.88750000  0.88499000  1.0 -0.4595628681
I  I24  1  0.82826000  0.06610000  0.85856000  1.0 -0.4595628681
I  I25  1  0.04455000  0.59320000  0.98260000  1.0 -0.4410957163
I  I26  1  0.94437000  0.67011000  0.87375000  1.0 -0.4307564935
I  I27  1  0.29249000  0.09971000  0.88508000  1.0 -0.4505574501
I  I28  1  0.35923000  0.17693000  0.78969000  1.0 -0.4238337294
I  I29  1  0.24727000  0.95414000  0.61532000  1.0 -0.4410957163
I  I30  1  0.14288000  0.08676000  0.65440000  1.0 -0.4595628681
I  I31  1  0.94009000  0.19625000  0.36094000  1.0 -0.4410957163
I  I32  1  0.03584000  0.12280000  0.47263000  1.0 -0.4505574501
I  I33  1  0.86107000  0.98899000  0.28913000  1.0 -0.4238337294
I  I34  1  0.78853000  0.08452000  0.37554000  1.0 -0.4410957163
I  I35  1  0.30850000  0.67503000  0.44393000  1.0 -0.4595628681
I  I36  1  0.32516000  0.62678000  0.32500000  1.0 -0.4307564935
I  I37  1  0.76208000  0.77169000  0.61469000  1.0 -0.4505574501
I  I38  1  0.65870000  0.61536000  0.64513000  1.0 -0.4595628681
I  I39  1  0.54768000  0.60174000  0.47197000  1.0 -0.4505574501
I  I40  1  0.44648000  0.52354000  0.36526000  1.0 -0.4307564935
I  I41  1  0.65984000  0.08679000  0.14558000  1.0 -0.4595628681
I  I42  1  0.76256000  0.24702000  0.11224000  1.0 -0.4505574501
I  I43  1  0.81908000  0.48331000  0.95058000  1.0 -0.4595628681
I  I44  1  0.82228000  0.56434000  0.82920000  1.0 -0.4307564935
I  I45  1  0.53532000  0.04997000  0.97905000  1.0 -0.4410957163
I  I46  1  0.43747000  0.97408000  0.86675000  1.0 -0.4238337294
I  I47  1  0.27062000  0.38750000  0.11501000  1.0 -0.4595628681
I  I48  1  0.17174000  0.56610000  0.14144000  1.0 -0.4595628681
N  N1  1  0.93839000  0.16370000  0.11394000  1.0 -0.1874016568
N  N2  1  0.71237000  0.81610000  0.16686000  1.0 -0.1874016568
N  N3  1  0.81339000  0.35990000  0.31472000  1.0 -0.1874016568
N  N4  1  0.82367000  0.04650000  0.17169000  1.0 -0.39848956
N  N5  1  0.78612000  0.10530000  0.21582000  1.0 -0.3914514707
N  N6  1  0.84553000  0.18350000  0.20570000  1.0 -0.39848956
N  N7  1  0.86300000  0.38280000  0.40811000  1.0 -0.1804301065
N  N8  1  0.98344000  0.85980000  0.57246000  1.0 -0.1874016568
N  N9  1  0.12608000  0.40710000  0.61238000  1.0 -0.1804301065
N  N10  1  0.94628000  0.17150000  0.51455000  1.0 -0.39848956
N  N11  1  0.01195000  0.18440000  0.56396000  1.0 -0.3914514707
N  N12  1  0.98436000  0.30930000  0.52327000  1.0 -0.3821352637
N  N13  1  0.94376000  0.70820000  0.61736000  1.0 -0.1804301065
N  N14  1  0.71937000  0.33590000  0.64294000  1.0 -0.1804301065
N  N15  1  0.80328000  0.83800000  0.82188000  1.0 -0.1804301065
N  N16  1  0.82897000  0.57580000  0.66706000  1.0 -0.3914514707
N  N17  1  0.79043000  0.61250000  0.71334000  1.0 -0.3821352637
N  N18  1  0.84770000  0.70430000  0.70788000  1.0 -0.39848956
N  N19  1  0.62143000  0.30470000  0.60109000  1.0 -0.1804301065
N  N20  1  0.35288000  0.33100000  0.41098000  1.0 -0.1874016568
N  N21  1  0.47832000  0.86400000  0.56625000  1.0 -0.1874016568
N  N22  1  0.47936000  0.41140000  0.51998000  1.0 -0.3914514707
N  N23  1  0.44434000  0.55290000  0.50647000  1.0 -0.3821352637
N  N24  1  0.50992000  0.54000000  0.55639000  1.0 -0.3914514707
N  N25  1  0.43815000  0.00270000  0.61987000  1.0 -0.1804301065
N  N26  1  0.30437000  0.81610000  0.82065000  1.0 -0.1874016568
N  N27  1  0.21590000  0.35770000  0.67015000  1.0 -0.1967610782
N  N28  1  0.34123000  0.97640000  0.70886000  1.0 -0.3914514707
N  N29  1  0.28311000  0.06040000  0.71783000  1.0 -0.3914514707
N  N30  1  0.32383000  0.11610000  0.67598000  1.0 -0.3914514707
N  N31  1  0.35251000  0.79390000  0.91323000  1.0 -0.1804301065
N  N32  1  0.48180000  0.32050000  0.06940000  1.0 -0.1804301065
N  N33  1  0.61944000  0.76740000  0.11306000  1.0 -0.1696333802
N  N34  1  0.44052000  0.00680000  0.01520000  1.0 -0.3914514707
N  N35  1  0.50489000  0.99240000  0.06661000  1.0 -0.3821352637
N  N36  1  0.47707000  0.86660000  0.02644000  1.0 -0.3914514707
N  N37  1  0.30868000  0.34180000  0.31965000  1.0 -0.1874016568
N  N38  1  0.21811000  0.84640000  0.14350000  1.0 -0.1804301065
N  N39  1  0.44498000  0.47790000  0.11398000  1.0 -0.1874016568
N  N40  1  0.29330000  0.57300000  0.21278000  1.0 -0.3821352637
N  N41  1  0.32924000  0.60890000  0.16445000  1.0 -0.3914514707
N  N42  1  0.35106000  0.48360000  0.20640000  1.0 -0.3914514707
N  N43  1  0.11789000  0.87690000  0.10637000  1.0 -0.1804301065
N  N44  1  0.84807000  0.85060000  0.91322000  1.0 -0.1804301065
N  N45  1  0.97259000  0.32250000  0.06756000  1.0 -0.1874016568
N  N46  1  0.97631000  0.77410000  0.02357000  1.0 -0.3914514707
N  N47  1  0.93895000  0.63600000  0.01201000  1.0 -0.3821352637
N  N48  1  0.00261000  0.64810000  0.06430000  1.0 -0.3914514707
N  N49  1  0.06161000  0.66370000  0.88606000  1.0 -0.1874016568
N  N50  1  0.28763000  0.31610000  0.83314000  1.0 -0.1874016568
N  N51  1  0.18661000  0.85990000  0.68528000  1.0 -0.1874016568
N  N52  1  0.17633000  0.54650000  0.82831000  1.0 -0.39848956
N  N53  1  0.21388000  0.60530000  0.78418000  1.0 -0.3914514707
N  N54  1  0.15447000  0.68350000  0.79430000  1.0 -0.39848956
N  N55  1  0.13700000  0.88280000  0.59189000  1.0 -0.1804301065
N  N56  1  0.01656000  0.35980000  0.42754000  1.0 -0.1874016568
N  N57  1  0.87392000  0.90710000  0.38762000  1.0 -0.1804301065
N  N58  1  0.05372000  0.67150000  0.48545000  1.0 -0.39848956
N  N59  1  0.98805000  0.68440000  0.43604000  1.0 -0.3914514707
N  N60  1  0.01564000  0.80930000  0.47673000  1.0 -0.3821352637
N  N61  1  0.05624000  0.20820000  0.38264000  1.0 -0.1804301065
N  N62  1  0.28063000  0.83590000  0.35706000  1.0 -0.1804301065
N  N63  1  0.19672000  0.33800000  0.17812000  1.0 -0.1804301065
N  N64  1  0.17103000  0.07580000  0.33294000  1.0 -0.3914514707
N  N65  1  0.20957000  0.11250000  0.28666000  1.0 -0.3821352637
N  N66  1  0.15230000  0.20430000  0.29212000  1.0 -0.39848956
N  N67  1  0.37857000  0.80470000  0.39891000  1.0 -0.1804301065
N  N68  1  0.64712000  0.83100000  0.58902000  1.0 -0.1874016568
N  N69  1  0.52168000  0.36400000  0.43375000  1.0 -0.1874016568
N  N70  1  0.52064000  0.91140000  0.48002000  1.0 -0.3914514707
N  N71  1  0.55566000  0.05290000  0.49353000  1.0 -0.3821352637
N  N72  1  0.49008000  0.04000000  0.44361000  1.0 -0.3914514707
N  N73  1  0.56185000  0.50270000  0.38013000  1.0 -0.1804301065
N  N74  1  0.69563000  0.31610000  0.17935000  1.0 -0.1874016568
N  N75  1  0.78410000  0.85770000  0.32985000  1.0 -0.1967610782
N  N76  1  0.65877000  0.47640000  0.29114000  1.0 -0.3914514707
N  N77  1  0.71689000  0.56040000  0.28217000  1.0 -0.3914514707
N  N78  1  0.67617000  0.61610000  0.32402000  1.0 -0.3914514707
N  N79  1  0.64749000  0.29390000  0.08677000  1.0 -0.1804301065
N  N80  1  0.51820000  0.82050000  0.93060000  1.0 -0.1804301065
N  N81  1  0.38056000  0.26740000  0.88694000  1.0 -0.1696333802
N  N82  1  0.55948000  0.50680000  0.98480000  1.0 -0.3914514707
N  N83  1  0.49511000  0.49240000  0.93339000  1.0 -0.3821352637
N  N84  1  0.52293000  0.36660000  0.97356000  1.0 -0.3914514707
N  N85  1  0.69132000  0.84180000  0.68035000  1.0 -0.1874016568
N  N86  1  0.78189000  0.34640000  0.85650000  1.0 -0.1804301065
N  N87  1  0.55502000  0.97790000  0.88602000  1.0 -0.1874016568
N  N88  1  0.70670000  0.07300000  0.78722000  1.0 -0.3821352637
N  N89  1  0.67076000  0.10890000  0.83555000  1.0 -0.3914514707
N  N90  1  0.64894000  0.98360000  0.79360000  1.0 -0.3914514707
N  N91  1  0.88211000  0.37690000  0.89363000  1.0 -0.1804301065
N  N92  1  0.15193000  0.35060000  0.08678000  1.0 -0.1804301065
N  N93  1  0.02741000  0.82250000  0.93244000  1.0 -0.1874016568
N  N94  1  0.02369000  0.27410000  0.97643000  1.0 -0.3914514707
N  N95  1  0.06105000  0.13600000  0.98799000  1.0 -0.3821352637
N  N96  1  0.99739000  0.14810000  0.93570000  1.0 -0.3914514707
