# DDEC6 charges by PACMAN v1.1 (https://github.com/mtap-research/PACMAN-charge/)
data_LABNEK_ASR_pacman
_symmetry_space_group_name_H-M   'P 1'
_cell_length_a   18.80330000
_cell_length_b   18.80330000
_cell_length_c   30.15350000
_cell_angle_alpha   81.13210000
_cell_angle_beta   98.86790000
_cell_angle_gamma   132.90100000
_symmetry_Int_Tables_number   1
_chemical_formula_structural   Zn4H82C75I14(N3O2)4
_chemical_formula_sum   'Zn16 H328 C300 I56 N48 O32'
_cell_volume   7698.44121906
_cell_formula_units_Z   4
loop_
 _symmetry_equiv_pos_site_id
 _symmetry_equiv_pos_as_xyz
  1  'x, y, z'
loop_
 _atom_site_type_symbol
 _atom_site_label
 _atom_site_symmetry_multiplicity
 _atom_site_fract_x
 _atom_site_fract_y
 _atom_site_fract_z
 _atom_site_occupancy
 _atom_site_charge
Zn  Zn1  1  0.77386000  0.03660000  0.94686000  1.0 0.3276446201
Zn  Zn2  1  0.96340000  0.22614000  0.44686000  1.0 0.3276446201
Zn  Zn3  1  0.31120000  0.96780000  0.76940000  1.0 0.3861177122
Zn  Zn4  1  0.03220000  0.68880000  0.26940000  1.0 0.3861177122
Zn  Zn5  1  0.45760000  0.29210000  0.59529000  1.0 0.2201205113
Zn  Zn6  1  0.70790000  0.54240000  0.09529000  1.0 0.2201205113
Zn  Zn7  1  0.31050000  0.95510000  0.77570000  1.0 0.3954631046
Zn  Zn8  1  0.04490000  0.68950000  0.27570000  1.0 0.3954631046
Zn  Zn9  1  0.03660000  0.77386000  0.55314000  1.0 0.3200018494
Zn  Zn10  1  0.22614000  0.96340000  0.05314000  1.0 0.3200018494
Zn  Zn11  1  0.96780000  0.31120000  0.73060000  1.0 0.3840771869
Zn  Zn12  1  0.68880000  0.03220000  0.23060000  1.0 0.3861177122
Zn  Zn13  1  0.29210000  0.45760000  0.90471000  1.0 0.2201205113
Zn  Zn14  1  0.54240000  0.70790000  0.40471000  1.0 0.2201205113
Zn  Zn15  1  0.95510000  0.31050000  0.72430000  1.0 0.3954631046
Zn  Zn16  1  0.68950000  0.04490000  0.22430000  1.0 0.3954631046
H  H1  1  0.20650000  0.09530000  0.24840000  1.0 0.1004556173
H  H2  1  0.09530000  0.20650000  0.25160000  1.0 0.1004556173
H  H3  1  0.46010000  0.40750000  0.20010000  1.0 0.0596203152
H  H4  1  0.40750000  0.46010000  0.29990000  1.0 0.0596203152
H  H5  1  0.43000000  0.47180000  0.13830000  1.0 0.0814509165
H  H6  1  0.47180000  0.43000000  0.36170000  1.0 0.0814509165
H  H7  1  0.18870000  0.14690000  0.18230000  1.0 0.0688081173
H  H8  1  0.14690000  0.18870000  0.31770000  1.0 0.0688081173
H  H9  1  0.67820000  0.55020000  0.27300000  1.0 0.0497350887
H  H10  1  0.55020000  0.67820000  0.22700000  1.0 0.0497350887
H  H11  1  0.56270000  0.47410000  0.27610000  1.0 0.0906700796
H  H12  1  0.47410000  0.56270000  0.22390000  1.0 0.0906700796
H  H13  1  0.63320000  0.51020000  0.32110000  1.0 0.0906700796
H  H14  1  0.51020000  0.63320000  0.17890000  1.0 0.0906700796
H  H15  1  0.81020000  0.43740000  0.38630000  1.0 0.1291372898
H  H16  1  0.43740000  0.81020000  0.11370000  1.0 0.1291372898
H  H17  1  0.72550000  0.32430000  0.40070000  1.0 0.1384553865
H  H18  1  0.32430000  0.72550000  0.09930000  1.0 0.1384553865
H  H19  1  0.74950000  0.35910000  0.34900000  1.0 0.1004556173
H  H20  1  0.35910000  0.74950000  0.15100000  1.0 0.1004556173
H  H21  1  0.56400000  0.11900000  0.46320000  1.0 0.1204526805
H  H22  1  0.11900000  0.56400000  0.03680000  1.0 0.1204526805
H  H23  1  0.46030000  0.06230000  0.43590000  1.0 0.0688081173
H  H24  1  0.06230000  0.46030000  0.06410000  1.0 0.0688081173
H  H25  1  0.55040000  0.09620000  0.41210000  1.0 0.1104076142
H  H26  1  0.09620000  0.55040000  0.08790000  1.0 0.1104076142
H  H27  1  0.26240000  0.97420000  0.42960000  1.0 0.037440021
H  H28  1  0.97420000  0.26240000  0.07040000  1.0 0.037440021
H  H29  1  0.34280000  0.08520000  0.44230000  1.0 0.0596203152
H  H30  1  0.08520000  0.34280000  0.05770000  1.0 0.0596203152
H  H31  1  0.25990000  0.05330000  0.40320000  1.0 0.0497350887
H  H32  1  0.05330000  0.25990000  0.09680000  1.0 0.0497350887
H  H33  1  0.31700000  0.49000000  0.04050000  1.0 0.0906700796
H  H34  1  0.49000000  0.31700000  0.45950000  1.0 0.0906700796
H  H35  1  0.35070000  0.51490000  0.09220000  1.0 0.0688081173
H  H36  1  0.51490000  0.35070000  0.40780000  1.0 0.0688081173
H  H37  1  0.40480000  0.49920000  0.06460000  1.0 0.0906700796
H  H38  1  0.49920000  0.40480000  0.43540000  1.0 0.0906700796
H  H39  1  0.01610000  0.07810000  0.09210000  1.0 0.1004556173
H  H40  1  0.07810000  0.01610000  0.40790000  1.0 0.1004556173
H  H41  1  0.08550000  0.06590000  0.12240000  1.0 0.0814509165
H  H42  1  0.06590000  0.08550000  0.37760000  1.0 0.0814509165
H  H43  1  0.04500000  0.10440000  0.14360000  1.0 0.0814509165
H  H44  1  0.10440000  0.04500000  0.35640000  1.0 0.0814509165
H  H45  1  0.63280000  0.43020000  0.24740000  1.0 0.1450939134
H  H46  1  0.43020000  0.63280000  0.25260000  1.0 0.1384553865
H  H47  1  0.72940000  0.53760000  0.26010000  1.0 0.0596203152
H  H48  1  0.53760000  0.72940000  0.23990000  1.0 0.0596203152
H  H49  1  0.75840000  0.48520000  0.32610000  1.0 0.0814509165
H  H50  1  0.48520000  0.75840000  0.17390000  1.0 0.0814509165
H  H51  1  0.72110000  0.40550000  0.29300000  1.0 0.0688081173
H  H52  1  0.40550000  0.72110000  0.20700000  1.0 0.0688081173
H  H53  1  0.65120000  0.33360000  0.36470000  1.0 0.1384553865
H  H54  1  0.33360000  0.65120000  0.13530000  1.0 0.1384553865
H  H55  1  0.56920000  0.29260000  0.32390000  1.0 0.1004556173
H  H56  1  0.29260000  0.56920000  0.17610000  1.0 0.1004556173
H  H57  1  0.53800000  0.34220000  0.38360000  1.0 0.0814509165
H  H58  1  0.34220000  0.53800000  0.11640000  1.0 0.0814509165
H  H59  1  0.63840000  0.45220000  0.37410000  1.0 0.0814509165
H  H60  1  0.45220000  0.63840000  0.12590000  1.0 0.0814509165
H  H61  1  0.48390000  0.34450000  0.30400000  1.0 0.0906700796
H  H62  1  0.34450000  0.48390000  0.19600000  1.0 0.0906700796
H  H63  1  0.49650000  0.41950000  0.33150000  1.0 0.0688081173
H  H64  1  0.41950000  0.49650000  0.16850000  1.0 0.0688081173
H  H65  1  0.57580000  0.49760000  0.26220000  1.0 0.0814509165
H  H66  1  0.49760000  0.57580000  0.23780000  1.0 0.0814509165
H  H67  1  0.65210000  0.55030000  0.30450000  1.0 0.0906700796
H  H68  1  0.55030000  0.65210000  0.19550000  1.0 0.0906700796
H  H69  1  0.38280000  0.30200000  0.14660000  1.0 0.0906700796
H  H70  1  0.30200000  0.38280000  0.35340000  1.0 0.0906700796
H  H71  1  0.30710000  0.31290000  0.15210000  1.0 0.0497350887
H  H72  1  0.31290000  0.30710000  0.34790000  1.0 0.0497350887
H  H73  1  0.26690000  0.13790000  0.14870000  1.0 0.0688081173
H  H74  1  0.13790000  0.26690000  0.35130000  1.0 0.0688081173
H  H75  1  0.20320000  0.16320000  0.12530000  1.0 0.1004556173
H  H76  1  0.16320000  0.20320000  0.37470000  1.0 0.1004556173
H  H77  1  0.11430000  0.04550000  0.18380000  1.0 0.0688081173
H  H78  1  0.04550000  0.11430000  0.31620000  1.0 0.0688081173
H  H79  1  0.15520000  0.14580000  0.19990000  1.0 0.0596203152
H  H80  1  0.14580000  0.15520000  0.30010000  1.0 0.0596203152
H  H81  1  0.21900000  0.04500000  0.23230000  1.0 0.0814509165
H  H82  1  0.04500000  0.21900000  0.26770000  1.0 0.0814509165
H  H83  1  0.20060000  0.09500000  0.26150000  1.0 0.1104076142
H  H84  1  0.09500000  0.20060000  0.23850000  1.0 0.1104076142
H  H85  1  0.36450000  0.20590000  0.26680000  1.0 0.1204526805
H  H86  1  0.20590000  0.36450000  0.23320000  1.0 0.1204526805
H  H87  1  0.37180000  0.18460000  0.21900000  1.0 0.0814509165
H  H88  1  0.18460000  0.37180000  0.28100000  1.0 0.0814509165
H  H89  1  0.42300000  0.34280000  0.21860000  1.0 0.0688081173
H  H90  1  0.34280000  0.42300000  0.28140000  1.0 0.0688081173
H  H91  1  0.31390000  0.28910000  0.22760000  1.0 0.0688081173
H  H92  1  0.28910000  0.31390000  0.27240000  1.0 0.0688081173
H  H93  1  0.42820000  0.07400000  0.43750000  1.0 0.0906700796
H  H94  1  0.07400000  0.42820000  0.06250000  1.0 0.0906700796
H  H95  1  0.32530000  0.01470000  0.45780000  1.0 0.037440021
H  H96  1  0.01470000  0.32530000  0.04220000  1.0 0.037440021
H  H97  1  0.24530000  0.92730000  0.39790000  1.0 0.0497350887
H  H98  1  0.92730000  0.24530000  0.10210000  1.0 0.0497350887
H  H99  1  0.34810000  0.97550000  0.38150000  1.0 0.1104076142
H  H100  1  0.97550000  0.34810000  0.11850000  1.0 0.1104076142
H  H101  1  0.36540000  0.11180000  0.34550000  1.0 0.1596616686
H  H102  1  0.11180000  0.36540000  0.15450000  1.0 0.1596616686
H  H103  1  0.27530000  0.01150000  0.32310000  1.0 0.1952023462
H  H104  1  0.01150000  0.27530000  0.17690000  1.0 0.1952023462
H  H105  1  0.16590000  0.99050000  0.36770000  1.0 0.1004556173
H  H106  1  0.99050000  0.16590000  0.13230000  1.0 0.1004556173
H  H107  1  0.22380000  0.09200000  0.33790000  1.0 0.1291372898
H  H108  1  0.09200000  0.22380000  0.16210000  1.0 0.1291372898
H  H109  1  0.28080000  0.16880000  0.40080000  1.0 0.2125951306
H  H110  1  0.16880000  0.28080000  0.09920000  1.0 0.2125951306
H  H111  1  0.22920000  0.06800000  0.43060000  1.0 0.0814509165
H  H112  1  0.06800000  0.22920000  0.06940000  1.0 0.0814509165
H  H113  1  0.40370000  0.18170000  0.44600000  1.0 0.0688081173
H  H114  1  0.18170000  0.40370000  0.05400000  1.0 0.0688081173
H  H115  1  0.41640000  0.18300000  0.39450000  1.0 0.0814509165
H  H116  1  0.18300000  0.41640000  0.10550000  1.0 0.0814509165
H  H117  1  0.79350000  0.90470000  0.75160000  1.0 0.1004556173
H  H118  1  0.90470000  0.79350000  0.74840000  1.0 0.1004556173
H  H119  1  0.53990000  0.59250000  0.79990000  1.0 0.0596203152
H  H120  1  0.59250000  0.53990000  0.70010000  1.0 0.0596203152
H  H121  1  0.57000000  0.52820000  0.86170000  1.0 0.0814509165
H  H122  1  0.52820000  0.57000000  0.63830000  1.0 0.0814509165
H  H123  1  0.81130000  0.85310000  0.81770000  1.0 0.0688081173
H  H124  1  0.85310000  0.81130000  0.68230000  1.0 0.0688081173
H  H125  1  0.32180000  0.44980000  0.72700000  1.0 0.0497350887
H  H126  1  0.44980000  0.32180000  0.77300000  1.0 0.0497350887
H  H127  1  0.43730000  0.52590000  0.72390000  1.0 0.0906700796
H  H128  1  0.52590000  0.43730000  0.77610000  1.0 0.0906700796
H  H129  1  0.36680000  0.48980000  0.67890000  1.0 0.0906700796
H  H130  1  0.48980000  0.36680000  0.82110000  1.0 0.0906700796
H  H131  1  0.18980000  0.56260000  0.61370000  1.0 0.1291372898
H  H132  1  0.56260000  0.18980000  0.88630000  1.0 0.1204526805
H  H133  1  0.27450000  0.67570000  0.59930000  1.0 0.1384553865
H  H134  1  0.67570000  0.27450000  0.90070000  1.0 0.1384553865
H  H135  1  0.25050000  0.64090000  0.65100000  1.0 0.1004556173
H  H136  1  0.64090000  0.25050000  0.84900000  1.0 0.1004556173
H  H137  1  0.43600000  0.88100000  0.53680000  1.0 0.1204526805
H  H138  1  0.88100000  0.43600000  0.96320000  1.0 0.1104076142
H  H139  1  0.53970000  0.93770000  0.56410000  1.0 0.0688081173
H  H140  1  0.93770000  0.53970000  0.93590000  1.0 0.0688081173
H  H141  1  0.44960000  0.90380000  0.58790000  1.0 0.1104076142
H  H142  1  0.90380000  0.44960000  0.91210000  1.0 0.1104076142
H  H143  1  0.73760000  0.02580000  0.57040000  1.0 0.037440021
H  H144  1  0.02580000  0.73760000  0.92960000  1.0 0.037440021
H  H145  1  0.65720000  0.91480000  0.55770000  1.0 0.0596203152
H  H146  1  0.91480000  0.65720000  0.94230000  1.0 0.0596203152
H  H147  1  0.74010000  0.94670000  0.59680000  1.0 0.0497350887
H  H148  1  0.94670000  0.74010000  0.90320000  1.0 0.0497350887
H  H149  1  0.68300000  0.51000000  0.95950000  1.0 0.0906700796
H  H150  1  0.51000000  0.68300000  0.54050000  1.0 0.0906700796
H  H151  1  0.64930000  0.48510000  0.90780000  1.0 0.0688081173
H  H152  1  0.48510000  0.64930000  0.59220000  1.0 0.0688081173
H  H153  1  0.59520000  0.50080000  0.93540000  1.0 0.0906700796
H  H154  1  0.50080000  0.59520000  0.56460000  1.0 0.0906700796
H  H155  1  0.98390000  0.92190000  0.90790000  1.0 0.1004556173
H  H156  1  0.92190000  0.98390000  0.59210000  1.0 0.1004556173
H  H157  1  0.91450000  0.93410000  0.87760000  1.0 0.0814509165
H  H158  1  0.93410000  0.91450000  0.62240000  1.0 0.0814509165
H  H159  1  0.95500000  0.89560000  0.85640000  1.0 0.0814509165
H  H160  1  0.89560000  0.95500000  0.64360000  1.0 0.0814509165
H  H161  1  0.36720000  0.56980000  0.75260000  1.0 0.1384553865
H  H162  1  0.56980000  0.36720000  0.74740000  1.0 0.1450939134
H  H163  1  0.27060000  0.46240000  0.73990000  1.0 0.0596203152
H  H164  1  0.46240000  0.27060000  0.76010000  1.0 0.0596203152
H  H165  1  0.24160000  0.51480000  0.67390000  1.0 0.0814509165
H  H166  1  0.51480000  0.24160000  0.82610000  1.0 0.0814509165
H  H167  1  0.27890000  0.59450000  0.70700000  1.0 0.0688081173
H  H168  1  0.59450000  0.27890000  0.79300000  1.0 0.0688081173
H  H169  1  0.34880000  0.66640000  0.63530000  1.0 0.1384553865
H  H170  1  0.66640000  0.34880000  0.86470000  1.0 0.1384553865
H  H171  1  0.43080000  0.70740000  0.67610000  1.0 0.1004556173
H  H172  1  0.70740000  0.43080000  0.82390000  1.0 0.1004556173
H  H173  1  0.46200000  0.65780000  0.61640000  1.0 0.0814509165
H  H174  1  0.65780000  0.46200000  0.88360000  1.0 0.0814509165
H  H175  1  0.36160000  0.54780000  0.62590000  1.0 0.0814509165
H  H176  1  0.54780000  0.36160000  0.87410000  1.0 0.0814509165
H  H177  1  0.51610000  0.65550000  0.69600000  1.0 0.0906700796
H  H178  1  0.65550000  0.51610000  0.80400000  1.0 0.0906700796
H  H179  1  0.50350000  0.58050000  0.66850000  1.0 0.0688081173
H  H180  1  0.58050000  0.50350000  0.83150000  1.0 0.0688081173
H  H181  1  0.42420000  0.50240000  0.73780000  1.0 0.0814509165
H  H182  1  0.50240000  0.42420000  0.76220000  1.0 0.0814509165
H  H183  1  0.34790000  0.44970000  0.69550000  1.0 0.0906700796
H  H184  1  0.44970000  0.34790000  0.80450000  1.0 0.0906700796
H  H185  1  0.61720000  0.69800000  0.85340000  1.0 0.0906700796
H  H186  1  0.69800000  0.61720000  0.64660000  1.0 0.0906700796
H  H187  1  0.69290000  0.68710000  0.84790000  1.0 0.0497350887
H  H188  1  0.68710000  0.69290000  0.65210000  1.0 0.0497350887
H  H189  1  0.73310000  0.86210000  0.85130000  1.0 0.0688081173
H  H190  1  0.86210000  0.73310000  0.64870000  1.0 0.0688081173
H  H191  1  0.79680000  0.83680000  0.87470000  1.0 0.1004556173
H  H192  1  0.83680000  0.79680000  0.62530000  1.0 0.1004556173
H  H193  1  0.88570000  0.95450000  0.81620000  1.0 0.0688081173
H  H194  1  0.95450000  0.88570000  0.68380000  1.0 0.0688081173
H  H195  1  0.84480000  0.85420000  0.80010000  1.0 0.0596203152
H  H196  1  0.85420000  0.84480000  0.69990000  1.0 0.0596203152
H  H197  1  0.78100000  0.95500000  0.76770000  1.0 0.0814509165
H  H198  1  0.95500000  0.78100000  0.73230000  1.0 0.0814509165
H  H199  1  0.79940000  0.90500000  0.73850000  1.0 0.1104076142
H  H200  1  0.90500000  0.79940000  0.76150000  1.0 0.1104076142
H  H201  1  0.63550000  0.79410000  0.73320000  1.0 0.1204526805
H  H202  1  0.79410000  0.63550000  0.76680000  1.0 0.1204526805
H  H203  1  0.62820000  0.81540000  0.78100000  1.0 0.0814509165
H  H204  1  0.81540000  0.62820000  0.71900000  1.0 0.0814509165
H  H205  1  0.57700000  0.65720000  0.78140000  1.0 0.0688081173
H  H206  1  0.65720000  0.57700000  0.71860000  1.0 0.0688081173
H  H207  1  0.68610000  0.71090000  0.77240000  1.0 0.0688081173
H  H208  1  0.71090000  0.68610000  0.72760000  1.0 0.0688081173
H  H209  1  0.57180000  0.92600000  0.56250000  1.0 0.0906700796
H  H210  1  0.92600000  0.57180000  0.93750000  1.0 0.0906700796
H  H211  1  0.67470000  0.98530000  0.54220000  1.0 0.037440021
H  H212  1  0.98530000  0.67470000  0.95780000  1.0 0.037440021
H  H213  1  0.75470000  0.07270000  0.60210000  1.0 0.0497350887
H  H214  1  0.07270000  0.75470000  0.89790000  1.0 0.0497350887
H  H215  1  0.65190000  0.02450000  0.61850000  1.0 0.1104076142
H  H216  1  0.02450000  0.65190000  0.88150000  1.0 0.1104076142
H  H217  1  0.63460000  0.88820000  0.65450000  1.0 0.1596616686
H  H218  1  0.88820000  0.63460000  0.84550000  1.0 0.1596616686
H  H219  1  0.72470000  0.98850000  0.67690000  1.0 0.1952023462
H  H220  1  0.98850000  0.72470000  0.82310000  1.0 0.1952023462
H  H221  1  0.83410000  0.00950000  0.63230000  1.0 0.1004556173
H  H222  1  0.00950000  0.83410000  0.86770000  1.0 0.1004556173
H  H223  1  0.77620000  0.90800000  0.66210000  1.0 0.1291372898
H  H224  1  0.90800000  0.77620000  0.83790000  1.0 0.1291372898
H  H225  1  0.71920000  0.83120000  0.59920000  1.0 0.2125951306
H  H226  1  0.83120000  0.71920000  0.90080000  1.0 0.2125951306
H  H227  1  0.77080000  0.93200000  0.56940000  1.0 0.0814509165
H  H228  1  0.93200000  0.77080000  0.93060000  1.0 0.0814509165
H  H229  1  0.59630000  0.81830000  0.55400000  1.0 0.0688081173
H  H230  1  0.81830000  0.59630000  0.94600000  1.0 0.0688081173
H  H231  1  0.58360000  0.81700000  0.60550000  1.0 0.0814509165
H  H232  1  0.81700000  0.58360000  0.89450000  1.0 0.0814509165
H  H233  1  0.67210000  0.05330000  0.86370000  1.0 0.0596203152
H  H234  1  0.94670000  0.32790000  0.36370000  1.0 0.0596203152
H  H235  1  0.91720000  0.25100000  0.93180000  1.0 0.0688081173
H  H236  1  0.74900000  0.08280000  0.43180000  1.0 0.0596203152
H  H237  1  0.69220000  0.17080000  0.81340000  1.0 0.1004556173
H  H238  1  0.82920000  0.30780000  0.31340000  1.0 0.1004556173
H  H239  1  0.94850000  0.37610000  0.88190000  1.0 0.1104076142
H  H240  1  0.62390000  0.05150000  0.38190000  1.0 0.1104076142
H  H241  1  0.09580000  0.61640000  0.83460000  1.0 0.1291372898
H  H242  1  0.38360000  0.90420000  0.33460000  1.0 0.1291372898
H  H243  1  0.97040000  0.66520000  0.72990000  1.0 0.1204526805
H  H244  1  0.33480000  0.02960000  0.22990000  1.0 0.1204526805
H  H245  1  0.61490000  0.22610000  0.72460000  1.0 0.1104076142
H  H246  1  0.77390000  0.38510000  0.22460000  1.0 0.1104076142
H  H247  1  0.77290000  0.51050000  0.68670000  1.0 0.1104076142
H  H248  1  0.48950000  0.22710000  0.18670000  1.0 0.1104076142
H  H249  1  0.23170000  0.77970000  0.83090000  1.0 0.0814509165
H  H250  1  0.22030000  0.76830000  0.33090000  1.0 0.0814509165
H  H251  1  0.11540000  0.82760000  0.72660000  1.0 0.0814509165
H  H252  1  0.17240000  0.88460000  0.22660000  1.0 0.0814509165
H  H253  1  0.50260000  0.18900000  0.66490000  1.0 0.0596203152
H  H254  1  0.81100000  0.49740000  0.16490000  1.0 0.0596203152
H  H255  1  0.64870000  0.46610000  0.63330000  1.0 0.0906700796
H  H256  1  0.53390000  0.35130000  0.13330000  1.0 0.0906700796
H  H257  1  0.42680000  0.10360000  0.84200000  1.0 0.0596203152
H  H258  1  0.89640000  0.57320000  0.34200000  1.0 0.0596203152
H  H259  1  0.15080000  0.92680000  0.81330000  1.0 0.1004556173
H  H260  1  0.07320000  0.84920000  0.31330000  1.0 0.1004556173
H  H261  1  0.41690000  0.17490000  0.89260000  1.0 0.1291372898
H  H262  1  0.82510000  0.58310000  0.39260000  1.0 0.1291372898
H  H263  1  0.13660000  0.00060000  0.86060000  1.0 0.1291372898
H  H264  1  0.99940000  0.86340000  0.36060000  1.0 0.1291372898
H  H265  1  0.51360000  0.30920000  0.97470000  1.0 0.1204526805
H  H266  1  0.69080000  0.48640000  0.47470000  1.0 0.1204526805
H  H267  1  0.36370000  0.35290000  0.02950000  1.0 0.1291372898
H  H268  1  0.64710000  0.63630000  0.52950000  1.0 0.1291372898
H  H269  1  0.04600000  0.11320000  0.88230000  1.0 0.1204526805
H  H270  1  0.88680000  0.95400000  0.38230000  1.0 0.1204526805
H  H271  1  0.09700000  0.14940000  0.01460000  1.0 0.1291372898
H  H272  1  0.85060000  0.90300000  0.51460000  1.0 0.1291372898
H  H273  1  0.64660000  0.42340000  0.02000000  1.0 0.0688081173
H  H274  1  0.57660000  0.35340000  0.52000000  1.0 0.0688081173
H  H275  1  0.50200000  0.46620000  0.07170000  1.0 0.0814509165
H  H276  1  0.53380000  0.49800000  0.57170000  1.0 0.0814509165
H  H277  1  0.89810000  0.06550000  0.88640000  1.0 0.0814509165
H  H278  1  0.93450000  0.10190000  0.38640000  1.0 0.0814509165
H  H279  1  0.94830000  0.10690000  0.01440000  1.0 0.0814509165
H  H280  1  0.89310000  0.05170000  0.51440000  1.0 0.0814509165
H  H281  1  0.05330000  0.67210000  0.63630000  1.0 0.0596203152
H  H282  1  0.32790000  0.94670000  0.13630000  1.0 0.0596203152
H  H283  1  0.25100000  0.91720000  0.56820000  1.0 0.0596203152
H  H284  1  0.08280000  0.74900000  0.06820000  1.0 0.0596203152
H  H285  1  0.17080000  0.69220000  0.68660000  1.0 0.1004556173
H  H286  1  0.30780000  0.82920000  0.18660000  1.0 0.1004556173
H  H287  1  0.37610000  0.94850000  0.61810000  1.0 0.1104076142
H  H288  1  0.05150000  0.62390000  0.11810000  1.0 0.1104076142
H  H289  1  0.61640000  0.09580000  0.66540000  1.0 0.1291372898
H  H290  1  0.90420000  0.38360000  0.16540000  1.0 0.1291372898
H  H291  1  0.66520000  0.97040000  0.77010000  1.0 0.1204526805
H  H292  1  0.02960000  0.33480000  0.27010000  1.0 0.1204526805
H  H293  1  0.22610000  0.61490000  0.77540000  1.0 0.1104076142
H  H294  1  0.38510000  0.77390000  0.27540000  1.0 0.1104076142
H  H295  1  0.51050000  0.77290000  0.81330000  1.0 0.1104076142
H  H296  1  0.22710000  0.48950000  0.31330000  1.0 0.1104076142
H  H297  1  0.77970000  0.23170000  0.66910000  1.0 0.0814509165
H  H298  1  0.76830000  0.22030000  0.16910000  1.0 0.0814509165
H  H299  1  0.82760000  0.11540000  0.77340000  1.0 0.0814509165
H  H300  1  0.88460000  0.17240000  0.27340000  1.0 0.0814509165
H  H301  1  0.18900000  0.50260000  0.83510000  1.0 0.0596203152
H  H302  1  0.49740000  0.81100000  0.33510000  1.0 0.0596203152
H  H303  1  0.46610000  0.64870000  0.86670000  1.0 0.0906700796
H  H304  1  0.35130000  0.53390000  0.36670000  1.0 0.0906700796
H  H305  1  0.10360000  0.42680000  0.65800000  1.0 0.0596203152
H  H306  1  0.57320000  0.89640000  0.15800000  1.0 0.0596203152
H  H307  1  0.92680000  0.15080000  0.68670000  1.0 0.1004556173
H  H308  1  0.84920000  0.07320000  0.18670000  1.0 0.1004556173
H  H309  1  0.17490000  0.41690000  0.60740000  1.0 0.1291372898
H  H310  1  0.58310000  0.82510000  0.10740000  1.0 0.1291372898
H  H311  1  0.00060000  0.13660000  0.63940000  1.0 0.1291372898
H  H312  1  0.86340000  0.99940000  0.13940000  1.0 0.1291372898
H  H313  1  0.30920000  0.51360000  0.52530000  1.0 0.1204526805
H  H314  1  0.48640000  0.69080000  0.02530000  1.0 0.1204526805
H  H315  1  0.35290000  0.36370000  0.47050000  1.0 0.1291372898
H  H316  1  0.63630000  0.64710000  0.97050000  1.0 0.1291372898
H  H317  1  0.11320000  0.04600000  0.61770000  1.0 0.1204526805
H  H318  1  0.95400000  0.88680000  0.11770000  1.0 0.1204526805
H  H319  1  0.14940000  0.09700000  0.48540000  1.0 0.1291372898
H  H320  1  0.90300000  0.85060000  0.98540000  1.0 0.1291372898
H  H321  1  0.42340000  0.64660000  0.48000000  1.0 0.0688081173
H  H322  1  0.35340000  0.57660000  0.98000000  1.0 0.0688081173
H  H323  1  0.46620000  0.50200000  0.42830000  1.0 0.0814509165
H  H324  1  0.49800000  0.53380000  0.92830000  1.0 0.0814509165
H  H325  1  0.06550000  0.89810000  0.61360000  1.0 0.0814509165
H  H326  1  0.10190000  0.93450000  0.11360000  1.0 0.0814509165
H  H327  1  0.10690000  0.94830000  0.48560000  1.0 0.0814509165
H  H328  1  0.05170000  0.89310000  0.98560000  1.0 0.0814509165
C  C1  1  0.34380000  0.22920000  0.24160000  1.0 0.037440021
C  C2  1  0.22920000  0.34380000  0.25840000  1.0 0.037440021
C  C3  1  0.27030000  0.13650000  0.26260000  1.0 -0.1771513543
C  C4  1  0.13650000  0.27030000  0.23740000  1.0 -0.1771513543
C  C5  1  0.28830000  0.10430000  0.30300000  1.0 -0.0198692707
C  C6  1  0.10430000  0.28830000  0.19700000  1.0 -0.0198692707
C  C7  1  0.39290000  0.17250000  0.32340000  1.0 -0.251257234
C  C8  1  0.17250000  0.39290000  0.17660000  1.0 -0.251257234
C  C9  1  0.45660000  0.26000000  0.29950000  1.0 -0.1281895263
C  C10  1  0.26000000  0.45660000  0.20050000  1.0 -0.1281895263
C  C11  1  0.55330000  0.33390000  0.31210000  1.0 0.0199653024
C  C12  1  0.33390000  0.55330000  0.18790000  1.0 0.0199653024
C  C13  1  0.58450000  0.30550000  0.35800000  1.0 -0.0198692707
C  C14  1  0.30550000  0.58450000  0.14200000  1.0 -0.0198692707
C  C15  1  0.52310000  0.22230000  0.37780000  1.0 -0.0725618496
C  C16  1  0.22230000  0.52310000  0.12220000  1.0 -0.0725618496
C  C17  1  0.42480000  0.14880000  0.36410000  1.0 -0.0585633172
C  C18  1  0.14880000  0.42480000  0.13590000  1.0 -0.0585633172
C  C19  1  0.32670000  0.26490000  0.20000000  1.0 -0.0084001339
C  C20  1  0.26490000  0.32670000  0.30000000  1.0 -0.0084001339
C  C21  1  0.39860000  0.36620000  0.18380000  1.0 -0.1185366388
C  C22  1  0.36620000  0.39860000  0.31620000  1.0 -0.1185366388
C  C23  1  0.38190000  0.40410000  0.14650000  1.0 -0.2290898618
C  C24  1  0.40410000  0.38190000  0.35350000  1.0 -0.2290898618
C  C25  1  0.29350000  0.34450000  0.11940000  1.0 -0.0036241084
C  C26  1  0.34450000  0.29350000  0.38060000  1.0 -0.0036241084
C  C27  1  0.22450000  0.24490000  0.13390000  1.0 0.0288108449
C  C28  1  0.24490000  0.22450000  0.36610000  1.0 0.0199653024
C  C29  1  0.24070000  0.21250000  0.17240000  1.0 -0.0532577673
C  C30  1  0.21250000  0.24070000  0.32760000  1.0 -0.0532577673
C  C31  1  0.62420000  0.49380000  0.29020000  1.0 -0.2116158264
C  C32  1  0.49380000  0.62420000  0.20980000  1.0 -0.2116158264
C  C33  1  0.74600000  0.37620000  0.37720000  1.0 -0.251257234
C  C34  1  0.37620000  0.74600000  0.12280000  1.0 -0.251257234
C  C35  1  0.53080000  0.11320000  0.43370000  1.0 -0.2403903486
C  C36  1  0.11320000  0.53080000  0.06630000  1.0 -0.2403903486
C  C37  1  0.30210000  0.04190000  0.41770000  1.0 -0.0532577673
C  C38  1  0.04190000  0.30210000  0.08230000  1.0 -0.0532577673
C  C39  1  0.34200000  0.47820000  0.06880000  1.0 -0.2871579199
C  C40  1  0.47820000  0.34200000  0.43120000  1.0 -0.2871579199
C  C41  1  0.06780000  0.10520000  0.11630000  1.0 -0.2783121085
C  C42  1  0.10520000  0.06780000  0.38370000  1.0 -0.2783121085
C  C43  1  0.67000000  0.47400000  0.27200000  1.0 0.0596203152
C  C44  1  0.47400000  0.67000000  0.22800000  1.0 0.0596203152
C  C45  1  0.70050000  0.43150000  0.30800000  1.0 -0.0899942427
C  C46  1  0.43150000  0.70050000  0.19200000  1.0 -0.0899942427
C  C47  1  0.62280000  0.35120000  0.34000000  1.0 0.037440021
C  C48  1  0.35120000  0.62280000  0.16000000  1.0 0.037440021
C  C49  1  0.58400000  0.39000000  0.36000000  1.0 -0.1099358478
C  C50  1  0.39000000  0.58400000  0.14000000  1.0 -0.1099358478
C  C51  1  0.53200000  0.40400000  0.32000000  1.0 -0.1099358478
C  C52  1  0.40400000  0.53200000  0.18000000  1.0 -0.1099358478
C  C53  1  0.60860000  0.48940000  0.28900000  1.0 -0.2116158264
C  C54  1  0.48940000  0.60860000  0.21100000  1.0 -0.2116158264
C  C55  1  0.32700000  0.27500000  0.16300000  1.0 -0.0294756247
C  C56  1  0.27500000  0.32700000  0.33700000  1.0 -0.0294756247
C  C57  1  0.24100000  0.16700000  0.15300000  1.0 -0.1281895263
C  C58  1  0.16700000  0.24100000  0.34700000  1.0 -0.1281895263
C  C59  1  0.17400000  0.11200000  0.19200000  1.0 -0.1771513543
C  C60  1  0.11200000  0.17400000  0.30800000  1.0 -0.1771513543
C  C61  1  0.22900000  0.10300000  0.23400000  1.0 -0.1185366388
C  C62  1  0.10300000  0.22900000  0.26600000  1.0 -0.1185366388
C  C63  1  0.33700000  0.19500000  0.23500000  1.0 0.0101502062
C  C64  1  0.19500000  0.33700000  0.26500000  1.0 0.0101502062
C  C65  1  0.35300000  0.28300000  0.21300000  1.0 -0.0366351202
C  C66  1  0.28300000  0.35300000  0.28700000  1.0 -0.0366351202
C  C67  1  0.36300000  0.05300000  0.43100000  1.0 -0.0585633172
C  C68  1  0.05300000  0.36300000  0.06900000  1.0 -0.0585633172
C  C69  1  0.31000000  0.99000000  0.39000000  1.0 0.0288108449
C  C70  1  0.99000000  0.31000000  0.11000000  1.0 0.0288108449
C  C71  1  0.30100000  0.04700000  0.35100000  1.0 0.0688081173
C  C72  1  0.04700000  0.30100000  0.14900000  1.0 0.0688081173
C  C73  1  0.23100000  0.05500000  0.36300000  1.0 -0.1505425337
C  C74  1  0.05500000  0.23100000  0.13700000  1.0 -0.1505425337
C  C75  1  0.27300000  0.11100000  0.40600000  1.0 -0.1692852183
C  C76  1  0.11100000  0.27300000  0.09400000  1.0 -0.1692852183
C  C77  1  0.37400000  0.14200000  0.42000000  1.0 -0.1384391084
C  C78  1  0.14200000  0.37400000  0.08000000  1.0 -0.1384391084
C  C79  1  0.65620000  0.77080000  0.75840000  1.0 0.037440021
C  C80  1  0.77080000  0.65620000  0.74160000  1.0 0.037440021
C  C81  1  0.72970000  0.86350000  0.73740000  1.0 -0.1771513543
C  C82  1  0.86350000  0.72970000  0.76260000  1.0 -0.1771513543
C  C83  1  0.71170000  0.89570000  0.69700000  1.0 -0.0198692707
C  C84  1  0.89570000  0.71170000  0.80300000  1.0 -0.0198692707
C  C85  1  0.60710000  0.82750000  0.67660000  1.0 -0.251257234
C  C86  1  0.82750000  0.60710000  0.82340000  1.0 -0.2559625997
C  C87  1  0.54340000  0.74000000  0.70050000  1.0 -0.1281895263
C  C88  1  0.74000000  0.54340000  0.79950000  1.0 -0.1281895263
C  C89  1  0.44670000  0.66610000  0.68790000  1.0 0.0199653024
C  C90  1  0.66610000  0.44670000  0.81210000  1.0 0.0199653024
C  C91  1  0.41550000  0.69450000  0.64200000  1.0 -0.0198692707
C  C92  1  0.69450000  0.41550000  0.85800000  1.0 -0.0198692707
C  C93  1  0.47690000  0.77770000  0.62220000  1.0 -0.0725618496
C  C94  1  0.77770000  0.47690000  0.87780000  1.0 -0.0725618496
C  C95  1  0.57520000  0.85120000  0.63590000  1.0 -0.0585633172
C  C96  1  0.85120000  0.57520000  0.86410000  1.0 -0.0585633172
C  C97  1  0.67330000  0.73510000  0.80000000  1.0 -0.0084001339
C  C98  1  0.73510000  0.67330000  0.70000000  1.0 -0.0084001339
C  C99  1  0.60140000  0.63380000  0.81620000  1.0 -0.1185366388
C  C100  1  0.63380000  0.60140000  0.68380000  1.0 -0.1185366388
C  C101  1  0.61810000  0.59590000  0.85350000  1.0 -0.2290898618
C  C102  1  0.59590000  0.61810000  0.64650000  1.0 -0.2290898618
C  C103  1  0.70650000  0.65550000  0.88060000  1.0 -0.0084001339
C  C104  1  0.65550000  0.70650000  0.61940000  1.0 -0.0036241084
C  C105  1  0.77550000  0.75510000  0.86610000  1.0 0.0199653024
C  C106  1  0.75510000  0.77550000  0.63390000  1.0 0.0199653024
C  C107  1  0.75930000  0.78750000  0.82760000  1.0 -0.0532577673
C  C108  1  0.78750000  0.75930000  0.67240000  1.0 -0.0532577673
C  C109  1  0.37580000  0.50620000  0.70980000  1.0 -0.2116158264
C  C110  1  0.50620000  0.37580000  0.79020000  1.0 -0.2116158264
C  C111  1  0.25400000  0.62380000  0.62280000  1.0 -0.251257234
C  C112  1  0.62380000  0.25400000  0.87720000  1.0 -0.251257234
C  C113  1  0.46920000  0.88680000  0.56630000  1.0 -0.2403903486
C  C114  1  0.88680000  0.46920000  0.93370000  1.0 -0.2403903486
C  C115  1  0.69790000  0.95810000  0.58230000  1.0 -0.0532577673
C  C116  1  0.95810000  0.69790000  0.91770000  1.0 -0.0532577673
C  C117  1  0.65800000  0.52180000  0.93120000  1.0 -0.2871579199
C  C118  1  0.52180000  0.65800000  0.56880000  1.0 -0.2871579199
C  C119  1  0.93220000  0.89480000  0.88370000  1.0 -0.2783121085
C  C120  1  0.89480000  0.93220000  0.61630000  1.0 -0.2783121085
C  C121  1  0.33000000  0.52600000  0.72800000  1.0 0.0596203152
C  C122  1  0.52600000  0.33000000  0.77200000  1.0 0.0596203152
C  C123  1  0.29950000  0.56850000  0.69200000  1.0 -0.0899942427
C  C124  1  0.56850000  0.29950000  0.80800000  1.0 -0.0899942427
C  C125  1  0.37720000  0.64880000  0.66000000  1.0 0.037440021
C  C126  1  0.64880000  0.37720000  0.84000000  1.0 0.037440021
C  C127  1  0.41600000  0.61000000  0.64000000  1.0 -0.1099358478
C  C128  1  0.61000000  0.41600000  0.86000000  1.0 -0.1099358478
C  C129  1  0.46800000  0.59600000  0.68000000  1.0 -0.1099358478
C  C130  1  0.59600000  0.46800000  0.82000000  1.0 -0.1099358478
C  C131  1  0.39140000  0.51060000  0.71100000  1.0 -0.2116158264
C  C132  1  0.51060000  0.39140000  0.78900000  1.0 -0.2116158264
C  C133  1  0.67300000  0.72500000  0.83700000  1.0 -0.0294756247
C  C134  1  0.72500000  0.67300000  0.66300000  1.0 -0.0294756247
C  C135  1  0.75900000  0.83300000  0.84700000  1.0 -0.1281895263
C  C136  1  0.83300000  0.75900000  0.65300000  1.0 -0.1281895263
C  C137  1  0.82600000  0.88800000  0.80800000  1.0 -0.1771513543
C  C138  1  0.88800000  0.82600000  0.69200000  1.0 -0.1771513543
C  C139  1  0.77100000  0.89700000  0.76600000  1.0 -0.1185366388
C  C140  1  0.89700000  0.77100000  0.73400000  1.0 -0.1185366388
C  C141  1  0.66300000  0.80500000  0.76500000  1.0 0.0101502062
C  C142  1  0.80500000  0.66300000  0.73500000  1.0 0.0101502062
C  C143  1  0.64700000  0.71700000  0.78700000  1.0 -0.0366351202
C  C144  1  0.71700000  0.64700000  0.71300000  1.0 -0.0366351202
C  C145  1  0.63700000  0.94700000  0.56900000  1.0 -0.0585633172
C  C146  1  0.94700000  0.63700000  0.93100000  1.0 -0.0585633172
C  C147  1  0.69000000  0.01000000  0.61000000  1.0 0.0288108449
C  C148  1  0.01000000  0.69000000  0.89000000  1.0 0.0199653024
C  C149  1  0.69900000  0.95300000  0.64900000  1.0 0.0688081173
C  C150  1  0.95300000  0.69900000  0.85100000  1.0 0.0688081173
C  C151  1  0.76900000  0.94500000  0.63700000  1.0 -0.1505425337
C  C152  1  0.94500000  0.76900000  0.86300000  1.0 -0.1505425337
C  C153  1  0.72700000  0.88900000  0.59400000  1.0 -0.1692852183
C  C154  1  0.88900000  0.72700000  0.90600000  1.0 -0.1692852183
C  C155  1  0.62600000  0.85800000  0.58000000  1.0 -0.1384391084
C  C156  1  0.85800000  0.62600000  0.92000000  1.0 -0.1384391084
C  C157  1  0.72880000  0.11980000  0.86730000  1.0 0.0497350887
C  C158  1  0.88020000  0.27120000  0.36730000  1.0 0.0497350887
C  C159  1  0.87200000  0.23500000  0.90690000  1.0 0.0596203152
C  C160  1  0.76500000  0.12800000  0.40690000  1.0 0.0596203152
C  C161  1  0.74040000  0.18920000  0.83710000  1.0 -0.1692852183
C  C162  1  0.81080000  0.25960000  0.33710000  1.0 -0.1692852183
C  C163  1  0.89090000  0.31030000  0.87750000  1.0 -0.1893612956
C  C164  1  0.68970000  0.10910000  0.37750000  1.0 -0.1893612956
C  C165  1  0.82360000  0.28680000  0.84180000  1.0 0.0497350887
C  C166  1  0.71320000  0.17640000  0.34180000  1.0 0.0497350887
C  C167  1  0.83580000  0.36060000  0.80970000  1.0 0.3200018494
C  C168  1  0.63940000  0.16420000  0.30970000  1.0 0.3200018494
C  C169  1  0.92390000  0.51710000  0.78470000  1.0 0.3276446201
C  C170  1  0.48290000  0.07610000  0.28470000  1.0 0.3276446201
C  C171  1  0.77950000  0.40030000  0.74920000  1.0 0.3200018494
C  C172  1  0.59970000  0.22050000  0.24920000  1.0 0.3200018494
C  C173  1  0.01700000  0.62280000  0.78320000  1.0 0.0596203152
C  C174  1  0.37720000  0.98300000  0.28320000  1.0 0.0596203152
C  C175  1  0.70480000  0.37180000  0.71240000  1.0 0.0596203152
C  C176  1  0.62820000  0.29520000  0.21240000  1.0 0.0596203152
C  C177  1  0.09720000  0.65880000  0.81230000  1.0 -0.1893612956
C  C178  1  0.34120000  0.90280000  0.31230000  1.0 -0.1893612956
C  C179  1  0.02390000  0.68670000  0.75090000  1.0 -0.2705538317
C  C180  1  0.31330000  0.97610000  0.25090000  1.0 -0.2705538317
C  C181  1  0.62460000  0.27680000  0.70540000  1.0 -0.1893612956
C  C182  1  0.72320000  0.37540000  0.20540000  1.0 -0.1893612956
C  C183  1  0.71620000  0.44380000  0.68370000  1.0 -0.2783121085
C  C184  1  0.55620000  0.28380000  0.18370000  1.0 -0.2705538317
C  C185  1  0.17850000  0.75550000  0.80930000  1.0 0.0041138048
C  C186  1  0.24450000  0.82150000  0.30930000  1.0 0.0041138048
C  C187  1  0.11070000  0.78350000  0.74920000  1.0 -0.0036241084
C  C188  1  0.21650000  0.88930000  0.24920000  1.0 -0.0036241084
C  C189  1  0.55760000  0.25540000  0.66990000  1.0 0.0688081173
C  C190  1  0.74460000  0.44240000  0.16990000  1.0 0.0688081173
C  C191  1  0.64400000  0.41680000  0.65090000  1.0 -0.0084001339
C  C192  1  0.58320000  0.35600000  0.15090000  1.0 -0.0084001339
C  C193  1  0.36550000  0.08370000  0.84430000  1.0 -0.0294756247
C  C194  1  0.91630000  0.63450000  0.34430000  1.0 -0.0294756247
C  C195  1  0.20810000  0.98290000  0.82730000  1.0 0.0101502062
C  C196  1  0.01710000  0.79190000  0.32730000  1.0 0.0101502062
C  C197  1  0.36040000  0.12620000  0.87490000  1.0 -0.1505425337
C  C198  1  0.87380000  0.63960000  0.37490000  1.0 -0.1505425337
C  C199  1  0.19910000  0.02490000  0.85660000  1.0 -0.1893612956
C  C200  1  0.97510000  0.80090000  0.35660000  1.0 -0.1771513543
C  C201  1  0.27730000  0.09970000  0.87980000  1.0 0.0497350887
C  C202  1  0.90030000  0.72270000  0.37980000  1.0 0.0497350887
C  C203  1  0.26670000  0.14050000  0.91430000  1.0 0.3276446201
C  C204  1  0.85950000  0.73330000  0.41430000  1.0 0.3276446201
C  C205  1  0.33590000  0.24250000  0.97000000  1.0 0.3435487405
C  C206  1  0.75750000  0.66410000  0.47000000  1.0 0.3435487405
C  C207  1  0.17760000  0.15320000  0.94720000  1.0 0.3700329021
C  C208  1  0.84680000  0.82240000  0.44720000  1.0 0.3700329021
C  C209  1  0.42200000  0.31740000  0.99800000  1.0 0.0288108449
C  C210  1  0.68260000  0.57800000  0.49800000  1.0 0.037440021
C  C211  1  0.08400000  0.12840000  0.94990000  1.0 0.0497350887
C  C212  1  0.87160000  0.91600000  0.44990000  1.0 0.0497350887
C  C213  1  0.50920000  0.34000000  0.99490000  1.0 -0.1771513543
C  C214  1  0.66000000  0.49080000  0.49490000  1.0 -0.1771513543
C  C215  1  0.42140000  0.36580000  0.02700000  1.0 -0.1692852183
C  C216  1  0.63420000  0.57860000  0.52700000  1.0 -0.1692852183
C  C217  1  0.02580000  0.10880000  0.91040000  1.0 -0.1692852183
C  C218  1  0.89120000  0.97420000  0.41040000  1.0 -0.1692852183
C  C219  1  0.05620000  0.13080000  0.98770000  1.0 -0.1692852183
C  C220  1  0.86920000  0.94380000  0.48770000  1.0 -0.1692852183
C  C221  1  0.58740000  0.40800000  0.02200000  1.0 0.0596203152
C  C222  1  0.59200000  0.41260000  0.52200000  1.0 0.0596203152
C  C223  1  0.50380000  0.43260000  0.05200000  1.0 0.0288108449
C  C224  1  0.56740000  0.49620000  0.55200000  1.0 0.0288108449
C  C225  1  0.93960000  0.08320000  0.91310000  1.0 0.0497350887
C  C226  1  0.91680000  0.06040000  0.41310000  1.0 0.0497350887
C  C227  1  0.96770000  0.10610000  0.98730000  1.0 -0.0198692707
C  C228  1  0.89390000  0.03230000  0.48730000  1.0 -0.0198692707
C  C229  1  0.11980000  0.72880000  0.63270000  1.0 0.0497350887
C  C230  1  0.27120000  0.88020000  0.13270000  1.0 0.0497350887
C  C231  1  0.23500000  0.87200000  0.59310000  1.0 0.0596203152
C  C232  1  0.12800000  0.76500000  0.09310000  1.0 0.0596203152
C  C233  1  0.18920000  0.74040000  0.66290000  1.0 -0.1692852183
C  C234  1  0.25960000  0.81080000  0.16290000  1.0 -0.1692852183
C  C235  1  0.31030000  0.89090000  0.62250000  1.0 -0.1893612956
C  C236  1  0.10910000  0.68970000  0.12250000  1.0 -0.1893612956
C  C237  1  0.28680000  0.82360000  0.65820000  1.0 0.0497350887
C  C238  1  0.17640000  0.71320000  0.15820000  1.0 0.0497350887
C  C239  1  0.36060000  0.83580000  0.69030000  1.0 0.3200018494
C  C240  1  0.16420000  0.63940000  0.19030000  1.0 0.3200018494
C  C241  1  0.51710000  0.92390000  0.71530000  1.0 0.3276446201
C  C242  1  0.07610000  0.48290000  0.21530000  1.0 0.3276446201
C  C243  1  0.40030000  0.77950000  0.75080000  1.0 0.3200018494
C  C244  1  0.22050000  0.59970000  0.25080000  1.0 0.3276446201
C  C245  1  0.62280000  0.01700000  0.71680000  1.0 0.0596203152
C  C246  1  0.98300000  0.37720000  0.21680000  1.0 0.0596203152
C  C247  1  0.37180000  0.70480000  0.78760000  1.0 0.0596203152
C  C248  1  0.29520000  0.62820000  0.28760000  1.0 0.0596203152
C  C249  1  0.65880000  0.09720000  0.68770000  1.0 -0.1893612956
C  C250  1  0.90280000  0.34120000  0.18770000  1.0 -0.1893612956
C  C251  1  0.68670000  0.02390000  0.74910000  1.0 -0.2705538317
C  C252  1  0.97610000  0.31330000  0.24910000  1.0 -0.2705538317
C  C253  1  0.27680000  0.62460000  0.79460000  1.0 -0.1893612956
C  C254  1  0.37540000  0.72320000  0.29460000  1.0 -0.1893612956
C  C255  1  0.44380000  0.71620000  0.81630000  1.0 -0.2783121085
C  C256  1  0.28380000  0.55620000  0.31630000  1.0 -0.2783121085
C  C257  1  0.75550000  0.17850000  0.69070000  1.0 0.0041138048
C  C258  1  0.82150000  0.24450000  0.19070000  1.0 0.0041138048
C  C259  1  0.78350000  0.11070000  0.75080000  1.0 -0.0036241084
C  C260  1  0.88930000  0.21650000  0.25080000  1.0 -0.0036241084
C  C261  1  0.25540000  0.55760000  0.83010000  1.0 0.0688081173
C  C262  1  0.44240000  0.74460000  0.33010000  1.0 0.0688081173
C  C263  1  0.41680000  0.64400000  0.84910000  1.0 -0.0084001339
C  C264  1  0.35600000  0.58320000  0.34910000  1.0 -0.0084001339
C  C265  1  0.08370000  0.36550000  0.65570000  1.0 -0.0294756247
C  C266  1  0.63450000  0.91630000  0.15570000  1.0 -0.0294756247
C  C267  1  0.98290000  0.20810000  0.67270000  1.0 0.0101502062
C  C268  1  0.79190000  0.01710000  0.17270000  1.0 0.0101502062
C  C269  1  0.12620000  0.36040000  0.62510000  1.0 -0.1505425337
C  C270  1  0.63960000  0.87380000  0.12510000  1.0 -0.1505425337
C  C271  1  0.02490000  0.19910000  0.64340000  1.0 -0.1893612956
C  C272  1  0.80090000  0.97510000  0.14340000  1.0 -0.1893612956
C  C273  1  0.09970000  0.27730000  0.62020000  1.0 0.0497350887
C  C274  1  0.72270000  0.90030000  0.12020000  1.0 0.0497350887
C  C275  1  0.14050000  0.26670000  0.58570000  1.0 0.3276446201
C  C276  1  0.73330000  0.85950000  0.08570000  1.0 0.3276446201
C  C277  1  0.24250000  0.33590000  0.53000000  1.0 0.3435487405
C  C278  1  0.66410000  0.75750000  0.03000000  1.0 0.3435487405
C  C279  1  0.15320000  0.17760000  0.55280000  1.0 0.3700329021
C  C280  1  0.82240000  0.84680000  0.05280000  1.0 0.3700329021
C  C281  1  0.31740000  0.42200000  0.50200000  1.0 0.0288108449
C  C282  1  0.57800000  0.68260000  0.00200000  1.0 0.0288108449
C  C283  1  0.12840000  0.08400000  0.55010000  1.0 0.0497350887
C  C284  1  0.91600000  0.87160000  0.05010000  1.0 0.0497350887
C  C285  1  0.34000000  0.50920000  0.50510000  1.0 -0.1771513543
C  C286  1  0.49080000  0.66000000  0.00510000  1.0 -0.1771513543
C  C287  1  0.36580000  0.42140000  0.47300000  1.0 -0.1692852183
C  C288  1  0.57860000  0.63420000  0.97300000  1.0 -0.1692852183
C  C289  1  0.10880000  0.02580000  0.58960000  1.0 -0.1692852183
C  C290  1  0.97420000  0.89120000  0.08960000  1.0 -0.1692852183
C  C291  1  0.13080000  0.05620000  0.51230000  1.0 -0.1692852183
C  C292  1  0.94380000  0.86920000  0.01230000  1.0 -0.1692852183
C  C293  1  0.40800000  0.58740000  0.47800000  1.0 0.0596203152
C  C294  1  0.41260000  0.59200000  0.97800000  1.0 0.0596203152
C  C295  1  0.43260000  0.50380000  0.44800000  1.0 0.0288108449
C  C296  1  0.49620000  0.56740000  0.94800000  1.0 0.0288108449
C  C297  1  0.08320000  0.93960000  0.58690000  1.0 0.0497350887
C  C298  1  0.06040000  0.91680000  0.08690000  1.0 0.0497350887
C  C299  1  0.10610000  0.96770000  0.51270000  1.0 -0.0198692707
C  C300  1  0.03230000  0.89390000  0.01270000  1.0 -0.0198692707
I  I1  1  0.67250000  0.88050000  0.89820000  1.0 0.0199653024
I  I2  1  0.11950000  0.32750000  0.39820000  1.0 0.0199653024
I  I3  1  0.73580000  0.03940000  0.01740000  1.0 -0.0799680421
I  I4  1  0.96060000  0.26420000  0.51740000  1.0 -0.0899942427
I  I5  1  0.28982000  0.02998000  0.69280000  1.0 -0.336320427
I  I6  1  0.97002000  0.71018000  0.19280000  1.0 -0.336320427
I  I7  1  0.46697000  0.00043000  0.79380000  1.0 0.0288108449
I  I8  1  0.99957000  0.53303000  0.29380000  1.0 0.0288108449
I  I9  1  0.37063000  0.32237000  0.63571000  1.0 0.037440021
I  I10  1  0.67763000  0.62937000  0.13571000  1.0 0.037440021
I  I11  1  0.38433000  0.14507000  0.55501000  1.0 0.037440021
I  I12  1  0.85493000  0.61567000  0.05501000  1.0 0.037440021
I  I13  1  0.65450000  0.88470000  0.91230000  1.0 0.0814509165
I  I14  1  0.11530000  0.34550000  0.41230000  1.0 0.0814509165
I  I15  1  0.76070000  0.07230000  0.02600000  1.0 0.0199653024
I  I16  1  0.92770000  0.23930000  0.52600000  1.0 0.0288108449
I  I17  1  0.45330000  0.97650000  0.80910000  1.0 0.0814509165
I  I18  1  0.02350000  0.54670000  0.30910000  1.0 0.0814509165
I  I19  1  0.29950000  0.02490000  0.69730000  1.0 -0.2559625997
I  I20  1  0.97510000  0.70050000  0.19730000  1.0 -0.2559625997
I  I21  1  0.35620000  0.29580000  0.62880000  1.0 0.0288108449
I  I22  1  0.70420000  0.64380000  0.12880000  1.0 0.0288108449
I  I23  1  0.41160000  0.14740000  0.55560000  1.0 0.0497350887
I  I24  1  0.85260000  0.58840000  0.05560000  1.0 0.0497350887
I  I25  1  0.63890000  0.87470000  0.92100000  1.0 0.0688081173
I  I26  1  0.12530000  0.36110000  0.42100000  1.0 0.0688081173
I  I27  1  0.78260000  0.09740000  0.02750000  1.0 0.0101502062
I  I28  1  0.90260000  0.21740000  0.52750000  1.0 0.0101502062
I  I29  1  0.88050000  0.67250000  0.60180000  1.0 0.0199653024
I  I30  1  0.32750000  0.11950000  0.10180000  1.0 0.0199653024
I  I31  1  0.03940000  0.73580000  0.48260000  1.0 -0.0799680421
I  I32  1  0.26420000  0.96060000  0.98260000  1.0 -0.0799680421
I  I33  1  0.02998000  0.28982000  0.80720000  1.0 -0.336320427
I  I34  1  0.71018000  0.97002000  0.30720000  1.0 -0.336320427
I  I35  1  0.00043000  0.46697000  0.70620000  1.0 0.037440021
I  I36  1  0.53303000  0.99957000  0.20620000  1.0 0.0288108449
I  I37  1  0.32237000  0.37063000  0.86429000  1.0 0.037440021
I  I38  1  0.62937000  0.67763000  0.36429000  1.0 0.037440021
I  I39  1  0.14507000  0.38433000  0.94499000  1.0 0.037440021
I  I40  1  0.61567000  0.85493000  0.44499000  1.0 0.037440021
I  I41  1  0.88470000  0.65450000  0.58770000  1.0 0.0814509165
I  I42  1  0.34550000  0.11530000  0.08770000  1.0 0.0814509165
I  I43  1  0.07230000  0.76070000  0.47400000  1.0 0.0288108449
I  I44  1  0.23930000  0.92770000  0.97400000  1.0 0.0288108449
I  I45  1  0.97650000  0.45330000  0.69090000  1.0 0.0814509165
I  I46  1  0.54670000  0.02350000  0.19090000  1.0 0.0814509165
I  I47  1  0.02490000  0.29950000  0.80270000  1.0 -0.251257234
I  I48  1  0.70050000  0.97510000  0.30270000  1.0 -0.2559625997
I  I49  1  0.29580000  0.35620000  0.87120000  1.0 0.0288108449
I  I50  1  0.64380000  0.70420000  0.37120000  1.0 0.0288108449
I  I51  1  0.14740000  0.41160000  0.94440000  1.0 0.0497350887
I  I52  1  0.58840000  0.85260000  0.44440000  1.0 0.0497350887
I  I53  1  0.87470000  0.63890000  0.57900000  1.0 0.0688081173
I  I54  1  0.36110000  0.12530000  0.07900000  1.0 0.0688081173
I  I55  1  0.09740000  0.78260000  0.47250000  1.0 0.0101502062
I  I56  1  0.21740000  0.90260000  0.97250000  1.0 0.0101502062
N  N1  1  0.90910000  0.08130000  0.95000000  1.0 -0.2403903486
N  N2  1  0.91870000  0.09090000  0.45000000  1.0 -0.2403903486
N  N3  1  0.79390000  0.14210000  0.90160000  1.0 -0.2290898618
N  N4  1  0.85790000  0.20610000  0.40160000  1.0 -0.2290898618
N  N5  1  0.91920000  0.45620000  0.81420000  1.0 -0.4399227805
N  N6  1  0.54380000  0.08080000  0.31420000  1.0 -0.4399227805
N  N7  1  0.76650000  0.33050000  0.77660000  1.0 -0.4318956405
N  N8  1  0.66950000  0.23350000  0.27660000  1.0 -0.4318956405
N  N9  1  0.85700000  0.49560000  0.75240000  1.0 -0.4399227805
N  N10  1  0.50440000  0.14300000  0.25240000  1.0 -0.4399227805
N  N11  1  0.18640000  0.81680000  0.77740000  1.0 -0.1893612956
N  N12  1  0.18320000  0.81360000  0.27740000  1.0 -0.1893612956
N  N13  1  0.56710000  0.32350000  0.64270000  1.0 -0.1985804036
N  N14  1  0.67650000  0.43290000  0.14270000  1.0 -0.1985804036
N  N15  1  0.29280000  0.01780000  0.81800000  1.0 -0.1893612956
N  N16  1  0.98220000  0.70720000  0.31800000  1.0 -0.1893612956
N  N17  1  0.54590000  0.41250000  0.55080000  1.0 -0.2116158264
N  N18  1  0.58750000  0.45410000  0.05080000  1.0 -0.2116158264
N  N19  1  0.34800000  0.20760000  0.93920000  1.0 -0.4645699307
N  N20  1  0.79240000  0.65200000  0.43920000  1.0 -0.4645699307
N  N21  1  0.17990000  0.11150000  0.91670000  1.0 -0.4063640281
N  N22  1  0.88850000  0.82010000  0.41670000  1.0 -0.4063640281
N  N23  1  0.25160000  0.21700000  0.97640000  1.0 -0.4661404088
N  N24  1  0.78300000  0.74840000  0.47640000  1.0 -0.4661404088
N  N25  1  0.08130000  0.90910000  0.55000000  1.0 -0.2403903486
N  N26  1  0.09090000  0.91870000  0.05000000  1.0 -0.2403903486
N  N27  1  0.14210000  0.79390000  0.59840000  1.0 -0.2290898618
N  N28  1  0.20610000  0.85790000  0.09840000  1.0 -0.2290898618
N  N29  1  0.45620000  0.91920000  0.68580000  1.0 -0.4399227805
N  N30  1  0.08080000  0.54380000  0.18580000  1.0 -0.4399227805
N  N31  1  0.33050000  0.76650000  0.72340000  1.0 -0.4318956405
N  N32  1  0.23350000  0.66950000  0.22340000  1.0 -0.4318956405
N  N33  1  0.49560000  0.85700000  0.74760000  1.0 -0.4399227805
N  N34  1  0.14300000  0.50440000  0.24760000  1.0 -0.4399227805
N  N35  1  0.81680000  0.18640000  0.72260000  1.0 -0.1893612956
N  N36  1  0.81360000  0.18320000  0.22260000  1.0 -0.1985804036
N  N37  1  0.32350000  0.56710000  0.85730000  1.0 -0.1985804036
N  N38  1  0.43290000  0.67650000  0.35730000  1.0 -0.1985804036
N  N39  1  0.01780000  0.29280000  0.68200000  1.0 -0.1893612956
N  N40  1  0.70720000  0.98220000  0.18200000  1.0 -0.1893612956
N  N41  1  0.41250000  0.54590000  0.94920000  1.0 -0.2116158264
N  N42  1  0.45410000  0.58750000  0.44920000  1.0 -0.2116158264
N  N43  1  0.20760000  0.34800000  0.56080000  1.0 -0.4645699307
N  N44  1  0.65200000  0.79240000  0.06080000  1.0 -0.4645699307
N  N45  1  0.11150000  0.17990000  0.58330000  1.0 -0.4063640281
N  N46  1  0.82010000  0.88850000  0.08330000  1.0 -0.4063640281
N  N47  1  0.21700000  0.25160000  0.52360000  1.0 -0.4661404088
N  N48  1  0.74840000  0.78300000  0.02360000  1.0 -0.4661404088
O  O1  1  0.43110000  0.28690000  0.26050000  1.0 -0.2290898618
O  O2  1  0.28690000  0.43110000  0.23950000  1.0 -0.2290898618
O  O3  1  0.22100000  0.02120000  0.32150000  1.0 -0.2403903486
O  O4  1  0.02120000  0.22100000  0.17850000  1.0 -0.2403903486
O  O5  1  0.61990000  0.41170000  0.29100000  1.0 -0.0198692707
O  O6  1  0.41170000  0.61990000  0.20900000  1.0 -0.0198692707
O  O7  1  0.68260000  0.38680000  0.37130000  1.0 -0.0725618496
O  O8  1  0.38680000  0.68260000  0.12870000  1.0 -0.0725618496
O  O9  1  0.55710000  0.20470000  0.41860000  1.0 -0.2705538317
O  O10  1  0.20470000  0.55710000  0.08140000  1.0 -0.2705538317
O  O11  1  0.36370000  0.06230000  0.38520000  1.0 -0.0585633172
O  O12  1  0.06230000  0.36370000  0.11480000  1.0 -0.0585633172
O  O13  1  0.27410000  0.37610000  0.08240000  1.0 -0.2705538317
O  O14  1  0.37610000  0.27410000  0.41760000  1.0 -0.2705538317
O  O15  1  0.14450000  0.19530000  0.10410000  1.0 -0.1985804036
O  O16  1  0.19530000  0.14450000  0.39590000  1.0 -0.1985804036
O  O17  1  0.56890000  0.71310000  0.73950000  1.0 -0.2290898618
O  O18  1  0.71310000  0.56890000  0.76050000  1.0 -0.2290898618
O  O19  1  0.77900000  0.97880000  0.67850000  1.0 -0.2403903486
O  O20  1  0.97880000  0.77900000  0.82150000  1.0 -0.2403903486
O  O21  1  0.38010000  0.58830000  0.70900000  1.0 -0.0198692707
O  O22  1  0.58830000  0.38010000  0.79100000  1.0 -0.0198692707
O  O23  1  0.31740000  0.61320000  0.62870000  1.0 -0.0725618496
O  O24  1  0.61320000  0.31740000  0.87130000  1.0 -0.0725618496
O  O25  1  0.44290000  0.79530000  0.58140000  1.0 -0.2705538317
O  O26  1  0.79530000  0.44290000  0.91860000  1.0 -0.2705538317
O  O27  1  0.63630000  0.93770000  0.61480000  1.0 -0.0585633172
O  O28  1  0.93770000  0.63630000  0.88520000  1.0 -0.0585633172
O  O29  1  0.72590000  0.62390000  0.91760000  1.0 -0.2705538317
O  O30  1  0.62390000  0.72590000  0.58240000  1.0 -0.2705538317
O  O31  1  0.85550000  0.80470000  0.89590000  1.0 -0.1985804036
O  O32  1  0.80470000  0.85550000  0.60410000  1.0 -0.1985804036
