# DDEC6 charges by PACMAN v1.1 (https://github.com/mtap-research/PACMAN-charge/)
data_LABNUA_FSR_pacman
_symmetry_space_group_name_H-M   'P 1'
_cell_length_a   19.81860000
_cell_length_b   19.81860000
_cell_length_c   30.69930000
_cell_angle_alpha   77.87640000
_cell_angle_beta   102.12400000
_cell_angle_gamma   136.47000000
_symmetry_Int_Tables_number   1
_chemical_formula_structural   Zn3H55C54I10N13
_chemical_formula_sum   'Zn12 H220 C216 I40 N52'
_cell_volume   8089.59389716
_cell_formula_units_Z   4
loop_
 _symmetry_equiv_pos_site_id
 _symmetry_equiv_pos_as_xyz
  1  'x, y, z'
loop_
 _atom_site_type_symbol
 _atom_site_label
 _atom_site_symmetry_multiplicity
 _atom_site_fract_x
 _atom_site_fract_y
 _atom_site_fract_z
 _atom_site_occupancy
 _atom_site_charge
Zn  Zn1  1  0.78132000  0.01938000  0.92624000  1.0 0.4720300364
Zn  Zn2  1  0.98062000  0.21868000  0.42624000  1.0 0.4720300364
Zn  Zn3  1  0.45069000  0.29577000  0.59806000  1.0 0.4083192649
Zn  Zn4  1  0.70423000  0.54931000  0.09806000  1.0 0.4083192649
Zn  Zn5  1  0.31249000  0.97331000  0.77594000  1.0 0.3028590607
Zn  Zn6  1  0.02669000  0.68751000  0.27594000  1.0 0.3028590607
Zn  Zn7  1  0.01938000  0.78132000  0.57376000  1.0 0.4720300364
Zn  Zn8  1  0.21868000  0.98062000  0.07376000  1.0 0.4720300364
Zn  Zn9  1  0.29577000  0.45069000  0.90194000  1.0 0.4083192649
Zn  Zn10  1  0.54931000  0.70423000  0.40194000  1.0 0.4083192649
Zn  Zn11  1  0.97331000  0.31249000  0.72406000  1.0 0.3028590607
Zn  Zn12  1  0.68751000  0.02669000  0.22406000  1.0 0.3028590607
H  H1  1  0.68530000  0.04150000  0.84210000  1.0 0.091066187
H  H2  1  0.95850000  0.31470000  0.34210000  1.0 0.091066187
H  H3  1  0.93230000  0.23790000  0.91440000  1.0 0.1000430288
H  H4  1  0.76210000  0.06770000  0.41440000  1.0 0.1000430288
H  H5  1  0.70370000  0.16230000  0.79720000  1.0 0.1000430288
H  H6  1  0.83770000  0.29630000  0.29720000  1.0 0.1000430288
H  H7  1  0.96060000  0.36660000  0.86980000  1.0 0.1292716992
H  H8  1  0.63340000  0.03940000  0.36980000  1.0 0.1292716992
H  H9  1  0.61700000  0.22060000  0.71440000  1.0 0.1110959434
H  H10  1  0.77940000  0.38300000  0.21440000  1.0 0.1110959434
H  H11  1  0.75450000  0.50410000  0.70040000  1.0 0.1196899981
H  H12  1  0.49590000  0.24550000  0.20040000  1.0 0.1292716992
H  H13  1  0.10600000  0.61420000  0.82950000  1.0 0.1292716992
H  H14  1  0.38580000  0.89400000  0.32950000  1.0 0.1292716992
H  H15  1  0.96490000  0.66610000  0.73830000  1.0 0.1292716992
H  H16  1  0.33390000  0.03510000  0.23830000  1.0 0.1292716992
H  H17  1  0.49770000  0.18550000  0.65850000  1.0 0.091066187
H  H18  1  0.81450000  0.50230000  0.15850000  1.0 0.091066187
H  H19  1  0.62800000  0.45920000  0.64710000  1.0 0.1000430288
H  H20  1  0.54080000  0.37200000  0.14710000  1.0 0.1000430288
H  H21  1  0.24470000  0.78290000  0.82620000  1.0 0.091066187
H  H22  1  0.21710000  0.75530000  0.32620000  1.0 0.091066187
H  H23  1  0.10560000  0.83200000  0.73820000  1.0 0.1000430288
H  H24  1  0.16800000  0.89440000  0.23820000  1.0 0.1000430288
H  H25  1  0.16010000  0.94490000  0.80630000  1.0 0.1916010345
H  H26  1  0.05510000  0.83990000  0.30630000  1.0 0.1916010345
H  H27  1  0.42990000  0.09310000  0.85700000  1.0 0.0691615854
H  H28  1  0.90690000  0.57010000  0.35700000  1.0 0.0691615854
H  H29  1  0.14320000  0.00920000  0.85270000  1.0 0.253574081
H  H30  1  0.99080000  0.85680000  0.35270000  1.0 0.253574081
H  H31  1  0.41970000  0.15830000  0.90620000  1.0 0.1457418777
H  H32  1  0.84170000  0.58030000  0.40620000  1.0 0.1457418777
H  H33  1  0.36170000  0.34430000  0.01930000  1.0 0.1394303101
H  H34  1  0.65570000  0.63830000  0.51930000  1.0 0.1394303101
H  H35  1  0.50930000  0.29010000  0.99100000  1.0 0.1292716992
H  H36  1  0.70990000  0.49070000  0.49100000  1.0 0.1292716992
H  H37  1  0.09950000  0.13790000  0.00340000  1.0 0.1292716992
H  H38  1  0.86210000  0.90050000  0.50340000  1.0 0.1292716992
H  H39  1  0.04320000  0.08100000  0.87470000  1.0 0.2567826661
H  H40  1  0.91900000  0.95680000  0.37470000  1.0 0.2567826661
H  H41  1  0.49890000  0.46270000  0.06500000  1.0 0.1000430288
H  H42  1  0.53730000  0.50110000  0.56500000  1.0 0.1000430288
H  H43  1  0.64320000  0.41280000  0.03650000  1.0 0.1110959434
H  H44  1  0.58720000  0.35680000  0.53650000  1.0 0.1110959434
H  H45  1  0.95230000  0.09270000  0.99670000  1.0 0.1000430288
H  H46  1  0.90730000  0.04770000  0.49670000  1.0 0.1000430288
H  H47  1  0.90180000  0.04400000  0.87180000  1.0 0.1292716992
H  H48  1  0.95600000  0.09820000  0.37180000  1.0 0.1292716992
H  H49  1  0.04150000  0.68530000  0.65790000  1.0 0.091066187
H  H50  1  0.31470000  0.95850000  0.15790000  1.0 0.091066187
H  H51  1  0.23790000  0.93230000  0.58560000  1.0 0.1000430288
H  H52  1  0.06770000  0.76210000  0.08560000  1.0 0.1000430288
H  H53  1  0.16230000  0.70370000  0.70280000  1.0 0.1000430288
H  H54  1  0.29630000  0.83770000  0.20280000  1.0 0.1000430288
H  H55  1  0.36660000  0.96060000  0.63020000  1.0 0.1292716992
H  H56  1  0.03940000  0.63340000  0.13020000  1.0 0.1292716992
H  H57  1  0.22060000  0.61700000  0.78560000  1.0 0.1110959434
H  H58  1  0.38300000  0.77940000  0.28560000  1.0 0.1110959434
H  H59  1  0.50410000  0.75450000  0.79960000  1.0 0.1196899981
H  H60  1  0.24550000  0.49590000  0.29960000  1.0 0.1196899981
H  H61  1  0.61420000  0.10600000  0.67050000  1.0 0.1292716992
H  H62  1  0.89400000  0.38580000  0.17050000  1.0 0.1292716992
H  H63  1  0.66610000  0.96490000  0.76170000  1.0 0.1292716992
H  H64  1  0.03510000  0.33390000  0.26170000  1.0 0.1292716992
H  H65  1  0.18550000  0.49770000  0.84150000  1.0 0.1000430288
H  H66  1  0.50230000  0.81450000  0.34150000  1.0 0.1000430288
H  H67  1  0.45920000  0.62800000  0.85290000  1.0 0.1000430288
H  H68  1  0.37200000  0.54080000  0.35290000  1.0 0.1000430288
H  H69  1  0.78290000  0.24470000  0.67380000  1.0 0.091066187
H  H70  1  0.75530000  0.21710000  0.17380000  1.0 0.091066187
H  H71  1  0.83200000  0.10560000  0.76180000  1.0 0.1000430288
H  H72  1  0.89440000  0.16800000  0.26180000  1.0 0.1000430288
H  H73  1  0.94490000  0.16010000  0.69370000  1.0 0.1916010345
H  H74  1  0.83990000  0.05510000  0.19370000  1.0 0.1916010345
H  H75  1  0.09310000  0.42990000  0.64300000  1.0 0.0691615854
H  H76  1  0.57010000  0.90690000  0.14300000  1.0 0.0691615854
H  H77  1  0.00920000  0.14320000  0.64730000  1.0 0.253574081
H  H78  1  0.85680000  0.99080000  0.14730000  1.0 0.253574081
H  H79  1  0.15830000  0.41970000  0.59380000  1.0 0.1457418777
H  H80  1  0.58030000  0.84170000  0.09380000  1.0 0.1394303101
H  H81  1  0.34430000  0.36170000  0.48070000  1.0 0.1394303101
H  H82  1  0.63830000  0.65570000  0.98070000  1.0 0.1394303101
H  H83  1  0.29010000  0.50930000  0.50900000  1.0 0.1292716992
H  H84  1  0.49070000  0.70990000  0.00900000  1.0 0.1292716992
H  H85  1  0.13790000  0.09950000  0.49660000  1.0 0.1292716992
H  H86  1  0.90050000  0.86210000  0.99660000  1.0 0.1292716992
H  H87  1  0.08100000  0.04320000  0.62530000  1.0 0.2567826661
H  H88  1  0.95680000  0.91900000  0.12530000  1.0 0.2567826661
H  H89  1  0.46270000  0.49890000  0.43500000  1.0 0.1000430288
H  H90  1  0.50110000  0.53730000  0.93500000  1.0 0.1000430288
H  H91  1  0.41280000  0.64320000  0.46350000  1.0 0.1110959434
H  H92  1  0.35680000  0.58720000  0.96350000  1.0 0.1110959434
H  H93  1  0.09270000  0.95230000  0.50330000  1.0 0.1000430288
H  H94  1  0.04770000  0.90730000  0.00330000  1.0 0.1000430288
H  H95  1  0.04400000  0.90180000  0.62820000  1.0 0.1292716992
H  H96  1  0.09820000  0.95600000  0.12820000  1.0 0.1292716992
H  H97  1  0.78530000  0.81410000  0.21620000  1.0 0.0518531437
H  H98  1  0.81410000  0.78530000  0.28380000  1.0 0.0518531437
H  H99  1  0.79550000  0.74290000  0.24330000  1.0 0.0786124194
H  H100  1  0.74290000  0.79550000  0.25670000  1.0 0.0786124194
H  H101  1  0.85940000  0.82900000  0.30930000  1.0 0.0691615854
H  H102  1  0.82900000  0.85940000  0.19070000  1.0 0.0691615854
H  H103  1  0.74990000  0.77950000  0.29320000  1.0 0.031202543
H  H104  1  0.77950000  0.74990000  0.20680000  1.0 0.031202543
H  H105  1  0.81970000  0.93570000  0.25280000  1.0 0.0586551286
H  H106  1  0.93570000  0.81970000  0.24720000  1.0 0.0586551286
H  H107  1  0.84920000  0.94540000  0.30560000  1.0 0.0586551286
H  H108  1  0.94540000  0.84920000  0.19440000  1.0 0.0586551286
H  H109  1  0.00440000  0.00700000  0.29570000  1.0 0.0691615854
H  H110  1  0.00700000  0.00440000  0.20430000  1.0 0.0691615854
H  H111  1  0.99410000  0.07750000  0.26720000  1.0 0.0786124194
H  H112  1  0.07750000  0.99410000  0.23280000  1.0 0.0786124194
H  H113  1  0.93950000  0.99690000  0.20150000  1.0 0.0405396419
H  H114  1  0.99690000  0.93950000  0.29850000  1.0 0.0405396419
H  H115  1  0.04540000  0.04020000  0.22080000  1.0 0.0691615854
H  H116  1  0.04020000  0.04540000  0.27920000  1.0 0.0691615854
H  H117  1  0.97060000  0.88180000  0.25520000  1.0 0.0405396419
H  H118  1  0.88180000  0.97060000  0.24480000  1.0 0.0405396419
H  H119  1  0.93800000  0.87540000  0.20250000  1.0 0.0586551286
H  H120  1  0.87540000  0.93800000  0.29750000  1.0 0.0586551286
H  H121  1  0.92180000  0.00540000  0.27800000  1.0 0.0518531437
H  H122  1  0.00540000  0.92180000  0.22200000  1.0 0.0518531437
H  H123  1  0.03910000  0.17670000  0.25920000  1.0 0.0691615854
H  H124  1  0.17670000  0.03910000  0.24080000  1.0 0.0691615854
H  H125  1  0.18670000  0.24770000  0.24140000  1.0 0.091066187
H  H126  1  0.24770000  0.18670000  0.25860000  1.0 0.091066187
H  H127  1  0.99640000  0.14480000  0.27070000  1.0 0.0786124194
H  H128  1  0.14480000  0.99640000  0.22930000  1.0 0.0786124194
H  H129  1  0.90620000  0.03420000  0.27730000  1.0 0.1000430288
H  H130  1  0.03420000  0.90620000  0.22270000  1.0 0.1000430288
H  H131  1  0.94480000  0.86060000  0.27130000  1.0 0.0586551286
H  H132  1  0.86060000  0.94480000  0.22870000  1.0 0.0586551286
H  H133  1  0.23530000  0.13050000  0.20270000  1.0 0.0691615854
H  H134  1  0.13050000  0.23530000  0.29730000  1.0 0.0691615854
H  H135  1  0.35660000  0.17220000  0.26190000  1.0 0.1110959434
H  H136  1  0.17220000  0.35660000  0.23810000  1.0 0.1110959434
H  H137  1  0.30390000  0.17250000  0.29480000  1.0 0.1292716992
H  H138  1  0.17250000  0.30390000  0.20520000  1.0 0.1292716992
H  H139  1  0.24890000  0.07210000  0.27580000  1.0 0.1000430288
H  H140  1  0.07210000  0.24890000  0.22420000  1.0 0.1000430288
H  H141  1  0.39060000  0.29460000  0.21180000  1.0 0.1196899981
H  H142  1  0.29460000  0.39060000  0.28820000  1.0 0.1196899981
H  H143  1  0.31070000  0.29330000  0.18610000  1.0 0.1292716992
H  H144  1  0.29330000  0.31070000  0.31390000  1.0 0.1292716992
H  H145  1  0.34380000  0.31280000  0.23790000  1.0 0.1000430288
H  H146  1  0.31280000  0.34380000  0.26210000  1.0 0.1000430288
H  H147  1  0.91540000  0.85780000  0.19910000  1.0 0.0586551286
H  H148  1  0.85780000  0.91540000  0.30090000  1.0 0.0586551286
H  H149  1  0.82910000  0.75730000  0.22650000  1.0 0.0691615854
H  H150  1  0.75730000  0.82910000  0.27350000  1.0 0.0691615854
H  H151  1  0.81730000  0.82870000  0.20270000  1.0 0.0405396419
H  H152  1  0.82870000  0.81730000  0.29730000  1.0 0.0405396419
H  H153  1  0.87510000  0.87450000  0.31370000  1.0 0.0586551286
H  H154  1  0.87450000  0.87510000  0.18630000  1.0 0.0586551286
H  H155  1  0.79050000  0.83790000  0.27420000  1.0 0.0518531437
H  H156  1  0.83790000  0.79050000  0.22580000  1.0 0.0518531437
H  H157  1  0.80230000  0.76650000  0.29800000  1.0 0.0691615854
H  H158  1  0.76650000  0.80230000  0.20200000  1.0 0.0691615854
H  H159  1  0.21470000  0.18590000  0.78380000  1.0 0.0586551286
H  H160  1  0.18590000  0.21470000  0.71620000  1.0 0.0586551286
H  H161  1  0.20450000  0.25710000  0.75670000  1.0 0.0786124194
H  H162  1  0.25710000  0.20450000  0.74330000  1.0 0.0786124194
H  H163  1  0.14060000  0.17100000  0.69070000  1.0 0.0691615854
H  H164  1  0.17100000  0.14060000  0.80930000  1.0 0.0691615854
H  H165  1  0.25010000  0.22050000  0.70680000  1.0 0.031202543
H  H166  1  0.22050000  0.25010000  0.79320000  1.0 0.031202543
H  H167  1  0.18030000  0.06430000  0.74720000  1.0 0.0586551286
H  H168  1  0.06430000  0.18030000  0.75280000  1.0 0.0586551286
H  H169  1  0.15080000  0.05460000  0.69440000  1.0 0.0518531437
H  H170  1  0.05460000  0.15080000  0.80560000  1.0 0.0518531437
H  H171  1  0.99560000  0.99300000  0.70430000  1.0 0.0691615854
H  H172  1  0.99300000  0.99560000  0.79570000  1.0 0.0691615854
H  H173  1  0.00590000  0.92250000  0.73280000  1.0 0.0786124194
H  H174  1  0.92250000  0.00590000  0.76720000  1.0 0.0786124194
H  H175  1  0.06050000  0.00310000  0.79850000  1.0 0.0405396419
H  H176  1  0.00310000  0.06050000  0.70150000  1.0 0.0405396419
H  H177  1  0.95460000  0.95980000  0.77920000  1.0 0.0691615854
H  H178  1  0.95980000  0.95460000  0.72080000  1.0 0.0691615854
H  H179  1  0.02940000  0.11820000  0.74480000  1.0 0.0405396419
H  H180  1  0.11820000  0.02940000  0.75520000  1.0 0.0405396419
H  H181  1  0.06200000  0.12460000  0.79750000  1.0 0.0586551286
H  H182  1  0.12460000  0.06200000  0.70250000  1.0 0.0586551286
H  H183  1  0.07820000  0.99460000  0.72200000  1.0 0.0518531437
H  H184  1  0.99460000  0.07820000  0.77800000  1.0 0.0518531437
H  H185  1  0.96090000  0.82330000  0.74080000  1.0 0.0691615854
H  H186  1  0.82330000  0.96090000  0.75920000  1.0 0.0691615854
H  H187  1  0.81330000  0.75230000  0.75860000  1.0 0.091066187
H  H188  1  0.75230000  0.81330000  0.74140000  1.0 0.091066187
H  H189  1  0.00360000  0.85520000  0.72930000  1.0 0.0786124194
H  H190  1  0.85520000  0.00360000  0.77070000  1.0 0.0786124194
H  H191  1  0.09380000  0.96580000  0.72270000  1.0 0.1000430288
H  H192  1  0.96580000  0.09380000  0.77730000  1.0 0.1000430288
H  H193  1  0.05520000  0.13940000  0.72870000  1.0 0.0691615854
H  H194  1  0.13940000  0.05520000  0.77130000  1.0 0.0691615854
H  H195  1  0.76470000  0.86950000  0.79730000  1.0 0.0691615854
H  H196  1  0.86950000  0.76470000  0.70270000  1.0 0.0691615854
H  H197  1  0.64340000  0.82780000  0.73810000  1.0 0.1110959434
H  H198  1  0.82780000  0.64340000  0.76190000  1.0 0.1110959434
H  H199  1  0.69610000  0.82750000  0.70520000  1.0 0.1292716992
H  H200  1  0.82750000  0.69610000  0.79480000  1.0 0.1292716992
H  H201  1  0.75110000  0.92790000  0.72420000  1.0 0.1000430288
H  H202  1  0.92790000  0.75110000  0.77580000  1.0 0.1000430288
H  H203  1  0.60940000  0.70540000  0.78820000  1.0 0.1196899981
H  H204  1  0.70540000  0.60940000  0.71180000  1.0 0.1196899981
H  H205  1  0.68930000  0.70670000  0.81390000  1.0 0.1292716992
H  H206  1  0.70670000  0.68930000  0.68610000  1.0 0.1292716992
H  H207  1  0.65620000  0.68720000  0.76210000  1.0 0.1000430288
H  H208  1  0.68720000  0.65620000  0.73790000  1.0 0.1000430288
H  H209  1  0.08460000  0.14220000  0.80090000  1.0 0.0586551286
H  H210  1  0.14220000  0.08460000  0.69910000  1.0 0.0586551286
H  H211  1  0.17090000  0.24270000  0.77350000  1.0 0.0691615854
H  H212  1  0.24270000  0.17090000  0.72650000  1.0 0.0691615854
H  H213  1  0.18270000  0.17130000  0.79730000  1.0 0.0405396419
H  H214  1  0.17130000  0.18270000  0.70270000  1.0 0.0405396419
H  H215  1  0.12490000  0.12550000  0.68630000  1.0 0.0586551286
H  H216  1  0.12550000  0.12490000  0.81370000  1.0 0.0586551286
H  H217  1  0.20950000  0.16210000  0.72580000  1.0 0.0518531437
H  H218  1  0.16210000  0.20950000  0.77420000  1.0 0.0518531437
H  H219  1  0.19770000  0.23350000  0.70200000  1.0 0.0691615854
H  H220  1  0.23350000  0.19770000  0.79800000  1.0 0.0691615854
C  C1  1  0.74110000  0.10830000  0.84800000  1.0 0.0586551286
C  C2  1  0.89170000  0.25890000  0.34800000  1.0 0.0586551286
C  C3  1  0.88570000  0.22310000  0.89020000  1.0 0.1000430288
C  C4  1  0.77690000  0.11430000  0.39020000  1.0 0.1000430288
C  C5  1  0.75190000  0.17970000  0.82110000  1.0 -0.1492430901
C  C6  1  0.82030000  0.24810000  0.32110000  1.0 -0.1492430901
C  C7  1  0.90290000  0.30030000  0.86380000  1.0 -0.1318382171
C  C8  1  0.69970000  0.09710000  0.36380000  1.0 -0.1318382171
C  C9  1  0.83419000  0.27821000  0.82910000  1.0 0.0518531437
C  C10  1  0.72179000  0.16581000  0.32910000  1.0 0.0518531437
C  C11  1  0.84580000  0.35560000  0.80040000  1.0 0.3628460581
C  C12  1  0.64440000  0.15420000  0.30040000  1.0 0.3628460581
C  C13  1  0.78060000  0.39560000  0.74630000  1.0 0.3628460581
C  C14  1  0.60440000  0.21940000  0.24630000  1.0 0.3628460581
C  C15  1  0.92940000  0.51420000  0.78130000  1.0 0.3505043166
C  C16  1  0.48580000  0.07060000  0.28130000  1.0 0.3505043166
C  C17  1  0.70023000  0.36697000  0.71240000  1.0 0.0405396419
C  C18  1  0.63303000  0.29977000  0.21240000  1.0 0.0405396419
C  C19  1  0.01931000  0.62149000  0.78390000  1.0 0.0518531437
C  C20  1  0.37851000  0.98069000  0.28390000  1.0 0.0518531437
C  C21  1  0.62180000  0.27120000  0.70030000  1.0 -0.159148135
C  C22  1  0.72880000  0.37820000  0.20030000  1.0 -0.159148135
C  C23  1  0.70260000  0.43840000  0.69240000  1.0 -0.1492430901
C  C24  1  0.56160000  0.29740000  0.19240000  1.0 -0.1492430901
C  C25  1  0.10440000  0.65740000  0.81040000  1.0 -0.159148135
C  C26  1  0.34260000  0.89560000  0.31040000  1.0 -0.159148135
C  C27  1  0.02183000  0.68857000  0.75680000  1.0 -0.159148135
C  C28  1  0.31143000  0.97817000  0.25680000  1.0 -0.159148135
C  C29  1  0.55050000  0.25070000  0.66730000  1.0 0.091066187
C  C30  1  0.74930000  0.44950000  0.16730000  1.0 0.091066187
C  C31  1  0.62770000  0.41110000  0.66050000  1.0 0.0786124194
C  C32  1  0.58890000  0.37230000  0.16050000  1.0 0.0786124194
C  C33  1  0.18660000  0.75820000  0.80800000  1.0 0.0786124194
C  C34  1  0.24180000  0.81340000  0.30800000  1.0 0.0786124194
C  C35  1  0.10570000  0.78710000  0.75660000  1.0 0.0112177592
C  C36  1  0.21290000  0.89430000  0.25660000  1.0 0.0112177592
C  C37  1  0.21500000  0.99160000  0.82590000  1.0 -0.0666855255
C  C38  1  0.00840000  0.78500000  0.32590000  1.0 -0.0666855255
C  C39  1  0.37130000  0.07730000  0.85560000  1.0 0.0691615854
C  C40  1  0.92270000  0.62870000  0.35560000  1.0 0.0691615854
C  C41  1  0.20340000  0.02820000  0.85410000  1.0 -0.211508177
C  C42  1  0.97180000  0.79660000  0.35410000  1.0 -0.211508177
C  C43  1  0.36570000  0.11590000  0.88520000  1.0 -0.1086118944
C  C44  1  0.88410000  0.63430000  0.38520000  1.0 -0.1086118944
C  C45  1  0.28070000  0.09250000  0.88400000  1.0 0.0405396419
C  C46  1  0.90750000  0.71930000  0.38400000  1.0 0.0405396419
C  C47  1  0.27170000  0.13430000  0.91450000  1.0 0.3406649488
C  C48  1  0.86570000  0.72830000  0.41450000  1.0 0.3336768823
C  C49  1  0.33620000  0.23000000  0.96980000  1.0 0.3717047351
C  C50  1  0.77000000  0.66380000  0.46980000  1.0 0.3717047351
C  C51  1  0.17854000  0.13866000  0.94190000  1.0 0.3406649488
C  C52  1  0.86134000  0.82146000  0.44190000  1.0 0.3406649488
C  C53  1  0.42160000  0.30560000  0.99980000  1.0 0.0691615854
C  C54  1  0.69440000  0.57840000  0.49980000  1.0 0.0691615854
C  C55  1  0.08699000  0.11241000  0.94000000  1.0 0.0586551286
C  C56  1  0.88759000  0.91301000  0.44000000  1.0 0.0586551286
C  C57  1  0.41880000  0.35720000  0.02240000  1.0 -0.1318382171
C  C58  1  0.64280000  0.58120000  0.52240000  1.0 -0.1318382171
C  C59  1  0.50590000  0.32550000  0.00560000  1.0 -0.1318382171
C  C60  1  0.67450000  0.49410000  0.50560000  1.0 -0.1318382171
C  C61  1  0.05930000  0.11710000  0.97600000  1.0 -0.1212385161
C  C62  1  0.88290000  0.94070000  0.47600000  1.0 -0.1086118944
C  C63  1  0.02670000  0.08450000  0.90050000  1.0 -0.1973566895
C  C64  1  0.91550000  0.97330000  0.40050000  1.0 -0.1973566895
C  C65  1  0.50060000  0.42740000  0.04940000  1.0 0.0691615854
C  C66  1  0.57260000  0.49940000  0.54940000  1.0 0.0691615854
C  C67  1  0.58490000  0.39790000  0.03300000  1.0 0.0786124194
C  C68  1  0.60210000  0.41510000  0.53300000  1.0 0.0786124194
C  C69  1  0.97170000  0.09110000  0.97150000  1.0 0.091066187
C  C70  1  0.90890000  0.02830000  0.47150000  1.0 0.091066187
C  C71  1  0.94210000  0.06210000  0.89920000  1.0 0.0112177592
C  C72  1  0.93790000  0.05790000  0.39920000  1.0 0.0112177592
C  C73  1  0.10830000  0.74110000  0.65200000  1.0 0.0586551286
C  C74  1  0.25890000  0.89170000  0.15200000  1.0 0.0586551286
C  C75  1  0.22310000  0.88570000  0.60980000  1.0 0.1000430288
C  C76  1  0.11430000  0.77690000  0.10980000  1.0 0.1000430288
C  C77  1  0.17970000  0.75190000  0.67890000  1.0 -0.1492430901
C  C78  1  0.24810000  0.82030000  0.17890000  1.0 -0.1492430901
C  C79  1  0.30030000  0.90290000  0.63620000  1.0 -0.1318382171
C  C80  1  0.09710000  0.69970000  0.13620000  1.0 -0.1318382171
C  C81  1  0.27821000  0.83419000  0.67090000  1.0 0.0518531437
C  C82  1  0.16581000  0.72179000  0.17090000  1.0 0.0518531437
C  C83  1  0.35560000  0.84580000  0.69960000  1.0 0.3628460581
C  C84  1  0.15420000  0.64440000  0.19960000  1.0 0.3628460581
C  C85  1  0.39560000  0.78060000  0.75370000  1.0 0.3628460581
C  C86  1  0.21940000  0.60440000  0.25370000  1.0 0.3628460581
C  C87  1  0.51420000  0.92940000  0.71870000  1.0 0.3505043166
C  C88  1  0.07060000  0.48580000  0.21870000  1.0 0.3505043166
C  C89  1  0.36697000  0.70023000  0.78760000  1.0 0.0405396419
C  C90  1  0.29977000  0.63303000  0.28760000  1.0 0.0405396419
C  C91  1  0.62149000  0.01931000  0.71610000  1.0 0.0518531437
C  C92  1  0.98069000  0.37851000  0.21610000  1.0 0.0518531437
C  C93  1  0.27120000  0.62180000  0.79970000  1.0 -0.159148135
C  C94  1  0.37820000  0.72880000  0.29970000  1.0 -0.159148135
C  C95  1  0.43840000  0.70260000  0.80760000  1.0 -0.1492430901
C  C96  1  0.29740000  0.56160000  0.30760000  1.0 -0.1492430901
C  C97  1  0.65740000  0.10440000  0.68960000  1.0 -0.159148135
C  C98  1  0.89560000  0.34260000  0.18960000  1.0 -0.159148135
C  C99  1  0.68857000  0.02183000  0.74320000  1.0 -0.159148135
C  C100  1  0.97817000  0.31143000  0.24320000  1.0 -0.159148135
C  C101  1  0.25070000  0.55050000  0.83270000  1.0 0.091066187
C  C102  1  0.44950000  0.74930000  0.33270000  1.0 0.091066187
C  C103  1  0.41110000  0.62770000  0.83950000  1.0 0.0786124194
C  C104  1  0.37230000  0.58890000  0.33950000  1.0 0.0786124194
C  C105  1  0.75820000  0.18660000  0.69200000  1.0 0.0786124194
C  C106  1  0.81340000  0.24180000  0.19200000  1.0 0.0786124194
C  C107  1  0.78710000  0.10570000  0.74340000  1.0 0.0112177592
C  C108  1  0.89430000  0.21290000  0.24340000  1.0 0.0185271686
C  C109  1  0.99160000  0.21500000  0.67410000  1.0 -0.0648018529
C  C110  1  0.78500000  0.00840000  0.17410000  1.0 -0.0648018529
C  C111  1  0.07730000  0.37130000  0.64440000  1.0 0.0691615854
C  C112  1  0.62870000  0.92270000  0.14440000  1.0 0.0691615854
C  C113  1  0.02820000  0.20340000  0.64590000  1.0 -0.211508177
C  C114  1  0.79660000  0.97180000  0.14590000  1.0 -0.211508177
C  C115  1  0.11590000  0.36570000  0.61480000  1.0 -0.1086118944
C  C116  1  0.63430000  0.88410000  0.11480000  1.0 -0.1086118944
C  C117  1  0.09250000  0.28070000  0.61600000  1.0 0.0405396419
C  C118  1  0.71930000  0.90750000  0.11600000  1.0 0.0405396419
C  C119  1  0.13430000  0.27170000  0.58550000  1.0 0.3336768823
C  C120  1  0.72830000  0.86570000  0.08550000  1.0 0.3336768823
C  C121  1  0.23000000  0.33620000  0.53020000  1.0 0.3717047351
C  C122  1  0.66380000  0.77000000  0.03020000  1.0 0.3717047351
C  C123  1  0.13866000  0.17854000  0.55810000  1.0 0.3406649488
C  C124  1  0.82146000  0.86134000  0.05810000  1.0 0.3406649488
C  C125  1  0.30560000  0.42160000  0.50020000  1.0 0.0691615854
C  C126  1  0.57840000  0.69440000  0.00020000  1.0 0.0691615854
C  C127  1  0.11241000  0.08699000  0.56000000  1.0 0.0586551286
C  C128  1  0.91301000  0.88759000  0.06000000  1.0 0.0586551286
C  C129  1  0.35720000  0.41880000  0.47760000  1.0 -0.1318382171
C  C130  1  0.58120000  0.64280000  0.97760000  1.0 -0.1318382171
C  C131  1  0.32550000  0.50590000  0.49440000  1.0 -0.1318382171
C  C132  1  0.49410000  0.67450000  0.99440000  1.0 -0.1318382171
C  C133  1  0.11710000  0.05930000  0.52400000  1.0 -0.1086118944
C  C134  1  0.94070000  0.88290000  0.02400000  1.0 -0.1086118944
C  C135  1  0.08450000  0.02670000  0.59950000  1.0 -0.1973566895
C  C136  1  0.97330000  0.91550000  0.09950000  1.0 -0.1973566895
C  C137  1  0.42740000  0.50060000  0.45060000  1.0 0.0691615854
C  C138  1  0.49940000  0.57260000  0.95060000  1.0 0.0691615854
C  C139  1  0.39790000  0.58490000  0.46700000  1.0 0.0786124194
C  C140  1  0.41510000  0.60210000  0.96700000  1.0 0.0786124194
C  C141  1  0.09110000  0.97170000  0.52850000  1.0 0.091066187
C  C142  1  0.02830000  0.90890000  0.02850000  1.0 0.091066187
C  C143  1  0.06210000  0.94210000  0.60080000  1.0 0.0048070916
C  C144  1  0.05790000  0.93790000  0.10080000  1.0 0.0112177592
C  C145  1  0.06830000  0.02570000  0.22700000  1.0 -0.0361391266
C  C146  1  0.02570000  0.06830000  0.27300000  1.0 -0.0361391266
C  C147  1  0.82400000  0.81000000  0.24080000  1.0 -0.0495622969
C  C148  1  0.81000000  0.82400000  0.25920000  1.0 -0.0495622969
C  C149  1  0.81800000  0.83000000  0.28500000  1.0 -0.1086118944
C  C150  1  0.83000000  0.81800000  0.21500000  1.0 -0.1086118944
C  C151  1  0.85720000  0.93280000  0.27900000  1.0 -0.1212385161
C  C152  1  0.93280000  0.85720000  0.22100000  1.0 -0.1212385161
C  C153  1  0.96700000  0.01100000  0.27000000  1.0 -0.0495622969
C  C154  1  0.01100000  0.96700000  0.23000000  1.0 -0.0495622969
C  C155  1  0.97500000  0.99100000  0.22700000  1.0 -0.0495622969
C  C156  1  0.99100000  0.97500000  0.27300000  1.0 -0.0495622969
C  C157  1  0.93270000  0.88730000  0.23100000  1.0 -0.0495622969
C  C158  1  0.88730000  0.93270000  0.26900000  1.0 -0.0495622969
C  C159  1  0.97950000  0.98250000  0.24330000  1.0 -0.0196079632
C  C160  1  0.98250000  0.97950000  0.25670000  1.0 -0.0196079632
C  C161  1  0.97500000  0.03700000  0.26100000  1.0 -0.0196079632
C  C162  1  0.03700000  0.97500000  0.23900000  1.0 -0.0282026154
C  C163  1  0.04840000  0.13760000  0.25500000  1.0 -0.0495622969
C  C164  1  0.13760000  0.04840000  0.24500000  1.0 -0.0495622969
C  C165  1  0.13400000  0.17800000  0.24300000  1.0 -0.0196079632
C  C166  1  0.17800000  0.13400000  0.25700000  1.0 -0.0196079632
C  C167  1  0.15170000  0.12430000  0.23300000  1.0 -0.0495622969
C  C168  1  0.12430000  0.15170000  0.26700000  1.0 -0.0495622969
C  C169  1  0.90480000  0.87320000  0.25570000  1.0 0.0185271686
C  C170  1  0.87320000  0.90480000  0.24430000  1.0 0.0185271686
C  C171  1  0.24660000  0.16340000  0.22800000  1.0 0.0185271686
C  C172  1  0.16340000  0.24660000  0.27200000  1.0 0.0185271686
C  C173  1  0.29310000  0.14290000  0.26900000  1.0 -0.4367003662
C  C174  1  0.14290000  0.29310000  0.23100000  1.0 -0.4367003662
C  C175  1  0.33100000  0.27700000  0.21500000  1.0 -0.4208752361
C  C176  1  0.27700000  0.33100000  0.28500000  1.0 -0.4208752361
C  C177  1  0.86390000  0.82610000  0.21850000  1.0 -0.1086118944
C  C178  1  0.82610000  0.86390000  0.28150000  1.0 -0.1086118944
C  C179  1  0.83740000  0.83460000  0.28800000  1.0 -0.0810539553
C  C180  1  0.83460000  0.83740000  0.21200000  1.0 -0.0810539553
C  C181  1  0.93170000  0.97430000  0.77300000  1.0 -0.0282026154
C  C182  1  0.97430000  0.93170000  0.72700000  1.0 -0.0282026154
C  C183  1  0.17600000  0.19000000  0.75920000  1.0 -0.0495622969
C  C184  1  0.19000000  0.17600000  0.74080000  1.0 -0.0495622969
C  C185  1  0.18200000  0.17000000  0.71500000  1.0 -0.1086118944
C  C186  1  0.17000000  0.18200000  0.78500000  1.0 -0.1086118944
C  C187  1  0.14280000  0.06720000  0.72100000  1.0 -0.1212385161
C  C188  1  0.06720000  0.14280000  0.77900000  1.0 -0.1212385161
C  C189  1  0.03300000  0.98900000  0.73000000  1.0 -0.0495622969
C  C190  1  0.98900000  0.03300000  0.77000000  1.0 -0.0495622969
C  C191  1  0.02500000  0.00900000  0.77300000  1.0 -0.0495622969
C  C192  1  0.00900000  0.02500000  0.72700000  1.0 -0.0495622969
C  C193  1  0.06730000  0.11270000  0.76900000  1.0 -0.0495622969
C  C194  1  0.11270000  0.06730000  0.73100000  1.0 -0.0495622969
C  C195  1  0.02050000  0.01750000  0.75670000  1.0 -0.0282026154
C  C196  1  0.01750000  0.02050000  0.74330000  1.0 -0.0282026154
C  C197  1  0.02500000  0.96300000  0.73900000  1.0 -0.0282026154
C  C198  1  0.96300000  0.02500000  0.76100000  1.0 -0.0196079632
C  C199  1  0.95160000  0.86240000  0.74500000  1.0 -0.0495622969
C  C200  1  0.86240000  0.95160000  0.75500000  1.0 -0.0495622969
C  C201  1  0.86600000  0.82200000  0.75700000  1.0 -0.0196079632
C  C202  1  0.82200000  0.86600000  0.74300000  1.0 -0.0196079632
C  C203  1  0.84830000  0.87570000  0.76700000  1.0 -0.0495622969
C  C204  1  0.87570000  0.84830000  0.73300000  1.0 -0.0495622969
C  C205  1  0.09520000  0.12680000  0.74430000  1.0 0.0185271686
C  C206  1  0.12680000  0.09520000  0.75570000  1.0 0.0185271686
C  C207  1  0.75340000  0.83660000  0.77200000  1.0 0.0112177592
C  C208  1  0.83660000  0.75340000  0.72800000  1.0 0.0112177592
C  C209  1  0.70690000  0.85710000  0.73100000  1.0 -0.4367003662
C  C210  1  0.85710000  0.70690000  0.76900000  1.0 -0.4367003662
C  C211  1  0.66900000  0.72300000  0.78500000  1.0 -0.4208752361
C  C212  1  0.72300000  0.66900000  0.71500000  1.0 -0.4208752361
C  C213  1  0.13610000  0.17390000  0.78150000  1.0 -0.1086118944
C  C214  1  0.17390000  0.13610000  0.71850000  1.0 -0.1086118944
C  C215  1  0.16260000  0.16540000  0.71200000  1.0 -0.0810539553
C  C216  1  0.16540000  0.16260000  0.78800000  1.0 -0.0810539553
I  I1  1  0.75258000  0.03294000  0.99890000  1.0 -0.3994183265
I  I2  1  0.96706000  0.24742000  0.49890000  1.0 -0.3994183265
I  I3  1  0.66409000  0.86495000  0.88478000  1.0 -0.4614854974
I  I4  1  0.13505000  0.33591000  0.38478000  1.0 -0.4614854974
I  I5  1  0.36160000  0.32040000  0.62890000  1.0 -0.3260047507
I  I6  1  0.67960000  0.63840000  0.12890000  1.0 -0.3260047507
I  I7  1  0.36140000  0.14660000  0.55850000  1.0 -0.4208752361
I  I8  1  0.85340000  0.63860000  0.05850000  1.0 -0.4208752361
I  I9  1  0.28578000  0.04420000  0.70039000  1.0 -0.1086118944
I  I10  1  0.95580000  0.71422000  0.20039000  1.0 -0.1086118944
I  I11  1  0.46869000  0.01411000  0.79347000  1.0 -0.0013250769
I  I12  1  0.98589000  0.53131000  0.29347000  1.0 -0.0013250769
I  I13  1  0.37608000  0.33492000  0.63063000  1.0 -0.3515352033
I  I14  1  0.66508000  0.62392000  0.13063000  1.0 -0.3402921395
I  I15  1  0.36862000  0.14918000  0.55806000  1.0 -0.4289814008
I  I16  1  0.85082000  0.63138000  0.05806000  1.0 -0.4289814008
I  I17  1  0.28950000  0.03130000  0.70890000  1.0 -0.1318382171
I  I18  1  0.96870000  0.71050000  0.20890000  1.0 -0.1318382171
I  I19  1  0.46520000  0.99760000  0.80350000  1.0 0.0185271686
I  I20  1  0.00240000  0.53480000  0.30350000  1.0 0.031202543
I  I21  1  0.03294000  0.75258000  0.50110000  1.0 -0.3994183265
I  I22  1  0.24742000  0.96706000  0.00110000  1.0 -0.3994183265
I  I23  1  0.86495000  0.66409000  0.61522000  1.0 -0.4614854974
I  I24  1  0.33591000  0.13505000  0.11522000  1.0 -0.4614854974
I  I25  1  0.32040000  0.36160000  0.87110000  1.0 -0.3260047507
I  I26  1  0.63840000  0.67960000  0.37110000  1.0 -0.3260047507
I  I27  1  0.14660000  0.36140000  0.94150000  1.0 -0.4208752361
I  I28  1  0.63860000  0.85340000  0.44150000  1.0 -0.4208752361
I  I29  1  0.04420000  0.28578000  0.79961000  1.0 -0.1086118944
I  I30  1  0.71422000  0.95580000  0.29961000  1.0 -0.1086118944
I  I31  1  0.01411000  0.46869000  0.70653000  1.0 -0.0013250769
I  I32  1  0.53131000  0.98589000  0.20653000  1.0 -0.0013250769
I  I33  1  0.33492000  0.37608000  0.86937000  1.0 -0.3402921395
I  I34  1  0.62392000  0.66508000  0.36937000  1.0 -0.3402921395
I  I35  1  0.14918000  0.36862000  0.94194000  1.0 -0.4289814008
I  I36  1  0.63138000  0.85082000  0.44194000  1.0 -0.4289814008
I  I37  1  0.03130000  0.28950000  0.79110000  1.0 -0.1318382171
I  I38  1  0.71050000  0.96870000  0.29110000  1.0 -0.1318382171
I  I39  1  0.99760000  0.46520000  0.69650000  1.0 0.0185271686
I  I40  1  0.53480000  0.00240000  0.19650000  1.0 0.0185271686
N  N1  1  0.80695000  0.13005000  0.88240000  1.0 -0.1888646816
N  N2  1  0.86995000  0.19305000  0.38240000  1.0 -0.1888646816
N  N3  1  0.91393000  0.06427000  0.93390000  1.0 -0.1780612988
N  N4  1  0.93573000  0.08607000  0.43390000  1.0 -0.1780612988
N  N5  1  0.77238000  0.32502000  0.76900000  1.0 -0.3994183265
N  N6  1  0.67498000  0.22762000  0.26900000  1.0 -0.3994183265
N  N7  1  0.92678000  0.45002000  0.80848000  1.0 -0.4121216756
N  N8  1  0.54998000  0.07322000  0.30848000  1.0 -0.4121216756
N  N9  1  0.85757000  0.49103000  0.75120000  1.0 -0.3994183265
N  N10  1  0.50897000  0.14243000  0.25120000  1.0 -0.3994183265
N  N11  1  0.55392000  0.31908000  0.64760000  1.0 -0.1710202244
N  N12  1  0.68092000  0.44608000  0.14760000  1.0 -0.1710202244
N  N13  1  0.18863000  0.82217000  0.78180000  1.0 -0.1888646816
N  N14  1  0.17783000  0.81137000  0.28180000  1.0 -0.1888646816
N  N15  1  0.55242000  0.41758000  0.55460000  1.0 -0.1710202244
N  N16  1  0.58242000  0.44758000  0.05460000  1.0 -0.1710202244
N  N17  1  0.29781000  0.01799000  0.82470000  1.0 -0.159148135
N  N18  1  0.98201000  0.70219000  0.32470000  1.0 -0.159148135
N  N19  1  0.35060000  0.20040000  0.94150000  1.0 -0.3554981274
N  N20  1  0.79960000  0.64940000  0.44150000  1.0 -0.3515352033
N  N21  1  0.18415000  0.10225000  0.91300000  1.0 -0.3402921395
N  N22  1  0.89775000  0.81585000  0.41300000  1.0 -0.3402921395
N  N23  1  0.25031000  0.19949000  0.97270000  1.0 -0.3660318626
N  N24  1  0.80051000  0.74969000  0.47270000  1.0 -0.3660318626
N  N25  1  0.13005000  0.80695000  0.61760000  1.0 -0.1888646816
N  N26  1  0.19305000  0.86995000  0.11760000  1.0 -0.1888646816
N  N27  1  0.06427000  0.91393000  0.56610000  1.0 -0.1780612988
N  N28  1  0.08607000  0.93573000  0.06610000  1.0 -0.1780612988
N  N29  1  0.32502000  0.77238000  0.73100000  1.0 -0.3994183265
N  N30  1  0.22762000  0.67498000  0.23100000  1.0 -0.3994183265
N  N31  1  0.45002000  0.92678000  0.69152000  1.0 -0.4121216756
N  N32  1  0.07322000  0.54998000  0.19152000  1.0 -0.4121216756
N  N33  1  0.49103000  0.85757000  0.74880000  1.0 -0.3994183265
N  N34  1  0.14243000  0.50897000  0.24880000  1.0 -0.3994183265
N  N35  1  0.31908000  0.55392000  0.85240000  1.0 -0.1710202244
N  N36  1  0.44608000  0.68092000  0.35240000  1.0 -0.1710202244
N  N37  1  0.82217000  0.18863000  0.71820000  1.0 -0.1888646816
N  N38  1  0.81137000  0.17783000  0.21820000  1.0 -0.1888646816
N  N39  1  0.41758000  0.55242000  0.94540000  1.0 -0.1710202244
N  N40  1  0.44758000  0.58242000  0.44540000  1.0 -0.1710202244
N  N41  1  0.01799000  0.29781000  0.67530000  1.0 -0.159148135
N  N42  1  0.70219000  0.98201000  0.17530000  1.0 -0.159148135
N  N43  1  0.20040000  0.35060000  0.55850000  1.0 -0.3554981274
N  N44  1  0.64940000  0.79960000  0.05850000  1.0 -0.3515352033
N  N45  1  0.10225000  0.18415000  0.58700000  1.0 -0.3402921395
N  N46  1  0.81585000  0.89775000  0.08700000  1.0 -0.3402921395
N  N47  1  0.19949000  0.25031000  0.52730000  1.0 -0.3660318626
N  N48  1  0.74969000  0.80051000  0.02730000  1.0 -0.3660318626
N  N49  1  0.96930000  0.08430000  0.27370000  1.0 -0.2412608226
N  N50  1  0.08430000  0.96930000  0.22630000  1.0 -0.2412608226
N  N51  1  0.03070000  0.91570000  0.72630000  1.0 -0.2412608226
N  N52  1  0.91570000  0.03070000  0.77370000  1.0 -0.2412608226
