# DDEC6 charges by PACMAN v1.1 (https://github.com/mtap-research/PACMAN-charge/)
data_LABNIO_FSR_pacman
_symmetry_space_group_name_H-M   'P 1'
_cell_length_a   18.55900000
_cell_length_b   18.55900000
_cell_length_c   34.95970000
_cell_angle_alpha   72.90940000
_cell_angle_beta   107.09100000
_cell_angle_gamma   133.79600000
_symmetry_Int_Tables_number   1
_chemical_formula_structural   Zn3H44C56I6N12O7
_chemical_formula_sum   'Zn12 H176 C224 I24 N48 O28'
_cell_volume   8235.99806316
_cell_formula_units_Z   4
loop_
 _symmetry_equiv_pos_site_id
 _symmetry_equiv_pos_as_xyz
  1  'x, y, z'
loop_
 _atom_site_type_symbol
 _atom_site_label
 _atom_site_symmetry_multiplicity
 _atom_site_fract_x
 _atom_site_fract_y
 _atom_site_fract_z
 _atom_site_occupancy
 _atom_site_charge
Zn  Zn1  1  0.03918000  0.81316000  0.55483000  1.0 0.4692205357
Zn  Zn2  1  0.18684000  0.96082000  0.05483000  1.0 0.4692205357
Zn  Zn3  1  0.23692000  0.53772000  0.92556000  1.0 0.4692205357
Zn  Zn4  1  0.46228000  0.76308000  0.42556000  1.0 0.4692205357
Zn  Zn5  1  0.99178000  0.31600000  0.73754000  1.0 0.4567619654
Zn  Zn6  1  0.68400000  0.00822000  0.23754000  1.0 0.4567619654
Zn  Zn7  1  0.81316000  0.03918000  0.94517000  1.0 0.4692205357
Zn  Zn8  1  0.96082000  0.18684000  0.44517000  1.0 0.4692205357
Zn  Zn9  1  0.53772000  0.23692000  0.57444000  1.0 0.4692205357
Zn  Zn10  1  0.76308000  0.46228000  0.07444000  1.0 0.4692205357
Zn  Zn11  1  0.31600000  0.99178000  0.76246000  1.0 0.4567619654
Zn  Zn12  1  0.00822000  0.68400000  0.26246000  1.0 0.4567619654
H  H1  1  0.04700000  0.70580000  0.63750000  1.0 0.1100431528
H  H2  1  0.29420000  0.95300000  0.13750000  1.0 0.1100431528
H  H3  1  0.16600000  0.72080000  0.69060000  1.0 0.1315686009
H  H4  1  0.27920000  0.83400000  0.19060000  1.0 0.1315686009
H  H5  1  0.38650000  0.96170000  0.62400000  1.0 0.1384338769
H  H6  1  0.03830000  0.61350000  0.12400000  1.0 0.1384338769
H  H7  1  0.26210000  0.93830000  0.57200000  1.0 0.1100431528
H  H8  1  0.06170000  0.73790000  0.07200000  1.0 0.1100431528
H  H9  1  0.43190000  0.72730000  0.89550000  1.0 0.1006603349
H  H10  1  0.27270000  0.56810000  0.39550000  1.0 0.1006603349
H  H11  1  0.49310000  0.82790000  0.83500000  1.0 0.1315686009
H  H12  1  0.17210000  0.50690000  0.33500000  1.0 0.1315686009
H  H13  1  0.22380000  0.61220000  0.77610000  1.0 0.1384338769
H  H14  1  0.38780000  0.77620000  0.27610000  1.0 0.1384338769
H  H15  1  0.17060000  0.51360000  0.83820000  1.0 0.1100431528
H  H16  1  0.48640000  0.82940000  0.33820000  1.0 0.1100431528
H  H17  1  0.84600000  0.12220000  0.78500000  1.0 0.1006603349
H  H18  1  0.87780000  0.15400000  0.28500000  1.0 0.1006603349
H  H19  1  0.67500000  0.98200000  0.78310000  1.0 0.1384338769
H  H20  1  0.01800000  0.32500000  0.28310000  1.0 0.1384338769
H  H21  1  0.63170000  0.10230000  0.67070000  1.0 0.1384338769
H  H22  1  0.89770000  0.36830000  0.17070000  1.0 0.1315686009
H  H23  1  0.80260000  0.23800000  0.67610000  1.0 0.1100431528
H  H24  1  0.76200000  0.19740000  0.17610000  1.0 0.1100431528
H  H25  1  0.32960000  0.67460000  0.98800000  1.0 0.1100431528
H  H26  1  0.32540000  0.67040000  0.48800000  1.0 0.1100431528
H  H27  1  0.46790000  0.75670000  0.03540000  1.0 0.1315686009
H  H28  1  0.24330000  0.53210000  0.53540000  1.0 0.1315686009
H  H29  1  0.57080000  0.65700000  0.99990000  1.0 0.1315686009
H  H30  1  0.34300000  0.42920000  0.49990000  1.0 0.1315686009
H  H31  1  0.42470000  0.57110000  0.95490000  1.0 0.1006603349
H  H32  1  0.42890000  0.57530000  0.45490000  1.0 0.1006603349
H  H33  1  0.84350000  0.07510000  0.19200000  1.0 0.1100431528
H  H34  1  0.92490000  0.15650000  0.69200000  1.0 0.1100431528
H  H35  1  0.85440000  0.01800000  0.14460000  1.0 0.1384338769
H  H36  1  0.98200000  0.14560000  0.64460000  1.0 0.1384338769
H  H37  1  0.56020000  0.76980000  0.14700000  1.0 0.1384338769
H  H38  1  0.23020000  0.43980000  0.64700000  1.0 0.1384338769
H  H39  1  0.55490000  0.83070000  0.19480000  1.0 0.1100431528
H  H40  1  0.16930000  0.44510000  0.69480000  1.0 0.1100431528
H  H41  1  0.09130000  0.93990000  0.11730000  1.0 0.1100431528
H  H42  1  0.06010000  0.90870000  0.61730000  1.0 0.1100431528
H  H43  1  0.95010000  0.90170000  0.12580000  1.0 0.1315686009
H  H44  1  0.09830000  0.04990000  0.62580000  1.0 0.1315686009
H  H45  1  0.84550000  0.85930000  0.00840000  1.0 0.1315686009
H  H46  1  0.14070000  0.15450000  0.50840000  1.0 0.1315686009
H  H47  1  0.99010000  0.89670000  0.00320000  1.0 0.1006603349
H  H48  1  0.10330000  0.00990000  0.50320000  1.0 0.1006603349
H  H49  1  0.70580000  0.04700000  0.86250000  1.0 0.1100431528
H  H50  1  0.95300000  0.29420000  0.36250000  1.0 0.1100431528
H  H51  1  0.72080000  0.16600000  0.80940000  1.0 0.1315686009
H  H52  1  0.83400000  0.27920000  0.30940000  1.0 0.1315686009
H  H53  1  0.96170000  0.38650000  0.87600000  1.0 0.1315686009
H  H54  1  0.61350000  0.03830000  0.37600000  1.0 0.1315686009
H  H55  1  0.93830000  0.26210000  0.92800000  1.0 0.1100431528
H  H56  1  0.73790000  0.06170000  0.42800000  1.0 0.1100431528
H  H57  1  0.72730000  0.43190000  0.60450000  1.0 0.1006603349
H  H58  1  0.56810000  0.27270000  0.10450000  1.0 0.1006603349
H  H59  1  0.82790000  0.49310000  0.66500000  1.0 0.1315686009
H  H60  1  0.50690000  0.17210000  0.16500000  1.0 0.1315686009
H  H61  1  0.61220000  0.22380000  0.72390000  1.0 0.1384338769
H  H62  1  0.77620000  0.38780000  0.22390000  1.0 0.1384338769
H  H63  1  0.51360000  0.17060000  0.66180000  1.0 0.1100431528
H  H64  1  0.82940000  0.48640000  0.16180000  1.0 0.1100431528
H  H65  1  0.12220000  0.84600000  0.71500000  1.0 0.1006603349
H  H66  1  0.15400000  0.87780000  0.21500000  1.0 0.1006603349
H  H67  1  0.98200000  0.67500000  0.71690000  1.0 0.1384338769
H  H68  1  0.32500000  0.01800000  0.21690000  1.0 0.1384338769
H  H69  1  0.10230000  0.63170000  0.82930000  1.0 0.1315686009
H  H70  1  0.36830000  0.89770000  0.32930000  1.0 0.1384338769
H  H71  1  0.23800000  0.80260000  0.82390000  1.0 0.1100431528
H  H72  1  0.19740000  0.76200000  0.32390000  1.0 0.1100431528
H  H73  1  0.67460000  0.32960000  0.51200000  1.0 0.1100431528
H  H74  1  0.67040000  0.32540000  0.01200000  1.0 0.1100431528
H  H75  1  0.75670000  0.46790000  0.46460000  1.0 0.1315686009
H  H76  1  0.53210000  0.24330000  0.96460000  1.0 0.1315686009
H  H77  1  0.65700000  0.57080000  0.50010000  1.0 0.1315686009
H  H78  1  0.42920000  0.34300000  0.00010000  1.0 0.1315686009
H  H79  1  0.57110000  0.42470000  0.54510000  1.0 0.1006603349
H  H80  1  0.57530000  0.42890000  0.04510000  1.0 0.1006603349
H  H81  1  0.07510000  0.84350000  0.30800000  1.0 0.1100431528
H  H82  1  0.15650000  0.92490000  0.80800000  1.0 0.1100431528
H  H83  1  0.01800000  0.85440000  0.35540000  1.0 0.1384338769
H  H84  1  0.14560000  0.98200000  0.85540000  1.0 0.1384338769
H  H85  1  0.76980000  0.56020000  0.35300000  1.0 0.1384338769
H  H86  1  0.43980000  0.23020000  0.85300000  1.0 0.1384338769
H  H87  1  0.83070000  0.55490000  0.30520000  1.0 0.1100431528
H  H88  1  0.44510000  0.16930000  0.80520000  1.0 0.1100431528
H  H89  1  0.93990000  0.09130000  0.38270000  1.0 0.1100431528
H  H90  1  0.90870000  0.06010000  0.88270000  1.0 0.1100431528
H  H91  1  0.90170000  0.95010000  0.37420000  1.0 0.1315686009
H  H92  1  0.04990000  0.09830000  0.87420000  1.0 0.1315686009
H  H93  1  0.85930000  0.84550000  0.49160000  1.0 0.1315686009
H  H94  1  0.15450000  0.14070000  0.99160000  1.0 0.1315686009
H  H95  1  0.89670000  0.99010000  0.49680000  1.0 0.1006603349
H  H96  1  0.00990000  0.10330000  0.99680000  1.0 0.1006603349
H  H97  1  0.42810000  0.64530000  0.08480000  1.0 0.1100431528
H  H98  1  0.64530000  0.42810000  0.41520000  1.0 0.1100431528
H  H99  1  0.31450000  0.54010000  0.08540000  1.0 0.1100431528
H  H100  1  0.54010000  0.31450000  0.41460000  1.0 0.1100431528
H  H101  1  0.37840000  0.59240000  0.12570000  1.0 0.1315686009
H  H102  1  0.59240000  0.37840000  0.37430000  1.0 0.1206620392
H  H103  1  0.48980000  0.51260000  0.26140000  1.0 0.1006603349
H  H104  1  0.51260000  0.48980000  0.23860000  1.0 0.1006603349
H  H105  1  0.51580000  0.43700000  0.32250000  1.0 0.1610711219
H  H106  1  0.43700000  0.51580000  0.17750000  1.0 0.1610711219
H  H107  1  0.48580000  0.38380000  0.39440000  1.0 0.2264360878
H  H108  1  0.38380000  0.48580000  0.10560000  1.0 0.2264360878
H  H109  1  0.19810000  0.14490000  0.36090000  1.0 0.1206620392
H  H110  1  0.14490000  0.19810000  0.13910000  1.0 0.1206620392
H  H111  1  0.22310000  0.20270000  0.29510000  1.0 0.1206620392
H  H112  1  0.20270000  0.22310000  0.20490000  1.0 0.1206620392
H  H113  1  0.33050000  0.38910000  0.02200000  1.0 0.1206620392
H  H114  1  0.38910000  0.33050000  0.47800000  1.0 0.1206620392
H  H115  1  0.41010000  0.42610000  0.06210000  1.0 0.1100431528
H  H116  1  0.42610000  0.41010000  0.43790000  1.0 0.1100431528
H  H117  1  0.31850000  0.30830000  0.05930000  1.0 0.1100431528
H  H118  1  0.30830000  0.31850000  0.44070000  1.0 0.1100431528
H  H119  1  0.03400000  0.10460000  0.06810000  1.0 0.1100431528
H  H120  1  0.10460000  0.03400000  0.43190000  1.0 0.1100431528
H  H121  1  0.03820000  0.16500000  0.09450000  1.0 0.0890161592
H  H122  1  0.16500000  0.03820000  0.40550000  1.0 0.0890161592
H  H123  1  0.10858000  0.22478000  0.05960000  1.0 0.0890161592
H  H124  1  0.22478000  0.10858000  0.44040000  1.0 0.0890161592
H  H125  1  0.03880000  0.01660000  0.20520000  1.0 0.1206620392
H  H126  1  0.01660000  0.03880000  0.29480000  1.0 0.1315686009
H  H127  1  0.05840000  0.11760000  0.19950000  1.0 0.0890161592
H  H128  1  0.11760000  0.05840000  0.30050000  1.0 0.0890161592
H  H129  1  0.04000000  0.07460000  0.16090000  1.0 0.1006603349
H  H130  1  0.07460000  0.04000000  0.33910000  1.0 0.1006603349
H  H131  1  0.25030000  0.14650000  0.46670000  1.0 0.0890161592
H  H132  1  0.14650000  0.25030000  0.03330000  1.0 0.0890161592
H  H133  1  0.19970000  0.17070000  0.42560000  1.0 0.1549917104
H  H134  1  0.17070000  0.19970000  0.07440000  1.0 0.1549917104
H  H135  1  0.21650000  0.09590000  0.42780000  1.0 0.0890161592
H  H136  1  0.09590000  0.21650000  0.07220000  1.0 0.0890161592
H  H137  1  0.57190000  0.35470000  0.91520000  1.0 0.1100431528
H  H138  1  0.35470000  0.57190000  0.58480000  1.0 0.1100431528
H  H139  1  0.68550000  0.45990000  0.91460000  1.0 0.1100431528
H  H140  1  0.45990000  0.68550000  0.58540000  1.0 0.1100431528
H  H141  1  0.62160000  0.40760000  0.87430000  1.0 0.1315686009
H  H142  1  0.40760000  0.62160000  0.62570000  1.0 0.1315686009
H  H143  1  0.51020000  0.48740000  0.73860000  1.0 0.1006603349
H  H144  1  0.48740000  0.51020000  0.76140000  1.0 0.1006603349
H  H145  1  0.48420000  0.56300000  0.67750000  1.0 0.1610711219
H  H146  1  0.56300000  0.48420000  0.82250000  1.0 0.1610711219
H  H147  1  0.51420000  0.61620000  0.60560000  1.0 0.2264360878
H  H148  1  0.61620000  0.51420000  0.89440000  1.0 0.2264360878
H  H149  1  0.80190000  0.85510000  0.63910000  1.0 0.1206620392
H  H150  1  0.85510000  0.80190000  0.86090000  1.0 0.1206620392
H  H151  1  0.77690000  0.79730000  0.70490000  1.0 0.1206620392
H  H152  1  0.79730000  0.77690000  0.79510000  1.0 0.1206620392
H  H153  1  0.66950000  0.61090000  0.97800000  1.0 0.1206620392
H  H154  1  0.61090000  0.66950000  0.52200000  1.0 0.1206620392
H  H155  1  0.58990000  0.57390000  0.93790000  1.0 0.1206620392
H  H156  1  0.57390000  0.58990000  0.56210000  1.0 0.1206620392
H  H157  1  0.68150000  0.69170000  0.94070000  1.0 0.1100431528
H  H158  1  0.69170000  0.68150000  0.55930000  1.0 0.1100431528
H  H159  1  0.96600000  0.89540000  0.93190000  1.0 0.1100431528
H  H160  1  0.89540000  0.96600000  0.56810000  1.0 0.1100431528
H  H161  1  0.96180000  0.83500000  0.90550000  1.0 0.0890161592
H  H162  1  0.83500000  0.96180000  0.59450000  1.0 0.0890161592
H  H163  1  0.89142000  0.77522000  0.94040000  1.0 0.0890161592
H  H164  1  0.77522000  0.89142000  0.55960000  1.0 0.0890161592
H  H165  1  0.96120000  0.98340000  0.79480000  1.0 0.1206620392
H  H166  1  0.98340000  0.96120000  0.70520000  1.0 0.1315686009
H  H167  1  0.94160000  0.88240000  0.80050000  1.0 0.0890161592
H  H168  1  0.88240000  0.94160000  0.69950000  1.0 0.0890161592
H  H169  1  0.96000000  0.92540000  0.83910000  1.0 0.1006603349
H  H170  1  0.92540000  0.96000000  0.66090000  1.0 0.1006603349
H  H171  1  0.74970000  0.85350000  0.53330000  1.0 0.0890161592
H  H172  1  0.85350000  0.74970000  0.96670000  1.0 0.0890161592
H  H173  1  0.80030000  0.82930000  0.57440000  1.0 0.1549917104
H  H174  1  0.82930000  0.80030000  0.92560000  1.0 0.1610711219
H  H175  1  0.78350000  0.90410000  0.57220000  1.0 0.0890161592
H  H176  1  0.90410000  0.78350000  0.92780000  1.0 0.0890161592
C  C1  1  0.11670000  0.75770000  0.63470000  1.0 0.0782450487
C  C2  1  0.24230000  0.88330000  0.13470000  1.0 0.0782450487
C  C3  1  0.18740000  0.76680000  0.66650000  1.0 -0.1428799984
C  C4  1  0.23320000  0.81260000  0.16650000  1.0 -0.1428799984
C  C5  1  0.28810000  0.84250000  0.66310000  1.0 0.0567517891
C  C6  1  0.15750000  0.71190000  0.16310000  1.0 0.0567517891
C  C7  1  0.31730000  0.90830000  0.62730000  1.0 -0.1342823041
C  C8  1  0.09170000  0.68270000  0.12730000  1.0 -0.1342823041
C  C9  1  0.24250000  0.89390000  0.59660000  1.0 0.0890161592
C  C10  1  0.10610000  0.75750000  0.09660000  1.0 0.0890161592
C  C11  1  0.38960000  0.70360000  0.87080000  1.0 0.0890161592
C  C12  1  0.29640000  0.61040000  0.37080000  1.0 0.0890161592
C  C13  1  0.42610000  0.76490000  0.83500000  1.0 -0.1515380857
C  C14  1  0.23510000  0.57390000  0.33500000  1.0 -0.1515380857
C  C15  1  0.36270000  0.73190000  0.79920000  1.0 0.0693317574
C  C16  1  0.26810000  0.63730000  0.29920000  1.0 0.0693317574
C  C17  1  0.26750000  0.63710000  0.80040000  1.0 -0.1428799984
C  C18  1  0.36290000  0.73250000  0.30040000  1.0 -0.1428799984
C  C19  1  0.23610000  0.57850000  0.83740000  1.0 0.0782450487
C  C20  1  0.42150000  0.76390000  0.33740000  1.0 0.0782450487
C  C21  1  0.80160000  0.11780000  0.76170000  1.0 0.0782450487
C  C22  1  0.88220000  0.19840000  0.26170000  1.0 0.0782450487
C  C23  1  0.69970000  0.03410000  0.76090000  1.0 -0.1573584595
C  C24  1  0.96590000  0.30030000  0.26090000  1.0 -0.1573584595
C  C25  1  0.63380000  0.02760000  0.72690000  1.0 0.0782450487
C  C26  1  0.97240000  0.36620000  0.22690000  1.0 0.0782450487
C  C27  1  0.67420000  0.10520000  0.69460000  1.0 -0.1573584595
C  C28  1  0.89480000  0.32580000  0.19460000  1.0 -0.1573584595
C  C29  1  0.77600000  0.18540000  0.69800000  1.0 0.0693317574
C  C30  1  0.81460000  0.22400000  0.19800000  1.0 0.0693317574
C  C31  1  0.36350000  0.85510000  0.69750000  1.0 0.3687331117
C  C32  1  0.14490000  0.63650000  0.19750000  1.0 0.3687331117
C  C33  1  0.39960000  0.80220000  0.76080000  1.0 0.3687331117
C  C34  1  0.19780000  0.60040000  0.26080000  1.0 0.3687331117
C  C35  1  0.52400000  0.94100000  0.72660000  1.0 0.3577545079
C  C36  1  0.05900000  0.47600000  0.22660000  1.0 0.3577545079
C  C37  1  0.37820000  0.66900000  0.99120000  1.0 0.0693317574
C  C38  1  0.33100000  0.62180000  0.49120000  1.0 0.0693317574
C  C39  1  0.46050000  0.71890000  0.01900000  1.0 -0.1573584595
C  C40  1  0.28110000  0.53950000  0.51900000  1.0 -0.1573584595
C  C41  1  0.53470000  0.71430000  0.02330000  1.0 0.0567517891
C  C42  1  0.28570000  0.46530000  0.52330000  1.0 0.0567517891
C  C43  1  0.52120000  0.66000000  0.99860000  1.0 -0.1655527288
C  C44  1  0.34000000  0.47880000  0.49860000  1.0 -0.1655527288
C  C45  1  0.43380000  0.60960000  0.97160000  1.0 0.0782450487
C  C46  1  0.39040000  0.56620000  0.47160000  1.0 0.0782450487
C  C47  1  0.78570000  0.01210000  0.18300000  1.0 0.0782450487
C  C48  1  0.98790000  0.21430000  0.68300000  1.0 0.0782450487
C  C49  1  0.79190000  0.97930000  0.15410000  1.0 -0.1655527288
C  C50  1  0.02070000  0.20810000  0.65410000  1.0 -0.1573584595
C  C51  1  0.70620000  0.88920000  0.13940000  1.0 0.0693317574
C  C52  1  0.11080000  0.29380000  0.63940000  1.0 0.0693317574
C  C53  1  0.61900000  0.83320000  0.15560000  1.0 -0.1428799984
C  C54  1  0.16680000  0.38100000  0.65560000  1.0 -0.1428799984
C  C55  1  0.61640000  0.86880000  0.18450000  1.0 0.0782450487
C  C56  1  0.13120000  0.38360000  0.68450000  1.0 0.0782450487
C  C57  1  0.04060000  0.92340000  0.09480000  1.0 0.0693317574
C  C58  1  0.07660000  0.95940000  0.59480000  1.0 0.0693317574
C  C59  1  0.95720000  0.90060000  0.10020000  1.0 -0.1515380857
C  C60  1  0.09940000  0.04280000  0.60020000  1.0 -0.1515380857
C  C61  1  0.88190000  0.87570000  0.06780000  1.0 0.0693317574
C  C62  1  0.12430000  0.11810000  0.56780000  1.0 0.0693317574
C  C63  1  0.89510000  0.87530000  0.03120000  1.0 -0.1655527288
C  C64  1  0.12470000  0.10490000  0.53120000  1.0 -0.1655527288
C  C65  1  0.98200000  0.89860000  0.02840000  1.0 0.0693317574
C  C66  1  0.10140000  0.01800000  0.52840000  1.0 0.0693317574
C  C67  1  0.62470000  0.77210000  0.05240000  1.0 0.3687331117
C  C68  1  0.22790000  0.37530000  0.55240000  1.0 0.3687331117
C  C69  1  0.70870000  0.85450000  0.10690000  1.0 0.3577545079
C  C70  1  0.14550000  0.29130000  0.60690000  1.0 0.3577545079
C  C71  1  0.78950000  0.84970000  0.07330000  1.0 0.3687331117
C  C72  1  0.15030000  0.21050000  0.57330000  1.0 0.3687331117
C  C73  1  0.75770000  0.11670000  0.86530000  1.0 0.0782450487
C  C74  1  0.88330000  0.24230000  0.36530000  1.0 0.0782450487
C  C75  1  0.76680000  0.18740000  0.83350000  1.0 -0.1428799984
C  C76  1  0.81260000  0.23320000  0.33350000  1.0 -0.1428799984
C  C77  1  0.84250000  0.28810000  0.83690000  1.0 0.0567517891
C  C78  1  0.71190000  0.15750000  0.33690000  1.0 0.0567517891
C  C79  1  0.90830000  0.31730000  0.87270000  1.0 -0.1342823041
C  C80  1  0.68270000  0.09170000  0.37270000  1.0 -0.1342823041
C  C81  1  0.89390000  0.24250000  0.90340000  1.0 0.0890161592
C  C82  1  0.75750000  0.10610000  0.40340000  1.0 0.0890161592
C  C83  1  0.70360000  0.38960000  0.62920000  1.0 0.0890161592
C  C84  1  0.61040000  0.29640000  0.12920000  1.0 0.0890161592
C  C85  1  0.76490000  0.42610000  0.66500000  1.0 -0.1515380857
C  C86  1  0.57390000  0.23510000  0.16500000  1.0 -0.1428799984
C  C87  1  0.73190000  0.36270000  0.70080000  1.0 0.0693317574
C  C88  1  0.63730000  0.26810000  0.20080000  1.0 0.0693317574
C  C89  1  0.63710000  0.26750000  0.69960000  1.0 -0.1428799984
C  C90  1  0.73250000  0.36290000  0.19960000  1.0 -0.1428799984
C  C91  1  0.57850000  0.23610000  0.66260000  1.0 0.0782450487
C  C92  1  0.76390000  0.42150000  0.16260000  1.0 0.0782450487
C  C93  1  0.11780000  0.80160000  0.73830000  1.0 0.0782450487
C  C94  1  0.19840000  0.88220000  0.23830000  1.0 0.0782450487
C  C95  1  0.03410000  0.69970000  0.73910000  1.0 -0.1573584595
C  C96  1  0.30030000  0.96590000  0.23910000  1.0 -0.1573584595
C  C97  1  0.02760000  0.63380000  0.77310000  1.0 0.0782450487
C  C98  1  0.36620000  0.97240000  0.27310000  1.0 0.0782450487
C  C99  1  0.10520000  0.67420000  0.80540000  1.0 -0.1573584595
C  C100  1  0.32580000  0.89480000  0.30540000  1.0 -0.1573584595
C  C101  1  0.18540000  0.77600000  0.80200000  1.0 0.0693317574
C  C102  1  0.22400000  0.81460000  0.30200000  1.0 0.0693317574
C  C103  1  0.85510000  0.36350000  0.80250000  1.0 0.3687331117
C  C104  1  0.63650000  0.14490000  0.30250000  1.0 0.3687331117
C  C105  1  0.80220000  0.39960000  0.73920000  1.0 0.3687331117
C  C106  1  0.60040000  0.19780000  0.23920000  1.0 0.3687331117
C  C107  1  0.94100000  0.52400000  0.77340000  1.0 0.3577545079
C  C108  1  0.47600000  0.05900000  0.27340000  1.0 0.3577545079
C  C109  1  0.66900000  0.37820000  0.50880000  1.0 0.0693317574
C  C110  1  0.62180000  0.33100000  0.00880000  1.0 0.0693317574
C  C111  1  0.71890000  0.46050000  0.48100000  1.0 -0.1573584595
C  C112  1  0.53950000  0.28110000  0.98100000  1.0 -0.1573584595
C  C113  1  0.71430000  0.53470000  0.47670000  1.0 0.0567517891
C  C114  1  0.46530000  0.28570000  0.97670000  1.0 0.0567517891
C  C115  1  0.66000000  0.52120000  0.50140000  1.0 -0.1655527288
C  C116  1  0.47880000  0.34000000  0.00140000  1.0 -0.1655527288
C  C117  1  0.60960000  0.43380000  0.52840000  1.0 0.0782450487
C  C118  1  0.56620000  0.39040000  0.02840000  1.0 0.0782450487
C  C119  1  0.01210000  0.78570000  0.31700000  1.0 0.0782450487
C  C120  1  0.21430000  0.98790000  0.81700000  1.0 0.0782450487
C  C121  1  0.97930000  0.79190000  0.34590000  1.0 -0.1655527288
C  C122  1  0.20810000  0.02070000  0.84590000  1.0 -0.1655527288
C  C123  1  0.88920000  0.70620000  0.36060000  1.0 0.0693317574
C  C124  1  0.29380000  0.11080000  0.86060000  1.0 0.0693317574
C  C125  1  0.83320000  0.61900000  0.34440000  1.0 -0.1428799984
C  C126  1  0.38100000  0.16680000  0.84440000  1.0 -0.1428799984
C  C127  1  0.86880000  0.61640000  0.31550000  1.0 0.0782450487
C  C128  1  0.38360000  0.13120000  0.81550000  1.0 0.0782450487
C  C129  1  0.92340000  0.04060000  0.40520000  1.0 0.0693317574
C  C130  1  0.95940000  0.07660000  0.90520000  1.0 0.0693317574
C  C131  1  0.90060000  0.95720000  0.39980000  1.0 -0.1515380857
C  C132  1  0.04280000  0.09940000  0.89980000  1.0 -0.1515380857
C  C133  1  0.87570000  0.88190000  0.43220000  1.0 0.0693317574
C  C134  1  0.11810000  0.12430000  0.93220000  1.0 0.0693317574
C  C135  1  0.87530000  0.89510000  0.46880000  1.0 -0.1655527288
C  C136  1  0.10490000  0.12470000  0.96880000  1.0 -0.1655527288
C  C137  1  0.89860000  0.98200000  0.47160000  1.0 0.0693317574
C  C138  1  0.01800000  0.10140000  0.97160000  1.0 0.0693317574
C  C139  1  0.77210000  0.62470000  0.44760000  1.0 0.3687331117
C  C140  1  0.37530000  0.22790000  0.94760000  1.0 0.3687331117
C  C141  1  0.85450000  0.70870000  0.39310000  1.0 0.3577545079
C  C142  1  0.29130000  0.14550000  0.89310000  1.0 0.3577545079
C  C143  1  0.84970000  0.78950000  0.42670000  1.0 0.3687331117
C  C144  1  0.21050000  0.15030000  0.92670000  1.0 0.3687331117
C  C145  1  0.38180000  0.58060000  0.10100000  1.0 -0.3603202534
C  C146  1  0.58060000  0.38180000  0.39900000  1.0 -0.3603202534
C  C147  1  0.37160000  0.37300000  0.25660000  1.0 0.0693317574
C  C148  1  0.37300000  0.37160000  0.24340000  1.0 0.0693317574
C  C149  1  0.43790000  0.46610000  0.24290000  1.0 -0.1515380857
C  C150  1  0.46610000  0.43790000  0.25710000  1.0 -0.1515380857
C  C151  1  0.43630000  0.50290000  0.20030000  1.0 0.0890161592
C  C152  1  0.50290000  0.43630000  0.29970000  1.0 0.0890161592
C  C153  1  0.36710000  0.41890000  0.17470000  1.0 -0.0167200054
C  C154  1  0.41890000  0.36710000  0.32530000  1.0 -0.0167200054
C  C155  1  0.30230000  0.31970000  0.19400000  1.0 0.032421511
C  C156  1  0.31970000  0.30230000  0.30600000  1.0 0.032421511
C  C157  1  0.35660000  0.43740000  0.13390000  1.0 -0.0674389712
C  C158  1  0.43740000  0.35660000  0.36610000  1.0 -0.0674389712
C  C159  1  0.28760000  0.35720000  0.11050000  1.0 0.1006603349
C  C160  1  0.35720000  0.28760000  0.38950000  1.0 0.1006603349
C  C161  1  0.22150000  0.25590000  0.12840000  1.0 0.0207580797
C  C162  1  0.25590000  0.22150000  0.37160000  1.0 0.0207580797
C  C163  1  0.23340000  0.23920000  0.17120000  1.0 0.0460333171
C  C164  1  0.23920000  0.23340000  0.32880000  1.0 0.0460333171
C  C165  1  0.36800000  0.33000000  0.30030000  1.0 0.032421511
C  C166  1  0.33000000  0.36800000  0.19970000  1.0 0.032421511
C  C167  1  0.45050000  0.38150000  0.32980000  1.0 -0.0674389712
C  C168  1  0.38150000  0.45050000  0.17020000  1.0 -0.0674389712
C  C169  1  0.43240000  0.34560000  0.37380000  1.0 -0.0813975168
C  C170  1  0.34560000  0.43240000  0.12620000  1.0 -0.0813975168
C  C171  1  0.26220000  0.20580000  0.35400000  1.0 -0.0674389712
C  C172  1  0.20580000  0.26220000  0.14600000  1.0 -0.0647266601
C  C173  1  0.27840000  0.24160000  0.31470000  1.0 -0.0052193016
C  C174  1  0.24160000  0.27840000  0.18530000  1.0 -0.0052193016
C  C175  1  0.33910000  0.37490000  0.05150000  1.0 -0.3051838783
C  C176  1  0.37490000  0.33910000  0.44850000  1.0 -0.3051838783
C  C177  1  0.07780000  0.16620000  0.08050000  1.0 -0.1837172516
C  C178  1  0.16620000  0.07780000  0.41950000  1.0 -0.1837172516
C  C179  1  0.06950000  0.08250000  0.18920000  1.0 -0.3668284026
C  C180  1  0.08250000  0.06950000  0.31080000  1.0 -0.3668284026
C  C181  1  0.34020000  0.25980000  0.38330000  1.0 0.0567517891
C  C182  1  0.25980000  0.34020000  0.11670000  1.0 0.0567517891
C  C183  1  0.24480000  0.15720000  0.43720000  1.0 -0.0975535531
C  C184  1  0.15720000  0.24480000  0.06280000  1.0 -0.0975535531
C  C185  1  0.61820000  0.41940000  0.89900000  1.0 -0.3603202534
C  C186  1  0.41940000  0.61820000  0.60100000  1.0 -0.3603202534
C  C187  1  0.62840000  0.62700000  0.74340000  1.0 0.0693317574
C  C188  1  0.62700000  0.62840000  0.75660000  1.0 0.0693317574
C  C189  1  0.56210000  0.53390000  0.75710000  1.0 -0.1515380857
C  C190  1  0.53390000  0.56210000  0.74290000  1.0 -0.1515380857
C  C191  1  0.56370000  0.49710000  0.79970000  1.0 0.0890161592
C  C192  1  0.49710000  0.56370000  0.70030000  1.0 0.0890161592
C  C193  1  0.63290000  0.58110000  0.82530000  1.0 -0.0167200054
C  C194  1  0.58110000  0.63290000  0.67470000  1.0 -0.0167200054
C  C195  1  0.69770000  0.68030000  0.80600000  1.0 0.032421511
C  C196  1  0.68030000  0.69770000  0.69400000  1.0 0.032421511
C  C197  1  0.64340000  0.56260000  0.86610000  1.0 -0.0674389712
C  C198  1  0.56260000  0.64340000  0.63390000  1.0 -0.0674389712
C  C199  1  0.71240000  0.64280000  0.88950000  1.0 0.1006603349
C  C200  1  0.64280000  0.71240000  0.61050000  1.0 0.1006603349
C  C201  1  0.77850000  0.74410000  0.87160000  1.0 0.0207580797
C  C202  1  0.74410000  0.77850000  0.62840000  1.0 0.0207580797
C  C203  1  0.76660000  0.76080000  0.82880000  1.0 0.0460333171
C  C204  1  0.76080000  0.76660000  0.67120000  1.0 0.0460333171
C  C205  1  0.63200000  0.67000000  0.69970000  1.0 0.032421511
C  C206  1  0.67000000  0.63200000  0.80030000  1.0 0.032421511
C  C207  1  0.54950000  0.61850000  0.67020000  1.0 -0.0674389712
C  C208  1  0.61850000  0.54950000  0.82980000  1.0 -0.0674389712
C  C209  1  0.56760000  0.65440000  0.62620000  1.0 -0.0813975168
C  C210  1  0.65440000  0.56760000  0.87380000  1.0 -0.0813975168
C  C211  1  0.73780000  0.79420000  0.64600000  1.0 -0.0674389712
C  C212  1  0.79420000  0.73780000  0.85400000  1.0 -0.0674389712
C  C213  1  0.72160000  0.75840000  0.68530000  1.0 -0.0052193016
C  C214  1  0.75840000  0.72160000  0.81470000  1.0 -0.0052193016
C  C215  1  0.66090000  0.62510000  0.94850000  1.0 -0.3051838783
C  C216  1  0.62510000  0.66090000  0.55150000  1.0 -0.3051838783
C  C217  1  0.92220000  0.83380000  0.91950000  1.0 -0.1837172516
C  C218  1  0.83380000  0.92220000  0.58050000  1.0 -0.1837172516
C  C219  1  0.93050000  0.91750000  0.81080000  1.0 -0.3668284026
C  C220  1  0.91750000  0.93050000  0.68920000  1.0 -0.3668284026
C  C221  1  0.65980000  0.74020000  0.61670000  1.0 0.0567517891
C  C222  1  0.74020000  0.65980000  0.88330000  1.0 0.0567517891
C  C223  1  0.75520000  0.84280000  0.56280000  1.0 -0.0975535531
C  C224  1  0.84280000  0.75520000  0.93720000  1.0 -0.0975535531
I  I1  1  0.86740000  0.67500000  0.58015000  1.0 -0.4979309422
I  I2  1  0.32500000  0.13260000  0.08015000  1.0 -0.4979309422
I  I3  1  0.07131000  0.82331000  0.48722000  1.0 -0.4496564848
I  I4  1  0.17669000  0.92869000  0.98722000  1.0 -0.4496564848
I  I5  1  0.12981000  0.57809000  0.92362000  1.0 -0.4496564848
I  I6  1  0.42191000  0.87019000  0.42362000  1.0 -0.4496564848
I  I7  1  0.16609000  0.35947000  0.93839000  1.0 -0.459109774
I  I8  1  0.64053000  0.83391000  0.43839000  1.0 -0.459109774
I  I9  1  0.06485000  0.30189000  0.81010000  1.0 -0.427094808
I  I10  1  0.69811000  0.93515000  0.31010000  1.0 -0.427094808
I  I11  1  0.02588000  0.47906000  0.70764000  1.0 -0.4405083564
I  I12  1  0.52094000  0.97412000  0.20764000  1.0 -0.4405083564
I  I13  1  0.67500000  0.86740000  0.91985000  1.0 -0.4979309422
I  I14  1  0.13260000  0.32500000  0.41985000  1.0 -0.4979309422
I  I15  1  0.82331000  0.07131000  0.01278000  1.0 -0.4496564848
I  I16  1  0.92869000  0.17669000  0.51278000  1.0 -0.4496564848
I  I17  1  0.57809000  0.12981000  0.57638000  1.0 -0.4496564848
I  I18  1  0.87019000  0.42191000  0.07638000  1.0 -0.4496564848
I  I19  1  0.35947000  0.16609000  0.56161000  1.0 -0.459109774
I  I20  1  0.83391000  0.64053000  0.06161000  1.0 -0.459109774
I  I21  1  0.30189000  0.06485000  0.68990000  1.0 -0.427094808
I  I22  1  0.93515000  0.69811000  0.18990000  1.0 -0.427094808
I  I23  1  0.47906000  0.02588000  0.79236000  1.0 -0.4405083564
I  I24  1  0.97412000  0.52094000  0.29236000  1.0 -0.4405083564
N  N1  1  0.14480000  0.82100000  0.59980000  1.0 -0.1837172516
N  N2  1  0.17900000  0.85520000  0.09980000  1.0 -0.1837172516
N  N3  1  0.29810000  0.61310000  0.87210000  1.0 -0.1860818939
N  N4  1  0.38690000  0.70190000  0.37210000  1.0 -0.1860818939
N  N5  1  0.84050000  0.19350000  0.73100000  1.0 -0.2012738307
N  N6  1  0.80650000  0.15950000  0.23100000  1.0 -0.2012738307
N  N7  1  0.32780000  0.78700000  0.73030000  1.0 -0.3888441331
N  N8  1  0.21300000  0.67220000  0.23030000  1.0 -0.3888441331
N  N9  1  0.49690000  0.87510000  0.76040000  1.0 -0.3888441331
N  N10  1  0.12490000  0.50310000  0.26040000  1.0 -0.3888441331
N  N11  1  0.46160000  0.93520000  0.69420000  1.0 -0.3888441331
N  N12  1  0.06480000  0.53840000  0.19420000  1.0 -0.3888441331
N  N13  1  0.36220000  0.61160000  0.96770000  1.0 -0.2012738307
N  N14  1  0.38840000  0.63780000  0.46770000  1.0 -0.2012738307
N  N15  1  0.69980000  0.95680000  0.19820000  1.0 -0.1837172516
N  N16  1  0.04320000  0.30020000  0.69820000  1.0 -0.1837172516
N  N17  1  0.05530000  0.92350000  0.05890000  1.0 -0.2012738307
N  N18  1  0.07650000  0.94470000  0.55890000  1.0 -0.2012738307
N  N19  1  0.62150000  0.80030000  0.08250000  1.0 -0.4119019119
N  N20  1  0.19970000  0.37850000  0.58250000  1.0 -0.4119019119
N  N21  1  0.79260000  0.88140000  0.10390000  1.0 -0.4030454237
N  N22  1  0.11860000  0.20740000  0.60390000  1.0 -0.4119019119
N  N23  1  0.70620000  0.79280000  0.04680000  1.0 -0.4030454237
N  N24  1  0.20720000  0.29380000  0.54680000  1.0 -0.4030454237
N  N25  1  0.82100000  0.14480000  0.90020000  1.0 -0.1837172516
N  N26  1  0.85520000  0.17900000  0.40020000  1.0 -0.1837172516
N  N27  1  0.61310000  0.29810000  0.62790000  1.0 -0.1860818939
N  N28  1  0.70190000  0.38690000  0.12790000  1.0 -0.1860818939
N  N29  1  0.19350000  0.84050000  0.76900000  1.0 -0.2012738307
N  N30  1  0.15950000  0.80650000  0.26900000  1.0 -0.2012738307
N  N31  1  0.78700000  0.32780000  0.76970000  1.0 -0.3888441331
N  N32  1  0.67220000  0.21300000  0.26970000  1.0 -0.3888441331
N  N33  1  0.87510000  0.49690000  0.73960000  1.0 -0.3888441331
N  N34  1  0.50310000  0.12490000  0.23960000  1.0 -0.3888441331
N  N35  1  0.93520000  0.46160000  0.80580000  1.0 -0.3888441331
N  N36  1  0.53840000  0.06480000  0.30580000  1.0 -0.3888441331
N  N37  1  0.61160000  0.36220000  0.53230000  1.0 -0.2012738307
N  N38  1  0.63780000  0.38840000  0.03230000  1.0 -0.2012738307
N  N39  1  0.95680000  0.69980000  0.30180000  1.0 -0.1837172516
N  N40  1  0.30020000  0.04320000  0.80180000  1.0 -0.1837172516
N  N41  1  0.92350000  0.05530000  0.44110000  1.0 -0.2012738307
N  N42  1  0.94470000  0.07650000  0.94110000  1.0 -0.2012738307
N  N43  1  0.80030000  0.62150000  0.41750000  1.0 -0.4119019119
N  N44  1  0.37850000  0.19970000  0.91750000  1.0 -0.4119019119
N  N45  1  0.88140000  0.79260000  0.39610000  1.0 -0.4030454237
N  N46  1  0.20740000  0.11860000  0.89610000  1.0 -0.4030454237
N  N47  1  0.79280000  0.70620000  0.45320000  1.0 -0.4030454237
N  N48  1  0.29380000  0.20720000  0.95320000  1.0 -0.4030454237
O  O1  1  0.30260000  0.29440000  0.23420000  1.0 -0.0369388965
O  O2  1  0.29440000  0.30260000  0.26580000  1.0 -0.0369388965
O  O3  1  0.48550000  0.59210000  0.18660000  1.0 -0.3287858126
O  O4  1  0.59210000  0.48550000  0.31340000  1.0 -0.3287858126
O  O5  1  0.41670000  0.52850000  0.11130000  1.0 -0.1075408702
O  O6  1  0.52850000  0.41670000  0.38870000  1.0 -0.1075408702
O  O7  1  0.27970000  0.37710000  0.06740000  1.0 0.0207580797
O  O8  1  0.37710000  0.27970000  0.43260000  1.0 0.0207580797
O  O9  1  0.15570000  0.17330000  0.10910000  1.0 -0.1515380857
O  O10  1  0.17330000  0.15570000  0.39090000  1.0 -0.1515380857
O  O11  1  0.17900000  0.14300000  0.19230000  1.0 -0.1860818939
O  O12  1  0.14300000  0.17900000  0.30770000  1.0 -0.1860818939
O  O13  1  0.34190000  0.24010000  0.42460000  1.0 0.0421600359
O  O14  1  0.24010000  0.34190000  0.07540000  1.0 0.0421600359
O  O15  1  0.69740000  0.70560000  0.76580000  1.0 -0.0369388965
O  O16  1  0.70560000  0.69740000  0.73420000  1.0 -0.0369388965
O  O17  1  0.51450000  0.40790000  0.81340000  1.0 -0.3287858126
O  O18  1  0.40790000  0.51450000  0.68660000  1.0 -0.3287858126
O  O19  1  0.58330000  0.47150000  0.88870000  1.0 -0.1075408702
O  O20  1  0.47150000  0.58330000  0.61130000  1.0 -0.1075408702
O  O21  1  0.72030000  0.62290000  0.93260000  1.0 0.0207580797
O  O22  1  0.62290000  0.72030000  0.56740000  1.0 0.0207580797
O  O23  1  0.84430000  0.82670000  0.89090000  1.0 -0.1515380857
O  O24  1  0.82670000  0.84430000  0.60910000  1.0 -0.1515380857
O  O25  1  0.82100000  0.85700000  0.80770000  1.0 -0.1860818939
O  O26  1  0.85700000  0.82100000  0.69230000  1.0 -0.1860818939
O  O27  1  0.65810000  0.75990000  0.57540000  1.0 0.0421600359
O  O28  1  0.75990000  0.65810000  0.92460000  1.0 0.0421600359
