# DDEC6 charges by PACMAN v1.1 (https://github.com/mtap-research/PACMAN-charge/)
data_LABPUC_ASR_pacman
_symmetry_space_group_name_H-M   'P 1'
_cell_length_a   14.83030000
_cell_length_b   17.91300000
_cell_length_c   29.89430000
_cell_angle_alpha   96.80300000
_cell_angle_beta   93.48800000
_cell_angle_gamma   110.22900000
_symmetry_Int_Tables_number   1
_chemical_formula_structural   Zn9H96C102I26(N6O)4
_chemical_formula_sum   'Zn18 H192 C204 I52 N48 O8'
_cell_volume   7354.96121325
_cell_formula_units_Z   2
loop_
 _symmetry_equiv_pos_site_id
 _symmetry_equiv_pos_as_xyz
  1  'x, y, z'
loop_
 _atom_site_type_symbol
 _atom_site_label
 _atom_site_symmetry_multiplicity
 _atom_site_fract_x
 _atom_site_fract_y
 _atom_site_fract_z
 _atom_site_occupancy
 _atom_site_charge
Zn  Zn1  1  0.94698000  0.65374000  0.09346000  1.0 0.3092433559
Zn  Zn2  1  0.27905000  0.24665000  0.43776000  1.0 0.4339787113
Zn  Zn3  1  0.21749000  0.65138000  0.60046000  1.0 0.3780548023
Zn  Zn4  1  0.53980000  0.82614000  0.78383000  1.0 0.2804029184
Zn  Zn5  1  0.82300000  0.84020000  0.25699000  1.0 0.2974192547
Zn  Zn6  1  0.43550000  0.17980000  0.98090000  1.0 -0.0395991994
Zn  Zn7  1  0.83130000  0.85790000  0.26580000  1.0 0.3202284174
Zn  Zn8  1  0.45810000  0.18820000  0.97100000  1.0 0.0415386213
Zn  Zn9  1  0.47260000  0.20480000  0.95180000  1.0 0.0191311009
Zn  Zn10  1  0.05302000  0.34626000  0.90654000  1.0 0.3092433559
Zn  Zn11  1  0.72095000  0.75335000  0.56224000  1.0 0.4339787113
Zn  Zn12  1  0.78251000  0.34862000  0.39954000  1.0 0.3780548023
Zn  Zn13  1  0.46020000  0.17386000  0.21617000  1.0 0.2804029184
Zn  Zn14  1  0.17700000  0.15980000  0.74301000  1.0 0.2974192547
Zn  Zn15  1  0.56450000  0.82020000  0.01910000  1.0 -0.0395991994
Zn  Zn16  1  0.16870000  0.14210000  0.73420000  1.0 0.3202284174
Zn  Zn17  1  0.54190000  0.81180000  0.02900000  1.0 0.0415386213
Zn  Zn18  1  0.52740000  0.79520000  0.04820000  1.0 0.0191311009
H  H1  1  0.12930000  0.65760000  0.14200000  1.0 0.0996862992
H  H2  1  0.25620000  0.73960000  0.19420000  1.0 0.130552385
H  H3  1  0.12550000  0.90390000  0.20570000  1.0 0.1202953613
H  H4  1  0.00530000  0.81940000  0.14990000  1.0 0.0697546469
H  H5  1  0.18930000  0.14810000  0.34530000  1.0 0.0905546093
H  H6  1  0.21020000  0.04780000  0.29490000  1.0 0.1093519195
H  H7  1  0.45080000  0.07120000  0.37340000  1.0 0.1485532824
H  H8  1  0.42540000  0.16940000  0.42270000  1.0 0.1093519195
H  H9  1  0.63080000  0.79570000  0.20960000  1.0 0.0905546093
H  H10  1  0.48510000  0.81580000  0.21500000  1.0 0.1485532824
H  H11  1  0.60630000  0.98180000  0.32350000  1.0 0.1485532824
H  H12  1  0.75250000  0.95920000  0.31320000  1.0 0.0996862992
H  H13  1  0.45210000  0.34100000  0.51030000  1.0 0.0996862992
H  H14  1  0.60060000  0.44810000  0.51500000  1.0 0.139250719
H  H15  1  0.54300000  0.46330000  0.38310000  1.0 0.1202953613
H  H16  1  0.39800000  0.35340000  0.38190000  1.0 0.0905546093
H  H17  1  0.00980000  0.52450000  0.58050000  1.0 0.0996862992
H  H18  1  0.86780000  0.50640000  0.53590000  1.0 0.139250719
H  H19  1  0.01380000  0.69490000  0.47580000  1.0 0.130552385
H  H20  1  0.15380000  0.70700000  0.52050000  1.0 0.0996862992
H  H21  1  0.68270000  0.69900000  0.28440000  1.0 0.0797962807
H  H22  1  0.65250000  0.62100000  0.34290000  1.0 0.1202953613
H  H23  1  0.90260000  0.77810000  0.41150000  1.0 0.139250719
H  H24  1  0.92230000  0.85270000  0.35280000  1.0 0.0797962807
H  H25  1  0.31190000  0.80910000  0.66360000  1.0 0.0797962807
H  H26  1  0.27420000  0.88290000  0.72540000  1.0 0.1202953613
H  H27  1  0.99840000  0.73350000  0.69760000  1.0 0.130552385
H  H28  1  0.04240000  0.65980000  0.64030000  1.0 0.1093519195
H  H29  1  0.24830000  0.16010000  0.93370000  1.0 0.0797962807
H  H30  1  0.12880000  0.07400000  0.87850000  1.0 0.1093519195
H  H31  1  0.32620000  0.98300000  0.83130000  1.0 0.1093519195
H  H32  1  0.44060000  0.07270000  0.88700000  1.0 0.0905546093
H  H33  1  0.72730000  0.93420000  0.83980000  1.0 0.0905546093
H  H34  1  0.89020000  0.95620000  0.84460000  1.0 0.139250719
H  H35  1  0.83480000  0.77010000  0.74270000  1.0 0.139250719
H  H36  1  0.67090000  0.75190000  0.74260000  1.0 0.0905546093
H  H37  1  0.39120000  0.80760000  0.84750000  1.0 0.0996862992
H  H38  1  0.32820000  0.73310000  0.90380000  1.0 0.1485532824
H  H39  1  0.50490000  0.60870000  0.87970000  1.0 0.130552385
H  H40  1  0.56820000  0.68950000  0.82600000  1.0 0.1093519195
H  H41  1  0.02700000  0.51680000  0.07450000  1.0 0.0905546093
H  H42  1  0.14800000  0.49220000  0.03850000  1.0 0.139250719
H  H43  1  0.18610000  0.69200000  0.98000000  1.0 0.139250719
H  H44  1  0.06690000  0.71250000  0.02050000  1.0 0.0905546093
H  H45  1  0.46500000  0.31090000  0.91380000  1.0 0.0905546093
H  H46  1  0.42450000  0.42450000  0.90840000  1.0 0.130552385
H  H47  1  0.33870000  0.41150000  0.03180000  1.0 0.130552385
H  H48  1  0.37800000  0.29730000  0.03340000  1.0 0.0996862992
H  H49  1  0.87070000  0.34240000  0.85800000  1.0 0.0996862992
H  H50  1  0.74380000  0.26040000  0.80580000  1.0 0.130552385
H  H51  1  0.87450000  0.09610000  0.79430000  1.0 0.1202953613
H  H52  1  0.99470000  0.18060000  0.85010000  1.0 0.0697546469
H  H53  1  0.81070000  0.85190000  0.65470000  1.0 0.0905546093
H  H54  1  0.78980000  0.95220000  0.70510000  1.0 0.1093519195
H  H55  1  0.54920000  0.92880000  0.62660000  1.0 0.1485532824
H  H56  1  0.57460000  0.83060000  0.57730000  1.0 0.1093519195
H  H57  1  0.36920000  0.20430000  0.79040000  1.0 0.0905546093
H  H58  1  0.51490000  0.18420000  0.78500000  1.0 0.1485532824
H  H59  1  0.39370000  0.01820000  0.67650000  1.0 0.1485532824
H  H60  1  0.24750000  0.04080000  0.68680000  1.0 0.0996862992
H  H61  1  0.54790000  0.65900000  0.48970000  1.0 0.0996862992
H  H62  1  0.39940000  0.55190000  0.48500000  1.0 0.139250719
H  H63  1  0.45700000  0.53670000  0.61690000  1.0 0.1202953613
H  H64  1  0.60200000  0.64660000  0.61810000  1.0 0.0996862992
H  H65  1  0.99020000  0.47550000  0.41950000  1.0 0.0996862992
H  H66  1  0.13220000  0.49360000  0.46410000  1.0 0.139250719
H  H67  1  0.98620000  0.30510000  0.52420000  1.0 0.130552385
H  H68  1  0.84620000  0.29300000  0.47950000  1.0 0.0996862992
H  H69  1  0.31730000  0.30100000  0.71560000  1.0 0.0797962807
H  H70  1  0.34750000  0.37900000  0.65710000  1.0 0.1202953613
H  H71  1  0.09740000  0.22190000  0.58850000  1.0 0.139250719
H  H72  1  0.07770000  0.14730000  0.64720000  1.0 0.0797962807
H  H73  1  0.68810000  0.19090000  0.33640000  1.0 0.0797962807
H  H74  1  0.72580000  0.11710000  0.27460000  1.0 0.1202953613
H  H75  1  0.00160000  0.26650000  0.30240000  1.0 0.130552385
H  H76  1  0.95760000  0.34020000  0.35970000  1.0 0.1093519195
H  H77  1  0.75170000  0.83990000  0.06630000  1.0 0.0797962807
H  H78  1  0.87120000  0.92600000  0.12150000  1.0 0.1093519195
H  H79  1  0.67380000  0.01700000  0.16870000  1.0 0.1093519195
H  H80  1  0.55940000  0.92730000  0.11300000  1.0 0.0905546093
H  H81  1  0.27270000  0.06580000  0.16020000  1.0 0.0905546093
H  H82  1  0.10980000  0.04380000  0.15540000  1.0 0.139250719
H  H83  1  0.16520000  0.22990000  0.25730000  1.0 0.139250719
H  H84  1  0.32910000  0.24810000  0.25740000  1.0 0.0905546093
H  H85  1  0.60880000  0.19240000  0.15250000  1.0 0.0996862992
H  H86  1  0.67180000  0.26690000  0.09620000  1.0 0.1485532824
H  H87  1  0.49510000  0.39130000  0.12030000  1.0 0.130552385
H  H88  1  0.43180000  0.31050000  0.17400000  1.0 0.1202953613
H  H89  1  0.97300000  0.48320000  0.92550000  1.0 0.0905546093
H  H90  1  0.85200000  0.50780000  0.96150000  1.0 0.139250719
H  H91  1  0.81390000  0.30800000  0.02000000  1.0 0.139250719
H  H92  1  0.93310000  0.28750000  0.97950000  1.0 0.0905546093
H  H93  1  0.53500000  0.68910000  0.08620000  1.0 0.0905546093
H  H94  1  0.57550000  0.57550000  0.09160000  1.0 0.130552385
H  H95  1  0.66130000  0.58850000  0.96820000  1.0 0.130552385
H  H96  1  0.62200000  0.70270000  0.96660000  1.0 0.0996862992
H  H97  1  0.50650000  0.63710000  0.32470000  1.0 0.0697546469
H  H98  1  0.49350000  0.36290000  0.67530000  1.0 0.0697546469
H  H99  1  0.40930000  0.54990000  0.39270000  1.0 0.0905546093
H  H100  1  0.59070000  0.45010000  0.60730000  1.0 0.0905546093
H  H101  1  0.34900000  0.41760000  0.32860000  1.0 0.0996862992
H  H102  1  0.65100000  0.58240000  0.67140000  1.0 0.0996862992
H  H103  1  0.18680000  0.45030000  0.30390000  1.0 0.1485532824
H  H104  1  0.81320000  0.54970000  0.69610000  1.0 0.1485532824
H  H105  1  0.27790000  0.53760000  0.24230000  1.0 0.1202953613
H  H106  1  0.72210000  0.46240000  0.75770000  1.0 0.1202953613
H  H107  1  0.34940000  0.67040000  0.30400000  1.0 0.0905546093
H  H108  1  0.65060000  0.32960000  0.69600000  1.0 0.0905546093
H  H109  1  0.67910000  0.54000000  0.24220000  1.0 0.0797962807
H  H110  1  0.32090000  0.46000000  0.75780000  1.0 0.0797962807
H  H111  1  0.61850000  0.44830000  0.24630000  1.0 0.0519645831
H  H112  1  0.38150000  0.55170000  0.75370000  1.0 0.0519645831
H  H113  1  0.59080000  0.48810000  0.20480000  1.0 0.0697546469
H  H114  1  0.40920000  0.51190000  0.79520000  1.0 0.0697546469
H  H115  1  0.23440000  0.76350000  0.41840000  1.0 0.139250719
H  H116  1  0.76560000  0.23650000  0.58160000  1.0 0.139250719
H  H117  1  0.16610000  0.67530000  0.42530000  1.0 0.1485532824
H  H118  1  0.83390000  0.32470000  0.57470000  1.0 0.1485532824
H  H119  1  0.26800000  0.71840000  0.45550000  1.0 0.0905546093
H  H120  1  0.73200000  0.28160000  0.54450000  1.0 0.0905546093
H  H121  1  0.33880000  0.97300000  0.53210000  1.0 0.0996862992
H  H122  1  0.66120000  0.02700000  0.46790000  1.0 0.0996862992
H  H123  1  0.44280000  0.96860000  0.54620000  1.0 0.0297576536
H  H124  1  0.55720000  0.03140000  0.45380000  1.0 0.0297576536
H  H125  1  0.41500000  0.00960000  0.46800000  1.0 0.0519645831
H  H126  1  0.58500000  0.99040000  0.53200000  1.0 0.0519645831
H  H127  1  0.44080000  0.09770000  0.49710000  1.0 0.1202953613
H  H128  1  0.55920000  0.90230000  0.50290000  1.0 0.1202953613
H  H129  1  0.56720000  0.00650000  0.48760000  1.0 0.0101407712
H  H130  1  0.43280000  0.99350000  0.51240000  1.0 0.0101407712
H  H131  1  0.59910000  0.10340000  0.49540000  1.0 0.0996862992
H  H132  1  0.40090000  0.89660000  0.50460000  1.0 0.0996862992
H  H133  1  0.63770000  0.06570000  0.56640000  1.0 0.0996862992
H  H134  1  0.36230000  0.93430000  0.43360000  1.0 0.1093519195
H  H135  1  0.53060000  0.00050000  0.56380000  1.0 0.0415386213
H  H136  1  0.46940000  0.99950000  0.43620000  1.0 0.0415386213
H  H137  1  0.56570000  0.13870000  0.61240000  1.0 0.0697546469
H  H138  1  0.43430000  0.86130000  0.38760000  1.0 0.0697546469
H  H139  1  0.54630000  0.16650000  0.56440000  1.0 0.0297576536
H  H140  1  0.45370000  0.83350000  0.43560000  1.0 0.0297576536
H  H141  1  0.38650000  0.10600000  0.57440000  1.0 0.0905546093
H  H142  1  0.61350000  0.89400000  0.42560000  1.0 0.0905546093
H  H143  1  0.41000000  0.04940000  0.60810000  1.0 0.0905546093
H  H144  1  0.59000000  0.95060000  0.39190000  1.0 0.0905546093
H  H145  1  0.45080000  0.67780000  0.44040000  1.0 0.0996862992
H  H146  1  0.54920000  0.32220000  0.55960000  1.0 0.0996862992
H  H147  1  0.33850000  0.63850000  0.42060000  1.0 0.130552385
H  H148  1  0.66150000  0.36150000  0.57940000  1.0 0.130552385
H  H149  1  0.37490000  0.62750000  0.34800000  1.0 0.0415386213
H  H150  1  0.62510000  0.37250000  0.65200000  1.0 0.0415386213
H  H151  1  0.48290000  0.64160000  0.36960000  1.0 0.0797962807
H  H152  1  0.51710000  0.35840000  0.63040000  1.0 0.0797962807
H  H153  1  0.49210000  0.74930000  0.32550000  1.0 0.0996862992
H  H154  1  0.50790000  0.25070000  0.67450000  1.0 0.0996862992
H  H155  1  0.41360000  0.77140000  0.35370000  1.0 0.0697546469
H  H156  1  0.58640000  0.22860000  0.64630000  1.0 0.0697546469
H  H157  1  0.59030000  0.77560000  0.40120000  1.0 0.1093519195
H  H158  1  0.40970000  0.22440000  0.59880000  1.0 0.1093519195
H  H159  1  0.58810000  0.85350000  0.38020000  1.0 0.0697546469
H  H160  1  0.41190000  0.14650000  0.61980000  1.0 0.0697546469
H  H161  1  0.50070000  0.88340000  0.43340000  1.0 0.0297576536
H  H162  1  0.49930000  0.11660000  0.56660000  1.0 0.0297576536
H  H163  1  0.53110000  0.82210000  0.46110000  1.0 0.0697546469
H  H164  1  0.46890000  0.17790000  0.53890000  1.0 0.0697546469
H  H165  1  0.36380000  0.77250000  0.39280000  1.0 0.0797962807
H  H166  1  0.63620000  0.22750000  0.60720000  1.0 0.0797962807
H  H167  1  0.35540000  0.77220000  0.44610000  1.0 0.0797962807
H  H168  1  0.64460000  0.22780000  0.55390000  1.0 0.0797962807
H  H169  1  0.57030000  0.55300000  0.30650000  1.0 0.130552385
H  H170  1  0.42970000  0.44700000  0.69350000  1.0 0.130552385
H  H171  1  0.48260000  0.46880000  0.30340000  1.0 0.0797962807
H  H172  1  0.51740000  0.53120000  0.69660000  1.0 0.0797962807
H  H173  1  0.54160000  0.41380000  0.24000000  1.0 0.0905546093
H  H174  1  0.45840000  0.58620000  0.76000000  1.0 0.0905546093
H  H175  1  0.62510000  0.44610000  0.28170000  1.0 0.0611013756
H  H176  1  0.37490000  0.55390000  0.71830000  1.0 0.0611013756
H  H177  1  0.70170000  0.56510000  0.25030000  1.0 0.1093519195
H  H178  1  0.29830000  0.43490000  0.74970000  1.0 0.1093519195
H  H179  1  0.68830000  0.48890000  0.21300000  1.0 0.0797962807
H  H180  1  0.31170000  0.51110000  0.78700000  1.0 0.0797962807
H  H181  1  0.54940000  0.50220000  0.17630000  1.0 0.0905546093
H  H182  1  0.45060000  0.49780000  0.82370000  1.0 0.0905546093
H  H183  1  0.63840000  0.58570000  0.17990000  1.0 0.0905546093
H  H184  1  0.36160000  0.41430000  0.82010000  1.0 0.0905546093
H  H185  1  0.58090000  0.63930000  0.24530000  1.0 0.0797962807
H  H186  1  0.41910000  0.36070000  0.75470000  1.0 0.0797962807
H  H187  1  0.49920000  0.61220000  0.20280000  1.0 0.1093519195
H  H188  1  0.50080000  0.38780000  0.79720000  1.0 0.1093519195
H  H189  1  0.42190000  0.48650000  0.23010000  1.0 0.1485532824
H  H190  1  0.57810000  0.51350000  0.76990000  1.0 0.1485532824
H  H191  1  0.42720000  0.56050000  0.26740000  1.0 0.0797962807
H  H192  1  0.57280000  0.43950000  0.73260000  1.0 0.0797962807
C  C1  1  0.12950000  0.70880000  0.15480000  1.0 0.0697546469
C  C2  1  0.20430000  0.75670000  0.18620000  1.0 -0.1507269975
C  C3  1  0.20360000  0.83060000  0.20630000  1.0 0.0611013756
C  C4  1  0.12840000  0.85390000  0.19280000  1.0 -0.1507269975
C  C5  1  0.05650000  0.80260000  0.15970000  1.0 0.0611013756
C  C6  1  0.24280000  0.13170000  0.35130000  1.0 0.0797962807
C  C7  1  0.25570000  0.07260000  0.32090000  1.0 -0.1397378512
C  C8  1  0.33360000  0.05010000  0.32810000  1.0 0.0519645831
C  C9  1  0.39660000  0.08640000  0.36700000  1.0 -0.1687074384
C  C10  1  0.38080000  0.14430000  0.39640000  1.0 0.0697546469
C  C11  1  0.62660000  0.83460000  0.23310000  1.0 0.0191311009
C  C12  1  0.53910000  0.84580000  0.23660000  1.0 -0.1397378512
C  C13  1  0.52990000  0.89880000  0.27030000  1.0 0.0611013756
C  C14  1  0.60890000  0.94290000  0.29960000  1.0 -0.1591803821
C  C15  1  0.69650000  0.92840000  0.29300000  1.0 0.0797962807
C  C16  1  0.28370000  0.88140000  0.24080000  1.0 0.3600529963
C  C17  1  0.34740000  0.98570000  0.29700000  1.0 0.3600529963
C  C18  1  0.43600000  0.91210000  0.27290000  1.0 0.3600529963
C  C19  1  0.47040000  0.36630000  0.48430000  1.0 0.0996862992
C  C20  1  0.55880000  0.43060000  0.48740000  1.0 -0.1397378512
C  C21  1  0.58410000  0.46780000  0.45020000  1.0 0.0697546469
C  C22  1  0.52570000  0.43970000  0.40960000  1.0 -0.1687074384
C  C23  1  0.43910000  0.37430000  0.40950000  1.0 0.0797962807
C  C24  1  0.01040000  0.55980000  0.55910000  1.0 0.0611013756
C  C25  1  0.92560000  0.54920000  0.53290000  1.0 -0.1305255711
C  C26  1  0.92570000  0.60080000  0.50270000  1.0 0.0611013756
C  C27  1  0.01140000  0.65960000  0.49740000  1.0 -0.1397378512
C  C28  1  0.09440000  0.66666667  0.52430000  1.0 0.0797962807
C  C29  1  0.72750000  0.71480000  0.31090000  1.0 -0.0178015307
C  C30  1  0.70950000  0.66740000  0.34500000  1.0 -0.2203570632
C  C31  1  0.77930000  0.69100000  0.38300000  1.0 0.0996862992
C  C32  1  0.85640000  0.76020000  0.38550000  1.0 -0.1106826319
C  C33  1  0.86780000  0.80430000  0.35060000  1.0 0.0697546469
C  C34  1  0.67790000  0.53540000  0.45140000  1.0 0.3691903797
C  C35  1  0.83600000  0.59600000  0.47450000  1.0 0.3691903797
C  C36  1  0.76770000  0.63880000  0.41940000  1.0 0.3600529963
C  C37  1  0.24740000  0.79270000  0.67120000  1.0 0.0797962807
C  C38  1  0.22490000  0.83800000  0.70780000  1.0 -0.1591803821
C  C39  1  0.13140000  0.81650000  0.71780000  1.0 0.0611013756
C  C40  1  0.06410000  0.74980000  0.69170000  1.0 -0.1397378512
C  C41  1  0.09010000  0.70640000  0.65730000  1.0 0.0797962807
C  C42  1  0.26390000  0.12360000  0.91270000  1.0 0.0191311009
C  C43  1  0.19230000  0.07230000  0.88010000  1.0 -0.1591803821
C  C44  1  0.21470000  0.01790000  0.84960000  1.0 0.0519645831
C  C45  1  0.30870000  0.01870000  0.85210000  1.0 -0.1591803821
C  C46  1  0.37620000  0.07220000  0.88540000  1.0 0.0101407712
C  C47  1  0.74980000  0.90050000  0.82000000  1.0 0.0797962807
C  C48  1  0.84670000  0.91440000  0.82270000  1.0 -0.1507269975
C  C49  1  0.88050000  0.86750000  0.79380000  1.0 0.0611013756
C  C50  1  0.81420000  0.80450000  0.76290000  1.0 -0.1507269975
C  C51  1  0.71700000  0.79450000  0.76310000  1.0 0.0697546469
C  C52  1  0.10360000  0.86320000  0.75500000  1.0 0.3452961045
C  C53  1  0.98770000  0.88550000  0.79160000  1.0 0.3393157559
C  C54  1  0.14030000  0.95680000  0.81520000  1.0 0.3452961045
C  C55  1  0.41540000  0.76730000  0.85470000  1.0 0.0519645831
C  C56  1  0.37640000  0.72240000  0.88740000  1.0 -0.1397378512
C  C57  1  0.40850000  0.66080000  0.89630000  1.0 0.0519645831
C  C58  1  0.48070000  0.64950000  0.87360000  1.0 -0.1934874458
C  C59  1  0.51810000  0.69790000  0.84190000  1.0 0.0297576536
C  C60  1  0.06130000  0.55370000  0.05560000  1.0 0.0697546469
C  C61  1  0.13260000  0.53820000  0.03410000  1.0 -0.1507269975
C  C62  1  0.18200000  0.58960000  0.00610000  1.0 0.0611013756
C  C63  1  0.15560000  0.65590000  0.00000000  1.0 -0.1507269975
C  C64  1  0.08390000  0.66690000  0.02400000  1.0 0.0519645831
C  C65  1  0.43820000  0.33160000  0.93830000  1.0 0.0297576536
C  C66  1  0.41620000  0.40010000  0.93510000  1.0 -0.1305255711
C  C67  1  0.38230000  0.43140000  0.97120000  1.0 0.0297576536
C  C68  1  0.36580000  0.39230000  0.00690000  1.0 -0.1397378512
C  C69  1  0.38850000  0.32380000  0.00750000  1.0 0.0611013756
C  C70  1  0.36590000  0.60950000  0.93020000  1.0 0.3296690183
C  C71  1  0.26250000  0.57710000  0.98250000  1.0 0.3393157559
C  C72  1  0.35460000  0.50310000  0.96540000  1.0 0.3691903797
C  C73  1  0.87050000  0.29120000  0.84520000  1.0 0.0697546469
C  C74  1  0.79570000  0.24330000  0.81380000  1.0 -0.1507269975
C  C75  1  0.79640000  0.16940000  0.79370000  1.0 0.0611013756
C  C76  1  0.87160000  0.14610000  0.80720000  1.0 -0.1507269975
C  C77  1  0.94350000  0.19740000  0.84030000  1.0 0.0697546469
C  C78  1  0.75720000  0.86830000  0.64870000  1.0 0.0797962807
C  C79  1  0.74430000  0.92740000  0.67910000  1.0 -0.1397378512
C  C80  1  0.66640000  0.94990000  0.67190000  1.0 0.0519645831
C  C81  1  0.60340000  0.91360000  0.63300000  1.0 -0.1687074384
C  C82  1  0.61920000  0.85570000  0.60360000  1.0 0.0697546469
C  C83  1  0.37340000  0.16540000  0.76690000  1.0 0.0191311009
C  C84  1  0.46090000  0.15420000  0.76340000  1.0 -0.1397378512
C  C85  1  0.47010000  0.10120000  0.72970000  1.0 0.0611013756
C  C86  1  0.39110000  0.05710000  0.70040000  1.0 -0.1591803821
C  C87  1  0.30350000  0.07160000  0.70700000  1.0 0.0797962807
C  C88  1  0.71630000  0.11860000  0.75920000  1.0 0.3600529963
C  C89  1  0.65260000  0.01430000  0.70300000  1.0 0.3600529963
C  C90  1  0.56400000  0.08790000  0.72710000  1.0 0.3600529963
C  C91  1  0.52960000  0.63370000  0.51570000  1.0 0.0996862992
C  C92  1  0.44120000  0.56940000  0.51260000  1.0 -0.1397378512
C  C93  1  0.41590000  0.53220000  0.54980000  1.0 0.0697546469
C  C94  1  0.47430000  0.56030000  0.59040000  1.0 -0.1687074384
C  C95  1  0.56090000  0.62570000  0.59050000  1.0 0.0797962807
C  C96  1  0.98960000  0.44020000  0.44090000  1.0 0.0611013756
C  C97  1  0.07440000  0.45080000  0.46710000  1.0 -0.1305255711
C  C98  1  0.07430000  0.39920000  0.49730000  1.0 0.0611013756
C  C99  1  0.98860000  0.34040000  0.50260000  1.0 -0.1397378512
C  C100  1  0.90560000  0.33340000  0.47570000  1.0 0.0797962807
C  C101  1  0.27250000  0.28520000  0.68910000  1.0 -0.0178015307
C  C102  1  0.29050000  0.33260000  0.65500000  1.0 -0.2203570632
C  C103  1  0.22070000  0.30900000  0.61700000  1.0 0.0996862992
C  C104  1  0.14360000  0.23980000  0.61450000  1.0 -0.1106826319
C  C105  1  0.13220000  0.19570000  0.64940000  1.0 0.0697546469
C  C106  1  0.32210000  0.46460000  0.54860000  1.0 0.3691903797
C  C107  1  0.16400000  0.40400000  0.52550000  1.0 0.3691903797
C  C108  1  0.23230000  0.36120000  0.58060000  1.0 0.3600529963
C  C109  1  0.75260000  0.20730000  0.32880000  1.0 0.0905546093
C  C110  1  0.77510000  0.16200000  0.29220000  1.0 -0.1591803821
C  C111  1  0.86860000  0.18350000  0.28220000  1.0 0.0611013756
C  C112  1  0.93590000  0.25020000  0.30830000  1.0 -0.1397378512
C  C113  1  0.90990000  0.29360000  0.34270000  1.0 0.0797962807
C  C114  1  0.73610000  0.87640000  0.08730000  1.0 0.0191311009
C  C115  1  0.80770000  0.92770000  0.11990000  1.0 -0.1591803821
C  C116  1  0.78530000  0.98210000  0.15040000  1.0 0.0519645831
C  C117  1  0.69130000  0.98130000  0.14790000  1.0 -0.1591803821
C  C118  1  0.62380000  0.92780000  0.11460000  1.0 0.0101407712
C  C119  1  0.25020000  0.09950000  0.18000000  1.0 0.0797962807
C  C120  1  0.15330000  0.08560000  0.17730000  1.0 -0.1507269975
C  C121  1  0.11950000  0.13250000  0.20620000  1.0 0.0611013756
C  C122  1  0.18580000  0.19550000  0.23710000  1.0 -0.1507269975
C  C123  1  0.28300000  0.20550000  0.23690000  1.0 0.0697546469
C  C124  1  0.89640000  0.13680000  0.24500000  1.0 0.3393157559
C  C125  1  0.01230000  0.11450000  0.20840000  1.0 0.3393157559
C  C126  1  0.85970000  0.04320000  0.18480000  1.0 0.3452961045
C  C127  1  0.58460000  0.23270000  0.14530000  1.0 0.0519645831
C  C128  1  0.62360000  0.27760000  0.11260000  1.0 -0.1397378512
C  C129  1  0.59150000  0.33920000  0.10370000  1.0 0.0519645831
C  C130  1  0.51930000  0.35050000  0.12640000  1.0 -0.1934874458
C  C131  1  0.48190000  0.30210000  0.15810000  1.0 0.0297576536
C  C132  1  0.93870000  0.44630000  0.94440000  1.0 0.0697546469
C  C133  1  0.86740000  0.46180000  0.96590000  1.0 -0.1507269975
C  C134  1  0.81800000  0.41040000  0.99390000  1.0 0.0611013756
C  C135  1  0.84440000  0.34410000  0.00000000  1.0 -0.1507269975
C  C136  1  0.91610000  0.33310000  0.97600000  1.0 0.0519645831
C  C137  1  0.56180000  0.66840000  0.06170000  1.0 0.0297576536
C  C138  1  0.58380000  0.59990000  0.06490000  1.0 -0.1305255711
C  C139  1  0.61770000  0.56860000  0.02880000  1.0 0.0297576536
C  C140  1  0.63420000  0.60770000  0.99310000  1.0 -0.1305255711
C  C141  1  0.61150000  0.67620000  0.99250000  1.0 0.0611013756
C  C142  1  0.63410000  0.39050000  0.06980000  1.0 0.3296690183
C  C143  1  0.73750000  0.42290000  0.01750000  1.0 0.3393157559
C  C144  1  0.64540000  0.49690000  0.03460000  1.0 0.3691903797
C  C145  1  0.39400000  0.51800000  0.29030000  1.0 -0.067988509
C  C146  1  0.60600000  0.48200000  0.70970000  1.0 -0.067988509
C  C147  1  0.43800000  0.59900000  0.32150000  1.0 -0.1305255711
C  C148  1  0.56200000  0.40100000  0.67850000  1.0 -0.1305255711
C  C149  1  0.37900000  0.54700000  0.36150000  1.0 -0.1200967447
C  C150  1  0.62100000  0.45300000  0.63850000  1.0 -0.1200967447
C  C151  1  0.34800000  0.47200000  0.32410000  1.0 -0.1687074384
C  C152  1  0.65200000  0.52800000  0.67590000  1.0 -0.1687074384
C  C153  1  0.25500000  0.49000000  0.30850000  1.0 -0.0974476461
C  C154  1  0.74500000  0.51000000  0.69150000  1.0 -0.0974476461
C  C155  1  0.30400000  0.54000000  0.27430000  1.0 -0.1397378512
C  C156  1  0.69600000  0.46000000  0.72570000  1.0 -0.1397378512
C  C157  1  0.34800000  0.61600000  0.30960000  1.0 -0.1305255711
C  C158  1  0.65200000  0.38400000  0.69040000  1.0 -0.1305255711
C  C159  1  0.30100000  0.57400000  0.35150000  1.0 -0.0178015307
C  C160  1  0.69900000  0.42600000  0.64850000  1.0 -0.0178015307
C  C161  1  0.43600000  0.47700000  0.26710000  1.0 0.0036137533
C  C162  1  0.56400000  0.52300000  0.73290000  1.0 0.0036137533
C  C163  1  0.61500000  0.49800000  0.23710000  1.0 -0.0300483806
C  C164  1  0.38500000  0.50200000  0.76290000  1.0 -0.0300483806
C  C165  1  0.28400000  0.58800000  0.39820000  1.0 0.1818943666
C  C166  1  0.71600000  0.41200000  0.60180000  1.0 0.1818943666
C  C167  1  0.23300000  0.71100000  0.42550000  1.0 -0.2396026654
C  C168  1  0.76700000  0.28900000  0.57450000  1.0 -0.2396026654
C  C169  1  0.40900000  0.00500000  0.53900000  1.0 -0.1200967447
C  C170  1  0.59100000  0.99500000  0.46100000  1.0 -0.1200967447
C  C171  1  0.44800000  0.04500000  0.49680000  1.0 -0.1507269975
C  C172  1  0.55200000  0.95500000  0.50320000  1.0 -0.1507269975
C  C173  1  0.55600000  0.05300000  0.50440000  1.0 -0.0578457369
C  C174  1  0.44400000  0.94700000  0.49560000  1.0 -0.0578457369
C  C175  1  0.56900000  0.05400000  0.55620000  1.0 -0.2329666717
C  C176  1  0.43100000  0.94600000  0.44380000  1.0 -0.2329666717
C  C177  1  0.53400000  0.12000000  0.58100000  1.0 -0.0974476461
C  C178  1  0.46600000  0.88000000  0.41900000  1.0 -0.0974476461
C  C179  1  0.42500000  0.07200000  0.57970000  1.0 -0.1507269975
C  C180  1  0.57500000  0.92800000  0.42030000  1.0 -0.1507269975
C  C181  1  0.40200000  0.67900000  0.41700000  1.0 -0.1507269975
C  C182  1  0.59800000  0.32100000  0.58300000  1.0 -0.1507269975
C  C183  1  0.43100000  0.66400000  0.36900000  1.0 -0.0504040645
C  C184  1  0.56900000  0.33600000  0.63100000  1.0 -0.0504040645
C  C185  1  0.46700000  0.75100000  0.35550000  1.0 -0.2203570632
C  C186  1  0.53300000  0.24900000  0.64450000  1.0 -0.2203570632
C  C187  1  0.54800000  0.80500000  0.39200000  1.0 -0.2065566135
C  C188  1  0.45200000  0.19500000  0.60800000  1.0 -0.2065566135
C  C189  1  0.50000000  0.82800000  0.43210000  1.0 -0.067988509
C  C190  1  0.50000000  0.17200000  0.56790000  1.0 -0.067988509
C  C191  1  0.39500000  0.76500000  0.42100000  1.0 -0.1591803821
C  C192  1  0.60500000  0.23500000  0.57900000  1.0 -0.1591803821
C  C193  1  0.52600000  0.50600000  0.28500000  1.0 0.0101407712
C  C194  1  0.47400000  0.49400000  0.71500000  1.0 0.0101407712
C  C195  1  0.58600000  0.46300000  0.26000000  1.0 -0.0504040645
C  C196  1  0.41400000  0.53700000  0.74000000  1.0 -0.0395991994
C  C197  1  0.65300000  0.51900000  0.23000000  1.0 -0.0885215206
C  C198  1  0.34700000  0.48100000  0.77000000  1.0 -0.0885215206
C  C199  1  0.59400000  0.54800000  0.19800000  1.0 -0.1397378512
C  C200  1  0.40600000  0.45200000  0.80200000  1.0 -0.1397378512
C  C201  1  0.53600000  0.59200000  0.22400000  1.0 -0.2484867377
C  C202  1  0.46400000  0.40800000  0.77600000  1.0 -0.2484867377
C  C203  1  0.46600000  0.53400000  0.25100000  1.0 0.0611013756
C  C204  1  0.53400000  0.46600000  0.74900000  1.0 0.0611013756
I  I1  1  0.87500000  0.72470000  0.05120000  1.0 0.0415386213
I  I2  1  0.86200000  0.52670000  0.13340000  1.0 -0.1934874458
I  I3  1  0.25930000  0.18110000  0.50953000  1.0 -0.5138818426
I  I4  1  0.16190000  0.30120000  0.39931000  1.0 -0.4283834649
I  I5  1  0.78773000  0.73389000  0.18800000  1.0 0.0415386213
I  I6  1  0.97858000  0.95762000  0.27793000  1.0 -0.0395991994
I  I7  1  0.21170000  0.53566000  0.64139000  1.0 -0.1106826319
I  I8  1  0.35910000  0.73910000  0.56249000  1.0 -0.4996375693
I  I9  1  0.60410000  0.19820000  0.96300000  1.0 -0.0300483806
I  I10  1  0.34930000  0.11530000  0.04790000  1.0 -0.0092788882
I  I11  1  0.47020000  0.73500000  0.70566000  1.0 0.0297576536
I  I12  1  0.52200000  0.95560000  0.80890000  1.0 -0.0504040645
I  I13  1  0.87660000  0.74570000  0.04800000  1.0 0.0797962807
I  I14  1  0.85920000  0.54110000  0.13050000  1.0 -0.1687074384
I  I15  1  0.25760000  0.18790000  0.50948000  1.0 -0.4996375693
I  I16  1  0.15950000  0.29710000  0.39785000  1.0 -0.4283834649
I  I17  1  0.81640000  0.77000000  0.18960000  1.0 -0.0092788882
I  I18  1  0.98070000  0.98700000  0.29110000  1.0 0.0519645831
I  I19  1  0.19200000  0.53130000  0.64510000  1.0 -0.1106826319
I  I20  1  0.35110000  0.72470000  0.56350000  1.0 -0.4447794361
I  I21  1  0.61630000  0.22120000  0.93310000  1.0 -0.067988509
I  I22  1  0.41090000  0.12320000  0.03869000  1.0 -0.1106826319
I  I23  1  0.47110000  0.75810000  0.70920000  1.0 0.0191311009
I  I24  1  0.52610000  0.96950000  0.81620000  1.0 -0.0504040645
I  I25  1  0.62200000  0.24880000  0.90330000  1.0 0.0101407712
I  I26  1  0.47310000  0.14120000  0.02110000  1.0 -0.0974476461
I  I27  1  0.12500000  0.27530000  0.94880000  1.0 0.0415386213
I  I28  1  0.13800000  0.47330000  0.86660000  1.0 -0.1934874458
I  I29  1  0.74070000  0.81890000  0.49047000  1.0 -0.5179194016
I  I30  1  0.83810000  0.69880000  0.60069000  1.0 -0.4283834649
I  I31  1  0.21227000  0.26611000  0.81200000  1.0 0.0415386213
I  I32  1  0.02142000  0.04238000  0.72207000  1.0 -0.0395991994
I  I33  1  0.78830000  0.46434000  0.35861000  1.0 -0.1200967447
I  I34  1  0.64090000  0.26090000  0.43751000  1.0 -0.4996375693
I  I35  1  0.39590000  0.80180000  0.03700000  1.0 -0.0300483806
I  I36  1  0.65070000  0.88470000  0.95210000  1.0 -0.0092788882
I  I37  1  0.52980000  0.26500000  0.29434000  1.0 0.0297576536
I  I38  1  0.47800000  0.04440000  0.19110000  1.0 -0.0504040645
I  I39  1  0.12340000  0.25430000  0.95200000  1.0 0.0797962807
I  I40  1  0.14080000  0.45890000  0.86950000  1.0 -0.1687074384
I  I41  1  0.74240000  0.81210000  0.49052000  1.0 -0.4996375693
I  I42  1  0.84050000  0.70290000  0.60215000  1.0 -0.4283834649
I  I43  1  0.18360000  0.23000000  0.81040000  1.0 -0.0092788882
I  I44  1  0.01930000  0.01300000  0.70890000  1.0 0.0519645831
I  I45  1  0.80800000  0.46870000  0.35490000  1.0 -0.1200967447
I  I46  1  0.64890000  0.27530000  0.43650000  1.0 -0.4459450049
I  I47  1  0.38370000  0.77880000  0.06690000  1.0 -0.067988509
I  I48  1  0.58910000  0.87680000  0.96131000  1.0 -0.0974476461
I  I49  1  0.52890000  0.24190000  0.29080000  1.0 0.0191311009
I  I50  1  0.47390000  0.03050000  0.18380000  1.0 -0.0504040645
I  I51  1  0.37800000  0.75120000  0.09670000  1.0 0.0101407712
I  I52  1  0.52690000  0.85880000  0.97890000  1.0 -0.0974476461
N  N1  1  0.05620000  0.73190000  0.14130000  1.0 -0.1687074384
N  N2  1  0.30410000  0.16640000  0.38910000  1.0 -0.1591803821
N  N3  1  0.70420000  0.87640000  0.26160000  1.0 -0.181197364
N  N4  1  0.27450000  0.94520000  0.26440000  1.0 -0.3986824406
N  N5  1  0.43030000  0.97140000  0.30200000  1.0 -0.4108509941
N  N6  1  0.36310000  0.86200000  0.24270000  1.0 -0.3898692829
N  N7  1  0.41180000  0.34020000  0.44610000  1.0 -0.181197364
N  N8  1  0.09380000  0.61890000  0.55500000  1.0 -0.1687074384
N  N9  1  0.80460000  0.78150000  0.31350000  1.0 -0.181197364
N  N10  1  0.75220000  0.53760000  0.47960000  1.0 -0.3898692829
N  N11  1  0.84710000  0.64680000  0.44530000  1.0 -0.3696844978
N  N12  1  0.67990000  0.58420000  0.42140000  1.0 -0.4108509941
N  N13  1  0.18150000  0.72830000  0.64720000  1.0 -0.1687074384
N  N14  1  0.35520000  0.12390000  0.91590000  1.0 -0.1591803821
N  N15  1  0.68570000  0.84170000  0.79060000  1.0 -0.181197364
N  N16  1  0.00950000  0.84050000  0.75890000  1.0 -0.3898692829
N  N17  1  0.04830000  0.94430000  0.82230000  1.0 -0.3986824406
N  N18  1  0.17280000  0.92200000  0.78150000  1.0 -0.3849085672
N  N19  1  0.48660000  0.75610000  0.83260000  1.0 -0.181197364
N  N20  1  0.03700000  0.61780000  0.05160000  1.0 -0.181197364
N  N21  1  0.42350000  0.29430000  0.97390000  1.0 -0.181197364
N  N22  1  0.29880000  0.62640000  0.95270000  1.0 -0.3986824406
N  N23  1  0.28700000  0.51410000  0.99060000  1.0 -0.4108509941
N  N24  1  0.39630000  0.54850000  0.93500000  1.0 -0.3986824406
N  N25  1  0.94380000  0.26810000  0.85870000  1.0 -0.1687074384
N  N26  1  0.69590000  0.83360000  0.61090000  1.0 -0.1591803821
N  N27  1  0.29580000  0.12360000  0.73840000  1.0 -0.181197364
N  N28  1  0.72550000  0.05480000  0.73560000  1.0 -0.3986824406
N  N29  1  0.56970000  0.02860000  0.69800000  1.0 -0.4108509941
N  N30  1  0.63690000  0.13800000  0.75730000  1.0 -0.3898692829
N  N31  1  0.58820000  0.65980000  0.55390000  1.0 -0.181197364
N  N32  1  0.90620000  0.38110000  0.44500000  1.0 -0.1687074384
N  N33  1  0.19540000  0.21850000  0.68650000  1.0 -0.181197364
N  N34  1  0.24780000  0.46240000  0.52040000  1.0 -0.3898692829
N  N35  1  0.15290000  0.35320000  0.55470000  1.0 -0.3696844978
N  N36  1  0.32010000  0.41580000  0.57860000  1.0 -0.4150519473
N  N37  1  0.81850000  0.27170000  0.35280000  1.0 -0.1687074384
N  N38  1  0.64480000  0.87610000  0.08410000  1.0 -0.1591803821
N  N39  1  0.31430000  0.15830000  0.20940000  1.0 -0.181197364
N  N40  1  0.99050000  0.15950000  0.24110000  1.0 -0.3898692829
N  N41  1  0.95170000  0.05570000  0.17770000  1.0 -0.3986824406
N  N42  1  0.82720000  0.07800000  0.21850000  1.0 -0.3898692829
N  N43  1  0.51340000  0.24390000  0.16740000  1.0 -0.181197364
N  N44  1  0.96300000  0.38220000  0.94840000  1.0 -0.181197364
N  N45  1  0.57650000  0.70570000  0.02610000  1.0 -0.181197364
N  N46  1  0.70120000  0.37360000  0.04730000  1.0 -0.3986824406
N  N47  1  0.71300000  0.48590000  0.00940000  1.0 -0.4108509941
N  N48  1  0.60370000  0.45150000  0.06500000  1.0 -0.3986824406
O  O1  1  0.54980000  0.52360000  0.26330000  1.0 0.0191311009
O  O2  1  0.45020000  0.47640000  0.73670000  1.0 0.0191311009
O  O3  1  0.41620000  0.43380000  0.22210000  1.0 -0.3986824406
O  O4  1  0.58380000  0.56620000  0.77790000  1.0 -0.3986824406
O  O5  1  0.27900000  0.67600000  0.39210000  1.0 0.0415386213
O  O6  1  0.72100000  0.32400000  0.60790000  1.0 0.0415386213
O  O7  1  0.18000000  0.56200000  0.39320000  1.0 -0.4556834502
O  O8  1  0.82000000  0.43800000  0.60680000  1.0 -0.4556834502
