# DDEC6 charges by PACMAN v1.1 (https://github.com/mtap-research/PACMAN-charge/)
data_LABPIQ_FSR_pacman
_symmetry_space_group_name_H-M   'P 1'
_cell_length_a   14.82920000
_cell_length_b   17.92340000
_cell_length_c   29.90620000
_cell_angle_alpha   96.83600000
_cell_angle_beta   93.52900000
_cell_angle_gamma   110.14200000
_symmetry_Int_Tables_number   1
_chemical_formula_structural   Zn4H42C48I11(N6O)2
_chemical_formula_sum   'Zn16 H168 C192 I44 N48 O8'
_cell_volume   7364.61103082
_cell_formula_units_Z   4
loop_
 _symmetry_equiv_pos_site_id
 _symmetry_equiv_pos_as_xyz
  1  'x, y, z'
loop_
 _atom_site_type_symbol
 _atom_site_label
 _atom_site_symmetry_multiplicity
 _atom_site_fract_x
 _atom_site_fract_y
 _atom_site_fract_z
 _atom_site_occupancy
 _atom_site_charge
Zn  Zn1  1  0.94679000  0.65358000  0.09343000  1.0 0.2760333395
Zn  Zn2  1  0.27919000  0.24644000  0.43775000  1.0 0.4406408941
Zn  Zn3  1  0.82376000  0.84264000  0.25859000  1.0 0.2699038362
Zn  Zn4  1  0.21770000  0.65130000  0.60026000  1.0 0.4583423858
Zn  Zn5  1  0.53961000  0.82590000  0.78360000  1.0 0.4511667168
Zn  Zn6  1  0.43350000  0.17950000  0.98180000  1.0 -0.0704665581
Zn  Zn7  1  0.45760000  0.18860000  0.96910000  1.0 0.0048779886
Zn  Zn8  1  0.47500000  0.20360000  0.95420000  1.0 0.0173634974
Zn  Zn9  1  0.05321000  0.34642000  0.90657000  1.0 0.2760333395
Zn  Zn10  1  0.72081000  0.75356000  0.56225000  1.0 0.4406408941
Zn  Zn11  1  0.17624000  0.15736000  0.74141000  1.0 0.2699038362
Zn  Zn12  1  0.78230000  0.34870000  0.39974000  1.0 0.4583423858
Zn  Zn13  1  0.46039000  0.17410000  0.21640000  1.0 0.4511667168
Zn  Zn14  1  0.56650000  0.82050000  0.01820000  1.0 -0.0704665581
Zn  Zn15  1  0.54240000  0.81140000  0.03090000  1.0 0.0065828422
Zn  Zn16  1  0.52500000  0.79640000  0.04580000  1.0 0.0173634974
H  H1  1  0.12550000  0.65580000  0.14240000  1.0 0.0897329239
H  H2  1  0.25930000  0.73850000  0.19110000  1.0 0.1301443329
H  H3  1  0.12310000  0.90430000  0.20580000  1.0 0.11956995
H  H4  1  0.00670000  0.81990000  0.14980000  1.0 0.069111558
H  H5  1  0.18870000  0.14910000  0.34510000  1.0 0.0897329239
H  H6  1  0.20960000  0.04850000  0.29520000  1.0 0.0993761829
H  H7  1  0.45330000  0.07470000  0.37340000  1.0 0.1301443329
H  H8  1  0.42420000  0.16980000  0.42270000  1.0 0.1092994962
H  H9  1  0.63280000  0.79580000  0.21000000  1.0 0.0897329239
H  H10  1  0.48490000  0.81530000  0.21420000  1.0 0.1404821465
H  H11  1  0.60500000  0.98030000  0.32230000  1.0 0.1482876565
H  H12  1  0.75170000  0.96050000  0.31420000  1.0 0.0897329239
H  H13  1  0.45280000  0.33880000  0.51030000  1.0 0.1092994962
H  H14  1  0.59840000  0.44650000  0.51540000  1.0 0.1482876565
H  H15  1  0.53970000  0.46630000  0.38540000  1.0 0.1301443329
H  H16  1  0.39900000  0.35150000  0.38150000  1.0 0.0993761829
H  H17  1  0.00890000  0.52110000  0.57840000  1.0 0.1092994962
H  H18  1  0.86840000  0.50790000  0.53840000  1.0 0.1404821465
H  H19  1  0.01360000  0.69780000  0.47590000  1.0 0.1301443329
H  H20  1  0.15480000  0.70650000  0.52040000  1.0 0.0993761829
H  H21  1  0.68780000  0.70230000  0.28350000  1.0 0.0897329239
H  H22  1  0.65950000  0.61900000  0.33850000  1.0 0.1301443329
H  H23  1  0.90520000  0.77730000  0.41310000  1.0 0.1301443329
H  H24  1  0.92260000  0.85330000  0.35350000  1.0 0.0796561577
H  H25  1  0.31380000  0.80970000  0.66350000  1.0 0.1092994962
H  H26  1  0.27500000  0.88090000  0.72610000  1.0 0.1301443329
H  H27  1  0.00030000  0.72940000  0.69990000  1.0 0.1301443329
H  H28  1  0.04340000  0.66120000  0.64100000  1.0 0.1092994962
H  H29  1  0.24990000  0.15980000  0.93510000  1.0 0.0796561577
H  H30  1  0.12800000  0.07390000  0.87810000  1.0 0.1092994962
H  H31  1  0.32830000  0.98200000  0.83160000  1.0 0.11956995
H  H32  1  0.44270000  0.07510000  0.88680000  1.0 0.1092994962
H  H33  1  0.72620000  0.93400000  0.83930000  1.0 0.1092994962
H  H34  1  0.89020000  0.95350000  0.84580000  1.0 0.1404821465
H  H35  1  0.83340000  0.76690000  0.74350000  1.0 0.1404821465
H  H36  1  0.67070000  0.75010000  0.74460000  1.0 0.1092994962
H  H37  1  0.39690000  0.81160000  0.85430000  1.0 0.11956995
H  H38  1  0.32550000  0.72770000  0.90280000  1.0 0.1404821465
H  H39  1  0.50270000  0.60830000  0.87680000  1.0 0.1301443329
H  H40  1  0.56660000  0.68950000  0.82550000  1.0 0.1092994962
H  H41  1  0.02710000  0.51660000  0.07410000  1.0 0.0796561577
H  H42  1  0.14580000  0.49060000  0.03750000  1.0 0.1404821465
H  H43  1  0.18650000  0.69080000  0.98070000  1.0 0.1482876565
H  H44  1  0.06600000  0.71260000  0.02050000  1.0 0.0897329239
H  H45  1  0.46180000  0.30730000  0.91440000  1.0 0.0993761829
H  H46  1  0.42960000  0.42940000  0.90760000  1.0 0.1301443329
H  H47  1  0.33980000  0.40930000  0.03280000  1.0 0.1404821465
H  H48  1  0.37320000  0.29440000  0.03270000  1.0 0.1092994962
H  H49  1  0.87450000  0.34420000  0.85760000  1.0 0.0897329239
H  H50  1  0.74070000  0.26150000  0.80890000  1.0 0.1301443329
H  H51  1  0.87690000  0.09570000  0.79420000  1.0 0.11956995
H  H52  1  0.99330000  0.18010000  0.85020000  1.0 0.069111558
H  H53  1  0.81130000  0.85090000  0.65490000  1.0 0.0897329239
H  H54  1  0.79040000  0.95150000  0.70480000  1.0 0.0993761829
H  H55  1  0.54670000  0.92530000  0.62660000  1.0 0.1301443329
H  H56  1  0.57580000  0.83020000  0.57730000  1.0 0.1092994962
H  H57  1  0.36720000  0.20420000  0.79000000  1.0 0.0897329239
H  H58  1  0.51510000  0.18470000  0.78580000  1.0 0.1404821465
H  H59  1  0.39500000  0.01970000  0.67770000  1.0 0.1482876565
H  H60  1  0.24830000  0.03950000  0.68580000  1.0 0.0897329239
H  H61  1  0.54720000  0.66120000  0.48970000  1.0 0.1092994962
H  H62  1  0.40160000  0.55350000  0.48460000  1.0 0.1482876565
H  H63  1  0.46030000  0.53370000  0.61460000  1.0 0.1301443329
H  H64  1  0.60100000  0.64850000  0.61850000  1.0 0.0993761829
H  H65  1  0.99110000  0.47890000  0.42160000  1.0 0.1092994962
H  H66  1  0.13160000  0.49210000  0.46160000  1.0 0.1404821465
H  H67  1  0.98640000  0.30220000  0.52410000  1.0 0.1301443329
H  H68  1  0.84520000  0.29350000  0.47960000  1.0 0.0993761829
H  H69  1  0.31220000  0.29770000  0.71650000  1.0 0.0897329239
H  H70  1  0.34050000  0.38100000  0.66150000  1.0 0.1301443329
H  H71  1  0.09480000  0.22270000  0.58690000  1.0 0.1301443329
H  H72  1  0.07740000  0.14670000  0.64650000  1.0 0.0796561577
H  H73  1  0.68620000  0.19030000  0.33650000  1.0 0.1092994962
H  H74  1  0.72500000  0.11910000  0.27390000  1.0 0.1301443329
H  H75  1  0.99970000  0.27060000  0.30010000  1.0 0.1301443329
H  H76  1  0.95660000  0.33880000  0.35900000  1.0 0.1092994962
H  H77  1  0.75010000  0.84020000  0.06490000  1.0 0.0796561577
H  H78  1  0.87200000  0.92610000  0.12190000  1.0 0.1092994962
H  H79  1  0.67170000  0.01800000  0.16840000  1.0 0.11956995
H  H80  1  0.55730000  0.92490000  0.11320000  1.0 0.1092994962
H  H81  1  0.27380000  0.06600000  0.16070000  1.0 0.1092994962
H  H82  1  0.10980000  0.04650000  0.15420000  1.0 0.1404821465
H  H83  1  0.16660000  0.23310000  0.25650000  1.0 0.1404821465
H  H84  1  0.32930000  0.24990000  0.25540000  1.0 0.1092994962
H  H85  1  0.60310000  0.18840000  0.14570000  1.0 0.11956995
H  H86  1  0.67450000  0.27230000  0.09720000  1.0 0.1404821465
H  H87  1  0.49730000  0.39170000  0.12320000  1.0 0.1301443329
H  H88  1  0.43340000  0.31050000  0.17450000  1.0 0.1092994962
H  H89  1  0.97290000  0.48340000  0.92590000  1.0 0.0796561577
H  H90  1  0.85420000  0.50940000  0.96250000  1.0 0.1404821465
H  H91  1  0.81350000  0.30920000  0.01930000  1.0 0.1482876565
H  H92  1  0.93400000  0.28740000  0.97950000  1.0 0.0897329239
H  H93  1  0.53820000  0.69270000  0.08560000  1.0 0.0993761829
H  H94  1  0.57040000  0.57060000  0.09240000  1.0 0.1301443329
H  H95  1  0.66020000  0.59070000  0.96720000  1.0 0.1404821465
H  H96  1  0.62680000  0.70560000  0.96730000  1.0 0.1092994962
H  H97  1  0.51300000  0.64550000  0.32040000  1.0 0.0611890124
H  H98  1  0.48700000  0.35450000  0.67960000  1.0 0.0611890124
H  H99  1  0.43420000  0.56210000  0.39010000  1.0 0.0897329239
H  H100  1  0.56580000  0.43790000  0.60990000  1.0 0.0897329239
H  H101  1  0.35880000  0.42260000  0.32700000  1.0 0.1092994962
H  H102  1  0.64120000  0.57740000  0.67300000  1.0 0.1092994962
H  H103  1  0.19930000  0.45630000  0.31280000  1.0 0.1092994962
H  H104  1  0.80070000  0.54370000  0.68720000  1.0 0.1092994962
H  H105  1  0.26790000  0.52770000  0.24450000  1.0 0.11956995
H  H106  1  0.73210000  0.47230000  0.75550000  1.0 0.11956995
H  H107  1  0.34430000  0.66990000  0.29710000  1.0 0.069111558
H  H108  1  0.65570000  0.33010000  0.70290000  1.0 0.069111558
H  H109  1  0.68500000  0.52760000  0.25000000  1.0 0.1092994962
H  H110  1  0.31500000  0.47240000  0.75000000  1.0 0.1092994962
H  H111  1  0.60310000  0.44300000  0.23000000  1.0 0.11956995
H  H112  1  0.39690000  0.55700000  0.77000000  1.0 0.11956995
H  H113  1  0.61240000  0.52060000  0.20650000  1.0 0.0993761829
H  H114  1  0.38760000  0.47940000  0.79350000  1.0 0.0993761829
H  H115  1  0.22050000  0.75320000  0.42950000  1.0 0.1092994962
H  H116  1  0.77950000  0.24680000  0.57050000  1.0 0.1092994962
H  H117  1  0.14510000  0.66300000  0.41760000  1.0 0.1301443329
H  H118  1  0.85490000  0.33700000  0.58240000  1.0 0.1301443329
H  H119  1  0.23600000  0.68400000  0.45480000  1.0 0.1092994962
H  H120  1  0.76400000  0.31600000  0.54520000  1.0 0.1092994962
H  H121  1  0.61330000  0.09250000  0.51530000  1.0 0.0291467011
H  H122  1  0.38670000  0.90750000  0.48470000  1.0 0.0291467011
H  H123  1  0.53850000  0.11700000  0.48450000  1.0 0.0497626125
H  H124  1  0.46150000  0.88300000  0.51550000  1.0 0.0497626125
H  H125  1  0.43370000  0.97570000  0.46870000  1.0 0.0497626125
H  H126  1  0.56630000  0.02430000  0.53130000  1.0 0.0497626125
H  H127  1  0.53680000  0.98890000  0.45020000  1.0 0.0173634974
H  H128  1  0.46320000  0.01110000  0.54980000  1.0 0.0173634974
H  H129  1  0.59340000  0.95490000  0.51970000  1.0 0.0410611326
H  H130  1  0.40660000  0.04510000  0.48030000  1.0 0.0410611326
H  H131  1  0.50220000  0.88110000  0.49390000  1.0 0.0497626125
H  H132  1  0.49780000  0.11890000  0.50610000  1.0 0.0497626125
H  H133  1  0.47790000  0.90310000  0.57160000  1.0 0.0611890124
H  H134  1  0.52210000  0.09690000  0.42840000  1.0 0.0611890124
H  H135  1  0.39750000  0.92190000  0.54140000  1.0 0.0796561577
H  H136  1  0.60250000  0.07810000  0.45860000  1.0 0.0796561577
H  H137  1  0.46650000  0.02820000  0.60380000  1.0 0.0796561577
H  H138  1  0.53350000  0.97180000  0.39620000  1.0 0.0796561577
H  H139  1  0.57220000  0.04380000  0.58810000  1.0 0.069111558
H  H140  1  0.42780000  0.95620000  0.41190000  1.0 0.069111558
H  H141  1  0.50730000  0.13770000  0.56120000  1.0 -0.0199128837
H  H142  1  0.49270000  0.86230000  0.43880000  1.0 -0.0199128837
H  H143  1  0.41630000  0.06470000  0.53440000  1.0 0.069111558
H  H144  1  0.58370000  0.93530000  0.46560000  1.0 0.069111558
H  H145  1  0.42510000  0.65400000  0.42700000  1.0 0.0993761829
H  H146  1  0.57490000  0.34600000  0.57300000  1.0 0.0993761829
H  H147  1  0.32950000  0.61040000  0.39210000  1.0 0.1092994962
H  H148  1  0.67050000  0.38960000  0.60790000  1.0 0.1092994962
H  H149  1  0.46070000  0.64360000  0.34860000  1.0 0.0410611326
H  H150  1  0.53930000  0.35640000  0.65140000  1.0 0.0410611326
H  H151  1  0.40210000  0.70150000  0.33940000  1.0 0.0497626125
H  H152  1  0.59790000  0.29850000  0.66060000  1.0 0.0497626125
H  H153  1  0.56250000  0.78640000  0.35360000  1.0 0.0993761829
H  H154  1  0.43750000  0.21360000  0.64640000  1.0 0.0993761829
H  H155  1  0.58140000  0.74540000  0.39630000  1.0 0.1092994962
H  H156  1  0.41860000  0.25460000  0.60370000  1.0 0.1092994962
H  H157  1  0.54360000  0.87910000  0.40510000  1.0 0.0796561577
H  H158  1  0.45640000  0.12090000  0.59490000  1.0 0.0796561577
H  H159  1  0.52520000  0.82120000  0.44320000  1.0 0.0897329239
H  H160  1  0.47480000  0.17880000  0.55680000  1.0 0.0897329239
H  H161  1  0.38160000  0.85060000  0.41860000  1.0 0.0993761829
H  H162  1  0.61840000  0.14940000  0.58140000  1.0 0.0993761829
H  H163  1  0.37880000  0.80130000  0.36980000  1.0 0.11956995
H  H164  1  0.62120000  0.19870000  0.63020000  1.0 0.11956995
H  H165  1  0.27330000  0.70950000  0.40910000  1.0 0.1301443329
H  H166  1  0.72670000  0.29050000  0.59090000  1.0 0.1301443329
H  H167  1  0.35010000  0.73570000  0.45340000  1.0 0.0796561577
H  H168  1  0.64990000  0.26430000  0.54660000  1.0 0.0796561577
C  C1  1  0.12800000  0.70810000  0.15440000  1.0 0.0796561577
C  C2  1  0.20620000  0.75520000  0.18490000  1.0 -0.1696606126
C  C3  1  0.20470000  0.82910000  0.20680000  1.0 0.069111558
C  C4  1  0.12660000  0.85450000  0.19280000  1.0 -0.1696606126
C  C5  1  0.05770000  0.80330000  0.16000000  1.0 0.0410611326
C  C6  1  0.24200000  0.13250000  0.35110000  1.0 0.0796561577
C  C7  1  0.25540000  0.07360000  0.32110000  1.0 -0.1596682783
C  C8  1  0.33500000  0.05030000  0.32800000  1.0 0.069111558
C  C9  1  0.39780000  0.08830000  0.36700000  1.0 -0.1596682783
C  C10  1  0.38020000  0.14500000  0.39620000  1.0 0.0796561577
C  C11  1  0.62740000  0.83470000  0.23320000  1.0 0.0611890124
C  C12  1  0.53880000  0.84540000  0.23580000  1.0 -0.1397205634
C  C13  1  0.53100000  0.89940000  0.26970000  1.0 0.0611890124
C  C14  1  0.60880000  0.94170000  0.29850000  1.0 -0.1696606126
C  C15  1  0.69640000  0.92950000  0.29370000  1.0 0.0796561577
C  C16  1  0.28320000  0.88150000  0.24050000  1.0 0.359802194
C  C17  1  0.34850000  0.98630000  0.29590000  1.0 0.366161195
C  C18  1  0.43470000  0.91170000  0.27290000  1.0 0.366161195
C  C19  1  0.47070000  0.36520000  0.48480000  1.0 0.0796561577
C  C20  1  0.55720000  0.42930000  0.48770000  1.0 -0.1494457105
C  C21  1  0.58440000  0.46850000  0.45120000  1.0 0.0611890124
C  C22  1  0.52400000  0.44060000  0.41130000  1.0 -0.1494457105
C  C23  1  0.43870000  0.37370000  0.40940000  1.0 0.0897329239
C  C24  1  0.00910000  0.55810000  0.55820000  1.0 0.0291467011
C  C25  1  0.92630000  0.54920000  0.53390000  1.0 -0.1397205634
C  C26  1  0.92390000  0.59980000  0.50190000  1.0 0.0611890124
C  C27  1  0.01130000  0.66140000  0.49680000  1.0 -0.1596682783
C  C28  1  0.09510000  0.66666667  0.52430000  1.0 0.0897329239
C  C29  1  0.73240000  0.71700000  0.31010000  1.0 0.0897329239
C  C30  1  0.71390000  0.66760000  0.34290000  1.0 -0.1696606126
C  C31  1  0.77860000  0.69110000  0.38400000  1.0 0.0796561577
C  C32  1  0.85860000  0.76030000  0.38720000  1.0 -0.1173792625
C  C33  1  0.86900000  0.80450000  0.35140000  1.0 0.0410611326
C  C34  1  0.67840000  0.53500000  0.45170000  1.0 0.359802194
C  C35  1  0.83730000  0.59630000  0.47410000  1.0 0.3535636788
C  C36  1  0.76620000  0.63860000  0.41930000  1.0 0.3535636788
C  C37  1  0.24930000  0.79310000  0.67100000  1.0 0.0897329239
C  C38  1  0.22550000  0.83730000  0.70780000  1.0 -0.1494457105
C  C39  1  0.13240000  0.81810000  0.71720000  1.0 0.0497626125
C  C40  1  0.06500000  0.74820000  0.69250000  1.0 -0.1305452361
C  C41  1  0.09150000  0.70730000  0.65810000  1.0 0.069111558
C  C42  1  0.26520000  0.12370000  0.91360000  1.0 0.0291467011
C  C43  1  0.19130000  0.07200000  0.87990000  1.0 -0.1696606126
C  C44  1  0.21530000  0.01840000  0.84960000  1.0 0.0291467011
C  C45  1  0.31080000  0.01820000  0.85200000  1.0 -0.1397205634
C  C46  1  0.37770000  0.07290000  0.88540000  1.0 0.0291467011
C  C47  1  0.74880000  0.90030000  0.81960000  1.0 0.0897329239
C  C48  1  0.84700000  0.91330000  0.82320000  1.0 -0.1494457105
C  C49  1  0.88000000  0.86850000  0.79430000  1.0 0.0497626125
C  C50  1  0.81310000  0.80230000  0.76320000  1.0 -0.1596682783
C  C51  1  0.71740000  0.79400000  0.76400000  1.0 0.0796561577
C  C52  1  0.10350000  0.86230000  0.75460000  1.0 0.359802194
C  C53  1  0.98540000  0.88400000  0.79120000  1.0 0.359802194
C  C54  1  0.14240000  0.95990000  0.81570000  1.0 0.359802194
C  C55  1  0.41700000  0.76780000  0.85810000  1.0 0.0410611326
C  C56  1  0.37740000  0.72060000  0.88790000  1.0 -0.1494457105
C  C57  1  0.41180000  0.66130000  0.89700000  1.0 0.0497626125
C  C58  1  0.47980000  0.65060000  0.87230000  1.0 -0.1696606126
C  C59  1  0.51680000  0.69830000  0.84140000  1.0 0.0796561577
C  C60  1  0.06150000  0.55340000  0.05530000  1.0 0.0611890124
C  C61  1  0.13150000  0.53740000  0.03390000  1.0 -0.1596682783
C  C62  1  0.18180000  0.59030000  0.00670000  1.0 0.0611890124
C  C63  1  0.15560000  0.65500000  0.00070000  1.0 -0.1596682783
C  C64  1  0.08350000  0.66730000  0.02410000  1.0 0.0497626125
C  C65  1  0.43700000  0.33050000  0.93880000  1.0 0.0291467011
C  C66  1  0.41800000  0.40340000  0.93370000  1.0 -0.1173792625
C  C67  1  0.38210000  0.43060000  0.97170000  1.0 0.0410611326
C  C68  1  0.36580000  0.39010000  0.00750000  1.0 -0.1596682783
C  C69  1  0.38600000  0.32230000  0.00740000  1.0 0.0410611326
C  C70  1  0.36750000  0.60950000  0.93080000  1.0 0.3395582413
C  C71  1  0.26060000  0.57630000  0.98220000  1.0 0.3395582413
C  C72  1  0.35350000  0.50310000  0.96500000  1.0 0.359802194
C  C73  1  0.87200000  0.29190000  0.84560000  1.0 0.0796561577
C  C74  1  0.79380000  0.24480000  0.81510000  1.0 -0.1696606126
C  C75  1  0.79530000  0.17090000  0.79320000  1.0 0.069111558
C  C76  1  0.87340000  0.14550000  0.80720000  1.0 -0.1696606126
C  C77  1  0.94230000  0.19670000  0.84000000  1.0 0.0410611326
C  C78  1  0.75800000  0.86750000  0.64890000  1.0 0.0796561577
C  C79  1  0.74460000  0.92640000  0.67890000  1.0 -0.1596682783
C  C80  1  0.66500000  0.94970000  0.67200000  1.0 0.069111558
C  C81  1  0.60220000  0.91170000  0.63300000  1.0 -0.1596682783
C  C82  1  0.61980000  0.85500000  0.60380000  1.0 0.0796561577
C  C83  1  0.37260000  0.16530000  0.76680000  1.0 0.0611890124
C  C84  1  0.46120000  0.15460000  0.76420000  1.0 -0.1397205634
C  C85  1  0.46900000  0.10060000  0.73030000  1.0 0.0611890124
C  C86  1  0.39120000  0.05830000  0.70150000  1.0 -0.1696606126
C  C87  1  0.30360000  0.07050000  0.70630000  1.0 0.0796561577
C  C88  1  0.71680000  0.11850000  0.75950000  1.0 0.359802194
C  C89  1  0.65150000  0.01370000  0.70410000  1.0 0.366161195
C  C90  1  0.56530000  0.08830000  0.72710000  1.0 0.366161195
C  C91  1  0.52930000  0.63480000  0.51520000  1.0 0.0796561577
C  C92  1  0.44280000  0.57070000  0.51230000  1.0 -0.1494457105
C  C93  1  0.41560000  0.53150000  0.54880000  1.0 0.0611890124
C  C94  1  0.47600000  0.55940000  0.58870000  1.0 -0.1494457105
C  C95  1  0.56130000  0.62630000  0.59060000  1.0 0.0897329239
C  C96  1  0.99090000  0.44190000  0.44180000  1.0 0.0291467011
C  C97  1  0.07370000  0.45080000  0.46610000  1.0 -0.1397205634
C  C98  1  0.07610000  0.40020000  0.49810000  1.0 0.0611890124
C  C99  1  0.98870000  0.33860000  0.50320000  1.0 -0.1596682783
C  C100  1  0.90490000  0.33333333  0.47570000  1.0 0.0897329239
C  C101  1  0.26760000  0.28300000  0.68990000  1.0 0.0897329239
C  C102  1  0.28610000  0.33240000  0.65710000  1.0 -0.1696606126
C  C103  1  0.22140000  0.30890000  0.61600000  1.0 0.0796561577
C  C104  1  0.14140000  0.23970000  0.61280000  1.0 -0.1173792625
C  C105  1  0.13100000  0.19550000  0.64860000  1.0 0.0410611326
C  C106  1  0.32160000  0.46500000  0.54830000  1.0 0.359802194
C  C107  1  0.16270000  0.40370000  0.52590000  1.0 0.3535636788
C  C108  1  0.23380000  0.36140000  0.58070000  1.0 0.3535636788
C  C109  1  0.75070000  0.20690000  0.32900000  1.0 0.0897329239
C  C110  1  0.77450000  0.16270000  0.29220000  1.0 -0.1494457105
C  C111  1  0.86760000  0.18190000  0.28280000  1.0 0.0497626125
C  C112  1  0.93500000  0.25180000  0.30750000  1.0 -0.1305452361
C  C113  1  0.90850000  0.29270000  0.34190000  1.0 0.069111558
C  C114  1  0.73480000  0.87630000  0.08640000  1.0 0.0291467011
C  C115  1  0.80870000  0.92800000  0.12010000  1.0 -0.1696606126
C  C116  1  0.78470000  0.98160000  0.15040000  1.0 0.0291467011
C  C117  1  0.68920000  0.98180000  0.14800000  1.0 -0.1397205634
C  C118  1  0.62230000  0.92710000  0.11460000  1.0 0.0291467011
C  C119  1  0.25120000  0.09970000  0.18040000  1.0 0.0897329239
C  C120  1  0.15300000  0.08670000  0.17680000  1.0 -0.1494457105
C  C121  1  0.12000000  0.13150000  0.20570000  1.0 0.0497626125
C  C122  1  0.18690000  0.19770000  0.23680000  1.0 -0.1596682783
C  C123  1  0.28260000  0.20600000  0.23600000  1.0 0.0796561577
C  C124  1  0.89650000  0.13770000  0.24540000  1.0 0.359802194
C  C125  1  0.01460000  0.11600000  0.20880000  1.0 0.359802194
C  C126  1  0.85760000  0.04010000  0.18430000  1.0 0.359802194
C  C127  1  0.58300000  0.23220000  0.14190000  1.0 0.0410611326
C  C128  1  0.62260000  0.27940000  0.11210000  1.0 -0.1494457105
C  C129  1  0.58820000  0.33870000  0.10300000  1.0 0.0497626125
C  C130  1  0.52020000  0.34940000  0.12770000  1.0 -0.1696606126
C  C131  1  0.48320000  0.30170000  0.15860000  1.0 0.0796561577
C  C132  1  0.93850000  0.44660000  0.94470000  1.0 0.0611890124
C  C133  1  0.86850000  0.46260000  0.96610000  1.0 -0.1596682783
C  C134  1  0.81820000  0.40970000  0.99330000  1.0 0.0611890124
C  C135  1  0.84440000  0.34500000  0.99930000  1.0 -0.1596682783
C  C136  1  0.91650000  0.33270000  0.97590000  1.0 0.0497626125
C  C137  1  0.56300000  0.66950000  0.06120000  1.0 0.0291467011
C  C138  1  0.58200000  0.59660000  0.06630000  1.0 -0.1173792625
C  C139  1  0.61790000  0.56940000  0.02830000  1.0 0.0410611326
C  C140  1  0.63420000  0.60990000  0.99250000  1.0 -0.1596682783
C  C141  1  0.61400000  0.67770000  0.99260000  1.0 0.0410611326
C  C142  1  0.63250000  0.39050000  0.06920000  1.0 0.3395582413
C  C143  1  0.73940000  0.42370000  0.01780000  1.0 0.3395582413
C  C144  1  0.64650000  0.49690000  0.03500000  1.0 0.359802194
C  C145  1  0.40000000  0.52500000  0.28630000  1.0 -0.0594937304
C  C146  1  0.60000000  0.47500000  0.71370000  1.0 -0.0594937304
C  C147  1  0.44600000  0.60600000  0.31940000  1.0 -0.1173792625
C  C148  1  0.55400000  0.39400000  0.68060000  1.0 -0.1173792625
C  C149  1  0.40200000  0.55700000  0.35900000  1.0 -0.1305452361
C  C150  1  0.59800000  0.44300000  0.64100000  1.0 -0.1305452361
C  C151  1  0.35700000  0.47700000  0.32290000  1.0 -0.1173792625
C  C152  1  0.64300000  0.52300000  0.67710000  1.0 -0.1173792625
C  C153  1  0.26600000  0.49600000  0.31360000  1.0 -0.1099788472
C  C154  1  0.73400000  0.50400000  0.68640000  1.0 -0.1099788472
C  C155  1  0.30400000  0.53800000  0.27540000  1.0 -0.1173792625
C  C156  1  0.69600000  0.46200000  0.72460000  1.0 -0.1173792625
C  C157  1  0.35000000  0.61800000  0.30420000  1.0 -0.099955863
C  C158  1  0.65000000  0.38200000  0.69580000  1.0 -0.099955863
C  C159  1  0.30800000  0.57400000  0.34620000  1.0 -0.0445345813
C  C160  1  0.69200000  0.42600000  0.65380000  1.0 -0.0454284126
C  C161  1  0.45300000  0.49000000  0.25280000  1.0 0.5021606659
C  C162  1  0.54700000  0.51000000  0.74720000  1.0 0.5021606659
C  C163  1  0.61900000  0.50100000  0.23500000  1.0 -0.242975759
C  C164  1  0.38100000  0.49900000  0.76500000  1.0 -0.242975759
C  C165  1  0.26000000  0.60400000  0.38680000  1.0 0.3239446258
C  C166  1  0.74000000  0.39600000  0.61320000  1.0 0.3239446258
C  C167  1  0.21300000  0.69600000  0.42600000  1.0 -0.2825379247
C  C168  1  0.78700000  0.30400000  0.57400000  1.0 -0.2825379247
C  C169  1  0.54400000  0.07800000  0.50400000  1.0 -0.0811248502
C  C170  1  0.45600000  0.92200000  0.49600000  1.0 -0.0811248502
C  C171  1  0.50400000  0.99200000  0.47800000  1.0 0.0048779886
C  C172  1  0.49600000  0.00800000  0.52200000  1.0 0.0048779886
C  C173  1  0.52300000  0.93700000  0.51000000  1.0 -0.0704665581
C  C174  1  0.47700000  0.06300000  0.49000000  1.0 -0.0704665581
C  C175  1  0.46800000  0.94000000  0.55100000  1.0 -0.1305452361
C  C176  1  0.53200000  0.06000000  0.44900000  1.0 -0.1305452361
C  C177  1  0.50300000  0.02600000  0.57700000  1.0 -0.1696606126
C  C178  1  0.49700000  0.97400000  0.42300000  1.0 -0.1696606126
C  C179  1  0.48600000  0.08200000  0.54500000  1.0 -0.0811248502
C  C180  1  0.51400000  0.91800000  0.45500000  1.0 -0.0811248502
C  C181  1  0.38300000  0.66200000  0.40200000  1.0 -0.1397205634
C  C182  1  0.61700000  0.33800000  0.59800000  1.0 -0.1397205634
C  C183  1  0.44200000  0.68800000  0.36300000  1.0 -0.1596682783
C  C184  1  0.55800000  0.31200000  0.63700000  1.0 -0.1596682783
C  C185  1  0.53300000  0.76200000  0.38000000  1.0 -0.2004649142
C  C186  1  0.46700000  0.23800000  0.62000000  1.0 -0.2004649142
C  C187  1  0.50700000  0.82400000  0.41100000  1.0 -0.1099788472
C  C188  1  0.49300000  0.17600000  0.58900000  1.0 -0.1099788472
C  C189  1  0.39800000  0.80600000  0.40300000  1.0 -0.2654476339
C  C190  1  0.60200000  0.19400000  0.59700000  1.0 -0.2654476339
C  C191  1  0.34300000  0.72700000  0.42000000  1.0 0.0897329239
C  C192  1  0.65700000  0.27300000  0.58000000  1.0 0.0897329239
I  I1  1  0.20949000  0.53528000  0.64163000  1.0 -0.3717985595
I  I2  1  0.35798000  0.73660000  0.56241000  1.0 -0.4655807639
I  I3  1  0.47144000  0.74238000  0.70638000  1.0 -0.411176982
I  I4  1  0.52208000  0.95937000  0.81144000  1.0 -0.429082555
I  I5  1  0.87330000  0.72700000  0.05040000  1.0 0.0611890124
I  I6  1  0.85990000  0.52560000  0.13320000  1.0 0.11956995
I  I7  1  0.25980000  0.18070000  0.50940000  1.0 -0.4986114377
I  I8  1  0.16100000  0.29990000  0.39860000  1.0 -0.4598525489
I  I9  1  0.78750000  0.73290000  0.18799000  1.0 0.0897329239
I  I10  1  0.97850000  0.95750000  0.27768000  1.0 0.0497626125
I  I11  1  0.60450000  0.19840000  0.96250000  1.0 -0.0294989316
I  I12  1  0.35090000  0.11520000  0.04750000  1.0 -0.0199128837
I  I13  1  0.88050000  0.75170000  0.04750000  1.0 0.1092994962
I  I14  1  0.86200000  0.54930000  0.13000000  1.0 0.0897329239
I  I15  1  0.25670000  0.18950000  0.51010000  1.0 -0.4842728401
I  I16  1  0.16020000  0.29750000  0.39920000  1.0 -0.451849165
I  I17  1  0.81400000  0.76900000  0.18890000  1.0 0.0611890124
I  I18  1  0.98100000  0.98500000  0.29080000  1.0 0.1092994962
I  I19  1  0.61640000  0.21990000  0.93420000  1.0 -0.0704665581
I  I20  1  0.41000000  0.12300000  0.03900000  1.0 -0.099955863
I  I21  1  0.62180000  0.24730000  0.90510000  1.0 0.0065828422
I  I22  1  0.47070000  0.14040000  0.02210000  1.0 -0.0887384961
I  I23  1  0.79051000  0.46472000  0.35837000  1.0 -0.3717985595
I  I24  1  0.64202000  0.26340000  0.43759000  1.0 -0.4655807639
I  I25  1  0.52856000  0.25762000  0.29362000  1.0 -0.411176982
I  I26  1  0.47792000  0.04063000  0.18856000  1.0 -0.429082555
I  I27  1  0.12670000  0.27300000  0.94960000  1.0 0.069111558
I  I28  1  0.14010000  0.47440000  0.86680000  1.0 0.11956995
I  I29  1  0.74020000  0.81930000  0.49060000  1.0 -0.4986114377
I  I30  1  0.83900000  0.70010000  0.60140000  1.0 -0.4598525489
I  I31  1  0.21250000  0.26710000  0.81201000  1.0 0.0897329239
I  I32  1  0.02150000  0.04250000  0.72232000  1.0 0.0497626125
I  I33  1  0.39550000  0.80160000  0.03750000  1.0 -0.0294989316
I  I34  1  0.64910000  0.88480000  0.95250000  1.0 -0.0199128837
I  I35  1  0.11950000  0.24830000  0.95250000  1.0 0.1092994962
I  I36  1  0.13800000  0.45070000  0.87000000  1.0 0.0897329239
I  I37  1  0.74330000  0.81050000  0.48990000  1.0 -0.4842728401
I  I38  1  0.83980000  0.70250000  0.60080000  1.0 -0.451849165
I  I39  1  0.18600000  0.23100000  0.81110000  1.0 0.069111558
I  I40  1  0.01900000  0.01500000  0.70920000  1.0 0.1092994962
I  I41  1  0.38360000  0.78010000  0.06580000  1.0 -0.0704665581
I  I42  1  0.59000000  0.87700000  0.96100000  1.0 -0.099955863
I  I43  1  0.37820000  0.75270000  0.09490000  1.0 0.0065828422
I  I44  1  0.52930000  0.85960000  0.97790000  1.0 -0.0887384961
N  N1  1  0.05670000  0.73080000  0.14100000  1.0 -0.1912463742
N  N2  1  0.30410000  0.16690000  0.38920000  1.0 -0.1596682783
N  N3  1  0.70330000  0.87700000  0.26190000  1.0 -0.1912463742
N  N4  1  0.27440000  0.94490000  0.26490000  1.0 -0.3969406063
N  N5  1  0.43100000  0.97240000  0.30170000  1.0 -0.3969406063
N  N6  1  0.36280000  0.85990000  0.24350000  1.0 -0.3813349885
N  N7  1  0.41330000  0.34110000  0.44640000  1.0 -0.1790188054
N  N8  1  0.09490000  0.61930000  0.55490000  1.0 -0.2060371513
N  N9  1  0.80390000  0.77950000  0.31320000  1.0 -0.2004649142
N  N10  1  0.75170000  0.53740000  0.47940000  1.0 -0.3813349885
N  N11  1  0.84680000  0.64730000  0.44580000  1.0 -0.3813349885
N  N12  1  0.68070000  0.58470000  0.42160000  1.0 -0.3813349885
N  N13  1  0.18210000  0.72800000  0.64670000  1.0 -0.1790188054
N  N14  1  0.35490000  0.12340000  0.91620000  1.0 -0.1696606126
N  N15  1  0.68600000  0.84300000  0.79020000  1.0 -0.1912463742
N  N16  1  0.00950000  0.83980000  0.75920000  1.0 -0.3882206405
N  N17  1  0.04790000  0.94350000  0.82220000  1.0 -0.411176982
N  N18  1  0.17240000  0.92070000  0.78180000  1.0 -0.3882206405
N  N19  1  0.48700000  0.75620000  0.83230000  1.0 -0.2004649142
N  N20  1  0.03760000  0.61730000  0.05180000  1.0 -0.1912463742
N  N21  1  0.42290000  0.29400000  0.97510000  1.0 -0.1790188054
N  N22  1  0.29870000  0.62640000  0.95330000  1.0 -0.429082555
N  N23  1  0.28660000  0.51480000  0.99070000  1.0 -0.429082555
N  N24  1  0.39650000  0.54990000  0.93540000  1.0 -0.3882206405
N  N25  1  0.94330000  0.26920000  0.85900000  1.0 -0.1912463742
N  N26  1  0.69590000  0.83310000  0.61080000  1.0 -0.1596682783
N  N27  1  0.29670000  0.12300000  0.73810000  1.0 -0.1912463742
N  N28  1  0.72560000  0.05510000  0.73510000  1.0 -0.3969406063
N  N29  1  0.56900000  0.02760000  0.69830000  1.0 -0.3969406063
N  N30  1  0.63720000  0.14010000  0.75650000  1.0 -0.3813349885
N  N31  1  0.58670000  0.65890000  0.55360000  1.0 -0.1790188054
N  N32  1  0.90510000  0.38070000  0.44510000  1.0 -0.2060371513
N  N33  1  0.19610000  0.22050000  0.68680000  1.0 -0.2004649142
N  N34  1  0.24830000  0.46260000  0.52060000  1.0 -0.3813349885
N  N35  1  0.15320000  0.35270000  0.55420000  1.0 -0.3717985595
N  N36  1  0.31930000  0.41530000  0.57840000  1.0 -0.3813349885
N  N37  1  0.81790000  0.27200000  0.35330000  1.0 -0.1790188054
N  N38  1  0.64510000  0.87660000  0.08380000  1.0 -0.1696606126
N  N39  1  0.31400000  0.15700000  0.20980000  1.0 -0.1912463742
N  N40  1  0.99050000  0.16020000  0.24080000  1.0 -0.3882206405
N  N41  1  0.95210000  0.05650000  0.17780000  1.0 -0.411176982
N  N42  1  0.82760000  0.07930000  0.21820000  1.0 -0.3882206405
N  N43  1  0.51300000  0.24380000  0.16770000  1.0 -0.2004649142
N  N44  1  0.96240000  0.38270000  0.94820000  1.0 -0.1912463742
N  N45  1  0.57710000  0.70600000  0.02490000  1.0 -0.1790188054
N  N46  1  0.70130000  0.37360000  0.04670000  1.0 -0.429082555
N  N47  1  0.71340000  0.48520000  0.00930000  1.0 -0.429082555
N  N48  1  0.60350000  0.45010000  0.06460000  1.0 -0.3882206405
O  O1  1  0.54800000  0.52100000  0.26680000  1.0 -0.2060371513
O  O2  1  0.45200000  0.47900000  0.73320000  1.0 -0.2060371513
O  O3  1  0.42000000  0.43600000  0.22300000  1.0 -0.4598525489
O  O4  1  0.58000000  0.56400000  0.77700000  1.0 -0.4598525489
O  O5  1  0.27200000  0.67900000  0.39000000  1.0 -0.1099788472
O  O6  1  0.72800000  0.32100000  0.61000000  1.0 -0.1099788472
O  O7  1  0.26300000  0.57200000  0.42010000  1.0 -0.3717985595
O  O8  1  0.73700000  0.42800000  0.57990000  1.0 -0.3717985595
