# DDEC6 charges by PACMAN v1.1 (https://github.com/mtap-research/PACMAN-charge/)
data_LABPOW_FSR_pacman
_symmetry_space_group_name_H-M   'P 1'
_cell_length_a   14.83030000
_cell_length_b   17.91300000
_cell_length_c   29.89430000
_cell_angle_alpha   96.80300000
_cell_angle_beta   93.48800000
_cell_angle_gamma   110.22900000
_symmetry_Int_Tables_number   1
_chemical_formula_structural   Zn9H96C102I26(N6O)4
_chemical_formula_sum   'Zn18 H192 C204 I52 N48 O8'
_cell_volume   7354.96121325
_cell_formula_units_Z   2
loop_
 _symmetry_equiv_pos_site_id
 _symmetry_equiv_pos_as_xyz
  1  'x, y, z'
loop_
 _atom_site_type_symbol
 _atom_site_label
 _atom_site_symmetry_multiplicity
 _atom_site_fract_x
 _atom_site_fract_y
 _atom_site_fract_z
 _atom_site_occupancy
 _atom_site_charge
Zn  Zn1  1  0.94679000  0.65355000  0.09348000  1.0 0.3484769844
Zn  Zn2  1  0.27877000  0.24649000  0.43783000  1.0 0.4367342637
Zn  Zn3  1  0.21753000  0.65167000  0.60033000  1.0 0.4035017387
Zn  Zn4  1  0.53981000  0.82633000  0.78367000  1.0 0.2724393354
Zn  Zn5  1  0.82180000  0.84010000  0.25690000  1.0 0.2830971972
Zn  Zn6  1  0.43670000  0.17830000  0.97990000  1.0 0.0327069443
Zn  Zn7  1  0.83430000  0.85820000  0.26610000  1.0 0.2895540591
Zn  Zn8  1  0.45700000  0.19040000  0.97240000  1.0 0.1011026866
Zn  Zn9  1  0.47060000  0.20320000  0.95260000  1.0 0.02275242
Zn  Zn10  1  0.05321000  0.34645000  0.90652000  1.0 0.3484769844
Zn  Zn11  1  0.72123000  0.75351000  0.56217000  1.0 0.4367342637
Zn  Zn12  1  0.78247000  0.34833000  0.39967000  1.0 0.4035017387
Zn  Zn13  1  0.46019000  0.17367000  0.21633000  1.0 0.2724393354
Zn  Zn14  1  0.17820000  0.15990000  0.74310000  1.0 0.2895540591
Zn  Zn15  1  0.56330000  0.82170000  0.02010000  1.0 0.0327069443
Zn  Zn16  1  0.16570000  0.14180000  0.73390000  1.0 0.2895540591
Zn  Zn17  1  0.54300000  0.80960000  0.02760000  1.0 0.1011026866
Zn  Zn18  1  0.52940000  0.79680000  0.04740000  1.0 0.02275242
H  H1  1  0.12820000  0.65740000  0.14190000  1.0 0.1011026866
H  H2  1  0.25430000  0.73940000  0.19450000  1.0 0.130166404
H  H3  1  0.12540000  0.90310000  0.20620000  1.0 0.1226594759
H  H4  1  0.00380000  0.81910000  0.15010000  1.0 0.0697874568
H  H5  1  0.18880000  0.14730000  0.34550000  1.0 0.0897659227
H  H6  1  0.21150000  0.04990000  0.29430000  1.0 0.1097255082
H  H7  1  0.45260000  0.07250000  0.37330000  1.0 0.1496510942
H  H8  1  0.42270000  0.16860000  0.42340000  1.0 0.1097255082
H  H9  1  0.63420000  0.79870000  0.20890000  1.0 0.0897659227
H  H10  1  0.48510000  0.81440000  0.21380000  1.0 0.1496510942
H  H11  1  0.60570000  0.98260000  0.32240000  1.0 0.1496510942
H  H12  1  0.75200000  0.96140000  0.31340000  1.0 0.0897659227
H  H13  1  0.45320000  0.34000000  0.50990000  1.0 0.1097255082
H  H14  1  0.59950000  0.44700000  0.51490000  1.0 0.1411683846
H  H15  1  0.54250000  0.46310000  0.38410000  1.0 0.1226594759
H  H16  1  0.39800000  0.35210000  0.38280000  1.0 0.1011026866
H  H17  1  0.01060000  0.52330000  0.57960000  1.0 0.1011026866
H  H18  1  0.86700000  0.50680000  0.53610000  1.0 0.1411683846
H  H19  1  0.01450000  0.69360000  0.47580000  1.0 0.130166404
H  H20  1  0.15350000  0.70680000  0.52040000  1.0 0.1011026866
H  H21  1  0.68310000  0.70000000  0.28500000  1.0 0.0804643677
H  H22  1  0.65380000  0.62250000  0.34320000  1.0 0.130166404
H  H23  1  0.90200000  0.77780000  0.41160000  1.0 0.130166404
H  H24  1  0.92270000  0.85100000  0.35240000  1.0 0.0804643677
H  H25  1  0.31220000  0.80910000  0.66430000  1.0 0.0897659227
H  H26  1  0.27480000  0.88210000  0.72560000  1.0 0.1226594759
H  H27  1  0.99790000  0.73190000  0.69830000  1.0 0.130166404
H  H28  1  0.04340000  0.66120000  0.64040000  1.0 0.1097255082
H  H29  1  0.25020000  0.16240000  0.93310000  1.0 0.0897659227
H  H30  1  0.12880000  0.07360000  0.87950000  1.0 0.1097255082
H  H31  1  0.32720000  0.98410000  0.83210000  1.0 0.1097255082
H  H32  1  0.44050000  0.07190000  0.88780000  1.0 0.0897659227
H  H33  1  0.72640000  0.93440000  0.84000000  1.0 0.0897659227
H  H34  1  0.89190000  0.95740000  0.84450000  1.0 0.1411683846
H  H35  1  0.83370000  0.77110000  0.74230000  1.0 0.1411683846
H  H36  1  0.67170000  0.75080000  0.74230000  1.0 0.0897659227
H  H37  1  0.39020000  0.80830000  0.84790000  1.0 0.0897659227
H  H38  1  0.32840000  0.73300000  0.90450000  1.0 0.1411683846
H  H39  1  0.50850000  0.61080000  0.88100000  1.0 0.1226594759
H  H40  1  0.56900000  0.68840000  0.82740000  1.0 0.1011026866
H  H41  1  0.02620000  0.51640000  0.07510000  1.0 0.0897659227
H  H42  1  0.14780000  0.49120000  0.03790000  1.0 0.130166404
H  H43  1  0.18820000  0.69250000  0.98080000  1.0 0.1411683846
H  H44  1  0.06590000  0.71270000  0.01970000  1.0 0.0897659227
H  H45  1  0.46590000  0.31120000  0.91440000  1.0 0.0897659227
H  H46  1  0.43000000  0.42720000  0.90830000  1.0 0.130166404
H  H47  1  0.33980000  0.41180000  0.03200000  1.0 0.130166404
H  H48  1  0.37990000  0.29660000  0.03350000  1.0 0.1011026866
H  H49  1  0.87180000  0.34260000  0.85810000  1.0 0.1011026866
H  H50  1  0.74570000  0.26060000  0.80550000  1.0 0.130166404
H  H51  1  0.87460000  0.09690000  0.79380000  1.0 0.1226594759
H  H52  1  0.99620000  0.18090000  0.84990000  1.0 0.0697874568
H  H53  1  0.81120000  0.85270000  0.65450000  1.0 0.0897659227
H  H54  1  0.78850000  0.95010000  0.70570000  1.0 0.1097255082
H  H55  1  0.54740000  0.92750000  0.62670000  1.0 0.1496510942
H  H56  1  0.57730000  0.83140000  0.57660000  1.0 0.1097255082
H  H57  1  0.36580000  0.20130000  0.79110000  1.0 0.0897659227
H  H58  1  0.51490000  0.18560000  0.78620000  1.0 0.1496510942
H  H59  1  0.39430000  0.01740000  0.67760000  1.0 0.1496510942
H  H60  1  0.24800000  0.03860000  0.68660000  1.0 0.0897659227
H  H61  1  0.54680000  0.66000000  0.49010000  1.0 0.1097255082
H  H62  1  0.40050000  0.55300000  0.48510000  1.0 0.1411683846
H  H63  1  0.45750000  0.53690000  0.61590000  1.0 0.1226594759
H  H64  1  0.60200000  0.64790000  0.61720000  1.0 0.1011026866
H  H65  1  0.98940000  0.47670000  0.42040000  1.0 0.1011026866
H  H66  1  0.13300000  0.49320000  0.46390000  1.0 0.1411683846
H  H67  1  0.98550000  0.30640000  0.52420000  1.0 0.130166404
H  H68  1  0.84650000  0.29320000  0.47960000  1.0 0.1011026866
H  H69  1  0.31690000  0.30000000  0.71500000  1.0 0.0804643677
H  H70  1  0.34620000  0.37750000  0.65680000  1.0 0.130166404
H  H71  1  0.09800000  0.22220000  0.58840000  1.0 0.130166404
H  H72  1  0.07730000  0.14900000  0.64760000  1.0 0.0804643677
H  H73  1  0.68780000  0.19090000  0.33570000  1.0 0.0897659227
H  H74  1  0.72520000  0.11790000  0.27440000  1.0 0.1226594759
H  H75  1  0.00210000  0.26810000  0.30170000  1.0 0.130166404
H  H76  1  0.95660000  0.33880000  0.35960000  1.0 0.1097255082
H  H77  1  0.74980000  0.83760000  0.06690000  1.0 0.0897659227
H  H78  1  0.87120000  0.92640000  0.12050000  1.0 0.1097255082
H  H79  1  0.67280000  0.01590000  0.16790000  1.0 0.1097255082
H  H80  1  0.55950000  0.92810000  0.11220000  1.0 0.0897659227
H  H81  1  0.27360000  0.06560000  0.16000000  1.0 0.0897659227
H  H82  1  0.10810000  0.04260000  0.15550000  1.0 0.1411683846
H  H83  1  0.16630000  0.22890000  0.25770000  1.0 0.1411683846
H  H84  1  0.32830000  0.24920000  0.25770000  1.0 0.0897659227
H  H85  1  0.60980000  0.19170000  0.15210000  1.0 0.0897659227
H  H86  1  0.67160000  0.26700000  0.09550000  1.0 0.1411683846
H  H87  1  0.49150000  0.38920000  0.11900000  1.0 0.130166404
H  H88  1  0.43100000  0.31160000  0.17260000  1.0 0.1011026866
H  H89  1  0.97380000  0.48360000  0.92490000  1.0 0.0897659227
H  H90  1  0.85220000  0.50880000  0.96210000  1.0 0.130166404
H  H91  1  0.81180000  0.30750000  0.01920000  1.0 0.1411683846
H  H92  1  0.93410000  0.28730000  0.98030000  1.0 0.0897659227
H  H93  1  0.53410000  0.68880000  0.08560000  1.0 0.0897659227
H  H94  1  0.57000000  0.57280000  0.09170000  1.0 0.130166404
H  H95  1  0.66020000  0.58820000  0.96800000  1.0 0.130166404
H  H96  1  0.62010000  0.70340000  0.96650000  1.0 0.1011026866
H  H97  1  0.50830000  0.63640000  0.32710000  1.0 0.0804643677
H  H98  1  0.49170000  0.36360000  0.67290000  1.0 0.0804643677
H  H99  1  0.41110000  0.55210000  0.39610000  1.0 0.1011026866
H  H100  1  0.58890000  0.44790000  0.60390000  1.0 0.1011026866
H  H101  1  0.34560000  0.42130000  0.33100000  1.0 0.0804643677
H  H102  1  0.65440000  0.57870000  0.66900000  1.0 0.0804643677
H  H103  1  0.18470000  0.45510000  0.30810000  1.0 0.1589561329
H  H104  1  0.81530000  0.54490000  0.69190000  1.0 0.1589561329
H  H105  1  0.27210000  0.53650000  0.24460000  1.0 0.0697874568
H  H106  1  0.72790000  0.46350000  0.75540000  1.0 0.0697874568
H  H107  1  0.35190000  0.67310000  0.30370000  1.0 0.130166404
H  H108  1  0.64810000  0.32690000  0.69630000  1.0 0.130166404
H  H109  1  0.68660000  0.53020000  0.24950000  1.0 0.0804643677
H  H110  1  0.31340000  0.46980000  0.75050000  1.0 0.0804643677
H  H111  1  0.60790000  0.44180000  0.23440000  1.0 0.0697874568
H  H112  1  0.39210000  0.55820000  0.76560000  1.0 0.0697874568
H  H113  1  0.61130000  0.51220000  0.20540000  1.0 0.0804643677
H  H114  1  0.38870000  0.48780000  0.79460000  1.0 0.0804643677
H  H115  1  0.22970000  0.76270000  0.42480000  1.0 0.1097255082
H  H116  1  0.77030000  0.23730000  0.57520000  1.0 0.1097255082
H  H117  1  0.15230000  0.67360000  0.42190000  1.0 0.1650096373
H  H118  1  0.84770000  0.32640000  0.57810000  1.0 0.1589561329
H  H119  1  0.24770000  0.70290000  0.45710000  1.0 0.1097255082
H  H120  1  0.75230000  0.29710000  0.54290000  1.0 0.1097255082
H  H121  1  0.45130000  0.97080000  0.54650000  1.0 0.0402042995
H  H122  1  0.54870000  0.02920000  0.45350000  1.0 0.0402042995
H  H123  1  0.34460000  0.96640000  0.52960000  1.0 0.1011026866
H  H124  1  0.65540000  0.03360000  0.47040000  1.0 0.1011026866
H  H125  1  0.43590000  0.08670000  0.48990000  1.0 0.130166404
H  H126  1  0.56410000  0.91330000  0.51010000  1.0 0.1411683846
H  H127  1  0.42330000  0.99760000  0.46560000  1.0 0.0108574115
H  H128  1  0.57670000  0.00240000  0.53440000  1.0 0.0108574115
H  H129  1  0.58100000  0.01530000  0.48750000  1.0 -0.0094227441
H  H130  1  0.41900000  0.98470000  0.51250000  1.0 -0.0094227441
H  H131  1  0.59870000  0.11020000  0.49660000  1.0 0.0897659227
H  H132  1  0.40130000  0.88980000  0.50340000  1.0 0.0897659227
H  H133  1  0.63900000  0.06870000  0.56680000  1.0 0.1011026866
H  H134  1  0.36100000  0.93130000  0.43320000  1.0 0.1011026866
H  H135  1  0.53330000  0.00090000  0.56210000  1.0 0.0497916792
H  H136  1  0.46670000  0.99910000  0.43790000  1.0 0.0497916792
H  H137  1  0.55700000  0.13020000  0.61400000  1.0 0.0580213896
H  H138  1  0.44300000  0.86980000  0.38600000  1.0 0.0580213896
H  H139  1  0.54940000  0.16770000  0.56800000  1.0 0.0402042995
H  H140  1  0.45060000  0.83230000  0.43200000  1.0 0.0402042995
H  H141  1  0.38630000  0.10620000  0.56540000  1.0 0.0897659227
H  H142  1  0.61370000  0.89380000  0.43460000  1.0 0.0897659227
H  H143  1  0.39760000  0.05100000  0.60280000  1.0 0.0804643677
H  H144  1  0.60240000  0.94900000  0.39720000  1.0 0.0804643677
H  H145  1  0.36500000  0.65280000  0.44370000  1.0 0.0897659227
H  H146  1  0.63500000  0.34720000  0.55630000  1.0 0.0897659227
H  H147  1  0.28970000  0.63950000  0.39970000  1.0 0.1496510942
H  H148  1  0.71030000  0.36050000  0.60030000  1.0 0.1496510942
H  H149  1  0.40650000  0.62090000  0.35940000  1.0 0.0497916792
H  H150  1  0.59350000  0.37910000  0.64060000  1.0 0.0497916792
H  H151  1  0.48880000  0.66240000  0.40140000  1.0 0.1097255082
H  H152  1  0.51120000  0.33760000  0.59860000  1.0 0.1097255082
H  H153  1  0.50380000  0.74140000  0.33720000  1.0 0.1011026866
H  H154  1  0.49620000  0.25860000  0.66280000  1.0 0.1011026866
H  H155  1  0.40890000  0.75770000  0.35100000  1.0 0.0804643677
H  H156  1  0.59110000  0.24230000  0.64900000  1.0 0.0804643677
H  H157  1  0.59430000  0.81650000  0.40410000  1.0 0.0897659227
H  H158  1  0.40570000  0.18350000  0.59590000  1.0 0.0897659227
H  H159  1  0.53500000  0.86990000  0.38730000  1.0 0.02275242
H  H160  1  0.46500000  0.13010000  0.61270000  1.0 0.02275242
H  H161  1  0.48690000  0.86530000  0.45750000  1.0 0.0497916792
H  H162  1  0.51310000  0.13470000  0.54250000  1.0 0.0497916792
H  H163  1  0.50300000  0.78170000  0.46150000  1.0 0.1097255082
H  H164  1  0.49700000  0.21830000  0.53850000  1.0 0.1097255082
H  H165  1  0.35250000  0.78120000  0.39440000  1.0 0.0897659227
H  H166  1  0.64750000  0.21880000  0.60560000  1.0 0.0897659227
H  H167  1  0.32700000  0.77380000  0.44560000  1.0 0.0897659227
H  H168  1  0.67300000  0.22620000  0.55440000  1.0 0.0897659227
H  H169  1  0.29940000  0.52220000  0.27850000  1.0 0.0497916792
H  H170  1  0.70060000  0.47780000  0.72150000  1.0 0.0497916792
H  H171  1  0.40150000  0.56690000  0.30870000  1.0 0.0897659227
H  H172  1  0.59850000  0.43310000  0.69130000  1.0 0.0897659227
H  H173  1  0.34880000  0.41180000  0.25250000  1.0 0.1589561329
H  H174  1  0.65120000  0.58820000  0.74750000  1.0 0.1589561329
H  H175  1  0.35780000  0.42470000  0.30690000  1.0 0.0804643677
H  H176  1  0.64220000  0.57530000  0.69310000  1.0 0.0804643677
H  H177  1  0.52700000  0.50590000  0.30900000  1.0 0.1226594759
H  H178  1  0.47300000  0.49410000  0.69100000  1.0 0.1226594759
H  H179  1  0.50540000  0.41600000  0.28470000  1.0 0.0402042995
H  H180  1  0.49460000  0.58400000  0.71530000  1.0 0.0402042995
H  H181  1  0.60520000  0.50950000  0.24130000  1.0 0.0697874568
H  H182  1  0.39480000  0.49050000  0.75870000  1.0 0.0697874568
H  H183  1  0.50350000  0.45900000  0.21190000  1.0 0.1880025611
H  H184  1  0.49650000  0.54100000  0.78810000  1.0 0.1880025611
H  H185  1  0.56000000  0.62070000  0.25840000  1.0 0.1011026866
H  H186  1  0.44000000  0.37930000  0.74160000  1.0 0.1011026866
H  H187  1  0.53360000  0.59340000  0.20480000  1.0 0.0804643677
H  H188  1  0.46640000  0.40660000  0.79520000  1.0 0.0804643677
H  H189  1  0.37160000  0.53660000  0.21150000  1.0 0.0804643677
H  H190  1  0.62840000  0.46340000  0.78850000  1.0 0.0804643677
H  H191  1  0.40760000  0.62330000  0.24170000  1.0 0.0897659227
H  H192  1  0.59240000  0.37670000  0.75830000  1.0 0.0897659227
C  C1  1  0.12840000  0.70870000  0.15450000  1.0 0.0697874568
C  C2  1  0.20270000  0.75680000  0.18630000  1.0 -0.1495033242
C  C3  1  0.20300000  0.83020000  0.20640000  1.0 0.0580213896
C  C4  1  0.12810000  0.85310000  0.19300000  1.0 -0.1495033242
C  C5  1  0.05520000  0.80230000  0.15950000  1.0 0.0697874568
C  C6  1  0.24290000  0.13170000  0.35130000  1.0 0.0897659227
C  C7  1  0.25600000  0.07370000  0.32070000  1.0 -0.1623355984
C  C8  1  0.33440000  0.05030000  0.32860000  1.0 0.0497916792
C  C9  1  0.39750000  0.08670000  0.36710000  1.0 -0.1678740126
C  C10  1  0.37970000  0.14420000  0.39660000  1.0 0.0697874568
C  C11  1  0.62810000  0.83580000  0.23290000  1.0 0.0327069443
C  C12  1  0.53870000  0.84490000  0.23540000  1.0 -0.1678740126
C  C13  1  0.52980000  0.89940000  0.27030000  1.0 0.0580213896
C  C14  1  0.60860000  0.94320000  0.29880000  1.0 -0.1623355984
C  C15  1  0.69620000  0.92970000  0.29330000  1.0 0.0580213896
C  C16  1  0.28370000  0.88140000  0.24040000  1.0 0.3575681345
C  C17  1  0.34670000  0.98550000  0.29660000  1.0 0.3575681345
C  C18  1  0.43580000  0.91170000  0.27330000  1.0 0.3484769844
C  C19  1  0.47080000  0.36560000  0.48400000  1.0 0.1011026866
C  C20  1  0.55790000  0.42970000  0.48730000  1.0 -0.131286095
C  C21  1  0.58330000  0.46770000  0.45050000  1.0 0.0580213896
C  C22  1  0.52560000  0.43950000  0.41070000  1.0 -0.1623355984
C  C23  1  0.43910000  0.37320000  0.41050000  1.0 0.0697874568
C  C24  1  0.01060000  0.55950000  0.55880000  1.0 0.0697874568
C  C25  1  0.92500000  0.54930000  0.53290000  1.0 -0.1215443889
C  C26  1  0.92500000  0.60070000  0.50280000  1.0 0.0580213896
C  C27  1  0.01170000  0.65880000  0.49770000  1.0 -0.1358136265
C  C28  1  0.09420000  0.66650000  0.52430000  1.0 0.0897659227
C  C29  1  0.72830000  0.71610000  0.31140000  1.0 -0.0034362141
C  C30  1  0.71060000  0.66910000  0.34560000  1.0 -0.1814036945
C  C31  1  0.77730000  0.69140000  0.38310000  1.0 0.0697874568
C  C32  1  0.85570000  0.76010000  0.38560000  1.0 -0.1035692218
C  C33  1  0.86720000  0.80350000  0.35030000  1.0 0.0697874568
C  C34  1  0.67610000  0.53460000  0.45160000  1.0 0.3793394661
C  C35  1  0.83580000  0.59580000  0.47440000  1.0 0.3793394661
C  C36  1  0.76740000  0.64010000  0.41860000  1.0 0.3793394661
C  C37  1  0.24750000  0.79250000  0.67170000  1.0 0.0897659227
C  C38  1  0.22530000  0.83770000  0.70780000  1.0 -0.1623355984
C  C39  1  0.13180000  0.81730000  0.71740000  1.0 0.0497916792
C  C40  1  0.06340000  0.74920000  0.69190000  1.0 -0.131286095
C  C41  1  0.09110000  0.70730000  0.65780000  1.0 0.0697874568
C  C42  1  0.26490000  0.12470000  0.91250000  1.0 0.0108574115
C  C43  1  0.19250000  0.07260000  0.88040000  1.0 -0.1623355984
C  C44  1  0.21460000  0.01800000  0.84910000  1.0 0.0402042995
C  C45  1  0.30920000  0.01970000  0.85270000  1.0 -0.1623355984
C  C46  1  0.37640000  0.07210000  0.88580000  1.0 -0.0034362141
C  C47  1  0.74930000  0.90090000  0.82030000  1.0 0.0804643677
C  C48  1  0.84790000  0.91530000  0.82290000  1.0 -0.1495033242
C  C49  1  0.88080000  0.86690000  0.79340000  1.0 0.0580213896
C  C50  1  0.81320000  0.80500000  0.76290000  1.0 -0.1623355984
C  C51  1  0.71720000  0.79380000  0.76280000  1.0 0.0497916792
C  C52  1  0.10450000  0.86310000  0.75450000  1.0 0.3484769844
C  C53  1  0.98740000  0.88500000  0.79140000  1.0 0.3404317941
C  C54  1  0.13980000  0.95820000  0.81590000  1.0 0.3484769844
C  C55  1  0.41420000  0.76780000  0.85500000  1.0 0.0402042995
C  C56  1  0.37640000  0.72250000  0.88780000  1.0 -0.1358136265
C  C57  1  0.40900000  0.66070000  0.89660000  1.0 0.0580213896
C  C58  1  0.48280000  0.65050000  0.87430000  1.0 -0.1889578505
C  C59  1  0.51860000  0.69680000  0.84300000  1.0 0.0108574115
C  C60  1  0.06040000  0.55290000  0.05610000  1.0 0.0697874568
C  C61  1  0.13260000  0.53760000  0.03390000  1.0 -0.1495033242
C  C62  1  0.18200000  0.58910000  0.00630000  1.0 0.0580213896
C  C63  1  0.15630000  0.65600000  0.00040000  1.0 -0.1495033242
C  C64  1  0.08350000  0.66750000  0.02370000  1.0 0.0697874568
C  C65  1  0.43880000  0.33200000  0.93870000  1.0 0.0327069443
C  C66  1  0.41870000  0.40160000  0.93450000  1.0 -0.131286095
C  C67  1  0.38150000  0.43080000  0.97100000  1.0 0.0327069443
C  C68  1  0.36610000  0.39230000  0.00690000  1.0 -0.131286095
C  C69  1  0.38930000  0.32300000  0.00740000  1.0 0.0402042995
C  C70  1  0.36720000  0.60880000  0.93010000  1.0 0.3404317941
C  C71  1  0.26240000  0.57730000  0.98220000  1.0 0.3404317941
C  C72  1  0.35410000  0.50370000  0.96570000  1.0 0.3675722078
C  C73  1  0.87160000  0.29130000  0.84550000  1.0 0.0697874568
C  C74  1  0.79730000  0.24320000  0.81370000  1.0 -0.1495033242
C  C75  1  0.79700000  0.16980000  0.79360000  1.0 0.0580213896
C  C76  1  0.87190000  0.14690000  0.80700000  1.0 -0.1495033242
C  C77  1  0.94480000  0.19770000  0.84050000  1.0 0.0804643677
C  C78  1  0.75710000  0.86830000  0.64870000  1.0 0.0897659227
C  C79  1  0.74400000  0.92630000  0.67930000  1.0 -0.1623355984
C  C80  1  0.66560000  0.94970000  0.67140000  1.0 0.0497916792
C  C81  1  0.60250000  0.91330000  0.63290000  1.0 -0.1623355984
C  C82  1  0.62030000  0.85580000  0.60340000  1.0 0.0697874568
C  C83  1  0.37190000  0.16420000  0.76710000  1.0 0.0327069443
C  C84  1  0.46130000  0.15510000  0.76460000  1.0 -0.1678740126
C  C85  1  0.47020000  0.10060000  0.72970000  1.0 0.0580213896
C  C86  1  0.39140000  0.05680000  0.70120000  1.0 -0.1623355984
C  C87  1  0.30380000  0.07030000  0.70670000  1.0 0.0580213896
C  C88  1  0.71630000  0.11860000  0.75960000  1.0 0.3575681345
C  C89  1  0.65330000  0.01450000  0.70340000  1.0 0.3575681345
C  C90  1  0.56420000  0.08830000  0.72670000  1.0 0.3484769844
C  C91  1  0.52920000  0.63440000  0.51600000  1.0 0.1011026866
C  C92  1  0.44210000  0.57030000  0.51270000  1.0 -0.131286095
C  C93  1  0.41670000  0.53230000  0.54950000  1.0 0.0580213896
C  C94  1  0.47440000  0.56050000  0.58930000  1.0 -0.1623355984
C  C95  1  0.56090000  0.62680000  0.58950000  1.0 0.0697874568
C  C96  1  0.98940000  0.44050000  0.44120000  1.0 0.0697874568
C  C97  1  0.07500000  0.45070000  0.46710000  1.0 -0.1215443889
C  C98  1  0.07500000  0.39930000  0.49720000  1.0 0.0580213896
C  C99  1  0.98830000  0.34120000  0.50230000  1.0 -0.1358136265
C  C100  1  0.90580000  0.33350000  0.47570000  1.0 0.0897659227
C  C101  1  0.27170000  0.28390000  0.68860000  1.0 0.0036478413
C  C102  1  0.28940000  0.33090000  0.65440000  1.0 -0.1814036945
C  C103  1  0.22270000  0.30860000  0.61690000  1.0 0.0697874568
C  C104  1  0.14430000  0.23990000  0.61440000  1.0 -0.1035692218
C  C105  1  0.13280000  0.19650000  0.64970000  1.0 0.0697874568
C  C106  1  0.32390000  0.46540000  0.54840000  1.0 0.3793394661
C  C107  1  0.16420000  0.40420000  0.52560000  1.0 0.3793394661
C  C108  1  0.23260000  0.35990000  0.58140000  1.0 0.3793394661
C  C109  1  0.75250000  0.20750000  0.32830000  1.0 0.0897659227
C  C110  1  0.77470000  0.16230000  0.29220000  1.0 -0.1623355984
C  C111  1  0.86820000  0.18270000  0.28260000  1.0 0.0497916792
C  C112  1  0.93660000  0.25080000  0.30810000  1.0 -0.131286095
C  C113  1  0.90890000  0.29270000  0.34220000  1.0 0.0697874568
C  C114  1  0.73510000  0.87530000  0.08750000  1.0 0.0108574115
C  C115  1  0.80750000  0.92740000  0.11960000  1.0 -0.1623355984
C  C116  1  0.78540000  0.98200000  0.15090000  1.0 0.0402042995
C  C117  1  0.69080000  0.98030000  0.14730000  1.0 -0.1623355984
C  C118  1  0.62360000  0.92790000  0.11420000  1.0 -0.0094227441
C  C119  1  0.25070000  0.09910000  0.17970000  1.0 0.0804643677
C  C120  1  0.15210000  0.08470000  0.17710000  1.0 -0.1495033242
C  C121  1  0.11920000  0.13310000  0.20660000  1.0 0.0580213896
C  C122  1  0.18680000  0.19500000  0.23710000  1.0 -0.1623355984
C  C123  1  0.28280000  0.20620000  0.23720000  1.0 0.0497916792
C  C124  1  0.89550000  0.13690000  0.24550000  1.0 0.3484769844
C  C125  1  0.01260000  0.11500000  0.20860000  1.0 0.3404317941
C  C126  1  0.86020000  0.04180000  0.18410000  1.0 0.3484769844
C  C127  1  0.58580000  0.23220000  0.14500000  1.0 0.0402042995
C  C128  1  0.62360000  0.27750000  0.11220000  1.0 -0.1358136265
C  C129  1  0.59100000  0.33930000  0.10340000  1.0 0.0580213896
C  C130  1  0.51720000  0.34950000  0.12570000  1.0 -0.1889578505
C  C131  1  0.48140000  0.30320000  0.15700000  1.0 0.0108574115
C  C132  1  0.93960000  0.44710000  0.94390000  1.0 0.0697874568
C  C133  1  0.86740000  0.46240000  0.96610000  1.0 -0.1495033242
C  C134  1  0.81800000  0.41090000  0.99370000  1.0 0.0697874568
C  C135  1  0.84370000  0.34400000  0.99960000  1.0 -0.1623355984
C  C136  1  0.91650000  0.33250000  0.97630000  1.0 0.0697874568
C  C137  1  0.56120000  0.66800000  0.06130000  1.0 0.0327069443
C  C138  1  0.58130000  0.59840000  0.06550000  1.0 -0.131286095
C  C139  1  0.61850000  0.56920000  0.02900000  1.0 0.0402042995
C  C140  1  0.63390000  0.60770000  0.99310000  1.0 -0.131286095
C  C141  1  0.61070000  0.67700000  0.99260000  1.0 0.0402042995
C  C142  1  0.63280000  0.39120000  0.06990000  1.0 0.3404317941
C  C143  1  0.73760000  0.42270000  0.01780000  1.0 0.3404317941
C  C144  1  0.64590000  0.49630000  0.03430000  1.0 0.3675722078
C  C145  1  0.39700000  0.51700000  0.28940000  1.0 -0.0200918679
C  C146  1  0.60300000  0.48300000  0.71060000  1.0 -0.0200918679
C  C147  1  0.44000000  0.59800000  0.32370000  1.0 -0.1678740126
C  C148  1  0.56000000  0.40200000  0.67630000  1.0 -0.1678740126
C  C149  1  0.38300000  0.55000000  0.36450000  1.0 -0.1678740126
C  C150  1  0.61700000  0.45000000  0.63550000  1.0 -0.1678740126
C  C151  1  0.34800000  0.47600000  0.32600000  1.0 -0.0802779763
C  C152  1  0.65200000  0.52400000  0.67400000  1.0 -0.0802779763
C  C153  1  0.25300000  0.49400000  0.31130000  1.0 -0.1678740126
C  C154  1  0.74700000  0.50600000  0.68870000  1.0 -0.1678740126
C  C155  1  0.30200000  0.54000000  0.27610000  1.0 -0.03098611
C  C156  1  0.69800000  0.46000000  0.72390000  1.0 -0.03098611
C  C157  1  0.35000000  0.61900000  0.30970000  1.0 -0.1085600871
C  C158  1  0.65000000  0.38100000  0.69030000  1.0 -0.1085600871
C  C159  1  0.30200000  0.57600000  0.35000000  1.0 -0.0802779763
C  C160  1  0.69800000  0.42400000  0.65000000  1.0 -0.0802779763
C  C161  1  0.45200000  0.49000000  0.25560000  1.0 0.0897659227
C  C162  1  0.54800000  0.51000000  0.74440000  1.0 0.0897659227
C  C163  1  0.62020000  0.49950000  0.23600000  1.0 -0.1814036945
C  C164  1  0.37980000  0.50050000  0.76400000  1.0 -0.1814036945
C  C165  1  0.26900000  0.59700000  0.38960000  1.0 0.2313310848
C  C166  1  0.73100000  0.40300000  0.61040000  1.0 0.2313310848
C  C167  1  0.22100000  0.70700000  0.42690000  1.0 -0.3084906741
C  C168  1  0.77900000  0.29300000  0.57310000  1.0 -0.3084906741
C  C169  1  0.41300000  0.00300000  0.53600000  1.0 -0.1035692218
C  C170  1  0.58700000  0.99700000  0.46400000  1.0 -0.1035692218
C  C171  1  0.45000000  0.03800000  0.49330000  1.0 -0.1085600871
C  C172  1  0.55000000  0.96200000  0.50670000  1.0 -0.1085600871
C  C173  1  0.56000000  0.05700000  0.50410000  1.0 -0.0389909562
C  C174  1  0.44000000  0.94300000  0.49590000  1.0 -0.0389909562
C  C175  1  0.57000000  0.05600000  0.55600000  1.0 -0.2115945845
C  C176  1  0.43000000  0.94400000  0.44400000  1.0 -0.2115945845
C  C177  1  0.53200000  0.11700000  0.58150000  1.0 -0.0802779763
C  C178  1  0.46800000  0.88300000  0.41850000  1.0 -0.0802779763
C  C179  1  0.42200000  0.07200000  0.57490000  1.0 -0.1814036945
C  C180  1  0.57800000  0.92800000  0.42510000  1.0 -0.1814036945
C  C181  1  0.35500000  0.67200000  0.41500000  1.0 -0.0094227441
C  C182  1  0.64500000  0.32800000  0.58500000  1.0 -0.0094227441
C  C183  1  0.43300000  0.66800000  0.38400000  1.0 -0.2004234894
C  C184  1  0.56700000  0.33200000  0.61600000  1.0 -0.2004234894
C  C185  1  0.46600000  0.74700000  0.36290000  1.0 -0.2634757116
C  C186  1  0.53400000  0.25300000  0.63710000  1.0 -0.2634757116
C  C187  1  0.52900000  0.81800000  0.39800000  1.0 -0.0464220771
C  C188  1  0.47100000  0.18200000  0.60200000  1.0 -0.0464220771
C  C189  1  0.47800000  0.81100000  0.44100000  1.0 -0.131286095
C  C190  1  0.52200000  0.18900000  0.55900000  1.0 -0.131286095
C  C191  1  0.36900000  0.76400000  0.42300000  1.0 -0.1814036945
C  C192  1  0.63100000  0.23600000  0.57700000  1.0 -0.1814036945
C  C193  1  0.36900000  0.53100000  0.28000000  1.0 0.0108574115
C  C194  1  0.63100000  0.46900000  0.72000000  1.0 0.0108574115
C  C195  1  0.38300000  0.44900000  0.28000000  1.0 -0.0802779763
C  C196  1  0.61700000  0.55100000  0.72000000  1.0 -0.0802779763
C  C197  1  0.49300000  0.46600000  0.28200000  1.0 -0.0034362141
C  C198  1  0.50700000  0.53400000  0.71800000  1.0 -0.0034362141
C  C199  1  0.53500000  0.49900000  0.23900000  1.0 0.0697874568
C  C200  1  0.46500000  0.50100000  0.76100000  1.0 0.0697874568
C  C201  1  0.51700000  0.57700000  0.23500000  1.0 -0.0802779763
C  C202  1  0.48300000  0.42300000  0.76500000  1.0 -0.0802779763
C  C203  1  0.41200000  0.56900000  0.24000000  1.0 -0.1889578505
C  C204  1  0.58800000  0.43100000  0.76000000  1.0 -0.1814036945
I  I1  1  0.87360000  0.72470000  0.05110000  1.0 0.0402042995
I  I2  1  0.86460000  0.52880000  0.13301000  1.0 -0.3632685745
I  I3  1  0.25870000  0.18030000  0.50942000  1.0 -0.5092458829
I  I4  1  0.16130000  0.30140000  0.39935000  1.0 -0.4690500005
I  I5  1  0.78693000  0.73359000  0.18814000  1.0 0.0580213896
I  I6  1  0.97823000  0.95792000  0.27766000  1.0 -0.0200918679
I  I7  1  0.21260000  0.53556000  0.64146000  1.0 -0.1889578505
I  I8  1  0.35950000  0.73890000  0.56249000  1.0 -0.5236088737
I  I9  1  0.60360000  0.19790000  0.96310000  1.0 -0.03098611
I  I10  1  0.34950000  0.11510000  0.04820000  1.0 -0.0200918679
I  I11  1  0.46980000  0.73500000  0.70557000  1.0 0.0497916792
I  I12  1  0.52040000  0.95480000  0.80890000  1.0 0.0036478413
I  I13  1  0.87790000  0.74590000  0.04810000  1.0 0.0697874568
I  I14  1  0.85670000  0.53920000  0.13080000  1.0 -0.3297961458
I  I15  1  0.25740000  0.18870000  0.50943000  1.0 -0.4801759675
I  I16  1  0.15960000  0.29670000  0.39811000  1.0 -0.4690500005
I  I17  1  0.81670000  0.76860000  0.18920000  1.0 0.0108574115
I  I18  1  0.98170000  0.98490000  0.29100000  1.0 0.0402042995
I  I19  1  0.19380000  0.53350000  0.64330000  1.0 -0.1889578505
I  I20  1  0.35230000  0.72850000  0.56330000  1.0 -0.4888574584
I  I21  1  0.61610000  0.22030000  0.93400000  1.0 -0.071653436
I  I22  1  0.40960000  0.12350000  0.03902000  1.0 -0.1215443889
I  I23  1  0.47160000  0.75720000  0.70910000  1.0 0.02275242
I  I24  1  0.52840000  0.97120000  0.81660000  1.0 0.02275242
I  I25  1  0.62160000  0.24790000  0.90420000  1.0 0.02275242
I  I26  1  0.47050000  0.14140000  0.02140000  1.0 -0.1085600871
I  I27  1  0.12640000  0.27530000  0.94890000  1.0 0.0402042995
I  I28  1  0.13540000  0.47120000  0.86699000  1.0 -0.3663566812
I  I29  1  0.74130000  0.81970000  0.49058000  1.0 -0.5092458829
I  I30  1  0.83870000  0.69860000  0.60065000  1.0 -0.4690500005
I  I31  1  0.21307000  0.26641000  0.81186000  1.0 0.0580213896
I  I32  1  0.02177000  0.04208000  0.72234000  1.0 -0.03098611
I  I33  1  0.78740000  0.46444000  0.35854000  1.0 -0.1889578505
I  I34  1  0.64050000  0.26110000  0.43751000  1.0 -0.5236088737
I  I35  1  0.39640000  0.80210000  0.03690000  1.0 -0.03098611
I  I36  1  0.65050000  0.88490000  0.95180000  1.0 -0.0200918679
I  I37  1  0.53020000  0.26500000  0.29443000  1.0 0.0497916792
I  I38  1  0.47960000  0.04520000  0.19110000  1.0 0.0036478413
I  I39  1  0.12210000  0.25410000  0.95190000  1.0 0.0697874568
I  I40  1  0.14330000  0.46080000  0.86920000  1.0 -0.3297961458
I  I41  1  0.74260000  0.81130000  0.49057000  1.0 -0.4801759675
I  I42  1  0.84040000  0.70330000  0.60189000  1.0 -0.4690500005
I  I43  1  0.18330000  0.23140000  0.81080000  1.0 0.0036478413
I  I44  1  0.01830000  0.01510000  0.70900000  1.0 0.0402042995
I  I45  1  0.80620000  0.46650000  0.35670000  1.0 -0.1889578505
I  I46  1  0.64770000  0.27150000  0.43670000  1.0 -0.4888574584
I  I47  1  0.38390000  0.77970000  0.06600000  1.0 -0.071653436
I  I48  1  0.59040000  0.87650000  0.96098000  1.0 -0.1085600871
I  I49  1  0.52840000  0.24280000  0.29090000  1.0 0.02275242
I  I50  1  0.47160000  0.02880000  0.18340000  1.0 0.02275242
I  I51  1  0.37840000  0.75210000  0.09580000  1.0 0.02275242
I  I52  1  0.52950000  0.85860000  0.97860000  1.0 -0.1085600871
N  N1  1  0.05570000  0.73230000  0.14080000  1.0 -0.1678740126
N  N2  1  0.30280000  0.16660000  0.38850000  1.0 -0.1623355984
N  N3  1  0.70360000  0.87600000  0.26200000  1.0 -0.1814036945
N  N4  1  0.27440000  0.94500000  0.26430000  1.0 -0.4026890841
N  N5  1  0.43020000  0.97120000  0.30220000  1.0 -0.4295762434
N  N6  1  0.36320000  0.86140000  0.24310000  1.0 -0.4026890841
N  N7  1  0.41250000  0.33940000  0.44670000  1.0 -0.1678740126
N  N8  1  0.09310000  0.61950000  0.55520000  1.0 -0.1678740126
N  N9  1  0.80510000  0.78260000  0.31340000  1.0 -0.1814036945
N  N10  1  0.75160000  0.53700000  0.47960000  1.0 -0.3913870905
N  N11  1  0.84790000  0.64750000  0.44560000  1.0 -0.3787396654
N  N12  1  0.67890000  0.58360000  0.42180000  1.0 -0.4223793252
N  N13  1  0.18320000  0.72830000  0.64750000  1.0 -0.1678740126
N  N14  1  0.35500000  0.12370000  0.91560000  1.0 -0.1623355984
N  N15  1  0.68500000  0.84080000  0.79040000  1.0 -0.1814036945
N  N16  1  0.00910000  0.84030000  0.75900000  1.0 -0.3913870905
N  N17  1  0.04820000  0.94380000  0.82210000  1.0 -0.4026890841
N  N18  1  0.17280000  0.92230000  0.78150000  1.0 -0.4026890841
N  N19  1  0.48640000  0.75490000  0.83250000  1.0 -0.1889578505
N  N20  1  0.03690000  0.61850000  0.05130000  1.0 -0.1814036945
N  N21  1  0.42350000  0.29340000  0.97320000  1.0 -0.1814036945
N  N22  1  0.29930000  0.62640000  0.95280000  1.0 -0.4083940907
N  N23  1  0.28730000  0.51500000  0.99100000  1.0 -0.4083940907
N  N24  1  0.39670000  0.54920000  0.93560000  1.0 -0.3913870905
N  N25  1  0.94430000  0.26770000  0.85920000  1.0 -0.1678740126
N  N26  1  0.69720000  0.83340000  0.61150000  1.0 -0.1623355984
N  N27  1  0.29640000  0.12400000  0.73800000  1.0 -0.1814036945
N  N28  1  0.72560000  0.05500000  0.73570000  1.0 -0.4026890841
N  N29  1  0.56980000  0.02880000  0.69780000  1.0 -0.4295762434
N  N30  1  0.63680000  0.13860000  0.75690000  1.0 -0.4026890841
N  N31  1  0.58750000  0.66060000  0.55330000  1.0 -0.1678740126
N  N32  1  0.90690000  0.38050000  0.44480000  1.0 -0.1678740126
N  N33  1  0.19490000  0.21740000  0.68660000  1.0 -0.1814036945
N  N34  1  0.24840000  0.46300000  0.52040000  1.0 -0.3913870905
N  N35  1  0.15210000  0.35250000  0.55440000  1.0 -0.3787396654
N  N36  1  0.32110000  0.41640000  0.57820000  1.0 -0.4223793252
N  N37  1  0.81680000  0.27170000  0.35250000  1.0 -0.1678740126
N  N38  1  0.64500000  0.87630000  0.08440000  1.0 -0.1623355984
N  N39  1  0.31500000  0.15920000  0.20960000  1.0 -0.1814036945
N  N40  1  0.99090000  0.15970000  0.24100000  1.0 -0.3913870905
N  N41  1  0.95180000  0.05620000  0.17790000  1.0 -0.4083940907
N  N42  1  0.82720000  0.07770000  0.21850000  1.0 -0.4026890841
N  N43  1  0.51360000  0.24510000  0.16750000  1.0 -0.1889578505
N  N44  1  0.96310000  0.38150000  0.94870000  1.0 -0.1889578505
N  N45  1  0.57650000  0.70660000  0.02680000  1.0 -0.1814036945
N  N46  1  0.70070000  0.37360000  0.04720000  1.0 -0.4083940907
N  N47  1  0.71270000  0.48500000  0.00900000  1.0 -0.4083940907
N  N48  1  0.60330000  0.45080000  0.06440000  1.0 -0.3913870905
O  O1  1  0.55090000  0.52150000  0.26450000  1.0 -0.0464220771
O  O2  1  0.44910000  0.47850000  0.73550000  1.0 -0.0389909562
O  O3  1  0.42200000  0.43710000  0.22300000  1.0 -0.2115945845
O  O4  1  0.57800000  0.56290000  0.77700000  1.0 -0.2115945845
O  O5  1  0.27300000  0.67700000  0.39180000  1.0 -0.071653436
O  O6  1  0.72700000  0.32300000  0.60820000  1.0 -0.071653436
O  O7  1  0.18700000  0.56500000  0.39880000  1.0 -0.3632685745
O  O8  1  0.81300000  0.43500000  0.60120000  1.0 -0.3632685745
