# DDEC6 charges by PACMAN v1.1 (https://github.com/mtap-research/PACMAN-charge/)
data_LABQAJ_ASR_pacman
_symmetry_space_group_name_H-M   'P 1'
_cell_length_a   19.41780000
_cell_length_b   19.41780000
_cell_length_c   31.28230000
_cell_angle_alpha   78.27430000
_cell_angle_beta   101.72600000
_cell_angle_gamma   134.92100000
_symmetry_Int_Tables_number   1
_chemical_formula_structural   Zn10H90C113I24(BrN12)2
_chemical_formula_sum   'Zn20 H180 C226 I48 Br4 N48'
_cell_volume   8147.14166303
_cell_formula_units_Z   2
loop_
 _symmetry_equiv_pos_site_id
 _symmetry_equiv_pos_as_xyz
  1  'x, y, z'
loop_
 _atom_site_type_symbol
 _atom_site_label
 _atom_site_symmetry_multiplicity
 _atom_site_fract_x
 _atom_site_fract_y
 _atom_site_fract_z
 _atom_site_occupancy
 _atom_site_charge
Zn  Zn1  1  0.22101000  0.97591000  0.57071000  1.0 0.3037316826
Zn  Zn2  1  0.97591000  0.22101000  0.92929000  1.0 0.3037316826
Zn  Zn3  1  0.77899000  0.02409000  0.42929000  1.0 0.3037316826
Zn  Zn4  1  0.02409000  0.77899000  0.07071000  1.0 0.3037316826
Zn  Zn5  1  0.68230000  0.03090000  0.72020000  1.0 0.2875883085
Zn  Zn6  1  0.03090000  0.68230000  0.77980000  1.0 0.2875883085
Zn  Zn7  1  0.31770000  0.96910000  0.27980000  1.0 0.2875883085
Zn  Zn8  1  0.96910000  0.31770000  0.22020000  1.0 0.2875883085
Zn  Zn9  1  0.31453000  0.45687000  0.39832000  1.0 0.1601436836
Zn  Zn10  1  0.45687000  0.31453000  0.10168000  1.0 0.1601436836
Zn  Zn11  1  0.68547000  0.54313000  0.60168000  1.0 0.1601436836
Zn  Zn12  1  0.54313000  0.68547000  0.89832000  1.0 0.1601436836
Zn  Zn13  1  0.67360000  0.03000000  0.71120000  1.0 0.3151832399
Zn  Zn14  1  0.03000000  0.67360000  0.78880000  1.0 0.3134837028
Zn  Zn15  1  0.32640000  0.97000000  0.28880000  1.0 0.3134837028
Zn  Zn16  1  0.97000000  0.32640000  0.21120000  1.0 0.3151832399
Zn  Zn17  1  0.29270000  0.46490000  0.40630000  1.0 0.2008474198
Zn  Zn18  1  0.46490000  0.29270000  0.09370000  1.0 0.2008474198
Zn  Zn19  1  0.70730000  0.53510000  0.59370000  1.0 0.2008474198
Zn  Zn20  1  0.53510000  0.70730000  0.90630000  1.0 0.2008474198
H  H1  1  0.58560000  0.94300000  0.62910000  1.0 0.0792831689
H  H2  1  0.94300000  0.58560000  0.87090000  1.0 0.0792831689
H  H3  1  0.41440000  0.05700000  0.37090000  1.0 0.0792831689
H  H4  1  0.05700000  0.41440000  0.12910000  1.0 0.0792831689
H  H5  1  0.59900000  0.87700000  0.58040000  1.0 0.1290001588
H  H6  1  0.87700000  0.59900000  0.91960000  1.0 0.1290001588
H  H7  1  0.40100000  0.12300000  0.41960000  1.0 0.1290001588
H  H8  1  0.12300000  0.40100000  0.08040000  1.0 0.1290001588
H  H9  1  0.83030000  0.94390000  0.65870000  1.0 0.1290001588
H  H10  1  0.94390000  0.83030000  0.84130000  1.0 0.1290001588
H  H11  1  0.16970000  0.05610000  0.34130000  1.0 0.1290001588
H  H12  1  0.05610000  0.16970000  0.15870000  1.0 0.1290001588
H  H13  1  0.80770000  0.00390000  0.70540000  1.0 0.0792831689
H  H14  1  0.00390000  0.80770000  0.79460000  1.0 0.0792831689
H  H15  1  0.19230000  0.99610000  0.29460000  1.0 0.0792831689
H  H16  1  0.99610000  0.19230000  0.20540000  1.0 0.0792831689
H  H17  1  0.04840000  0.90160000  0.50350000  1.0 0.0898438051
H  H18  1  0.90160000  0.04840000  0.99650000  1.0 0.0898438051
H  H19  1  0.95160000  0.09840000  0.49650000  1.0 0.0898438051
H  H20  1  0.09840000  0.95160000  0.00350000  1.0 0.0898438051
H  H21  1  0.90320000  0.86080000  0.49690000  1.0 0.1290001588
H  H22  1  0.86080000  0.90320000  0.00310000  1.0 0.1290001588
H  H23  1  0.09680000  0.13920000  0.50310000  1.0 0.1290001588
H  H24  1  0.13920000  0.09680000  0.99690000  1.0 0.1290001588
H  H25  1  0.94950000  0.90670000  0.62480000  1.0 0.1290001588
H  H26  1  0.90670000  0.94950000  0.87520000  1.0 0.1290001588
H  H27  1  0.05050000  0.09330000  0.37520000  1.0 0.1290001588
H  H28  1  0.09330000  0.05050000  0.12480000  1.0 0.1290001588
H  H29  1  0.09610000  0.94790000  0.62810000  1.0 0.0792831689
H  H30  1  0.94790000  0.09610000  0.87190000  1.0 0.0792831689
H  H31  1  0.90390000  0.05210000  0.37190000  1.0 0.0792831689
H  H32  1  0.05210000  0.90390000  0.12810000  1.0 0.0792831689
H  H33  1  0.51630000  0.54250000  0.43270000  1.0 0.0898438051
H  H34  1  0.54250000  0.51630000  0.06730000  1.0 0.0898438051
H  H35  1  0.48370000  0.45750000  0.56730000  1.0 0.0898438051
H  H36  1  0.45750000  0.48370000  0.93270000  1.0 0.0898438051
H  H37  1  0.64860000  0.65940000  0.47850000  1.0 0.1290001588
H  H38  1  0.65940000  0.64860000  0.02150000  1.0 0.1290001588
H  H39  1  0.35140000  0.34060000  0.52150000  1.0 0.1290001588
H  H40  1  0.34060000  0.35140000  0.97850000  1.0 0.1290001588
H  H41  1  0.48710000  0.69770000  0.51070000  1.0 0.1290001588
H  H42  1  0.69770000  0.48710000  0.98930000  1.0 0.1290001588
H  H43  1  0.51290000  0.30230000  0.48930000  1.0 0.1290001588
H  H44  1  0.30230000  0.51290000  0.01070000  1.0 0.1290001588
H  H45  1  0.35750000  0.57570000  0.46390000  1.0 0.0792831689
H  H46  1  0.57570000  0.35750000  0.03610000  1.0 0.0792831689
H  H47  1  0.64250000  0.42430000  0.53610000  1.0 0.0792831689
H  H48  1  0.42430000  0.64250000  0.96390000  1.0 0.0792831689
H  H49  1  0.06610000  0.76050000  0.58800000  1.0 0.0686347994
H  H50  1  0.76050000  0.06610000  0.91200000  1.0 0.0686347994
H  H51  1  0.93390000  0.23950000  0.41200000  1.0 0.0686347994
H  H52  1  0.23950000  0.93390000  0.08800000  1.0 0.0686347994
H  H53  1  0.03410000  0.63350000  0.63500000  1.0 0.1182552752
H  H54  1  0.63350000  0.03410000  0.86500000  1.0 0.1182552752
H  H55  1  0.96590000  0.36650000  0.36500000  1.0 0.1182552752
H  H56  1  0.36650000  0.96590000  0.13500000  1.0 0.1182552752
H  H57  1  0.29790000  0.83170000  0.69970000  1.0 0.098813729
H  H58  1  0.83170000  0.29790000  0.80030000  1.0 0.098813729
H  H59  1  0.70210000  0.16830000  0.30030000  1.0 0.098813729
H  H60  1  0.16830000  0.70210000  0.19970000  1.0 0.098813729
H  H61  1  0.31650000  0.95450000  0.65420000  1.0 0.0595399066
H  H62  1  0.95450000  0.31650000  0.84580000  1.0 0.0595399066
H  H63  1  0.68350000  0.04550000  0.34580000  1.0 0.0595399066
H  H64  1  0.04550000  0.68350000  0.15420000  1.0 0.0595399066
H  H65  1  0.35330000  0.52310000  0.85810000  1.0 0.0792831689
H  H66  1  0.52310000  0.35330000  0.64190000  1.0 0.0792831689
H  H67  1  0.64670000  0.47690000  0.14190000  1.0 0.0792831689
H  H68  1  0.47690000  0.64670000  0.35810000  1.0 0.0792831689
H  H69  1  0.23280000  0.48280000  0.80380000  1.0 0.1089125116
H  H70  1  0.48280000  0.23280000  0.69620000  1.0 0.1089125116
H  H71  1  0.76720000  0.51720000  0.19620000  1.0 0.1089125116
H  H72  1  0.51720000  0.76720000  0.30380000  1.0 0.1089125116
H  H73  1  0.38160000  0.76860000  0.78150000  1.0 0.1182552752
H  H74  1  0.76860000  0.38160000  0.71850000  1.0 0.1182552752
H  H75  1  0.61840000  0.23140000  0.21850000  1.0 0.1182552752
H  H76  1  0.23140000  0.61840000  0.28150000  1.0 0.1182552752
H  H77  1  0.49740000  0.79940000  0.83740000  1.0 0.0686347994
H  H78  1  0.79940000  0.49740000  0.66260000  1.0 0.0686347994
H  H79  1  0.50260000  0.20060000  0.16260000  1.0 0.0686347994
H  H80  1  0.20060000  0.50260000  0.33740000  1.0 0.0686347994
H  H81  1  0.88610000  0.16250000  0.75580000  1.0 0.0686347994
H  H82  1  0.16250000  0.88610000  0.74420000  1.0 0.0686347994
H  H83  1  0.11390000  0.83750000  0.24420000  1.0 0.0686347994
H  H84  1  0.83750000  0.11390000  0.25580000  1.0 0.0686347994
H  H85  1  0.02480000  0.32580000  0.76070000  1.0 0.1290001588
H  H86  1  0.32580000  0.02480000  0.73930000  1.0 0.1290001588
H  H87  1  0.97520000  0.67420000  0.23930000  1.0 0.1290001588
H  H88  1  0.67420000  0.97520000  0.26070000  1.0 0.1290001588
H  H89  1  0.88940000  0.39140000  0.67550000  1.0 0.1378376809
H  H90  1  0.39140000  0.88940000  0.82450000  1.0 0.1378376809
H  H91  1  0.11060000  0.60860000  0.32450000  1.0 0.1378376809
H  H92  1  0.60860000  0.11060000  0.17550000  1.0 0.1378376809
H  H93  1  0.74870000  0.22490000  0.67650000  1.0 0.0898438051
H  H94  1  0.22490000  0.74870000  0.82350000  1.0 0.0898438051
H  H95  1  0.25130000  0.77510000  0.32350000  1.0 0.0898438051
H  H96  1  0.77510000  0.25130000  0.17650000  1.0 0.0898438051
H  H97  1  0.86120000  0.25120000  0.51430000  1.0 0.098813729
H  H98  1  0.25120000  0.86120000  0.98570000  1.0 0.098813729
H  H99  1  0.13880000  0.74880000  0.48570000  1.0 0.098813729
H  H100  1  0.74880000  0.13880000  0.01430000  1.0 0.098813729
H  H101  1  0.97790000  0.31430000  0.46760000  1.0 0.0792831689
H  H102  1  0.31430000  0.97790000  0.03240000  1.0 0.0792831689
H  H103  1  0.02210000  0.68570000  0.53240000  1.0 0.0792831689
H  H104  1  0.68570000  0.02210000  0.96760000  1.0 0.0792831689
H  H105  1  0.09600000  0.48240000  0.44790000  1.0 0.0792831689
H  H106  1  0.48240000  0.09600000  0.05210000  1.0 0.0792831689
H  H107  1  0.90400000  0.51760000  0.55210000  1.0 0.0792831689
H  H108  1  0.51760000  0.90400000  0.94790000  1.0 0.0792831689
H  H109  1  0.09740000  0.58720000  0.47480000  1.0 0.0792831689
H  H110  1  0.58720000  0.09740000  0.02520000  1.0 0.0792831689
H  H111  1  0.90260000  0.41280000  0.52520000  1.0 0.0792831689
H  H112  1  0.41280000  0.90260000  0.97480000  1.0 0.0792831689
H  H113  1  0.91880000  0.55180000  0.56900000  1.0 0.0792831689
H  H114  1  0.55180000  0.91880000  0.93100000  1.0 0.0792831689
H  H115  1  0.08120000  0.44820000  0.43100000  1.0 0.0792831689
H  H116  1  0.44820000  0.08120000  0.06900000  1.0 0.0792831689
H  H117  1  0.75470000  0.19930000  0.54390000  1.0 0.0686347994
H  H118  1  0.19930000  0.75470000  0.95610000  1.0 0.0686347994
H  H119  1  0.24530000  0.80070000  0.45610000  1.0 0.0686347994
H  H120  1  0.80070000  0.24530000  0.04390000  1.0 0.0686347994
H  H121  1  0.62670000  0.13810000  0.58210000  1.0 0.0595399066
H  H122  1  0.13810000  0.62670000  0.91790000  1.0 0.0595399066
H  H123  1  0.37330000  0.86190000  0.41790000  1.0 0.0595399066
H  H124  1  0.86190000  0.37330000  0.08210000  1.0 0.0595399066
H  H125  1  0.63100000  0.24560000  0.60870000  1.0 0.0898438051
H  H126  1  0.24560000  0.63100000  0.89130000  1.0 0.0898438051
H  H127  1  0.36900000  0.75440000  0.39130000  1.0 0.0898438051
H  H128  1  0.75440000  0.36900000  0.10870000  1.0 0.0898438051
H  H129  1  0.76350000  0.41430000  0.59710000  1.0 0.0792831689
H  H130  1  0.41430000  0.76350000  0.90290000  1.0 0.0792831689
H  H131  1  0.23650000  0.58570000  0.40290000  1.0 0.0792831689
H  H132  1  0.58570000  0.23650000  0.09710000  1.0 0.0792831689
H  H133  1  0.65580000  0.30140000  0.57000000  1.0 0.0595399066
H  H134  1  0.30140000  0.65580000  0.93000000  1.0 0.0595399066
H  H135  1  0.34420000  0.69860000  0.43000000  1.0 0.0595399066
H  H136  1  0.69860000  0.34420000  0.07000000  1.0 0.0595399066
H  H137  1  0.62470000  0.22470000  0.61210000  1.0 0.0898438051
H  H138  1  0.22470000  0.62470000  0.88790000  1.0 0.0898438051
H  H139  1  0.37530000  0.77530000  0.38790000  1.0 0.0898438051
H  H140  1  0.77530000  0.37530000  0.11210000  1.0 0.0898438051
H  H141  1  0.48960000  0.10600000  0.57670000  1.0 0.0792831689
H  H142  1  0.10600000  0.48960000  0.92330000  1.0 0.0792831689
H  H143  1  0.51040000  0.89400000  0.42330000  1.0 0.0792831689
H  H144  1  0.89400000  0.51040000  0.07670000  1.0 0.0792831689
H  H145  1  0.51250000  0.18570000  0.53800000  1.0 0.0898438051
H  H146  1  0.18570000  0.51250000  0.96200000  1.0 0.0898438051
H  H147  1  0.48750000  0.81430000  0.46200000  1.0 0.0898438051
H  H148  1  0.81430000  0.48750000  0.03800000  1.0 0.0898438051
H  H149  1  0.58830000  0.15870000  0.50190000  1.0 0.1089125116
H  H150  1  0.15870000  0.58830000  0.99810000  1.0 0.1089125116
H  H151  1  0.41170000  0.84130000  0.49810000  1.0 0.1089125116
H  H152  1  0.84130000  0.41170000  0.00190000  1.0 0.1089125116
H  H153  1  0.47700000  0.05900000  0.50900000  1.0 0.0898438051
H  H154  1  0.05900000  0.47700000  0.99100000  1.0 0.0898438051
H  H155  1  0.52300000  0.94100000  0.49100000  1.0 0.0898438051
H  H156  1  0.94100000  0.52300000  0.00900000  1.0 0.0898438051
H  H157  1  0.52430000  0.00450000  0.56980000  1.0 0.0898438051
H  H158  1  0.00450000  0.52430000  0.93020000  1.0 0.0898438051
H  H159  1  0.47570000  0.99550000  0.43020000  1.0 0.0898438051
H  H160  1  0.99550000  0.47570000  0.06980000  1.0 0.0898438051
H  H161  1  0.59080000  0.04000000  0.53200000  1.0 0.098813729
H  H162  1  0.04000000  0.59080000  0.96800000  1.0 0.098813729
H  H163  1  0.40920000  0.96000000  0.46800000  1.0 0.098813729
H  H164  1  0.96000000  0.40920000  0.03200000  1.0 0.098813729
H  H165  1  0.71980000  0.13800000  0.57690000  1.0 0.0686347994
H  H166  1  0.13800000  0.71980000  0.92310000  1.0 0.0686347994
H  H167  1  0.28020000  0.86200000  0.42310000  1.0 0.0686347994
H  H168  1  0.86200000  0.28020000  0.07690000  1.0 0.0686347994
H  H169  1  0.65370000  0.11150000  0.61230000  1.0 0.0415731072
H  H170  1  0.11150000  0.65370000  0.88770000  1.0 0.0415731072
H  H171  1  0.34630000  0.88850000  0.38770000  1.0 0.0415731072
H  H172  1  0.88850000  0.34630000  0.11230000  1.0 0.0415731072
H  H173  1  0.76940000  0.28120000  0.59400000  1.0 0.0686347994
H  H174  1  0.28120000  0.76940000  0.90600000  1.0 0.0686347994
H  H175  1  0.23060000  0.71880000  0.40600000  1.0 0.0686347994
H  H176  1  0.71880000  0.23060000  0.09400000  1.0 0.0686347994
H  H177  1  0.73040000  0.26540000  0.54330000  1.0 0.0792831689
H  H178  1  0.26540000  0.73040000  0.95670000  1.0 0.0792831689
H  H179  1  0.26960000  0.73460000  0.45670000  1.0 0.0792831689
H  H180  1  0.73460000  0.26960000  0.04330000  1.0 0.0792831689
C  C1  1  0.63510000  0.94230000  0.63510000  1.0 0.0415731072
C  C2  1  0.94230000  0.63510000  0.86490000  1.0 0.0415731072
C  C3  1  0.36490000  0.05770000  0.36490000  1.0 0.0415731072
C  C4  1  0.05770000  0.36490000  0.13510000  1.0 0.0415731072
C  C5  1  0.64270000  0.90270000  0.60610000  1.0 -0.1524537849
C  C6  1  0.90270000  0.64270000  0.89390000  1.0 -0.1524537849
C  C7  1  0.35730000  0.09730000  0.39390000  1.0 -0.1524537849
C  C8  1  0.09730000  0.35730000  0.10610000  1.0 -0.1524537849
C  C9  1  0.71400000  0.90120000  0.61490000  1.0 0.0686347994
C  C10  1  0.90120000  0.71400000  0.88510000  1.0 0.0686347994
C  C11  1  0.28600000  0.09880000  0.38510000  1.0 0.0686347994
C  C12  1  0.09880000  0.28600000  0.11490000  1.0 0.0686347994
C  C13  1  0.77870000  0.94170000  0.65230000  1.0 -0.1430720548
C  C14  1  0.94170000  0.77870000  0.84770000  1.0 -0.1430720548
C  C15  1  0.22130000  0.05830000  0.34770000  1.0 -0.1430720548
C  C16  1  0.05830000  0.22130000  0.15230000  1.0 -0.1430720548
C  C17  1  0.76530000  0.97810000  0.67940000  1.0 0.0496711488
C  C18  1  0.97810000  0.76530000  0.82060000  1.0 0.0496711488
C  C19  1  0.23470000  0.02190000  0.32060000  1.0 0.0496711488
C  C20  1  0.02190000  0.23470000  0.17940000  1.0 0.0496711488
C  C21  1  0.02930000  0.90510000  0.52810000  1.0 0.0114567639
C  C22  1  0.90510000  0.02930000  0.97190000  1.0 0.0114567639
C  C23  1  0.97070000  0.09490000  0.47190000  1.0 0.0114567639
C  C24  1  0.09490000  0.97070000  0.02810000  1.0 0.0114567639
C  C25  1  0.94270000  0.88030000  0.52400000  1.0 -0.1087653088
C  C26  1  0.88030000  0.94270000  0.97600000  1.0 -0.1087653088
C  C27  1  0.05730000  0.11970000  0.47600000  1.0 -0.1087653088
C  C28  1  0.11970000  0.05730000  0.02400000  1.0 -0.1087653088
C  C29  1  0.91350000  0.88370000  0.55900000  1.0 0.0309317027
C  C30  1  0.88370000  0.91350000  0.94100000  1.0 0.0309317027
C  C31  1  0.08650000  0.11630000  0.44100000  1.0 0.0309317027
C  C32  1  0.11630000  0.08650000  0.05900000  1.0 0.0309317027
C  C33  1  0.97010000  0.90750000  0.59950000  1.0 -0.1593541811
C  C34  1  0.90750000  0.97010000  0.90050000  1.0 -0.1593541811
C  C35  1  0.02990000  0.09250000  0.40050000  1.0 -0.1593541811
C  C36  1  0.09250000  0.02990000  0.09950000  1.0 -0.1593541811
C  C37  1  0.05670000  0.93170000  0.60110000  1.0 0.0205897276
C  C38  1  0.93170000  0.05670000  0.89890000  1.0 0.0309317027
C  C39  1  0.94330000  0.06830000  0.39890000  1.0 0.0205897276
C  C40  1  0.06830000  0.94330000  0.10110000  1.0 0.0205897276
C  C41  1  0.51040000  0.57460000  0.44870000  1.0 0.0415731072
C  C42  1  0.57460000  0.51040000  0.05130000  1.0 0.0415731072
C  C43  1  0.48960000  0.42540000  0.55130000  1.0 0.0415731072
C  C44  1  0.42540000  0.48960000  0.94870000  1.0 0.0415731072
C  C45  1  0.58950000  0.64390000  0.47600000  1.0 -0.1593541811
C  C46  1  0.64390000  0.58950000  0.02400000  1.0 -0.1593541811
C  C47  1  0.41050000  0.35610000  0.52400000  1.0 -0.1593541811
C  C48  1  0.35610000  0.41050000  0.97600000  1.0 -0.1593541811
C  C49  1  0.58120000  0.69080000  0.49970000  1.0 0.0415731072
C  C50  1  0.69080000  0.58120000  0.00030000  1.0 0.0415731072
C  C51  1  0.41880000  0.30920000  0.50030000  1.0 0.0415731072
C  C52  1  0.30920000  0.41880000  0.99970000  1.0 0.0415731072
C  C53  1  0.49530000  0.66666667  0.49520000  1.0 -0.1684112618
C  C54  1  0.66666667  0.49530000  0.00480000  1.0 -0.1684112618
C  C55  1  0.50470000  0.33333333  0.50480000  1.0 -0.1684112618
C  C56  1  0.33333333  0.50470000  0.99520000  1.0 -0.1684112618
C  C57  1  0.41830000  0.59410000  0.46670000  1.0 0.0415731072
C  C58  1  0.59410000  0.41830000  0.03330000  1.0 0.0415731072
C  C59  1  0.58170000  0.40590000  0.53330000  1.0 0.0415731072
C  C60  1  0.40590000  0.58170000  0.96670000  1.0 0.0415731072
C  C61  1  0.72520000  0.86080000  0.58410000  1.0 0.3487855655
C  C62  1  0.86080000  0.72520000  0.91590000  1.0 0.3487855655
C  C63  1  0.27480000  0.13920000  0.41590000  1.0 0.3487855655
C  C64  1  0.13920000  0.27480000  0.08410000  1.0 0.3487855655
C  C65  1  0.82060000  0.85640000  0.55760000  1.0 0.3487855655
C  C66  1  0.85640000  0.82060000  0.94240000  1.0 0.3487855655
C  C67  1  0.17940000  0.14360000  0.44240000  1.0 0.3487855655
C  C68  1  0.14360000  0.17940000  0.05760000  1.0 0.3487855655
C  C69  1  0.66520000  0.76680000  0.52910000  1.0 0.3487855655
C  C70  1  0.76680000  0.66520000  0.97090000  1.0 0.3487855655
C  C71  1  0.33480000  0.23320000  0.47090000  1.0 0.3487855655
C  C72  1  0.23320000  0.33480000  0.02910000  1.0 0.3487855655
C  C73  1  0.11340000  0.77520000  0.61140000  1.0 0.0309317027
C  C74  1  0.77520000  0.11340000  0.88860000  1.0 0.0309317027
C  C75  1  0.88660000  0.22480000  0.38860000  1.0 0.0309317027
C  C76  1  0.22480000  0.88660000  0.11140000  1.0 0.0309317027
C  C77  1  0.09430000  0.69890000  0.63880000  1.0 -0.1961585107
C  C78  1  0.69890000  0.09430000  0.86120000  1.0 -0.1961585107
C  C79  1  0.90570000  0.30110000  0.36120000  1.0 -0.1961585107
C  C80  1  0.30110000  0.90570000  0.13880000  1.0 -0.1961585107
C  C81  1  0.16410000  0.71910000  0.67190000  1.0 0.0595399066
C  C82  1  0.71910000  0.16410000  0.82810000  1.0 0.0595399066
C  C83  1  0.83590000  0.28090000  0.32810000  1.0 0.0595399066
C  C84  1  0.28090000  0.83590000  0.17190000  1.0 0.0595399066
C  C85  1  0.24830000  0.81530000  0.67730000  1.0 -0.1430720548
C  C86  1  0.81530000  0.24830000  0.82270000  1.0 -0.1430720548
C  C87  1  0.75170000  0.18470000  0.32270000  1.0 -0.1430720548
C  C88  1  0.18470000  0.75170000  0.17730000  1.0 -0.1430720548
C  C89  1  0.26010000  0.88810000  0.64950000  1.0 0.0496711488
C  C90  1  0.88810000  0.26010000  0.85050000  1.0 0.0496711488
C  C91  1  0.73990000  0.11190000  0.35050000  1.0 0.0496711488
C  C92  1  0.11190000  0.73990000  0.14950000  1.0 0.0496711488
C  C93  1  0.35910000  0.57390000  0.84230000  1.0 0.0595399066
C  C94  1  0.57390000  0.35910000  0.65770000  1.0 0.0595399066
C  C95  1  0.64090000  0.42610000  0.15770000  1.0 0.0595399066
C  C96  1  0.42610000  0.64090000  0.34230000  1.0 0.0595399066
C  C97  1  0.28570000  0.54870000  0.81050000  1.0 -0.1684112618
C  C98  1  0.54870000  0.28570000  0.68950000  1.0 -0.1684112618
C  C99  1  0.71430000  0.45130000  0.18950000  1.0 -0.1684112618
C  C100  1  0.45130000  0.71430000  0.31050000  1.0 -0.1684112618
C  C101  1  0.29050000  0.62110000  0.78860000  1.0 0.0686347994
C  C102  1  0.62110000  0.29050000  0.71140000  1.0 0.0686347994
C  C103  1  0.70950000  0.37890000  0.21140000  1.0 0.0686347994
C  C104  1  0.37890000  0.70950000  0.28860000  1.0 0.0686347994
C  C105  1  0.37290000  0.71610000  0.79760000  1.0 -0.1684112618
C  C106  1  0.71610000  0.37290000  0.70240000  1.0 -0.1684112618
C  C107  1  0.62710000  0.28390000  0.20240000  1.0 -0.1684112618
C  C108  1  0.28390000  0.62710000  0.29760000  1.0 -0.1684112618
C  C109  1  0.44270000  0.73410000  0.83030000  1.0 -0.0192313445
C  C110  1  0.73410000  0.44270000  0.66970000  1.0 -0.0192313445
C  C111  1  0.55730000  0.26590000  0.16970000  1.0 -0.0192313445
C  C112  1  0.26590000  0.55730000  0.33030000  1.0 -0.0192313445
C  C113  1  0.88600000  0.20940000  0.73970000  1.0 0.0595399066
C  C114  1  0.20940000  0.88600000  0.76030000  1.0 0.0595399066
C  C115  1  0.11400000  0.79060000  0.26030000  1.0 0.0595399066
C  C116  1  0.79060000  0.11400000  0.23970000  1.0 0.0595399066
C  C117  1  0.96940000  0.30660000  0.74200000  1.0 -0.1430720548
C  C118  1  0.30660000  0.96940000  0.75800000  1.0 -0.1430720548
C  C119  1  0.03060000  0.69340000  0.25800000  1.0 -0.1430720548
C  C120  1  0.69340000  0.03060000  0.24200000  1.0 -0.1430720548
C  C121  1  0.97330000  0.37630000  0.71740000  1.0 0.0686347994
C  C122  1  0.37630000  0.97330000  0.78260000  1.0 0.0686347994
C  C123  1  0.02670000  0.62370000  0.28260000  1.0 0.0686347994
C  C124  1  0.62370000  0.02670000  0.21740000  1.0 0.0686347994
C  C125  1  0.89010000  0.34550000  0.69260000  1.0 -0.1786062574
C  C126  1  0.34550000  0.89010000  0.80740000  1.0 -0.1786062574
C  C127  1  0.10990000  0.65450000  0.30740000  1.0 -0.1684112618
C  C128  1  0.65450000  0.10990000  0.19260000  1.0 -0.1786062574
C  C129  1  0.80660000  0.24600000  0.69310000  1.0 -0.0375996654
C  C130  1  0.24600000  0.80660000  0.80690000  1.0 -0.0375996654
C  C131  1  0.19340000  0.75400000  0.30690000  1.0 -0.0375996654
C  C132  1  0.75400000  0.19340000  0.19310000  1.0 -0.0375996654
C  C133  1  0.14960000  0.64000000  0.70090000  1.0 0.3659364757
C  C134  1  0.64000000  0.14960000  0.79910000  1.0 0.3659364757
C  C135  1  0.85040000  0.36000000  0.29910000  1.0 0.3659364757
C  C136  1  0.36000000  0.85040000  0.20090000  1.0 0.3659364757
C  C137  1  0.21180000  0.59600000  0.75460000  1.0 0.3487855655
C  C138  1  0.59600000  0.21180000  0.74540000  1.0 0.3487855655
C  C139  1  0.78820000  0.40400000  0.24540000  1.0 0.3487855655
C  C140  1  0.40400000  0.78820000  0.25460000  1.0 0.3487855655
C  C141  1  0.06380000  0.48160000  0.72050000  1.0 0.3487855655
C  C142  1  0.48160000  0.06380000  0.77950000  1.0 0.3487855655
C  C143  1  0.93620000  0.51840000  0.27950000  1.0 0.3487855655
C  C144  1  0.51840000  0.93620000  0.22050000  1.0 0.3487855655
C  C145  1  0.98010000  0.48150000  0.51060000  1.0 -0.0081785397
C  C146  1  0.48150000  0.98010000  0.98940000  1.0 -0.0192313445
C  C147  1  0.01990000  0.51850000  0.48940000  1.0 -0.0192313445
C  C148  1  0.51850000  0.01990000  0.01060000  1.0 -0.0081785397
C  C149  1  0.90900000  0.31940000  0.50630000  1.0 -0.1010198849
C  C150  1  0.31940000  0.90900000  0.99370000  1.0 -0.1010198849
C  C151  1  0.09100000  0.68060000  0.49370000  1.0 -0.1010198849
C  C152  1  0.68060000  0.09100000  0.00630000  1.0 -0.1010198849
C  C153  1  0.97880000  0.35720000  0.47860000  1.0 -0.0024208995
C  C154  1  0.35720000  0.97880000  0.02140000  1.0 -0.0081785397
C  C155  1  0.02120000  0.64280000  0.52140000  1.0 -0.0024208995
C  C156  1  0.64280000  0.02120000  0.97860000  1.0 -0.0024208995
C  C157  1  0.04900000  0.45700000  0.46680000  1.0 -0.0701158514
C  C158  1  0.45700000  0.04900000  0.03320000  1.0 -0.0701158514
C  C159  1  0.95100000  0.54300000  0.53320000  1.0 -0.0701158514
C  C160  1  0.54300000  0.95100000  0.96680000  1.0 -0.0701158514
C  C161  1  0.83520000  0.34320000  0.54780000  1.0 -0.1430720548
C  C162  1  0.34320000  0.83520000  0.95220000  1.0 -0.1430720548
C  C163  1  0.16480000  0.65680000  0.45220000  1.0 -0.1430720548
C  C164  1  0.65680000  0.16480000  0.04780000  1.0 -0.1430720548
C  C165  1  0.75680000  0.24320000  0.55470000  1.0 -0.1010198849
C  C166  1  0.24320000  0.75680000  0.94530000  1.0 -0.1010198849
C  C167  1  0.24320000  0.75680000  0.44530000  1.0 -0.1010198849
C  C168  1  0.75680000  0.24320000  0.05470000  1.0 -0.1010198849
C  C169  1  0.68040000  0.20660000  0.57740000  1.0 -0.0511409813
C  C170  1  0.20660000  0.68040000  0.92260000  1.0 -0.0511409813
C  C171  1  0.31960000  0.79340000  0.42260000  1.0 -0.0511409813
C  C172  1  0.79340000  0.31960000  0.07740000  1.0 -0.0511409813
C  C173  1  0.63320000  0.23680000  0.58050000  1.0 -0.0913991603
C  C174  1  0.23680000  0.63320000  0.91950000  1.0 -0.0913991603
C  C175  1  0.36680000  0.76320000  0.41950000  1.0 -0.0913991603
C  C176  1  0.76320000  0.36680000  0.08050000  1.0 -0.0913991603
C  C177  1  0.53710000  0.15690000  0.55530000  1.0 -0.2623032155
C  C178  1  0.15690000  0.53710000  0.94470000  1.0 -0.2623032155
C  C179  1  0.46290000  0.84310000  0.44470000  1.0 -0.2623032155
C  C180  1  0.84310000  0.46290000  0.05530000  1.0 -0.2623032155
C  C181  1  0.54250000  0.10950000  0.52420000  1.0 -0.1786062574
C  C182  1  0.10950000  0.54250000  0.97580000  1.0 -0.1786062574
C  C183  1  0.45750000  0.89050000  0.47580000  1.0 -0.1786062574
C  C184  1  0.89050000  0.45750000  0.02420000  1.0 -0.1684112618
C  C185  1  0.57620000  0.06180000  0.55160000  1.0 -0.2091303068
C  C186  1  0.06180000  0.57620000  0.94840000  1.0 -0.2091303068
C  C187  1  0.42380000  0.93820000  0.44840000  1.0 -0.2091303068
C  C188  1  0.93820000  0.42380000  0.05160000  1.0 -0.2091303068
C  C189  1  0.66880000  0.13520000  0.58140000  1.0 -0.1010198849
C  C190  1  0.13520000  0.66880000  0.91860000  1.0 -0.1010198849
C  C191  1  0.33120000  0.86480000  0.41860000  1.0 -0.1010198849
C  C192  1  0.86480000  0.33120000  0.08140000  1.0 -0.1010198849
C  C193  1  0.71110000  0.23890000  0.57360000  1.0 -0.0295395496
C  C194  1  0.23890000  0.71110000  0.92640000  1.0 -0.0295395496
C  C195  1  0.28890000  0.76110000  0.42640000  1.0 -0.0295395496
C  C196  1  0.76110000  0.28890000  0.07360000  1.0 -0.0295395496
C  C197  1  0.98440000  0.53800000  0.53290000  1.0 0.0114567639
C  C198  1  0.53800000  0.98440000  0.96710000  1.0 0.0114567639
C  C199  1  0.01560000  0.46200000  0.46710000  1.0 0.0114567639
C  C200  1  0.46200000  0.01560000  0.03290000  1.0 0.0114567639
C  C201  1  0.91490000  0.50750000  0.55730000  1.0 -0.1010198849
C  C202  1  0.50750000  0.91490000  0.94270000  1.0 -0.1010198849
C  C203  1  0.08510000  0.49250000  0.44270000  1.0 -0.1010198849
C  C204  1  0.49250000  0.08510000  0.05730000  1.0 -0.1010198849
C  C205  1  0.95060000  0.48100000  0.51710000  1.0 -0.0192313445
C  C206  1  0.48100000  0.95060000  0.98290000  1.0 -0.0295395496
C  C207  1  0.04940000  0.51900000  0.48290000  1.0 -0.0295395496
C  C208  1  0.51900000  0.04940000  0.01710000  1.0 -0.0295395496
C  C209  1  0.83780000  0.40700000  0.56360000  1.0 -0.0783461641
C  C210  1  0.40700000  0.83780000  0.93640000  1.0 -0.0783461641
C  C211  1  0.16220000  0.59300000  0.43640000  1.0 -0.0783461641
C  C212  1  0.59300000  0.16220000  0.06360000  1.0 -0.0783461641
C  C213  1  0.76150000  0.37050000  0.58630000  1.0 -0.2379422757
C  C214  1  0.37050000  0.76150000  0.91370000  1.0 -0.2379422757
C  C215  1  0.23850000  0.62950000  0.41370000  1.0 -0.2379422757
C  C216  1  0.62950000  0.23850000  0.08630000  1.0 -0.2379422757
C  C217  1  0.68300000  0.27040000  0.59320000  1.0 -0.1010198849
C  C218  1  0.27040000  0.68300000  0.90680000  1.0 -0.1010198849
C  C219  1  0.31700000  0.72960000  0.40680000  1.0 -0.1010198849
C  C220  1  0.72960000  0.31700000  0.09320000  1.0 -0.1010198849
C  C221  1  0.90990000  0.38170000  0.52230000  1.0 -0.0511409813
C  C222  1  0.38170000  0.90990000  0.97770000  1.0 -0.0511409813
C  C223  1  0.09010000  0.61830000  0.47770000  1.0 -0.0511409813
C  C224  1  0.61830000  0.09010000  0.02230000  1.0 -0.0511409813
C  C225  1  0.00000000  0.00000000  0.50000000  1.0 -0.0192313445
C  C226  1  0.00000000  0.00000000  0.00000000  1.0 -0.0295395496
I  I1  1  0.53269000  0.00371000  0.69587000  1.0 -0.0375996654
I  I2  1  0.00371000  0.53269000  0.80413000  1.0 -0.0375996654
I  I3  1  0.46731000  0.99629000  0.30413000  1.0 -0.0375996654
I  I4  1  0.99629000  0.46731000  0.19587000  1.0 -0.0375996654
I  I5  1  0.69974000  0.95586000  0.79499000  1.0 0.0114567639
I  I6  1  0.95586000  0.69974000  0.70501000  1.0 0.0114567639
I  I7  1  0.30026000  0.04414000  0.20501000  1.0 0.0114567639
I  I8  1  0.04414000  0.30026000  0.29499000  1.0 0.0114567639
I  I9  1  0.34305000  0.13755000  0.60838000  1.0 0.0205897276
I  I10  1  0.13755000  0.34305000  0.89162000  1.0 0.0205897276
I  I11  1  0.65695000  0.86245000  0.39162000  1.0 0.0205897276
I  I12  1  0.86245000  0.65695000  0.10838000  1.0 0.0205897276
I  I13  1  0.24551000  0.95729000  0.49960000  1.0 -0.2623032155
I  I14  1  0.95729000  0.24551000  0.00040000  1.0 -0.2623032155
I  I15  1  0.75449000  0.04271000  0.50040000  1.0 -0.2623032155
I  I16  1  0.04271000  0.75449000  0.99960000  1.0 -0.2623032155
I  I17  1  0.15853000  0.36639000  0.43204000  1.0 -0.0081785397
I  I18  1  0.36639000  0.15853000  0.06796000  1.0 -0.0081785397
I  I19  1  0.84147000  0.63361000  0.56796000  1.0 -0.0081785397
I  I20  1  0.63361000  0.84147000  0.93204000  1.0 -0.0081785397
I  I21  1  0.34683000  0.37437000  0.36560000  1.0 0.0205897276
I  I22  1  0.37437000  0.34683000  0.13440000  1.0 0.0205897276
I  I23  1  0.65317000  0.62563000  0.63440000  1.0 0.0205897276
I  I24  1  0.62563000  0.65317000  0.86560000  1.0 0.0205897276
I  I25  1  0.53220000  0.01500000  0.68360000  1.0 -0.0081785397
I  I26  1  0.01500000  0.53220000  0.81640000  1.0 -0.0024208995
I  I27  1  0.46780000  0.98500000  0.31640000  1.0 -0.0024208995
I  I28  1  0.98500000  0.46780000  0.18360000  1.0 -0.0081785397
I  I29  1  0.68160000  0.95680000  0.78620000  1.0 -0.0295395496
I  I30  1  0.95680000  0.68160000  0.71380000  1.0 -0.0295395496
I  I31  1  0.31840000  0.04320000  0.21380000  1.0 -0.0295395496
I  I32  1  0.04320000  0.31840000  0.28620000  1.0 -0.0295395496
I  I33  1  0.34640000  0.12480000  0.60230000  1.0 -0.0024208995
I  I34  1  0.12480000  0.34640000  0.89770000  1.0 -0.0024208995
I  I35  1  0.65360000  0.87520000  0.39770000  1.0 -0.0024208995
I  I36  1  0.87520000  0.65360000  0.10230000  1.0 -0.0024208995
I  I37  1  0.23160000  0.93760000  0.49650000  1.0 -0.2623032155
I  I38  1  0.93760000  0.23160000  0.00350000  1.0 -0.2623032155
I  I39  1  0.76840000  0.06240000  0.50350000  1.0 -0.2623032155
I  I40  1  0.06240000  0.76840000  0.99650000  1.0 -0.2623032155
I  I41  1  0.14400000  0.39080000  0.43960000  1.0 0.0309317027
I  I42  1  0.39080000  0.14400000  0.06040000  1.0 0.0309317027
I  I43  1  0.85600000  0.60920000  0.56040000  1.0 0.0309317027
I  I44  1  0.60920000  0.85600000  0.93960000  1.0 0.0309317027
I  I45  1  0.31380000  0.37140000  0.37510000  1.0 -0.0701158514
I  I46  1  0.37140000  0.31380000  0.12490000  1.0 -0.0701158514
I  I47  1  0.68620000  0.62860000  0.62490000  1.0 -0.0701158514
I  I48  1  0.62860000  0.68620000  0.87510000  1.0 -0.0701158514
Br  Br1  1  0.08290000  0.68490000  0.51580000  1.0 -0.0081785397
Br  Br2  1  0.68490000  0.08290000  0.98420000  1.0 -0.0081785397
Br  Br3  1  0.91710000  0.31510000  0.48420000  1.0 -0.0081785397
Br  Br4  1  0.31510000  0.91710000  0.01580000  1.0 -0.0024208995
N  N1  1  0.69620000  0.97940000  0.67150000  1.0 -0.2154356587
N  N2  1  0.97940000  0.69620000  0.82850000  1.0 -0.2154356587
N  N3  1  0.30380000  0.02060000  0.32850000  1.0 -0.2154356587
N  N4  1  0.02060000  0.30380000  0.17150000  1.0 -0.2154356587
N  N5  1  0.08740000  0.93320000  0.56460000  1.0 -0.1961585107
N  N6  1  0.93320000  0.08740000  0.93540000  1.0 -0.1961585107
N  N7  1  0.91260000  0.06680000  0.43540000  1.0 -0.1961585107
N  N8  1  0.06680000  0.91260000  0.06460000  1.0 -0.1961585107
N  N9  1  0.42680000  0.55140000  0.44410000  1.0 -0.1786062574
N  N10  1  0.55140000  0.42680000  0.05590000  1.0 -0.1786062574
N  N11  1  0.57320000  0.44860000  0.55590000  1.0 -0.1786062574
N  N12  1  0.44860000  0.57320000  0.94410000  1.0 -0.1786062574
N  N13  1  0.81185000  0.89055000  0.58690000  1.0 -0.4108643654
N  N14  1  0.89055000  0.81185000  0.91310000  1.0 -0.4108643654
N  N15  1  0.18815000  0.10945000  0.41310000  1.0 -0.4108643654
N  N16  1  0.10945000  0.18815000  0.08690000  1.0 -0.4108643654
N  N17  1  0.75006000  0.79594000  0.52699000  1.0 -0.4285415402
N  N18  1  0.79594000  0.75006000  0.97301000  1.0 -0.4285415402
N  N19  1  0.24994000  0.20406000  0.47301000  1.0 -0.4285415402
N  N20  1  0.20406000  0.24994000  0.02699000  1.0 -0.4285415402
N  N21  1  0.64940000  0.79840000  0.55630000  1.0 -0.4285415402
N  N22  1  0.79840000  0.64940000  0.94370000  1.0 -0.4285415402
N  N23  1  0.35060000  0.20160000  0.44370000  1.0 -0.4285415402
N  N24  1  0.20160000  0.35060000  0.05630000  1.0 -0.4285415402
N  N25  1  0.19310000  0.86650000  0.61600000  1.0 -0.1786062574
N  N26  1  0.86650000  0.19310000  0.88400000  1.0 -0.1786062574
N  N27  1  0.80690000  0.13350000  0.38400000  1.0 -0.1786062574
N  N28  1  0.13350000  0.80690000  0.11600000  1.0 -0.1786062574
N  N29  1  0.43640000  0.66380000  0.85200000  1.0 -0.1786062574
N  N30  1  0.66380000  0.43640000  0.64800000  1.0 -0.1786062574
N  N31  1  0.56360000  0.33620000  0.14800000  1.0 -0.1786062574
N  N32  1  0.33620000  0.56360000  0.35200000  1.0 -0.1786062574
N  N33  1  0.80510000  0.17850000  0.71600000  1.0 -0.2091303068
N  N34  1  0.17850000  0.80510000  0.78400000  1.0 -0.2091303068
N  N35  1  0.19490000  0.82150000  0.28400000  1.0 -0.2091303068
N  N36  1  0.82150000  0.19490000  0.21600000  1.0 -0.2091303068
N  N37  1  0.22322000  0.66878000  0.73120000  1.0 -0.4285415402
N  N38  1  0.66878000  0.22322000  0.76880000  1.0 -0.4285415402
N  N39  1  0.77678000  0.33122000  0.26880000  1.0 -0.4285415402
N  N40  1  0.33122000  0.77678000  0.23120000  1.0 -0.4285415402
N  N41  1  0.13489000  0.50211000  0.75000000  1.0 -0.4285415402
N  N42  1  0.50211000  0.13489000  0.75000000  1.0 -0.4285415402
N  N43  1  0.86511000  0.49789000  0.25000000  1.0 -0.4285415402
N  N44  1  0.49789000  0.86511000  0.25000000  1.0 -0.4285415402
N  N45  1  0.06753000  0.54787000  0.69440000  1.0 -0.4404474917
N  N46  1  0.54787000  0.06753000  0.80560000  1.0 -0.4404474917
N  N47  1  0.93247000  0.45213000  0.30560000  1.0 -0.4404474917
N  N48  1  0.45213000  0.93247000  0.19440000  1.0 -0.4404474917
