# DDEC6 charges by PACMAN v1.1 (https://github.com/mtap-research/PACMAN-charge/)
data_LACGIH_FSR_pacman
_symmetry_space_group_name_H-M   'P 1'
_cell_length_a   9.81080000
_cell_length_b   10.49710000
_cell_length_c   12.35680000
_cell_angle_alpha   111.66400000
_cell_angle_beta   87.52900000
_cell_angle_gamma   111.73900000
_symmetry_Int_Tables_number   1
_chemical_formula_structural   SrH7Pb(C8O5)2
_chemical_formula_sum   'Sr2 H14 Pb2 C32 O20'
_cell_volume   1092.08655818
_cell_formula_units_Z   2
loop_
 _symmetry_equiv_pos_site_id
 _symmetry_equiv_pos_as_xyz
  1  'x, y, z'
loop_
 _atom_site_type_symbol
 _atom_site_label
 _atom_site_symmetry_multiplicity
 _atom_site_fract_x
 _atom_site_fract_y
 _atom_site_fract_z
 _atom_site_occupancy
 _atom_site_charge
Sr  Sr1  1  0.04515000  0.81461000  0.50117000  1.0 1.4790316992
Sr  Sr2  1  0.95485000  0.18539000  0.49883000  1.0 1.4790316992
H  H1  1  0.66350000  0.60250000  0.76040000  1.0 0.3594120019
H  H2  1  0.33650000  0.39750000  0.23960000  1.0 0.3594120019
H  H3  1  0.88520000  0.54310000  0.96490000  1.0 0.1494445764
H  H4  1  0.11480000  0.45690000  0.03510000  1.0 0.1494445764
H  H5  1  0.84110000  0.90230000  0.95240000  1.0 0.1494445764
H  H6  1  0.15890000  0.09770000  0.04760000  1.0 0.1494445764
H  H7  1  0.88440000  0.87190000  0.26330000  1.0 0.1240979605
H  H8  1  0.11560000  0.12810000  0.73670000  1.0 0.1240979605
H  H9  1  0.33050000  0.48700000  0.62690000  1.0 0.1494445764
H  H10  1  0.66950000  0.51300000  0.37310000  1.0 0.1494445764
H  H11  1  0.75090000  0.78370000  0.67980000  1.0 0.1494445764
H  H12  1  0.24910000  0.21630000  0.32020000  1.0 0.1494445764
H  H13  1  0.44430000  0.78780000  0.47790000  1.0 0.1494445764
H  H14  1  0.55570000  0.21220000  0.52210000  1.0 0.1494445764
Pb  Pb1  1  0.95119000  0.38588000  0.27824000  1.0 1.0399950915
Pb  Pb2  1  0.04881000  0.61412000  0.72176000  1.0 1.0399950915
C  C1  1  0.89920000  0.60430000  0.19030000  1.0 0.5985075805
C  C2  1  0.10080000  0.39570000  0.80970000  1.0 0.5985075805
C  C3  1  0.85680000  0.05970000  0.17800000  1.0 0.588824945
C  C4  1  0.14320000  0.94030000  0.82200000  1.0 0.588824945
C  C5  1  0.21410000  0.55400000  0.47530000  1.0 0.5985075805
C  C6  1  0.78590000  0.44600000  0.52470000  1.0 0.5985075805
C  C7  1  0.73130000  0.92390000  0.54560000  1.0 0.5985075805
C  C8  1  0.26870000  0.07610000  0.45440000  1.0 0.5985075805
C  C9  1  0.88210000  0.69060000  0.12360000  1.0 -0.0087847799
C  C10  1  0.11790000  0.30940000  0.87640000  1.0 -0.0087847799
C  C11  1  0.87760000  0.63460000  0.00260000  1.0 -0.1831688113
C  C12  1  0.12240000  0.36540000  0.99740000  1.0 -0.1831688113
C  C13  1  0.86210000  0.71150000  0.93550000  1.0 0.3093625479
C  C14  1  0.13790000  0.28850000  0.06450000  1.0 0.3093625479
C  C15  1  0.85300000  0.84910000  0.99450000  1.0 -0.1905263192
C  C16  1  0.14700000  0.15090000  0.00550000  1.0 -0.1905263192
C  C17  1  0.86170000  0.90760000  0.11600000  1.0 0.0095709501
C  C18  1  0.13830000  0.09240000  0.88400000  1.0 0.0095709501
C  C19  1  0.87730000  0.83090000  0.18190000  1.0 -0.1227093316
C  C20  1  0.12270000  0.16910000  0.81810000  1.0 -0.1227093316
C  C21  1  0.36440000  0.62660000  0.54210000  1.0 -0.019645331
C  C22  1  0.63560000  0.37340000  0.45790000  1.0 -0.019645331
C  C23  1  0.40130000  0.56770000  0.61540000  1.0 -0.2180133588
C  C24  1  0.59870000  0.43230000  0.38460000  1.0 -0.2180133588
C  C25  1  0.54400000  0.62930000  0.67150000  1.0 0.317664104
C  C26  1  0.45600000  0.37070000  0.32850000  1.0 0.317664104
C  C27  1  0.65370000  0.74580000  0.64700000  1.0 -0.2142826743
C  C28  1  0.34630000  0.25420000  0.35300000  1.0 -0.2142826743
C  C29  1  0.61480000  0.80200000  0.57410000  1.0 0.0095709501
C  C30  1  0.38520000  0.19800000  0.42590000  1.0 0.0095709501
C  C31  1  0.47010000  0.74560000  0.52380000  1.0 -0.1143510543
C  C32  1  0.52990000  0.25440000  0.47620000  1.0 -0.1143510543
O  O1  1  0.88230000  0.47000000  0.13320000  1.0 -0.5282864399
O  O2  1  0.11770000  0.53000000  0.86680000  1.0 -0.5282864399
O  O3  1  0.93590000  0.66630000  0.29930000  1.0 -0.6481040544
O  O4  1  0.06410000  0.33370000  0.70070000  1.0 -0.6481040544
O  O5  1  0.89270000  0.12040000  0.28820000  1.0 -0.6481040544
O  O6  1  0.10730000  0.87960000  0.71180000  1.0 -0.6481040544
O  O7  1  0.82340000  0.12220000  0.12140000  1.0 -0.5091812588
O  O8  1  0.17660000  0.87780000  0.87860000  1.0 -0.5091812588
O  O9  1  0.13170000  0.42410000  0.46760000  1.0 -0.632417602
O  O10  1  0.86830000  0.57590000  0.53240000  1.0 -0.632417602
O  O11  1  0.17250000  0.62440000  0.42960000  1.0 -0.5878772564
O  O12  1  0.82750000  0.37560000  0.57040000  1.0 -0.5878772564
O  O13  1  0.69420000  0.00850000  0.51510000  1.0 -0.5663519628
O  O14  1  0.30580000  0.99150000  0.48490000  1.0 -0.5663519628
O  O15  1  0.86530000  0.93970000  0.55480000  1.0 -0.6707318849
O  O16  1  0.13470000  0.06030000  0.44520000  1.0 -0.6707318849
O  O17  1  0.85470000  0.65190000  0.81710000  1.0 -0.5091812588
O  O18  1  0.14530000  0.34810000  0.18290000  1.0 -0.5091812588
O  O19  1  0.57410000  0.56960000  0.74320000  1.0 -0.4085584409
O  O20  1  0.42590000  0.43040000  0.25680000  1.0 -0.4085584409
