# DDEC6 charges by PACMAN v1.1 (https://github.com/mtap-research/PACMAN-charge/)
data_LACNUB_ASR_pacman
_symmetry_space_group_name_H-M   'P 1'
_cell_length_a   18.50270000
_cell_length_b   18.50270000
_cell_length_c   38.28510000
_cell_angle_alpha   73.74260000
_cell_angle_beta   106.25700000
_cell_angle_gamma   120.19100000
_symmetry_Int_Tables_number   1
_chemical_formula_structural   CuH13C27O4
_chemical_formula_sum   'Cu12 H156 C324 O48'
_cell_volume   10721.95542824
_cell_formula_units_Z   12
loop_
 _symmetry_equiv_pos_site_id
 _symmetry_equiv_pos_as_xyz
  1  'x, y, z'
loop_
 _atom_site_type_symbol
 _atom_site_label
 _atom_site_symmetry_multiplicity
 _atom_site_fract_x
 _atom_site_fract_y
 _atom_site_fract_z
 _atom_site_occupancy
 _atom_site_charge
Cu  Cu1  1  0.18090000  0.67294000  0.22179000  1.0 0.8598610107
Cu  Cu2  1  0.67294000  0.18090000  0.27821000  1.0 0.8598610107
Cu  Cu3  1  0.81910000  0.32706000  0.77821000  1.0 0.8598610107
Cu  Cu4  1  0.32706000  0.81910000  0.72179000  1.0 0.8598610107
Cu  Cu5  1  0.25363000  0.74813000  0.28091000  1.0 0.8348964174
Cu  Cu6  1  0.74813000  0.25363000  0.21909000  1.0 0.8348964174
Cu  Cu7  1  0.74637000  0.25187000  0.71909000  1.0 0.8355138023
Cu  Cu8  1  0.25187000  0.74637000  0.78091000  1.0 0.8348964174
Cu  Cu9  1  0.24984000  0.17798000  0.27988000  1.0 0.8598610107
Cu  Cu10  1  0.17798000  0.24984000  0.22012000  1.0 0.8598610107
Cu  Cu11  1  0.75016000  0.82202000  0.72012000  1.0 0.8598610107
Cu  Cu12  1  0.82202000  0.75016000  0.77988000  1.0 0.8598610107
H  H1  1  0.25680000  0.47800000  0.25810000  1.0 0.1417274991
H  H2  1  0.47800000  0.25680000  0.24190000  1.0 0.1417274991
H  H3  1  0.74320000  0.52200000  0.74190000  1.0 0.1417274991
H  H4  1  0.52200000  0.74320000  0.75810000  1.0 0.1417274991
H  H5  1  0.94600000  0.48160000  0.25690000  1.0 0.1417274991
H  H6  1  0.48160000  0.94600000  0.24310000  1.0 0.1417274991
H  H7  1  0.05400000  0.51840000  0.74310000  1.0 0.1417274991
H  H8  1  0.51840000  0.05400000  0.75690000  1.0 0.1417274991
H  H9  1  0.05220000  0.07080000  0.34400000  1.0 0.1297588606
H  H10  1  0.07080000  0.05220000  0.15600000  1.0 0.1297588606
H  H11  1  0.94780000  0.92920000  0.65600000  1.0 0.1297588606
H  H12  1  0.92920000  0.94780000  0.84400000  1.0 0.1297588606
H  H13  1  0.83840000  0.37200000  0.34860000  1.0 0.1297588606
H  H14  1  0.37200000  0.83840000  0.15140000  1.0 0.1297588606
H  H15  1  0.16160000  0.62800000  0.65140000  1.0 0.1297588606
H  H16  1  0.62800000  0.16160000  0.84860000  1.0 0.1297588606
H  H17  1  0.06020000  0.58480000  0.34780000  1.0 0.1297588606
H  H18  1  0.58480000  0.06020000  0.15220000  1.0 0.1297588606
H  H19  1  0.93980000  0.41520000  0.65220000  1.0 0.1297588606
H  H20  1  0.41520000  0.93980000  0.84780000  1.0 0.1297588606
H  H21  1  0.36750000  0.37250000  0.34830000  1.0 0.1297588606
H  H22  1  0.37250000  0.36750000  0.15170000  1.0 0.1297588606
H  H23  1  0.63250000  0.62750000  0.65170000  1.0 0.1297588606
H  H24  1  0.62750000  0.63250000  0.84830000  1.0 0.1297588606
H  H25  1  0.93970000  0.17170000  0.25200000  1.0 0.1417274991
H  H26  1  0.17170000  0.93970000  0.24800000  1.0 0.1417274991
H  H27  1  0.06030000  0.82830000  0.74800000  1.0 0.1417274991
H  H28  1  0.82830000  0.06030000  0.75200000  1.0 0.1417274991
H  H29  1  0.36450000  0.58890000  0.34840000  1.0 0.1297588606
H  H30  1  0.58890000  0.36450000  0.15160000  1.0 0.1297588606
H  H31  1  0.63550000  0.41110000  0.65160000  1.0 0.1297588606
H  H32  1  0.41110000  0.63550000  0.84840000  1.0 0.1297588606
H  H33  1  0.83860000  0.07560000  0.34440000  1.0 0.1297588606
H  H34  1  0.07560000  0.83860000  0.15560000  1.0 0.1297588606
H  H35  1  0.16140000  0.92440000  0.65560000  1.0 0.1297588606
H  H36  1  0.92440000  0.16140000  0.84440000  1.0 0.1297588606
H  H37  1  0.80780000  0.25200000  0.58480000  1.0 0.1297588606
H  H38  1  0.25200000  0.80780000  0.91520000  1.0 0.1297588606
H  H39  1  0.19220000  0.74800000  0.41520000  1.0 0.1297588606
H  H40  1  0.74800000  0.19220000  0.08480000  1.0 0.1297588606
H  H41  1  0.76610000  0.47850000  0.55330000  1.0 0.1209284613
H  H42  1  0.47850000  0.76610000  0.94670000  1.0 0.1209284613
H  H43  1  0.23390000  0.52150000  0.44670000  1.0 0.1209284613
H  H44  1  0.52150000  0.23390000  0.05330000  1.0 0.1209284613
H  H45  1  0.52520000  0.65160000  0.42100000  1.0 0.1111594463
H  H46  1  0.65160000  0.52520000  0.07900000  1.0 0.1111594463
H  H47  1  0.47480000  0.34840000  0.57900000  1.0 0.1111594463
H  H48  1  0.34840000  0.47480000  0.92100000  1.0 0.1111594463
H  H49  1  0.48330000  0.73710000  0.52960000  1.0 0.1209284613
H  H50  1  0.73710000  0.48330000  0.97040000  1.0 0.1209284613
H  H51  1  0.51670000  0.26290000  0.47040000  1.0 0.1209284613
H  H52  1  0.26290000  0.51670000  0.02960000  1.0 0.1209284613
H  H53  1  0.22260000  0.04320000  0.43080000  1.0 0.1297588606
H  H54  1  0.04320000  0.22260000  0.06920000  1.0 0.1297588606
H  H55  1  0.77740000  0.95680000  0.56920000  1.0 0.1297588606
H  H56  1  0.95680000  0.77740000  0.93080000  1.0 0.1297588606
H  H57  1  0.05420000  0.75400000  0.57210000  1.0 0.1297588606
H  H58  1  0.75400000  0.05420000  0.92790000  1.0 0.1297588606
H  H59  1  0.94580000  0.24600000  0.42790000  1.0 0.1297588606
H  H60  1  0.24600000  0.94580000  0.07210000  1.0 0.1297588606
H  H61  1  0.06430000  0.94290000  0.43880000  1.0 0.1209284613
H  H62  1  0.94290000  0.06430000  0.06120000  1.0 0.1209284613
H  H63  1  0.93570000  0.05710000  0.56120000  1.0 0.1209284613
H  H64  1  0.05710000  0.93570000  0.93880000  1.0 0.1209284613
H  H65  1  0.81130000  0.39090000  0.44440000  1.0 0.1111594463
H  H66  1  0.39090000  0.81130000  0.05560000  1.0 0.1111594463
H  H67  1  0.18870000  0.60910000  0.55560000  1.0 0.1111594463
H  H68  1  0.60910000  0.18870000  0.94440000  1.0 0.1111594463
H  H69  1  0.58980000  0.67300000  0.54260000  1.0 0.1111594463
H  H70  1  0.67300000  0.58980000  0.95740000  1.0 0.1111594463
H  H71  1  0.41020000  0.32700000  0.45740000  1.0 0.1111594463
H  H72  1  0.32700000  0.41020000  0.04260000  1.0 0.1111594463
H  H73  1  0.75110000  0.77650000  0.53780000  1.0 0.1297588606
H  H74  1  0.77650000  0.75110000  0.96220000  1.0 0.1297588606
H  H75  1  0.24890000  0.22350000  0.46220000  1.0 0.1297588606
H  H76  1  0.22350000  0.24890000  0.03780000  1.0 0.1297588606
H  H77  1  0.76110000  0.22910000  0.46190000  1.0 0.1209284613
H  H78  1  0.22910000  0.76110000  0.03810000  1.0 0.1209284613
H  H79  1  0.23890000  0.77090000  0.53810000  1.0 0.1209284613
H  H80  1  0.77090000  0.23890000  0.96190000  1.0 0.1209284613
H  H81  1  0.68880000  0.74660000  0.41430000  1.0 0.1297588606
H  H82  1  0.74660000  0.68880000  0.08570000  1.0 0.1297588606
H  H83  1  0.31120000  0.25340000  0.58570000  1.0 0.1297588606
H  H84  1  0.25340000  0.31120000  0.91430000  1.0 0.1297588606
H  H85  1  0.70410000  0.45490000  0.43000000  1.0 0.1209284613
H  H86  1  0.45490000  0.70410000  0.07000000  1.0 0.1209284613
H  H87  1  0.29590000  0.54510000  0.57000000  1.0 0.1209284613
H  H88  1  0.54510000  0.29590000  0.93000000  1.0 0.1209284613
H  H89  1  0.43580000  0.72360000  0.40740000  1.0 0.1297588606
H  H90  1  0.72360000  0.43580000  0.09260000  1.0 0.1297588606
H  H91  1  0.56420000  0.27640000  0.59260000  1.0 0.1297588606
H  H92  1  0.27640000  0.56420000  0.90740000  1.0 0.1297588606
H  H93  1  0.86640000  0.41340000  0.56470000  1.0 0.1209284613
H  H94  1  0.41340000  0.86640000  0.93530000  1.0 0.1209284613
H  H95  1  0.13360000  0.58660000  0.43530000  1.0 0.1209284613
H  H96  1  0.58660000  0.13360000  0.06470000  1.0 0.1209284613
H  H97  1  0.28600000  0.01480000  0.55950000  1.0 0.1297588606
H  H98  1  0.01480000  0.28600000  0.94050000  1.0 0.1297588606
H  H99  1  0.71400000  0.98520000  0.44050000  1.0 0.1297588606
H  H100  1  0.98520000  0.71400000  0.05950000  1.0 0.1297588606
H  H101  1  0.85600000  0.83800000  0.50140000  1.0 0.1111594463
H  H102  1  0.83800000  0.85600000  0.99860000  1.0 0.1111594463
H  H103  1  0.14400000  0.16200000  0.49860000  1.0 0.1111594463
H  H104  1  0.16200000  0.14400000  0.00140000  1.0 0.1111594463
H  H105  1  0.12560000  0.91980000  0.56460000  1.0 0.1111594463
H  H106  1  0.91980000  0.12560000  0.93540000  1.0 0.1111594463
H  H107  1  0.87440000  0.08020000  0.43540000  1.0 0.1111594463
H  H108  1  0.08020000  0.87440000  0.06460000  1.0 0.1111594463
H  H109  1  0.75450000  0.12050000  0.56740000  1.0 0.1111594463
H  H110  1  0.12050000  0.75450000  0.93260000  1.0 0.1111594463
H  H111  1  0.24550000  0.87950000  0.43260000  1.0 0.1111594463
H  H112  1  0.87950000  0.24550000  0.06740000  1.0 0.1111594463
H  H113  1  0.72940000  0.10860000  0.50490000  1.0 0.1111594463
H  H114  1  0.10860000  0.72940000  0.99510000  1.0 0.1111594463
H  H115  1  0.27060000  0.89140000  0.49510000  1.0 0.1111594463
H  H116  1  0.89140000  0.27060000  0.00490000  1.0 0.1111594463
H  H117  1  0.35950000  0.11030000  0.46190000  1.0 0.1111594463
H  H118  1  0.11030000  0.35950000  0.03810000  1.0 0.1111594463
H  H119  1  0.64050000  0.88970000  0.53810000  1.0 0.1111594463
H  H120  1  0.88970000  0.64050000  0.96190000  1.0 0.1111594463
H  H121  1  0.64610000  0.51770000  0.45070000  1.0 0.1111594463
H  H122  1  0.51770000  0.64610000  0.04930000  1.0 0.1111594463
H  H123  1  0.35390000  0.48230000  0.54930000  1.0 0.1111594463
H  H124  1  0.48230000  0.35390000  0.95070000  1.0 0.1111594463
H  H125  1  0.36630000  0.77290000  0.42550000  1.0 0.1209284613
H  H126  1  0.77290000  0.36630000  0.07450000  1.0 0.1209284613
H  H127  1  0.63370000  0.22710000  0.57450000  1.0 0.1209284613
H  H128  1  0.22710000  0.63370000  0.92550000  1.0 0.1209284613
H  H129  1  0.38680000  0.78140000  0.48750000  1.0 0.1111594463
H  H130  1  0.78140000  0.38680000  0.01250000  1.0 0.1111594463
H  H131  1  0.61320000  0.21860000  0.51250000  1.0 0.1111594463
H  H132  1  0.21860000  0.61320000  0.98750000  1.0 0.1111594463
H  H133  1  0.99690000  0.78050000  0.44450000  1.0 0.1297588606
H  H134  1  0.78050000  0.99690000  0.05550000  1.0 0.1297588606
H  H135  1  0.00310000  0.21950000  0.55550000  1.0 0.1297588606
H  H136  1  0.21950000  0.00310000  0.94450000  1.0 0.1297588606
H  H137  1  0.95400000  0.65080000  0.48140000  1.0 0.1111594463
H  H138  1  0.65080000  0.95400000  0.01860000  1.0 0.1111594463
H  H139  1  0.04600000  0.34920000  0.51860000  1.0 0.1111594463
H  H140  1  0.34920000  0.04600000  0.98140000  1.0 0.1111594463
H  H141  1  0.98440000  0.63520000  0.54590000  1.0 0.1111594463
H  H142  1  0.63520000  0.98440000  0.95410000  1.0 0.1111594463
H  H143  1  0.01560000  0.36480000  0.45410000  1.0 0.1111594463
H  H144  1  0.36480000  0.01560000  0.04590000  1.0 0.1111594463
H  H145  1  0.82250000  0.81870000  0.44050000  1.0 0.1209284613
H  H146  1  0.81870000  0.82250000  0.05950000  1.0 0.1209284613
H  H147  1  0.17750000  0.18130000  0.55950000  1.0 0.1209284613
H  H148  1  0.18130000  0.17750000  0.94050000  1.0 0.1209284613
H  H149  1  0.68420000  0.53720000  0.51170000  1.0 0.1111594463
H  H150  1  0.53720000  0.68420000  0.98830000  1.0 0.1111594463
H  H151  1  0.31580000  0.46280000  0.48830000  1.0 0.1111594463
H  H152  1  0.46280000  0.31580000  0.01170000  1.0 0.1111594463
H  H153  1  0.39340000  0.09800000  0.52810000  1.0 0.1111594463
H  H154  1  0.09800000  0.39340000  0.97190000  1.0 0.1111594463
H  H155  1  0.60660000  0.90200000  0.47190000  1.0 0.1111594463
H  H156  1  0.90200000  0.60660000  0.02810000  1.0 0.1111594463
C  C1  1  0.27147000  0.33933000  0.28137000  1.0 0.5794390578
C  C2  1  0.33933000  0.27147000  0.21863000  1.0 0.5794390578
C  C3  1  0.72853000  0.66067000  0.71863000  1.0 0.5794390578
C  C4  1  0.66067000  0.72853000  0.78137000  1.0 0.5794390578
C  C5  1  0.81714000  0.16446000  0.27753000  1.0 0.5794390578
C  C6  1  0.16446000  0.81714000  0.22247000  1.0 0.5794390578
C  C7  1  0.18286000  0.83554000  0.72247000  1.0 0.5794390578
C  C8  1  0.83554000  0.18286000  0.77753000  1.0 0.5794390578
C  C9  1  0.97959000  0.00641000  0.46139000  1.0 0.0326273742
C  C10  1  0.00641000  0.97959000  0.03861000  1.0 0.0326273742
C  C11  1  0.02041000  0.99359000  0.53861000  1.0 0.0326273742
C  C12  1  0.99359000  0.02041000  0.96139000  1.0 0.0326273742
C  C13  1  0.44738000  0.48442000  0.42408000  1.0 -0.1092407177
C  C14  1  0.48442000  0.44738000  0.07592000  1.0 -0.1092407177
C  C15  1  0.55262000  0.51558000  0.57592000  1.0 -0.1092407177
C  C16  1  0.51558000  0.55262000  0.92408000  1.0 -0.1092407177
C  C17  1  0.81366000  0.34534000  0.28019000  1.0 0.5794390578
C  C18  1  0.34534000  0.81366000  0.21981000  1.0 0.5794390578
C  C19  1  0.18634000  0.65466000  0.71981000  1.0 0.5794390578
C  C20  1  0.65466000  0.18634000  0.78019000  1.0 0.5794390578
C  C21  1  0.88142000  0.41598000  0.29922000  1.0 -0.025088312
C  C22  1  0.41598000  0.88142000  0.20078000  1.0 -0.025088312
C  C23  1  0.11858000  0.58402000  0.70078000  1.0 -0.025088312
C  C24  1  0.58402000  0.11858000  0.79922000  1.0 -0.0181375089
C  C25  1  0.30768000  0.54412000  0.29978000  1.0 -0.013058349
C  C26  1  0.54412000  0.30768000  0.20022000  1.0 -0.013058349
C  C27  1  0.69232000  0.45588000  0.70022000  1.0 -0.013058349
C  C28  1  0.45588000  0.69232000  0.79978000  1.0 -0.013058349
C  C29  1  0.09392000  0.60648000  0.28127000  1.0 0.5716225077
C  C30  1  0.60648000  0.09392000  0.21873000  1.0 0.5716225077
C  C31  1  0.90608000  0.39352000  0.71873000  1.0 0.5716225077
C  C32  1  0.39352000  0.90608000  0.78127000  1.0 0.5716225077
C  C33  1  0.97981000  0.49399000  0.46231000  1.0 0.0326273742
C  C34  1  0.49399000  0.97981000  0.03769000  1.0 0.0326273742
C  C35  1  0.02019000  0.50601000  0.53769000  1.0 0.0326273742
C  C36  1  0.50601000  0.02019000  0.96231000  1.0 0.0326273742
C  C37  1  0.47618000  0.49202000  0.46158000  1.0 0.0216336279
C  C38  1  0.49202000  0.47618000  0.03842000  1.0 0.0216336279
C  C39  1  0.52382000  0.50798000  0.53842000  1.0 0.0216336279
C  C40  1  0.50798000  0.52382000  0.96158000  1.0 0.0216336279
C  C41  1  0.28591000  0.47869000  0.28228000  1.0 -0.079420885
C  C42  1  0.47869000  0.28591000  0.21772000  1.0 -0.079420885
C  C43  1  0.71409000  0.52131000  0.71772000  1.0 -0.079420885
C  C44  1  0.52131000  0.71409000  0.78228000  1.0 -0.079420885
C  C45  1  0.94738000  0.48042000  0.28154000  1.0 -0.079420885
C  C46  1  0.48042000  0.94738000  0.21846000  1.0 -0.079420885
C  C47  1  0.05262000  0.51958000  0.71846000  1.0 -0.079420885
C  C48  1  0.51958000  0.05262000  0.78154000  1.0 -0.079420885
C  C49  1  0.30660000  0.41360000  0.30023000  1.0 -0.0181375089
C  C50  1  0.41360000  0.30660000  0.19977000  1.0 -0.0181375089
C  C51  1  0.69340000  0.58640000  0.69977000  1.0 -0.013058349
C  C52  1  0.58640000  0.69340000  0.80023000  1.0 -0.013058349
C  C53  1  0.00989000  0.08671000  0.33202000  1.0 -0.1314616258
C  C54  1  0.08671000  0.00989000  0.16798000  1.0 -0.1314616258
C  C55  1  0.99011000  0.91329000  0.66798000  1.0 -0.1314616258
C  C56  1  0.91329000  0.99011000  0.83202000  1.0 -0.1314616258
C  C57  1  0.08308000  0.15632000  0.27714000  1.0 0.5794390578
C  C58  1  0.15632000  0.08308000  0.22286000  1.0 0.5794390578
C  C59  1  0.91692000  0.84368000  0.72286000  1.0 0.5794390578
C  C60  1  0.84368000  0.91692000  0.77714000  1.0 0.5794390578
C  C61  1  0.41767000  0.48153000  0.39217000  1.0 -0.0906840429
C  C62  1  0.48153000  0.41767000  0.10783000  1.0 -0.0906840429
C  C63  1  0.58233000  0.51847000  0.60783000  1.0 -0.0906840429
C  C64  1  0.51847000  0.58233000  0.89217000  1.0 -0.0906840429
C  C65  1  0.91886000  0.45374000  0.48406000  1.0 0.0015598589
C  C66  1  0.45374000  0.91886000  0.01594000  1.0 0.0015598589
C  C67  1  0.08114000  0.54626000  0.51594000  1.0 0.0015598589
C  C68  1  0.54626000  0.08114000  0.98406000  1.0 0.0015598589
C  C69  1  0.27990000  0.61130000  0.28124000  1.0 0.5794390578
C  C70  1  0.61130000  0.27990000  0.21876000  1.0 0.5794390578
C  C71  1  0.72010000  0.38870000  0.71876000  1.0 0.5794390578
C  C72  1  0.38870000  0.72010000  0.78124000  1.0 0.5794390578
C  C73  1  0.88187000  0.41533000  0.33627000  1.0 -0.1498387671
C  C74  1  0.41533000  0.88187000  0.16373000  1.0 -0.1498387671
C  C75  1  0.11813000  0.58467000  0.66373000  1.0 -0.1498387671
C  C76  1  0.58467000  0.11813000  0.83627000  1.0 -0.1498387671
C  C77  1  0.01461000  0.54219000  0.33571000  1.0 -0.1498387671
C  C78  1  0.54219000  0.01461000  0.16429000  1.0 -0.1498387671
C  C79  1  0.98539000  0.45781000  0.66429000  1.0 -0.1498387671
C  C80  1  0.45781000  0.98539000  0.83571000  1.0 -0.1498387671
C  C81  1  0.35269000  0.41551000  0.33629000  1.0 -0.1412417012
C  C82  1  0.41551000  0.35269000  0.16371000  1.0 -0.1412417012
C  C83  1  0.64731000  0.58449000  0.66371000  1.0 -0.1412417012
C  C84  1  0.58449000  0.64731000  0.83629000  1.0 -0.1412417012
C  C85  1  0.01165000  0.12955000  0.29518000  1.0 -0.0499267894
C  C86  1  0.12955000  0.01165000  0.20482000  1.0 -0.0499267894
C  C87  1  0.98835000  0.87045000  0.70482000  1.0 -0.0499267894
C  C88  1  0.87045000  0.98835000  0.79518000  1.0 -0.0499267894
C  C89  1  0.63500000  0.71200000  0.46070000  1.0 0.0326273742
C  C90  1  0.71200000  0.63500000  0.03930000  1.0 0.0326273742
C  C91  1  0.36500000  0.28800000  0.53930000  1.0 0.0326273742
C  C92  1  0.28800000  0.36500000  0.96070000  1.0 0.0326273742
C  C93  1  0.94295000  0.14805000  0.27695000  1.0 -0.0722203086
C  C94  1  0.14805000  0.94295000  0.22305000  1.0 -0.0722203086
C  C95  1  0.05705000  0.85195000  0.72305000  1.0 -0.0722203086
C  C96  1  0.85195000  0.05705000  0.77695000  1.0 -0.0722203086
C  C97  1  0.96376000  0.48664000  0.42386000  1.0 -0.1092407177
C  C98  1  0.48664000  0.96376000  0.07614000  1.0 -0.1092407177
C  C99  1  0.03624000  0.51336000  0.57614000  1.0 -0.1092407177
C  C100  1  0.51336000  0.03624000  0.92386000  1.0 -0.1092407177
C  C101  1  0.35157000  0.54583000  0.33617000  1.0 -0.1498387671
C  C102  1  0.54583000  0.35157000  0.16383000  1.0 -0.1498387671
C  C103  1  0.64843000  0.45417000  0.66383000  1.0 -0.1498387671
C  C104  1  0.45417000  0.64843000  0.83617000  1.0 -0.1498387671
C  C105  1  0.88109000  0.13131000  0.29569000  1.0 -0.013058349
C  C106  1  0.13131000  0.88109000  0.20431000  1.0 -0.013058349
C  C107  1  0.11891000  0.86869000  0.70431000  1.0 -0.013058349
C  C108  1  0.86869000  0.11891000  0.79569000  1.0 -0.013058349
C  C109  1  0.03290000  0.97110000  0.48130000  1.0 -0.0021784612
C  C110  1  0.97110000  0.03290000  0.01870000  1.0 -0.0021784612
C  C111  1  0.96710000  0.02890000  0.51870000  1.0 -0.0021784612
C  C112  1  0.02890000  0.96710000  0.98130000  1.0 -0.0021784612
C  C113  1  0.01330000  0.54130000  0.29930000  1.0 0.0015598589
C  C114  1  0.54130000  0.01330000  0.20070000  1.0 0.0015598589
C  C115  1  0.98670000  0.45870000  0.70070000  1.0 0.0015598589
C  C116  1  0.45870000  0.98670000  0.79930000  1.0 0.0015598589
C  C117  1  0.94867000  0.48073000  0.35407000  1.0 0.1297588606
C  C118  1  0.48073000  0.94867000  0.14593000  1.0 0.1297588606
C  C119  1  0.05133000  0.51927000  0.64593000  1.0 0.1297588606
C  C120  1  0.51927000  0.05133000  0.85407000  1.0 0.1297588606
C  C121  1  0.96193000  0.01787000  0.42143000  1.0 -0.1092407177
C  C122  1  0.01787000  0.96193000  0.07857000  1.0 -0.1092407177
C  C123  1  0.03807000  0.98213000  0.57857000  1.0 -0.1092407177
C  C124  1  0.98213000  0.03807000  0.92143000  1.0 -0.1092407177
C  C125  1  0.51725000  0.57155000  0.47395000  1.0 -0.0021784612
C  C126  1  0.57155000  0.51725000  0.02605000  1.0 -0.0021784612
C  C127  1  0.48275000  0.42845000  0.52605000  1.0 -0.0021784612
C  C128  1  0.42845000  0.48275000  0.97395000  1.0 -0.0021784612
C  C129  1  0.80220000  0.30920000  0.49700000  1.0 0.0391513238
C  C130  1  0.30920000  0.80220000  0.00300000  1.0 0.0391513238
C  C131  1  0.19780000  0.69080000  0.50300000  1.0 0.0391513238
C  C132  1  0.69080000  0.19780000  0.99700000  1.0 0.0391513238
C  C133  1  0.88210000  0.08930000  0.33230000  1.0 -0.1412417012
C  C134  1  0.08930000  0.88210000  0.16770000  1.0 -0.1412417012
C  C135  1  0.11790000  0.91070000  0.66770000  1.0 -0.1412417012
C  C136  1  0.91070000  0.11790000  0.83230000  1.0 -0.1412417012
C  C137  1  0.95305000  0.48215000  0.39215000  1.0 -0.1019495682
C  C138  1  0.48215000  0.95305000  0.10785000  1.0 -0.1019495682
C  C139  1  0.04695000  0.51785000  0.60785000  1.0 -0.1019495682
C  C140  1  0.51785000  0.04695000  0.89215000  1.0 -0.1019495682
C  C141  1  0.81830000  0.31610000  0.53340000  1.0 0.0326273742
C  C142  1  0.31610000  0.81830000  0.96660000  1.0 0.0326273742
C  C143  1  0.18170000  0.68390000  0.46660000  1.0 0.0391513238
C  C144  1  0.68390000  0.18170000  0.03340000  1.0 0.0391513238
C  C145  1  0.79940000  0.24760000  0.56020000  1.0 -0.1566209923
C  C146  1  0.24760000  0.79940000  0.93980000  1.0 -0.1566209923
C  C147  1  0.20060000  0.75240000  0.43980000  1.0 -0.1566209923
C  C148  1  0.75240000  0.20060000  0.06020000  1.0 -0.1566209923
C  C149  1  0.65530000  0.71930000  0.49700000  1.0 0.0391513238
C  C150  1  0.71930000  0.65530000  0.00300000  1.0 0.0391513238
C  C151  1  0.34470000  0.28070000  0.50300000  1.0 0.0391513238
C  C152  1  0.28070000  0.34470000  0.99700000  1.0 0.0391513238
C  C153  1  0.46337000  0.42263000  0.49087000  1.0 0.0015598589
C  C154  1  0.42263000  0.46337000  0.00913000  1.0 0.0015598589
C  C155  1  0.53663000  0.57737000  0.50913000  1.0 0.0015598589
C  C156  1  0.57737000  0.53663000  0.99087000  1.0 0.0015598589
C  C157  1  0.51110000  0.70090000  0.49410000  1.0 0.0391513238
C  C158  1  0.70090000  0.51110000  0.00590000  1.0 0.0391513238
C  C159  1  0.48890000  0.29910000  0.50590000  1.0 0.0391513238
C  C160  1  0.29910000  0.48890000  0.99410000  1.0 0.0391513238
C  C161  1  0.06402000  0.54278000  0.47927000  1.0 -0.0021784612
C  C162  1  0.54278000  0.06402000  0.02073000  1.0 -0.0021784612
C  C163  1  0.93598000  0.45722000  0.52073000  1.0 -0.0021784612
C  C164  1  0.45722000  0.93598000  0.97927000  1.0 -0.0021784612
C  C165  1  0.94653000  0.03587000  0.47993000  1.0 -0.013058349
C  C166  1  0.03587000  0.94653000  0.02007000  1.0 -0.013058349
C  C167  1  0.05347000  0.96413000  0.52007000  1.0 -0.013058349
C  C168  1  0.96413000  0.05347000  0.97993000  1.0 -0.013058349
C  C169  1  0.75700000  0.47660000  0.52830000  1.0 -0.1498387671
C  C170  1  0.47660000  0.75700000  0.97170000  1.0 -0.1498387671
C  C171  1  0.24300000  0.52340000  0.47170000  1.0 -0.1498387671
C  C172  1  0.52340000  0.24300000  0.02830000  1.0 -0.1498387671
C  C173  1  0.37583000  0.48217000  0.35393000  1.0 0.1297588606
C  C174  1  0.48217000  0.37583000  0.14607000  1.0 0.1297588606
C  C175  1  0.62417000  0.51783000  0.64607000  1.0 0.1297588606
C  C176  1  0.51783000  0.62417000  0.85393000  1.0 0.1297588606
C  C177  1  0.53931000  0.65669000  0.44711000  1.0 -0.0906840429
C  C178  1  0.65669000  0.53931000  0.05289000  1.0 -0.0906840429
C  C179  1  0.46069000  0.34331000  0.55289000  1.0 -0.0906840429
C  C180  1  0.34331000  0.46069000  0.94711000  1.0 -0.0906840429
C  C181  1  0.17050000  0.98870000  0.47980000  1.0 0.01140418
C  C182  1  0.98870000  0.17050000  0.02020000  1.0 0.01140418
C  C183  1  0.82950000  0.01130000  0.52020000  1.0 0.01140418
C  C184  1  0.01130000  0.82950000  0.97980000  1.0 0.01140418
C  C185  1  0.47250000  0.73270000  0.50490000  1.0 -0.1498387671
C  C186  1  0.73270000  0.47250000  0.99510000  1.0 -0.1498387671
C  C187  1  0.52750000  0.26730000  0.49510000  1.0 -0.1498387671
C  C188  1  0.26730000  0.52750000  0.00490000  1.0 -0.1498387671
C  C189  1  0.19510000  0.98470000  0.51890000  1.0 0.0326273742
C  C190  1  0.98470000  0.19510000  0.98110000  1.0 0.0326273742
C  C191  1  0.80490000  0.01530000  0.48110000  1.0 0.0326273742
C  C192  1  0.01530000  0.80490000  0.01890000  1.0 0.0326273742
C  C193  1  0.23500000  0.03820000  0.45640000  1.0 -0.1870939079
C  C194  1  0.03820000  0.23500000  0.04360000  1.0 -0.1870939079
C  C195  1  0.76500000  0.96180000  0.54360000  1.0 -0.1870939079
C  C196  1  0.96180000  0.76500000  0.95640000  1.0 -0.1870939079
C  C197  1  0.04240000  0.75900000  0.54650000  1.0 -0.1412417012
C  C198  1  0.75900000  0.04240000  0.95350000  1.0 -0.1412417012
C  C199  1  0.95760000  0.24100000  0.45350000  1.0 -0.1412417012
C  C200  1  0.24100000  0.95760000  0.04650000  1.0 -0.1412417012
C  C201  1  0.94591000  0.06769000  0.35091000  1.0 0.1297588606
C  C202  1  0.06769000  0.94591000  0.14909000  1.0 0.1297588606
C  C203  1  0.05409000  0.93231000  0.64909000  1.0 0.1297588606
C  C204  1  0.93231000  0.05409000  0.85091000  1.0 0.1297588606
C  C205  1  0.95236000  0.03464000  0.38886000  1.0 -0.1019495682
C  C206  1  0.03464000  0.95236000  0.11114000  1.0 -0.1019495682
C  C207  1  0.04764000  0.96536000  0.61114000  1.0 -0.1019495682
C  C208  1  0.96536000  0.04764000  0.88886000  1.0 -0.1019495682
C  C209  1  0.06910000  0.84210000  0.52430000  1.0 0.0326273742
C  C210  1  0.84210000  0.06910000  0.97570000  1.0 0.0326273742
C  C211  1  0.93090000  0.15790000  0.47570000  1.0 0.0326273742
C  C212  1  0.15790000  0.93090000  0.02430000  1.0 0.0326273742
C  C213  1  0.77760000  0.43660000  0.47850000  1.0 0.0391513238
C  C214  1  0.43660000  0.77760000  0.02150000  1.0 0.0391513238
C  C215  1  0.22240000  0.56340000  0.52150000  1.0 0.0391513238
C  C216  1  0.56340000  0.22240000  0.97850000  1.0 0.0391513238
C  C217  1  0.07780000  0.93840000  0.46570000  1.0 -0.1019495682
C  C218  1  0.93840000  0.07780000  0.03430000  1.0 -0.1019495682
C  C219  1  0.92220000  0.06160000  0.53430000  1.0 -0.1019495682
C  C220  1  0.06160000  0.92220000  0.96570000  1.0 -0.1019495682
C  C221  1  0.82340000  0.39600000  0.47050000  1.0 -0.0906840429
C  C222  1  0.39600000  0.82340000  0.02950000  1.0 -0.0906840429
C  C223  1  0.17660000  0.60400000  0.52950000  1.0 -0.0906840429
C  C224  1  0.60400000  0.17660000  0.97050000  1.0 -0.0906840429
C  C225  1  0.04930000  0.84910000  0.48560000  1.0 0.0391513238
C  C226  1  0.84910000  0.04930000  0.01440000  1.0 0.0391513238
C  C227  1  0.95070000  0.15090000  0.51440000  1.0 0.0391513238
C  C228  1  0.15090000  0.95070000  0.98560000  1.0 0.0391513238
C  C229  1  0.57630000  0.66930000  0.51630000  1.0 -0.0906840429
C  C230  1  0.66930000  0.57630000  0.98370000  1.0 -0.0906840429
C  C231  1  0.42370000  0.33070000  0.48370000  1.0 -0.0906840429
C  C232  1  0.33070000  0.42370000  0.01630000  1.0 -0.0906840429
C  C233  1  0.73820000  0.76880000  0.51340000  1.0 -0.1412417012
C  C234  1  0.76880000  0.73820000  0.98660000  1.0 -0.1412417012
C  C235  1  0.26180000  0.23120000  0.48660000  1.0 -0.1412417012
C  C236  1  0.23120000  0.26180000  0.01340000  1.0 -0.1412417012
C  C237  1  0.77000000  0.23220000  0.48670000  1.0 -0.1314616258
C  C238  1  0.23220000  0.77000000  0.01330000  1.0 -0.1314616258
C  C239  1  0.23000000  0.76780000  0.51330000  1.0 -0.1314616258
C  C240  1  0.76780000  0.23000000  0.98670000  1.0 -0.1314616258
C  C241  1  0.70140000  0.75160000  0.43910000  1.0 -0.1314616258
C  C242  1  0.75160000  0.70140000  0.06090000  1.0 -0.1314616258
C  C243  1  0.29860000  0.24840000  0.56090000  1.0 -0.1314616258
C  C244  1  0.24840000  0.29860000  0.93910000  1.0 -0.1314616258
C  C245  1  0.71930000  0.46250000  0.45450000  1.0 -0.1498387671
C  C246  1  0.46250000  0.71930000  0.04550000  1.0 -0.1498387671
C  C247  1  0.28070000  0.53750000  0.54550000  1.0 -0.1498387671
C  C248  1  0.53750000  0.28070000  0.95450000  1.0 -0.1498387671
C  C249  1  0.49490000  0.69670000  0.45790000  1.0 0.01140418
C  C250  1  0.69670000  0.49490000  0.04210000  1.0 0.01140418
C  C251  1  0.50510000  0.30330000  0.54210000  1.0 0.01140418
C  C252  1  0.30330000  0.50510000  0.95790000  1.0 0.01140418
C  C253  1  0.44300000  0.72520000  0.43230000  1.0 -0.1314616258
C  C254  1  0.72520000  0.44300000  0.06770000  1.0 -0.1314616258
C  C255  1  0.55700000  0.27480000  0.56770000  1.0 -0.1314616258
C  C256  1  0.27480000  0.55700000  0.93230000  1.0 -0.1314616258
C  C257  1  0.85415000  0.40845000  0.53865000  1.0 -0.0906840429
C  C258  1  0.40845000  0.85415000  0.96135000  1.0 -0.0906840429
C  C259  1  0.14585000  0.59155000  0.46135000  1.0 -0.0906840429
C  C260  1  0.59155000  0.14585000  0.03865000  1.0 -0.0906840429
C  C261  1  0.79600000  0.44120000  0.51700000  1.0 0.0326273742
C  C262  1  0.44120000  0.79600000  0.98300000  1.0 0.0326273742
C  C263  1  0.20400000  0.55880000  0.48300000  1.0 0.0326273742
C  C264  1  0.55880000  0.20400000  0.01700000  1.0 0.0326273742
C  C265  1  0.27390000  0.02230000  0.53390000  1.0 -0.1160951691
C  C266  1  0.02230000  0.27390000  0.96610000  1.0 -0.1160951691
C  C267  1  0.72610000  0.97770000  0.46610000  1.0 -0.1160951691
C  C268  1  0.97770000  0.72610000  0.03390000  1.0 -0.1160951691
C  C269  1  0.79990000  0.80550000  0.49150000  1.0 -0.1019495682
C  C270  1  0.80550000  0.79990000  0.00850000  1.0 -0.1019495682
C  C271  1  0.20010000  0.19450000  0.50850000  1.0 -0.1019495682
C  C272  1  0.19450000  0.20010000  0.99150000  1.0 -0.1019495682
C  C273  1  0.11320000  0.92560000  0.53770000  1.0 -0.0906840429
C  C274  1  0.92560000  0.11320000  0.96230000  1.0 -0.0906840429
C  C275  1  0.88680000  0.07440000  0.46230000  1.0 -0.0906840429
C  C276  1  0.07440000  0.88680000  0.03770000  1.0 -0.0906840429
C  C277  1  0.76660000  0.16900000  0.54940000  1.0 -0.1092407177
C  C278  1  0.16900000  0.76660000  0.95060000  1.0 -0.1092407177
C  C279  1  0.23340000  0.83100000  0.45060000  1.0 -0.1092407177
C  C280  1  0.83100000  0.23340000  0.04940000  1.0 -0.1092407177
C  C281  1  0.75140000  0.16100000  0.51180000  1.0 -0.1092407177
C  C282  1  0.16100000  0.75140000  0.98820000  1.0 -0.1092407177
C  C283  1  0.24860000  0.83900000  0.48820000  1.0 -0.1092407177
C  C284  1  0.83900000  0.24860000  0.01180000  1.0 -0.1092407177
C  C285  1  0.31560000  0.07720000  0.47550000  1.0 -0.1092407177
C  C286  1  0.07720000  0.31560000  0.02450000  1.0 -0.1092407177
C  C287  1  0.68440000  0.92280000  0.52450000  1.0 -0.1092407177
C  C288  1  0.92280000  0.68440000  0.97550000  1.0 -0.1092407177
C  C289  1  0.68390000  0.49950000  0.46700000  1.0 -0.1092407177
C  C290  1  0.49950000  0.68390000  0.03300000  1.0 -0.1092407177
C  C291  1  0.31610000  0.50050000  0.53300000  1.0 -0.1092407177
C  C292  1  0.50050000  0.31610000  0.96700000  1.0 -0.1092407177
C  C293  1  0.40320000  0.75500000  0.44290000  1.0 -0.1092407177
C  C294  1  0.75500000  0.40320000  0.05710000  1.0 -0.1092407177
C  C295  1  0.59680000  0.24500000  0.55710000  1.0 -0.1092407177
C  C296  1  0.24500000  0.59680000  0.94290000  1.0 -0.1092407177
C  C297  1  0.41510000  0.76050000  0.47970000  1.0 -0.1160951691
C  C298  1  0.76050000  0.41510000  0.02030000  1.0 -0.1160951691
C  C299  1  0.58490000  0.23950000  0.52030000  1.0 -0.1160951691
C  C300  1  0.23950000  0.58490000  0.97970000  1.0 -0.1160951691
C  C301  1  0.00810000  0.77670000  0.47000000  1.0 -0.1498387671
C  C302  1  0.77670000  0.00810000  0.03000000  1.0 -0.1498387671
C  C303  1  0.99190000  0.22330000  0.53000000  1.0 -0.1498387671
C  C304  1  0.22330000  0.99190000  0.97000000  1.0 -0.1498387671
C  C305  1  0.98360000  0.69900000  0.49240000  1.0 -0.1092407177
C  C306  1  0.69900000  0.98360000  0.00760000  1.0 -0.1092407177
C  C307  1  0.01640000  0.30100000  0.50760000  1.0 -0.1092407177
C  C308  1  0.30100000  0.01640000  0.99240000  1.0 -0.1092407177
C  C309  1  0.00100000  0.68880000  0.53140000  1.0 -0.1019495682
C  C310  1  0.68880000  0.00100000  0.96860000  1.0 -0.1092407177
C  C311  1  0.99900000  0.31120000  0.46860000  1.0 -0.1092407177
C  C312  1  0.31120000  0.99900000  0.03140000  1.0 -0.1092407177
C  C313  1  0.77930000  0.79450000  0.45440000  1.0 -0.1019495682
C  C314  1  0.79450000  0.77930000  0.04560000  1.0 -0.1019495682
C  C315  1  0.22070000  0.20550000  0.54560000  1.0 -0.1019495682
C  C316  1  0.20550000  0.22070000  0.95440000  1.0 -0.1019495682
C  C317  1  0.70480000  0.50920000  0.50360000  1.0 -0.1160951691
C  C318  1  0.50920000  0.70480000  0.99640000  1.0 -0.1160951691
C  C319  1  0.29520000  0.49080000  0.49640000  1.0 -0.1160951691
C  C320  1  0.49080000  0.29520000  0.00360000  1.0 -0.1160951691
C  C321  1  0.33790000  0.07030000  0.51610000  1.0 -0.1092407177
C  C322  1  0.07030000  0.33790000  0.98390000  1.0 -0.1092407177
C  C323  1  0.66210000  0.92970000  0.48390000  1.0 -0.1092407177
C  C324  1  0.92970000  0.66210000  0.01610000  1.0 -0.1092407177
O  O1  1  0.82070000  0.34630000  0.24829000  1.0 -0.5202200294
O  O2  1  0.34630000  0.82070000  0.25171000  1.0 -0.5202200294
O  O3  1  0.17930000  0.65370000  0.75171000  1.0 -0.5202200294
O  O4  1  0.65370000  0.17930000  0.74829000  1.0 -0.5202200294
O  O5  1  0.75564000  0.28476000  0.29822000  1.0 -0.5418497205
O  O6  1  0.28476000  0.75564000  0.20178000  1.0 -0.5418497205
O  O7  1  0.24436000  0.71524000  0.70178000  1.0 -0.5418497205
O  O8  1  0.71524000  0.24436000  0.79822000  1.0 -0.5418497205
O  O9  1  0.29701000  0.66639000  0.29916000  1.0 -0.5202200294
O  O10  1  0.66639000  0.29701000  0.20084000  1.0 -0.5202200294
O  O11  1  0.70299000  0.33361000  0.70084000  1.0 -0.5202200294
O  O12  1  0.33361000  0.70299000  0.79916000  1.0 -0.5202200294
O  O13  1  0.14622000  0.66018000  0.29937000  1.0 -0.4936589182
O  O14  1  0.66018000  0.14622000  0.20063000  1.0 -0.4936589182
O  O15  1  0.85378000  0.33982000  0.70063000  1.0 -0.5013681512
O  O16  1  0.33982000  0.85378000  0.79937000  1.0 -0.4936589182
O  O17  1  0.14175000  0.14025000  0.29632000  1.0 -0.5273336153
O  O18  1  0.14025000  0.14175000  0.20368000  1.0 -0.5273336153
O  O19  1  0.85825000  0.85975000  0.70368000  1.0 -0.5273336153
O  O20  1  0.85975000  0.85825000  0.79632000  1.0 -0.5273336153
O  O21  1  0.23517000  0.60183000  0.24977000  1.0 -0.5202200294
O  O22  1  0.60183000  0.23517000  0.25023000  1.0 -0.5202200294
O  O23  1  0.76483000  0.39817000  0.75023000  1.0 -0.5202200294
O  O24  1  0.39817000  0.76483000  0.74977000  1.0 -0.5202200294
O  O25  1  0.08582000  0.60078000  0.24852000  1.0 -0.5097369234
O  O26  1  0.60078000  0.08582000  0.25148000  1.0 -0.5097369234
O  O27  1  0.91418000  0.39922000  0.75148000  1.0 -0.5097369234
O  O28  1  0.39922000  0.91418000  0.74852000  1.0 -0.5097369234
O  O29  1  0.23229000  0.33931000  0.25045000  1.0 -0.4738842081
O  O30  1  0.33931000  0.23229000  0.24955000  1.0 -0.4738842081
O  O31  1  0.76771000  0.66069000  0.74955000  1.0 -0.4738842081
O  O32  1  0.66069000  0.76771000  0.75045000  1.0 -0.4738842081
O  O33  1  0.29728000  0.28312000  0.29915000  1.0 -0.5418497205
O  O34  1  0.28312000  0.29728000  0.20085000  1.0 -0.5418497205
O  O35  1  0.70272000  0.71688000  0.70085000  1.0 -0.5418497205
O  O36  1  0.71688000  0.70272000  0.79915000  1.0 -0.5418497205
O  O37  1  0.08022000  0.19558000  0.24452000  1.0 -0.5097369234
O  O38  1  0.19558000  0.08022000  0.25548000  1.0 -0.5097369234
O  O39  1  0.91978000  0.80442000  0.75548000  1.0 -0.5097369234
O  O40  1  0.80442000  0.91978000  0.74452000  1.0 -0.5097369234
O  O41  1  0.75767000  0.13913000  0.29581000  1.0 -0.5418497205
O  O42  1  0.13913000  0.75767000  0.20419000  1.0 -0.5418497205
O  O43  1  0.24233000  0.86087000  0.70419000  1.0 -0.5418497205
O  O44  1  0.86087000  0.24233000  0.79581000  1.0 -0.5418497205
O  O45  1  0.82113000  0.20067000  0.24471000  1.0 -0.5013681512
O  O46  1  0.20067000  0.82113000  0.25529000  1.0 -0.5013681512
O  O47  1  0.17887000  0.79933000  0.75529000  1.0 -0.5013681512
O  O48  1  0.79933000  0.17887000  0.74471000  1.0 -0.5013681512
