# DDEC6 charges by PACMAN v1.1 (https://github.com/mtap-research/PACMAN-charge/)
data_LACYOG_FSR_pacman
_symmetry_space_group_name_H-M   'P 1'
_cell_length_a   30.14200000
_cell_length_b   30.14200000
_cell_length_c   16.46960000
_cell_angle_alpha   90.00000000
_cell_angle_beta   90.00000000
_cell_angle_gamma   90.00000000
_symmetry_Int_Tables_number   1
_chemical_formula_structural   Na2Zn3In4H52C80N6O35
_chemical_formula_sum   'Na8 Zn12 In16 H208 C320 N24 O140'
_cell_volume   14963.29308501
_cell_formula_units_Z   4
loop_
 _symmetry_equiv_pos_site_id
 _symmetry_equiv_pos_as_xyz
  1  'x, y, z'
loop_
 _atom_site_type_symbol
 _atom_site_label
 _atom_site_symmetry_multiplicity
 _atom_site_fract_x
 _atom_site_fract_y
 _atom_site_fract_z
 _atom_site_occupancy
 _atom_site_charge
Na  Na1  1  0.35309000  0.49144000  0.50000000  1.0 0.8733192076
Na  Na2  1  0.64691000  0.50856000  0.50000000  1.0 0.87691152
Na  Na3  1  0.49144000  0.64691000  0.50000000  1.0 0.8733192076
Na  Na4  1  0.50856000  0.35309000  0.50000000  1.0 0.8733192076
Na  Na5  1  0.85309000  0.00856000  0.50000000  1.0 0.8733192076
Na  Na6  1  0.14691000  0.99144000  0.50000000  1.0 0.8733192076
Na  Na7  1  0.99144000  0.85309000  0.50000000  1.0 0.8733192076
Na  Na8  1  0.00856000  0.14691000  0.50000000  1.0 0.87691152
Zn  Zn1  1  0.27306000  0.22694000  0.00000000  1.0 0.4827248116
Zn  Zn2  1  0.72694000  0.77306000  0.00000000  1.0 0.4903691947
Zn  Zn3  1  0.22694000  0.72694000  0.00000000  1.0 0.4903691947
Zn  Zn4  1  0.77306000  0.27306000  0.00000000  1.0 0.4827248116
Zn  Zn5  1  0.00927000  0.50927000  0.00000000  1.0 0.4903691947
Zn  Zn6  1  0.99073000  0.49073000  0.00000000  1.0 0.4903691947
Zn  Zn7  1  0.50927000  0.99073000  0.00000000  1.0 0.4903691947
Zn  Zn8  1  0.49073000  0.00927000  0.00000000  1.0 0.4903691947
Zn  Zn9  1  0.25547000  0.24453000  0.00000000  1.0 0.4742544954
Zn  Zn10  1  0.74453000  0.75547000  0.00000000  1.0 0.4742544954
Zn  Zn11  1  0.24453000  0.74453000  0.00000000  1.0 0.4742544954
Zn  Zn12  1  0.75547000  0.25547000  0.00000000  1.0 0.4742544954
In  In1  1  0.25719000  0.47637000  0.38406000  1.0 1.2724714865
In  In2  1  0.74281000  0.52363000  0.38406000  1.0 1.2724714865
In  In3  1  0.47637000  0.74281000  0.38406000  1.0 1.2724714865
In  In4  1  0.52363000  0.25719000  0.38406000  1.0 1.2724714865
In  In5  1  0.75719000  0.02363000  0.61594000  1.0 1.2724714865
In  In6  1  0.24281000  0.97637000  0.61594000  1.0 1.2724714865
In  In7  1  0.97637000  0.75719000  0.61594000  1.0 1.2724714865
In  In8  1  0.02363000  0.24281000  0.61594000  1.0 1.2724714865
In  In9  1  0.74281000  0.52363000  0.61594000  1.0 1.2724714865
In  In10  1  0.25719000  0.47637000  0.61594000  1.0 1.2724714865
In  In11  1  0.52363000  0.25719000  0.61594000  1.0 1.2724714865
In  In12  1  0.47637000  0.74281000  0.61594000  1.0 1.2724714865
In  In13  1  0.24281000  0.97637000  0.38406000  1.0 1.2724714865
In  In14  1  0.75719000  0.02363000  0.38406000  1.0 1.2724714865
In  In15  1  0.02363000  0.24281000  0.38406000  1.0 1.2724714865
In  In16  1  0.97637000  0.75719000  0.38406000  1.0 1.2724714865
H  H1  1  0.33360000  0.16640000  0.05000000  1.0 0.4075322513
H  H2  1  0.66640000  0.83360000  0.05000000  1.0 0.4075322513
H  H3  1  0.16640000  0.66640000  0.05000000  1.0 0.4075322513
H  H4  1  0.83360000  0.33360000  0.05000000  1.0 0.4075322513
H  H5  1  0.83360000  0.33360000  0.95000000  1.0 0.4075322513
H  H6  1  0.16640000  0.66640000  0.95000000  1.0 0.4075322513
H  H7  1  0.66640000  0.83360000  0.95000000  1.0 0.4075322513
H  H8  1  0.33360000  0.16640000  0.95000000  1.0 0.4075322513
H  H9  1  0.28200000  0.42970000  0.50000000  1.0 0.2114644636
H  H10  1  0.71800000  0.57030000  0.50000000  1.0 0.2114644636
H  H11  1  0.42970000  0.71800000  0.50000000  1.0 0.2114644636
H  H12  1  0.57030000  0.28200000  0.50000000  1.0 0.2114644636
H  H13  1  0.78200000  0.07030000  0.50000000  1.0 0.2114644636
H  H14  1  0.21800000  0.92970000  0.50000000  1.0 0.2114644636
H  H15  1  0.92970000  0.78200000  0.50000000  1.0 0.2114644636
H  H16  1  0.07030000  0.21800000  0.50000000  1.0 0.2114644636
H  H17  1  0.30410000  0.36650000  0.22810000  1.0 0.1298936766
H  H18  1  0.69590000  0.63350000  0.22810000  1.0 0.1298936766
H  H19  1  0.36650000  0.69590000  0.22810000  1.0 0.1298936766
H  H20  1  0.63350000  0.30410000  0.22810000  1.0 0.1298936766
H  H21  1  0.80410000  0.13350000  0.77190000  1.0 0.1298936766
H  H22  1  0.19590000  0.86650000  0.77190000  1.0 0.1298936766
H  H23  1  0.86650000  0.80410000  0.77190000  1.0 0.1298936766
H  H24  1  0.13350000  0.19590000  0.77190000  1.0 0.1298936766
H  H25  1  0.69590000  0.63350000  0.77190000  1.0 0.1298936766
H  H26  1  0.30410000  0.36650000  0.77190000  1.0 0.1298936766
H  H27  1  0.63350000  0.30410000  0.77190000  1.0 0.1298936766
H  H28  1  0.36650000  0.69590000  0.77190000  1.0 0.1298936766
H  H29  1  0.19590000  0.86650000  0.22810000  1.0 0.1298936766
H  H30  1  0.80410000  0.13350000  0.22810000  1.0 0.1298936766
H  H31  1  0.13350000  0.19590000  0.22810000  1.0 0.1298936766
H  H32  1  0.86650000  0.80410000  0.22810000  1.0 0.1298936766
H  H33  1  0.41170000  0.37510000  0.37370000  1.0 0.1298936766
H  H34  1  0.58830000  0.62490000  0.37370000  1.0 0.1298936766
H  H35  1  0.37510000  0.58830000  0.37370000  1.0 0.1298936766
H  H36  1  0.62490000  0.41170000  0.37370000  1.0 0.1298936766
H  H37  1  0.91170000  0.12490000  0.62630000  1.0 0.1298936766
H  H38  1  0.08830000  0.87510000  0.62630000  1.0 0.1298936766
H  H39  1  0.87510000  0.91170000  0.62630000  1.0 0.1298936766
H  H40  1  0.12490000  0.08830000  0.62630000  1.0 0.1298936766
H  H41  1  0.58830000  0.62490000  0.62630000  1.0 0.1298936766
H  H42  1  0.41170000  0.37510000  0.62630000  1.0 0.1298936766
H  H43  1  0.62490000  0.41170000  0.62630000  1.0 0.1298936766
H  H44  1  0.37510000  0.58830000  0.62630000  1.0 0.1298936766
H  H45  1  0.08830000  0.87510000  0.37370000  1.0 0.1298936766
H  H46  1  0.91170000  0.12490000  0.37370000  1.0 0.1298936766
H  H47  1  0.12490000  0.08830000  0.37370000  1.0 0.1298936766
H  H48  1  0.87510000  0.91170000  0.37370000  1.0 0.1298936766
H  H49  1  0.40010000  0.27370000  0.21480000  1.0 0.1298936766
H  H50  1  0.59990000  0.72630000  0.21480000  1.0 0.1298936766
H  H51  1  0.27370000  0.59990000  0.21480000  1.0 0.1298936766
H  H52  1  0.72630000  0.40010000  0.21480000  1.0 0.1298936766
H  H53  1  0.90010000  0.22630000  0.78520000  1.0 0.1298936766
H  H54  1  0.09990000  0.77370000  0.78520000  1.0 0.1298936766
H  H55  1  0.77370000  0.90010000  0.78520000  1.0 0.1298936766
H  H56  1  0.22630000  0.09990000  0.78520000  1.0 0.1298936766
H  H57  1  0.59990000  0.72630000  0.78520000  1.0 0.1298936766
H  H58  1  0.40010000  0.27370000  0.78520000  1.0 0.1298936766
H  H59  1  0.72630000  0.40010000  0.78520000  1.0 0.1298936766
H  H60  1  0.27370000  0.59990000  0.78520000  1.0 0.1298936766
H  H61  1  0.09990000  0.77370000  0.21480000  1.0 0.1298936766
H  H62  1  0.90010000  0.22630000  0.21480000  1.0 0.1298936766
H  H63  1  0.22630000  0.09990000  0.21480000  1.0 0.1298936766
H  H64  1  0.77370000  0.90010000  0.21480000  1.0 0.1298936766
H  H65  1  0.29630000  0.26090000  0.30330000  1.0 0.1298936766
H  H66  1  0.70370000  0.73910000  0.30330000  1.0 0.1298936766
H  H67  1  0.26090000  0.70370000  0.30330000  1.0 0.1298936766
H  H68  1  0.73910000  0.29630000  0.30330000  1.0 0.1298936766
H  H69  1  0.79630000  0.23910000  0.69670000  1.0 0.1298936766
H  H70  1  0.20370000  0.76090000  0.69670000  1.0 0.1298936766
H  H71  1  0.76090000  0.79630000  0.69670000  1.0 0.1298936766
H  H72  1  0.23910000  0.20370000  0.69670000  1.0 0.1298936766
H  H73  1  0.70370000  0.73910000  0.69670000  1.0 0.1298936766
H  H74  1  0.29630000  0.26090000  0.69670000  1.0 0.1298936766
H  H75  1  0.73910000  0.29630000  0.69670000  1.0 0.1298936766
H  H76  1  0.26090000  0.70370000  0.69670000  1.0 0.1298936766
H  H77  1  0.20370000  0.76090000  0.30330000  1.0 0.1298936766
H  H78  1  0.79630000  0.23910000  0.30330000  1.0 0.1298936766
H  H79  1  0.23910000  0.20370000  0.30330000  1.0 0.1298936766
H  H80  1  0.76090000  0.79630000  0.30330000  1.0 0.1298936766
H  H81  1  0.38140000  0.35340000  0.07500000  1.0 0.1298936766
H  H82  1  0.61860000  0.64660000  0.07500000  1.0 0.1298936766
H  H83  1  0.35340000  0.61860000  0.07500000  1.0 0.1298936766
H  H84  1  0.64660000  0.38140000  0.07500000  1.0 0.1298936766
H  H85  1  0.88140000  0.14660000  0.92500000  1.0 0.1298936766
H  H86  1  0.11860000  0.85340000  0.92500000  1.0 0.1298936766
H  H87  1  0.85340000  0.88140000  0.92500000  1.0 0.1298936766
H  H88  1  0.14660000  0.11860000  0.92500000  1.0 0.1298936766
H  H89  1  0.61860000  0.64660000  0.92500000  1.0 0.1298936766
H  H90  1  0.38140000  0.35340000  0.92500000  1.0 0.1298936766
H  H91  1  0.64660000  0.38140000  0.92500000  1.0 0.1298936766
H  H92  1  0.35340000  0.61860000  0.92500000  1.0 0.1298936766
H  H93  1  0.11860000  0.85340000  0.07500000  1.0 0.1298936766
H  H94  1  0.88140000  0.14660000  0.07500000  1.0 0.1298936766
H  H95  1  0.14660000  0.11860000  0.07500000  1.0 0.1298936766
H  H96  1  0.85340000  0.88140000  0.07500000  1.0 0.1298936766
H  H97  1  0.17740000  0.56100000  0.50000000  1.0 0.0936955269
H  H98  1  0.82260000  0.43900000  0.50000000  1.0 0.0936955269
H  H99  1  0.56100000  0.82260000  0.50000000  1.0 0.0936955269
H  H100  1  0.43900000  0.17740000  0.50000000  1.0 0.0936955269
H  H101  1  0.67740000  0.93900000  0.50000000  1.0 0.0936955269
H  H102  1  0.32260000  0.06100000  0.50000000  1.0 0.0936955269
H  H103  1  0.06100000  0.67740000  0.50000000  1.0 0.0936955269
H  H104  1  0.93900000  0.32260000  0.50000000  1.0 0.0936955269
H  H105  1  0.13270000  0.46240000  0.22050000  1.0 0.1298936766
H  H106  1  0.86730000  0.53760000  0.22050000  1.0 0.1298936766
H  H107  1  0.46240000  0.86730000  0.22050000  1.0 0.1298936766
H  H108  1  0.53760000  0.13270000  0.22050000  1.0 0.1298936766
H  H109  1  0.63270000  0.03760000  0.77950000  1.0 0.1298936766
H  H110  1  0.36730000  0.96240000  0.77950000  1.0 0.1298936766
H  H111  1  0.96240000  0.63270000  0.77950000  1.0 0.1298936766
H  H112  1  0.03760000  0.36730000  0.77950000  1.0 0.1298936766
H  H113  1  0.86730000  0.53760000  0.77950000  1.0 0.1298936766
H  H114  1  0.13270000  0.46240000  0.77950000  1.0 0.1298936766
H  H115  1  0.53760000  0.13270000  0.77950000  1.0 0.1298936766
H  H116  1  0.46240000  0.86730000  0.77950000  1.0 0.1298936766
H  H117  1  0.36730000  0.96240000  0.22050000  1.0 0.1298936766
H  H118  1  0.63270000  0.03760000  0.22050000  1.0 0.1298936766
H  H119  1  0.03760000  0.36730000  0.22050000  1.0 0.1298936766
H  H120  1  0.96240000  0.63270000  0.22050000  1.0 0.1298936766
H  H121  1  0.11700000  0.38300000  0.07620000  1.0 0.118331327
H  H122  1  0.88300000  0.61700000  0.07620000  1.0 0.118331327
H  H123  1  0.38300000  0.88300000  0.07620000  1.0 0.118331327
H  H124  1  0.61700000  0.11700000  0.07620000  1.0 0.118331327
H  H125  1  0.61700000  0.11700000  0.92380000  1.0 0.118331327
H  H126  1  0.38300000  0.88300000  0.92380000  1.0 0.118331327
H  H127  1  0.88300000  0.61700000  0.92380000  1.0 0.118331327
H  H128  1  0.11700000  0.38300000  0.92380000  1.0 0.118331327
H  H129  1  0.02910000  0.47090000  0.30220000  1.0 0.1298936766
H  H130  1  0.97090000  0.52910000  0.30220000  1.0 0.1298936766
H  H131  1  0.47090000  0.97090000  0.30220000  1.0 0.1298936766
H  H132  1  0.52910000  0.02910000  0.30220000  1.0 0.1298936766
H  H133  1  0.52910000  0.02910000  0.69780000  1.0 0.1298936766
H  H134  1  0.47090000  0.97090000  0.69780000  1.0 0.1298936766
H  H135  1  0.97090000  0.52910000  0.69780000  1.0 0.1298936766
H  H136  1  0.02910000  0.47090000  0.69780000  1.0 0.1298936766
H  H137  1  0.13870000  0.36130000  0.38180000  1.0 0.1298936766
H  H138  1  0.86130000  0.63870000  0.38180000  1.0 0.1298936766
H  H139  1  0.36130000  0.86130000  0.38180000  1.0 0.1298936766
H  H140  1  0.63870000  0.13870000  0.38180000  1.0 0.1298936766
H  H141  1  0.63870000  0.13870000  0.61820000  1.0 0.1298936766
H  H142  1  0.36130000  0.86130000  0.61820000  1.0 0.1298936766
H  H143  1  0.86130000  0.63870000  0.61820000  1.0 0.1298936766
H  H144  1  0.13870000  0.36130000  0.61820000  1.0 0.1298936766
H  H145  1  0.07110000  0.57110000  0.95000000  1.0 0.4016465982
H  H146  1  0.92890000  0.42890000  0.95000000  1.0 0.4016465982
H  H147  1  0.57110000  0.92890000  0.95000000  1.0 0.4016465982
H  H148  1  0.42890000  0.07110000  0.95000000  1.0 0.4016465982
H  H149  1  0.57110000  0.92890000  0.05000000  1.0 0.4016465982
H  H150  1  0.42890000  0.07110000  0.05000000  1.0 0.4016465982
H  H151  1  0.07110000  0.57110000  0.05000000  1.0 0.4016465982
H  H152  1  0.92890000  0.42890000  0.05000000  1.0 0.4016465982
H  H153  1  0.44270000  0.51570000  0.53830000  1.0 0.0976738268
H  H154  1  0.55730000  0.48430000  0.53830000  1.0 0.0976738268
H  H155  1  0.51570000  0.55730000  0.53830000  1.0 0.0976738268
H  H156  1  0.48430000  0.44270000  0.53830000  1.0 0.0976738268
H  H157  1  0.94270000  0.98430000  0.46170000  1.0 0.0976738268
H  H158  1  0.05730000  0.01570000  0.46170000  1.0 0.0976738268
H  H159  1  0.01570000  0.94270000  0.46170000  1.0 0.0976738268
H  H160  1  0.98430000  0.05730000  0.46170000  1.0 0.0976738268
H  H161  1  0.55730000  0.48430000  0.46170000  1.0 0.0976738268
H  H162  1  0.44270000  0.51570000  0.46170000  1.0 0.0976738268
H  H163  1  0.48430000  0.44270000  0.46170000  1.0 0.0976738268
H  H164  1  0.51570000  0.55730000  0.46170000  1.0 0.0976738268
H  H165  1  0.05730000  0.01570000  0.53830000  1.0 0.0976738268
H  H166  1  0.94270000  0.98430000  0.53830000  1.0 0.0976738268
H  H167  1  0.98430000  0.05730000  0.53830000  1.0 0.0976738268
H  H168  1  0.01570000  0.94270000  0.53830000  1.0 0.0976738268
H  H169  1  0.19400000  0.30600000  0.05000000  1.0 0.4075322513
H  H170  1  0.80600000  0.69400000  0.05000000  1.0 0.4075322513
H  H171  1  0.30600000  0.80600000  0.05000000  1.0 0.4075322513
H  H172  1  0.69400000  0.19400000  0.05000000  1.0 0.4075322513
H  H173  1  0.69400000  0.19400000  0.95000000  1.0 0.4075322513
H  H174  1  0.30600000  0.80600000  0.95000000  1.0 0.4075322513
H  H175  1  0.80600000  0.69400000  0.95000000  1.0 0.4075322513
H  H176  1  0.19400000  0.30600000  0.95000000  1.0 0.4075322513
H  H177  1  0.42740000  0.54720000  0.46170000  1.0 0.1298936766
H  H178  1  0.57260000  0.45280000  0.46170000  1.0 0.1298936766
H  H179  1  0.54720000  0.57260000  0.46170000  1.0 0.1298936766
H  H180  1  0.45280000  0.42740000  0.46170000  1.0 0.1298936766
H  H181  1  0.92740000  0.95280000  0.53830000  1.0 0.1298936766
H  H182  1  0.07260000  0.04720000  0.53830000  1.0 0.1298936766
H  H183  1  0.04720000  0.92740000  0.53830000  1.0 0.1298936766
H  H184  1  0.95280000  0.07260000  0.53830000  1.0 0.1298936766
H  H185  1  0.57260000  0.45280000  0.53830000  1.0 0.1298936766
H  H186  1  0.42740000  0.54720000  0.53830000  1.0 0.1298936766
H  H187  1  0.45280000  0.42740000  0.53830000  1.0 0.1298936766
H  H188  1  0.54720000  0.57260000  0.53830000  1.0 0.1298936766
H  H189  1  0.07260000  0.04720000  0.46170000  1.0 0.1298936766
H  H190  1  0.92740000  0.95280000  0.46170000  1.0 0.1298936766
H  H191  1  0.95280000  0.07260000  0.46170000  1.0 0.1298936766
H  H192  1  0.04720000  0.92740000  0.46170000  1.0 0.1298936766
H  H193  1  0.25720000  0.44700000  0.52700000  1.0 0.152440613
H  H194  1  0.74280000  0.55300000  0.52700000  1.0 0.152440613
H  H195  1  0.44700000  0.74280000  0.52700000  1.0 0.152440613
H  H196  1  0.55300000  0.25720000  0.52700000  1.0 0.152440613
H  H197  1  0.75720000  0.05300000  0.47300000  1.0 0.152440613
H  H198  1  0.24280000  0.94700000  0.47300000  1.0 0.152440613
H  H199  1  0.94700000  0.75720000  0.47300000  1.0 0.152440613
H  H200  1  0.05300000  0.24280000  0.47300000  1.0 0.152440613
H  H201  1  0.74280000  0.55300000  0.47300000  1.0 0.152440613
H  H202  1  0.25720000  0.44700000  0.47300000  1.0 0.152440613
H  H203  1  0.55300000  0.25720000  0.47300000  1.0 0.152440613
H  H204  1  0.44700000  0.74280000  0.47300000  1.0 0.152440613
H  H205  1  0.24280000  0.94700000  0.52700000  1.0 0.152440613
H  H206  1  0.75720000  0.05300000  0.52700000  1.0 0.152440613
H  H207  1  0.05300000  0.24280000  0.52700000  1.0 0.152440613
H  H208  1  0.94700000  0.75720000  0.52700000  1.0 0.152440613
C  C1  1  0.35533000  0.37763000  0.30560000  1.0 -0.009176145
C  C2  1  0.64467000  0.62237000  0.30560000  1.0 -0.009176145
C  C3  1  0.37763000  0.64467000  0.30560000  1.0 -0.009176145
C  C4  1  0.62237000  0.35533000  0.30560000  1.0 -0.009176145
C  C5  1  0.85533000  0.12237000  0.69440000  1.0 -0.009176145
C  C6  1  0.14467000  0.87763000  0.69440000  1.0 -0.009176145
C  C7  1  0.87763000  0.85533000  0.69440000  1.0 -0.009176145
C  C8  1  0.12237000  0.14467000  0.69440000  1.0 -0.009176145
C  C9  1  0.64467000  0.62237000  0.69440000  1.0 -0.009176145
C  C10  1  0.35533000  0.37763000  0.69440000  1.0 -0.009176145
C  C11  1  0.62237000  0.35533000  0.69440000  1.0 -0.009176145
C  C12  1  0.37763000  0.64467000  0.69440000  1.0 -0.009176145
C  C13  1  0.14467000  0.87763000  0.30560000  1.0 -0.009176145
C  C14  1  0.85533000  0.12237000  0.30560000  1.0 -0.009176145
C  C15  1  0.12237000  0.14467000  0.30560000  1.0 -0.009176145
C  C16  1  0.87763000  0.85533000  0.30560000  1.0 -0.009176145
C  C17  1  0.34760000  0.31646000  0.21240000  1.0 0.0669916809
C  C18  1  0.65240000  0.68354000  0.21240000  1.0 0.0669916809
C  C19  1  0.31646000  0.65240000  0.21240000  1.0 0.0669916809
C  C20  1  0.68354000  0.34760000  0.21240000  1.0 0.0669916809
C  C21  1  0.84760000  0.18354000  0.78760000  1.0 0.0669916809
C  C22  1  0.15240000  0.81646000  0.78760000  1.0 0.0669916809
C  C23  1  0.81646000  0.84760000  0.78760000  1.0 0.0669916809
C  C24  1  0.18354000  0.15240000  0.78760000  1.0 0.0669916809
C  C25  1  0.65240000  0.68354000  0.78760000  1.0 0.0669916809
C  C26  1  0.34760000  0.31646000  0.78760000  1.0 0.0669916809
C  C27  1  0.68354000  0.34760000  0.78760000  1.0 0.0669916809
C  C28  1  0.31646000  0.65240000  0.78760000  1.0 0.0669916809
C  C29  1  0.15240000  0.81646000  0.21240000  1.0 0.0669916809
C  C30  1  0.84760000  0.18354000  0.21240000  1.0 0.0669916809
C  C31  1  0.18354000  0.15240000  0.21240000  1.0 0.0669916809
C  C32  1  0.81646000  0.84760000  0.21240000  1.0 0.0669916809
C  C33  1  0.33174000  0.35499000  0.24600000  1.0 -0.1435448921
C  C34  1  0.66826000  0.64501000  0.24600000  1.0 -0.1435448921
C  C35  1  0.35499000  0.66826000  0.24600000  1.0 -0.1435448921
C  C36  1  0.64501000  0.33174000  0.24600000  1.0 -0.1435448921
C  C37  1  0.83174000  0.14501000  0.75400000  1.0 -0.1435448921
C  C38  1  0.16826000  0.85499000  0.75400000  1.0 -0.1435448921
C  C39  1  0.85499000  0.83174000  0.75400000  1.0 -0.1435448921
C  C40  1  0.14501000  0.16826000  0.75400000  1.0 -0.1435448921
C  C41  1  0.66826000  0.64501000  0.75400000  1.0 -0.1435448921
C  C42  1  0.33174000  0.35499000  0.75400000  1.0 -0.1435448921
C  C43  1  0.64501000  0.33174000  0.75400000  1.0 -0.1435448921
C  C44  1  0.35499000  0.66826000  0.75400000  1.0 -0.1435448921
C  C45  1  0.16826000  0.85499000  0.24600000  1.0 -0.1435448921
C  C46  1  0.83174000  0.14501000  0.24600000  1.0 -0.1435448921
C  C47  1  0.14501000  0.16826000  0.24600000  1.0 -0.1435448921
C  C48  1  0.85499000  0.83174000  0.24600000  1.0 -0.1435448921
C  C49  1  0.29098000  0.25975000  0.17360000  1.0 0.1412923264
C  C50  1  0.70902000  0.74025000  0.17360000  1.0 0.1412923264
C  C51  1  0.25975000  0.70902000  0.17360000  1.0 0.1412923264
C  C52  1  0.74025000  0.29098000  0.17360000  1.0 0.1412923264
C  C53  1  0.79098000  0.24025000  0.82640000  1.0 0.1412923264
C  C54  1  0.20902000  0.75975000  0.82640000  1.0 0.1412923264
C  C55  1  0.75975000  0.79098000  0.82640000  1.0 0.1412923264
C  C56  1  0.24025000  0.20902000  0.82640000  1.0 0.1412923264
C  C57  1  0.70902000  0.74025000  0.82640000  1.0 0.1412923264
C  C58  1  0.29098000  0.25975000  0.82640000  1.0 0.1412923264
C  C59  1  0.74025000  0.29098000  0.82640000  1.0 0.1412923264
C  C60  1  0.25975000  0.70902000  0.82640000  1.0 0.1412923264
C  C61  1  0.20902000  0.75975000  0.17360000  1.0 0.1412923264
C  C62  1  0.79098000  0.24025000  0.17360000  1.0 0.1412923264
C  C63  1  0.24025000  0.20902000  0.17360000  1.0 0.1412923264
C  C64  1  0.75975000  0.79098000  0.17360000  1.0 0.1412923264
C  C65  1  0.33093000  0.30302000  0.06710000  1.0 0.152440613
C  C66  1  0.66907000  0.69698000  0.06710000  1.0 0.152440613
C  C67  1  0.30302000  0.66907000  0.06710000  1.0 0.152440613
C  C68  1  0.69698000  0.33093000  0.06710000  1.0 0.152440613
C  C69  1  0.83093000  0.19698000  0.93290000  1.0 0.152440613
C  C70  1  0.16907000  0.80302000  0.93290000  1.0 0.152440613
C  C71  1  0.80302000  0.83093000  0.93290000  1.0 0.152440613
C  C72  1  0.19698000  0.16907000  0.93290000  1.0 0.152440613
C  C73  1  0.66907000  0.69698000  0.93290000  1.0 0.152440613
C  C74  1  0.33093000  0.30302000  0.93290000  1.0 0.152440613
C  C75  1  0.69698000  0.33093000  0.93290000  1.0 0.152440613
C  C76  1  0.30302000  0.66907000  0.93290000  1.0 0.152440613
C  C77  1  0.16907000  0.80302000  0.06710000  1.0 0.152440613
C  C78  1  0.83093000  0.19698000  0.06710000  1.0 0.152440613
C  C79  1  0.19698000  0.16907000  0.06710000  1.0 0.152440613
C  C80  1  0.80302000  0.83093000  0.06710000  1.0 0.152440613
C  C81  1  0.32227000  0.29205000  0.14690000  1.0 -0.0685943981
C  C82  1  0.67773000  0.70795000  0.14690000  1.0 -0.0685943981
C  C83  1  0.29205000  0.67773000  0.14690000  1.0 -0.0685943981
C  C84  1  0.70795000  0.32227000  0.14690000  1.0 -0.0685943981
C  C85  1  0.82227000  0.20795000  0.85310000  1.0 -0.0685943981
C  C86  1  0.17773000  0.79205000  0.85310000  1.0 -0.0685943981
C  C87  1  0.79205000  0.82227000  0.85310000  1.0 -0.0685943981
C  C88  1  0.20795000  0.17773000  0.85310000  1.0 -0.0685943981
C  C89  1  0.67773000  0.70795000  0.85310000  1.0 -0.0685943981
C  C90  1  0.32227000  0.29205000  0.85310000  1.0 -0.0685943981
C  C91  1  0.70795000  0.32227000  0.85310000  1.0 -0.0685943981
C  C92  1  0.29205000  0.67773000  0.85310000  1.0 -0.0685943981
C  C93  1  0.17773000  0.79205000  0.14690000  1.0 -0.0685943981
C  C94  1  0.82227000  0.20795000  0.14690000  1.0 -0.0685943981
C  C95  1  0.20795000  0.17773000  0.14690000  1.0 -0.0685943981
C  C96  1  0.79205000  0.82227000  0.14690000  1.0 -0.0685943981
C  C97  1  0.41151000  0.32133000  0.29940000  1.0 -0.009176145
C  C98  1  0.58849000  0.67867000  0.29940000  1.0 -0.009176145
C  C99  1  0.32133000  0.58849000  0.29940000  1.0 -0.009176145
C  C100  1  0.67867000  0.41151000  0.29940000  1.0 -0.009176145
C  C101  1  0.91151000  0.17867000  0.70060000  1.0 -0.009176145
C  C102  1  0.08849000  0.82133000  0.70060000  1.0 -0.009176145
C  C103  1  0.82133000  0.91151000  0.70060000  1.0 -0.009176145
C  C104  1  0.17867000  0.08849000  0.70060000  1.0 -0.009176145
C  C105  1  0.58849000  0.67867000  0.70060000  1.0 -0.009176145
C  C106  1  0.41151000  0.32133000  0.70060000  1.0 -0.009176145
C  C107  1  0.67867000  0.41151000  0.70060000  1.0 -0.009176145
C  C108  1  0.32133000  0.58849000  0.70060000  1.0 -0.009176145
C  C109  1  0.08849000  0.82133000  0.29940000  1.0 -0.009176145
C  C110  1  0.91151000  0.17867000  0.29940000  1.0 -0.009176145
C  C111  1  0.17867000  0.08849000  0.29940000  1.0 -0.009176145
C  C112  1  0.82133000  0.91151000  0.29940000  1.0 -0.009176145
C  C113  1  0.39538000  0.36026000  0.33250000  1.0 -0.1231535437
C  C114  1  0.60462000  0.63974000  0.33250000  1.0 -0.1231535437
C  C115  1  0.36026000  0.60462000  0.33250000  1.0 -0.1231535437
C  C116  1  0.63974000  0.39538000  0.33250000  1.0 -0.1231535437
C  C117  1  0.89538000  0.13974000  0.66750000  1.0 -0.1231535437
C  C118  1  0.10462000  0.86026000  0.66750000  1.0 -0.1231535437
C  C119  1  0.86026000  0.89538000  0.66750000  1.0 -0.1231535437
C  C120  1  0.13974000  0.10462000  0.66750000  1.0 -0.1231535437
C  C121  1  0.60462000  0.63974000  0.66750000  1.0 -0.1231535437
C  C122  1  0.39538000  0.36026000  0.66750000  1.0 -0.1231535437
C  C123  1  0.63974000  0.39538000  0.66750000  1.0 -0.1231535437
C  C124  1  0.36026000  0.60462000  0.66750000  1.0 -0.1231535437
C  C125  1  0.10462000  0.86026000  0.33250000  1.0 -0.1231535437
C  C126  1  0.89538000  0.13974000  0.33250000  1.0 -0.1231535437
C  C127  1  0.13974000  0.10462000  0.33250000  1.0 -0.1231535437
C  C128  1  0.86026000  0.89538000  0.33250000  1.0 -0.1231535437
C  C129  1  0.45350000  0.30121000  0.33020000  1.0 0.5668607568
C  C130  1  0.54650000  0.69879000  0.33020000  1.0 0.5668607568
C  C131  1  0.30121000  0.54650000  0.33020000  1.0 0.5668607568
C  C132  1  0.69879000  0.45350000  0.33020000  1.0 0.5668607568
C  C133  1  0.95350000  0.19879000  0.66980000  1.0 0.5668607568
C  C134  1  0.04650000  0.80121000  0.66980000  1.0 0.5668607568
C  C135  1  0.80121000  0.95350000  0.66980000  1.0 0.5668607568
C  C136  1  0.19879000  0.04650000  0.66980000  1.0 0.5668607568
C  C137  1  0.54650000  0.69879000  0.66980000  1.0 0.5668607568
C  C138  1  0.45350000  0.30121000  0.66980000  1.0 0.5668607568
C  C139  1  0.69879000  0.45350000  0.66980000  1.0 0.5668607568
C  C140  1  0.30121000  0.54650000  0.66980000  1.0 0.5668607568
C  C141  1  0.04650000  0.80121000  0.33020000  1.0 0.5668607568
C  C142  1  0.95350000  0.19879000  0.33020000  1.0 0.5668607568
C  C143  1  0.19879000  0.04650000  0.33020000  1.0 0.5668607568
C  C144  1  0.80121000  0.95350000  0.33020000  1.0 0.5668607568
C  C145  1  0.38829000  0.29985000  0.23870000  1.0 -0.1435448921
C  C146  1  0.61171000  0.70015000  0.23870000  1.0 -0.1435448921
C  C147  1  0.29985000  0.61171000  0.23870000  1.0 -0.1435448921
C  C148  1  0.70015000  0.38829000  0.23870000  1.0 -0.1435448921
C  C149  1  0.88829000  0.20015000  0.76130000  1.0 -0.1435448921
C  C150  1  0.11171000  0.79985000  0.76130000  1.0 -0.1435448921
C  C151  1  0.79985000  0.88829000  0.76130000  1.0 -0.1435448921
C  C152  1  0.20015000  0.11171000  0.76130000  1.0 -0.1435448921
C  C153  1  0.61171000  0.70015000  0.76130000  1.0 -0.1435448921
C  C154  1  0.38829000  0.29985000  0.76130000  1.0 -0.1435448921
C  C155  1  0.70015000  0.38829000  0.76130000  1.0 -0.1435448921
C  C156  1  0.29985000  0.61171000  0.76130000  1.0 -0.1435448921
C  C157  1  0.11171000  0.79985000  0.23870000  1.0 -0.1435448921
C  C158  1  0.88829000  0.20015000  0.23870000  1.0 -0.1435448921
C  C159  1  0.20015000  0.11171000  0.23870000  1.0 -0.1435448921
C  C160  1  0.79985000  0.88829000  0.23870000  1.0 -0.1435448921
C  C161  1  0.33689000  0.41891000  0.34390000  1.0 0.5794874718
C  C162  1  0.66311000  0.58109000  0.34390000  1.0 0.5794874718
C  C163  1  0.41891000  0.66311000  0.34390000  1.0 0.5794874718
C  C164  1  0.58109000  0.33689000  0.34390000  1.0 0.5794874718
C  C165  1  0.83689000  0.08109000  0.65610000  1.0 0.5794874718
C  C166  1  0.16311000  0.91891000  0.65610000  1.0 0.5794874718
C  C167  1  0.91891000  0.83689000  0.65610000  1.0 0.5794874718
C  C168  1  0.08109000  0.16311000  0.65610000  1.0 0.5794874718
C  C169  1  0.66311000  0.58109000  0.65610000  1.0 0.5794874718
C  C170  1  0.33689000  0.41891000  0.65610000  1.0 0.5794874718
C  C171  1  0.58109000  0.33689000  0.65610000  1.0 0.5794874718
C  C172  1  0.41891000  0.66311000  0.65610000  1.0 0.5794874718
C  C173  1  0.16311000  0.91891000  0.34390000  1.0 0.5794874718
C  C174  1  0.83689000  0.08109000  0.34390000  1.0 0.5794874718
C  C175  1  0.08109000  0.16311000  0.34390000  1.0 0.5794874718
C  C176  1  0.91891000  0.83689000  0.34390000  1.0 0.5794874718
C  C177  1  0.28233000  0.24839000  0.25680000  1.0 -0.1761869505
C  C178  1  0.71767000  0.75161000  0.25680000  1.0 -0.1761869505
C  C179  1  0.24839000  0.71767000  0.25680000  1.0 -0.1761869505
C  C180  1  0.75161000  0.28233000  0.25680000  1.0 -0.1761869505
C  C181  1  0.78233000  0.25161000  0.74320000  1.0 -0.1761869505
C  C182  1  0.21767000  0.74839000  0.74320000  1.0 -0.1761869505
C  C183  1  0.74839000  0.78233000  0.74320000  1.0 -0.1761869505
C  C184  1  0.25161000  0.21767000  0.74320000  1.0 -0.1761869505
C  C185  1  0.71767000  0.75161000  0.74320000  1.0 -0.1761869505
C  C186  1  0.28233000  0.24839000  0.74320000  1.0 -0.1761869505
C  C187  1  0.75161000  0.28233000  0.74320000  1.0 -0.1761869505
C  C188  1  0.24839000  0.71767000  0.74320000  1.0 -0.1761869505
C  C189  1  0.21767000  0.74839000  0.25680000  1.0 -0.1761869505
C  C190  1  0.78233000  0.25161000  0.25680000  1.0 -0.1761869505
C  C191  1  0.25161000  0.21767000  0.25680000  1.0 -0.1761869505
C  C192  1  0.74839000  0.78233000  0.25680000  1.0 -0.1761869505
C  C193  1  0.36339000  0.33546000  0.04080000  1.0 -0.1761869505
C  C194  1  0.63661000  0.66454000  0.04080000  1.0 -0.1761869505
C  C195  1  0.33546000  0.63661000  0.04080000  1.0 -0.1761869505
C  C196  1  0.66454000  0.36339000  0.04080000  1.0 -0.1761869505
C  C197  1  0.86339000  0.16454000  0.95920000  1.0 -0.1761869505
C  C198  1  0.13661000  0.83546000  0.95920000  1.0 -0.1761869505
C  C199  1  0.83546000  0.86339000  0.95920000  1.0 -0.1761869505
C  C200  1  0.16454000  0.13661000  0.95920000  1.0 -0.1761869505
C  C201  1  0.63661000  0.66454000  0.95920000  1.0 -0.1761869505
C  C202  1  0.36339000  0.33546000  0.95920000  1.0 -0.1761869505
C  C203  1  0.66454000  0.36339000  0.95920000  1.0 -0.1761869505
C  C204  1  0.33546000  0.63661000  0.95920000  1.0 -0.1761869505
C  C205  1  0.13661000  0.83546000  0.04080000  1.0 -0.1761869505
C  C206  1  0.86339000  0.16454000  0.04080000  1.0 -0.1761869505
C  C207  1  0.16454000  0.13661000  0.04080000  1.0 -0.1761869505
C  C208  1  0.83546000  0.86339000  0.04080000  1.0 -0.1761869505
C  C209  1  0.19920000  0.53820000  0.50000000  1.0 0.4827248116
C  C210  1  0.80080000  0.46180000  0.50000000  1.0 0.4827248116
C  C211  1  0.53820000  0.80080000  0.50000000  1.0 0.4827248116
C  C212  1  0.46180000  0.19920000  0.50000000  1.0 0.4827248116
C  C213  1  0.69920000  0.96180000  0.50000000  1.0 0.4827248116
C  C214  1  0.30080000  0.03820000  0.50000000  1.0 0.4827248116
C  C215  1  0.03820000  0.69920000  0.50000000  1.0 0.4827248116
C  C216  1  0.96180000  0.30080000  0.50000000  1.0 0.4827248116
C  C217  1  0.08174000  0.41826000  0.21120000  1.0 0.0669916809
C  C218  1  0.91826000  0.58174000  0.21120000  1.0 0.0669916809
C  C219  1  0.41826000  0.91826000  0.21120000  1.0 0.0669916809
C  C220  1  0.58174000  0.08174000  0.21120000  1.0 0.0669916809
C  C221  1  0.58174000  0.08174000  0.78880000  1.0 0.0669916809
C  C222  1  0.41826000  0.91826000  0.78880000  1.0 0.0669916809
C  C223  1  0.91826000  0.58174000  0.78880000  1.0 0.0669916809
C  C224  1  0.08174000  0.41826000  0.78880000  1.0 0.0669916809
C  C225  1  0.12096000  0.43561000  0.24190000  1.0 -0.1435448921
C  C226  1  0.87904000  0.56439000  0.24190000  1.0 -0.1452346603
C  C227  1  0.43561000  0.87904000  0.24190000  1.0 -0.1452346603
C  C228  1  0.56439000  0.12096000  0.24190000  1.0 -0.1452346603
C  C229  1  0.62096000  0.06439000  0.75810000  1.0 -0.1452346603
C  C230  1  0.37904000  0.93561000  0.75810000  1.0 -0.1435448921
C  C231  1  0.93561000  0.62096000  0.75810000  1.0 -0.1452346603
C  C232  1  0.06439000  0.37904000  0.75810000  1.0 -0.1452346603
C  C233  1  0.87904000  0.56439000  0.75810000  1.0 -0.1452346603
C  C234  1  0.12096000  0.43561000  0.75810000  1.0 -0.1452346603
C  C235  1  0.56439000  0.12096000  0.75810000  1.0 -0.1452346603
C  C236  1  0.43561000  0.87904000  0.75810000  1.0 -0.1452346603
C  C237  1  0.37904000  0.93561000  0.24190000  1.0 -0.1435448921
C  C238  1  0.62096000  0.06439000  0.24190000  1.0 -0.1452346603
C  C239  1  0.06439000  0.37904000  0.24190000  1.0 -0.1452346603
C  C240  1  0.93561000  0.62096000  0.24190000  1.0 -0.1452346603
C  C241  1  0.06722000  0.43278000  0.06610000  1.0 0.1561263678
C  C242  1  0.93278000  0.56722000  0.06610000  1.0 0.1561263678
C  C243  1  0.43278000  0.93278000  0.06610000  1.0 0.1561263678
C  C244  1  0.56722000  0.06722000  0.06610000  1.0 0.1561263678
C  C245  1  0.56722000  0.06722000  0.93390000  1.0 0.1561263678
C  C246  1  0.43278000  0.93278000  0.93390000  1.0 0.1561263678
C  C247  1  0.93278000  0.56722000  0.93390000  1.0 0.1561263678
C  C248  1  0.06722000  0.43278000  0.93390000  1.0 0.1561263678
C  C249  1  0.02571000  0.47429000  0.17400000  1.0 0.1412923264
C  C250  1  0.97429000  0.52571000  0.17400000  1.0 0.1412923264
C  C251  1  0.47429000  0.97429000  0.17400000  1.0 0.1412923264
C  C252  1  0.52571000  0.02571000  0.17400000  1.0 0.1412923264
C  C253  1  0.52571000  0.02571000  0.82600000  1.0 0.1412923264
C  C254  1  0.47429000  0.97429000  0.82600000  1.0 0.1412923264
C  C255  1  0.97429000  0.52571000  0.82600000  1.0 0.1412923264
C  C256  1  0.02571000  0.47429000  0.82600000  1.0 0.1412923264
C  C257  1  0.05700000  0.44300000  0.14660000  1.0 -0.0543088274
C  C258  1  0.94300000  0.55700000  0.14660000  1.0 -0.0543088274
C  C259  1  0.44300000  0.94300000  0.14660000  1.0 -0.0543088274
C  C260  1  0.55700000  0.05700000  0.14660000  1.0 -0.0543088274
C  C261  1  0.55700000  0.05700000  0.85340000  1.0 -0.0543088274
C  C262  1  0.44300000  0.94300000  0.85340000  1.0 -0.0543088274
C  C263  1  0.94300000  0.55700000  0.85340000  1.0 -0.0550756278
C  C264  1  0.05700000  0.44300000  0.85340000  1.0 -0.0543088274
C  C265  1  0.14322000  0.41329000  0.30470000  1.0 -0.0179884889
C  C266  1  0.85678000  0.58671000  0.30470000  1.0 -0.0179884889
C  C267  1  0.41329000  0.85678000  0.30470000  1.0 -0.0179884889
C  C268  1  0.58671000  0.14322000  0.30470000  1.0 -0.0179884889
C  C269  1  0.64322000  0.08671000  0.69530000  1.0 -0.0179884889
C  C270  1  0.35678000  0.91329000  0.69530000  1.0 -0.0179884889
C  C271  1  0.91329000  0.64322000  0.69530000  1.0 -0.0179884889
C  C272  1  0.08671000  0.35678000  0.69530000  1.0 -0.0179884889
C  C273  1  0.85678000  0.58671000  0.69530000  1.0 -0.0179884889
C  C274  1  0.14322000  0.41329000  0.69530000  1.0 -0.0179884889
C  C275  1  0.58671000  0.14322000  0.69530000  1.0 -0.0179884889
C  C276  1  0.41329000  0.85678000  0.69530000  1.0 -0.0179884889
C  C277  1  0.35678000  0.91329000  0.30470000  1.0 -0.0179884889
C  C278  1  0.64322000  0.08671000  0.30470000  1.0 -0.0179884889
C  C279  1  0.08671000  0.35678000  0.30470000  1.0 -0.0179884889
C  C280  1  0.91329000  0.64322000  0.30470000  1.0 -0.0179884889
C  C281  1  0.18467000  0.43263000  0.33720000  1.0 0.5376091589
C  C282  1  0.81533000  0.56737000  0.33720000  1.0 0.5376091589
C  C283  1  0.43263000  0.81533000  0.33720000  1.0 0.5376091589
C  C284  1  0.56737000  0.18467000  0.33720000  1.0 0.5376091589
C  C285  1  0.68467000  0.06737000  0.66280000  1.0 0.5376091589
C  C286  1  0.31533000  0.93263000  0.66280000  1.0 0.5376091589
C  C287  1  0.93263000  0.68467000  0.66280000  1.0 0.5376091589
C  C288  1  0.06737000  0.31533000  0.66280000  1.0 0.5376091589
C  C289  1  0.81533000  0.56737000  0.66280000  1.0 0.5376091589
C  C290  1  0.18467000  0.43263000  0.66280000  1.0 0.5376091589
C  C291  1  0.56737000  0.18467000  0.66280000  1.0 0.5376091589
C  C292  1  0.43263000  0.81533000  0.66280000  1.0 0.5376091589
C  C293  1  0.31533000  0.93263000  0.33720000  1.0 0.5376091589
C  C294  1  0.68467000  0.06737000  0.33720000  1.0 0.5376091589
C  C295  1  0.06737000  0.31533000  0.33720000  1.0 0.5376091589
C  C296  1  0.93263000  0.68467000  0.33720000  1.0 0.5376091589
C  C297  1  0.09913000  0.40087000  0.04170000  1.0 -0.1985243122
C  C298  1  0.90087000  0.59913000  0.04170000  1.0 -0.1985243122
C  C299  1  0.40087000  0.90087000  0.04170000  1.0 -0.1985243122
C  C300  1  0.59913000  0.09913000  0.04170000  1.0 -0.1985243122
C  C301  1  0.59913000  0.09913000  0.95830000  1.0 -0.1985243122
C  C302  1  0.40087000  0.90087000  0.95830000  1.0 -0.1985243122
C  C303  1  0.90087000  0.59913000  0.95830000  1.0 -0.1985243122
C  C304  1  0.09913000  0.40087000  0.95830000  1.0 -0.1985243122
C  C305  1  0.01585000  0.48415000  0.25580000  1.0 -0.1872432056
C  C306  1  0.98415000  0.51585000  0.25580000  1.0 -0.1872432056
C  C307  1  0.48415000  0.98415000  0.25580000  1.0 -0.1872432056
C  C308  1  0.51585000  0.01585000  0.25580000  1.0 -0.1872432056
C  C309  1  0.51585000  0.01585000  0.74420000  1.0 -0.1872432056
C  C310  1  0.48415000  0.98415000  0.74420000  1.0 -0.1872432056
C  C311  1  0.98415000  0.51585000  0.74420000  1.0 -0.1872432056
C  C312  1  0.01585000  0.48415000  0.74420000  1.0 -0.1872432056
C  C313  1  0.12481000  0.37519000  0.33670000  1.0 -0.1031261078
C  C314  1  0.87519000  0.62481000  0.33670000  1.0 -0.1031261078
C  C315  1  0.37519000  0.87519000  0.33670000  1.0 -0.1031261078
C  C316  1  0.62481000  0.12481000  0.33670000  1.0 -0.1031261078
C  C317  1  0.62481000  0.12481000  0.66330000  1.0 -0.1031261078
C  C318  1  0.37519000  0.87519000  0.66330000  1.0 -0.1031261078
C  C319  1  0.87519000  0.62481000  0.66330000  1.0 -0.1031261078
C  C320  1  0.12481000  0.37519000  0.66330000  1.0 -0.1031261078
N  N1  1  0.31228000  0.28382000  0.00000000  1.0 -0.3291457604
N  N2  1  0.68772000  0.71618000  0.00000000  1.0 -0.3291457604
N  N3  1  0.28382000  0.68772000  0.00000000  1.0 -0.3291457604
N  N4  1  0.71618000  0.31228000  0.00000000  1.0 -0.3291457604
N  N5  1  0.81228000  0.21618000  0.00000000  1.0 -0.3291457604
N  N6  1  0.18772000  0.78382000  0.00000000  1.0 -0.3291457604
N  N7  1  0.78382000  0.81228000  0.00000000  1.0 -0.3291457604
N  N8  1  0.21618000  0.18772000  0.00000000  1.0 -0.3291457604
N  N9  1  0.26524000  0.23476000  0.12270000  1.0 -0.3465330797
N  N10  1  0.73476000  0.76524000  0.12270000  1.0 -0.3465330797
N  N11  1  0.23476000  0.73476000  0.12270000  1.0 -0.3465330797
N  N12  1  0.76524000  0.26524000  0.12270000  1.0 -0.3465330797
N  N13  1  0.76524000  0.26524000  0.87730000  1.0 -0.3465330797
N  N14  1  0.23476000  0.73476000  0.87730000  1.0 -0.3465330797
N  N15  1  0.73476000  0.76524000  0.87730000  1.0 -0.3465330797
N  N16  1  0.26524000  0.23476000  0.87730000  1.0 -0.3465330797
N  N17  1  0.00000000  0.50000000  0.12380000  1.0 -0.3560388545
N  N18  1  0.50000000  0.00000000  0.12380000  1.0 -0.3560388545
N  N19  1  0.50000000  0.00000000  0.87620000  1.0 -0.3560388545
N  N20  1  0.00000000  0.50000000  0.87620000  1.0 -0.3560388545
N  N21  1  0.04828000  0.45172000  0.00000000  1.0 -0.3356435682
N  N22  1  0.95172000  0.54828000  0.00000000  1.0 -0.3356435682
N  N23  1  0.45172000  0.95172000  0.00000000  1.0 -0.3356435682
N  N24  1  0.54828000  0.04828000  0.00000000  1.0 -0.3356435682
O  O1  1  0.32240000  0.17760000  0.00000000  1.0 -0.7164674412
O  O2  1  0.67760000  0.82240000  0.00000000  1.0 -0.7130777846
O  O3  1  0.17760000  0.67760000  0.00000000  1.0 -0.7130777846
O  O4  1  0.82240000  0.32240000  0.00000000  1.0 -0.7164674412
O  O5  1  0.27844000  0.45737000  0.50000000  1.0 -0.5866903598
O  O6  1  0.72156000  0.54263000  0.50000000  1.0 -0.5866903598
O  O7  1  0.45737000  0.72156000  0.50000000  1.0 -0.5866903598
O  O8  1  0.54263000  0.27844000  0.50000000  1.0 -0.5866903598
O  O9  1  0.77844000  0.04263000  0.50000000  1.0 -0.5866903598
O  O10  1  0.22156000  0.95737000  0.50000000  1.0 -0.5866903598
O  O11  1  0.95737000  0.77844000  0.50000000  1.0 -0.5866903598
O  O12  1  0.04263000  0.22156000  0.50000000  1.0 -0.5866903598
O  O13  1  0.46944000  0.31324000  0.39779000  1.0 -0.6011602796
O  O14  1  0.53056000  0.68676000  0.39779000  1.0 -0.6011602796
O  O15  1  0.31324000  0.53056000  0.39779000  1.0 -0.6011602796
O  O16  1  0.68676000  0.46944000  0.39779000  1.0 -0.6011602796
O  O17  1  0.96944000  0.18676000  0.60221000  1.0 -0.6011602796
O  O18  1  0.03056000  0.81324000  0.60221000  1.0 -0.6011602796
O  O19  1  0.81324000  0.96944000  0.60221000  1.0 -0.6011602796
O  O20  1  0.18676000  0.03056000  0.60221000  1.0 -0.6011602796
O  O21  1  0.53056000  0.68676000  0.60221000  1.0 -0.6011602796
O  O22  1  0.46944000  0.31324000  0.60221000  1.0 -0.6011602796
O  O23  1  0.68676000  0.46944000  0.60221000  1.0 -0.6011602796
O  O24  1  0.31324000  0.53056000  0.60221000  1.0 -0.6011602796
O  O25  1  0.03056000  0.81324000  0.39779000  1.0 -0.6011602796
O  O26  1  0.96944000  0.18676000  0.39779000  1.0 -0.6011602796
O  O27  1  0.18676000  0.03056000  0.39779000  1.0 -0.6011602796
O  O28  1  0.81324000  0.96944000  0.39779000  1.0 -0.6011602796
O  O29  1  0.47218000  0.27085000  0.29050000  1.0 -0.4906730811
O  O30  1  0.52782000  0.72915000  0.29050000  1.0 -0.4906730811
O  O31  1  0.27085000  0.52782000  0.29050000  1.0 -0.4906730811
O  O32  1  0.72915000  0.47218000  0.29050000  1.0 -0.4906730811
O  O33  1  0.97218000  0.22915000  0.70950000  1.0 -0.4906730811
O  O34  1  0.02782000  0.77085000  0.70950000  1.0 -0.4906730811
O  O35  1  0.77085000  0.97218000  0.70950000  1.0 -0.4906730811
O  O36  1  0.22915000  0.02782000  0.70950000  1.0 -0.4906730811
O  O37  1  0.52782000  0.72915000  0.70950000  1.0 -0.4906730811
O  O38  1  0.47218000  0.27085000  0.70950000  1.0 -0.4906730811
O  O39  1  0.72915000  0.47218000  0.70950000  1.0 -0.4906730811
O  O40  1  0.27085000  0.52782000  0.70950000  1.0 -0.4906730811
O  O41  1  0.02782000  0.77085000  0.29050000  1.0 -0.4906730811
O  O42  1  0.97218000  0.22915000  0.29050000  1.0 -0.4906730811
O  O43  1  0.22915000  0.02782000  0.29050000  1.0 -0.4906730811
O  O44  1  0.77085000  0.97218000  0.29050000  1.0 -0.4906730811
O  O45  1  0.29697000  0.42909000  0.32285000  1.0 -0.5637291084
O  O46  1  0.70303000  0.57091000  0.32285000  1.0 -0.5637291084
O  O47  1  0.42909000  0.70303000  0.32285000  1.0 -0.5637291084
O  O48  1  0.57091000  0.29697000  0.32285000  1.0 -0.5637291084
O  O49  1  0.79697000  0.07091000  0.67715000  1.0 -0.5637291084
O  O50  1  0.20303000  0.92909000  0.67715000  1.0 -0.5637291084
O  O51  1  0.92909000  0.79697000  0.67715000  1.0 -0.5637291084
O  O52  1  0.07091000  0.20303000  0.67715000  1.0 -0.5637291084
O  O53  1  0.70303000  0.57091000  0.67715000  1.0 -0.5637291084
O  O54  1  0.29697000  0.42909000  0.67715000  1.0 -0.5637291084
O  O55  1  0.57091000  0.29697000  0.67715000  1.0 -0.5637291084
O  O56  1  0.42909000  0.70303000  0.67715000  1.0 -0.5637291084
O  O57  1  0.20303000  0.92909000  0.32285000  1.0 -0.5637291084
O  O58  1  0.79697000  0.07091000  0.32285000  1.0 -0.5637291084
O  O59  1  0.07091000  0.20303000  0.32285000  1.0 -0.5637291084
O  O60  1  0.92909000  0.79697000  0.32285000  1.0 -0.5637291084
O  O61  1  0.36018000  0.44016000  0.39265000  1.0 -0.6011602796
O  O62  1  0.63982000  0.55984000  0.39265000  1.0 -0.6011602796
O  O63  1  0.44016000  0.63982000  0.39265000  1.0 -0.6011602796
O  O64  1  0.55984000  0.36018000  0.39265000  1.0 -0.6011602796
O  O65  1  0.86018000  0.05984000  0.60735000  1.0 -0.6011602796
O  O66  1  0.13982000  0.94016000  0.60735000  1.0 -0.6011602796
O  O67  1  0.94016000  0.86018000  0.60735000  1.0 -0.6011602796
O  O68  1  0.05984000  0.13982000  0.60735000  1.0 -0.6011602796
O  O69  1  0.63982000  0.55984000  0.60735000  1.0 -0.6011602796
O  O70  1  0.36018000  0.44016000  0.60735000  1.0 -0.6011602796
O  O71  1  0.55984000  0.36018000  0.60735000  1.0 -0.6011602796
O  O72  1  0.44016000  0.63982000  0.60735000  1.0 -0.6011602796
O  O73  1  0.13982000  0.94016000  0.39265000  1.0 -0.6011602796
O  O74  1  0.86018000  0.05984000  0.39265000  1.0 -0.6011602796
O  O75  1  0.05984000  0.13982000  0.39265000  1.0 -0.6011602796
O  O76  1  0.94016000  0.86018000  0.39265000  1.0 -0.6011602796
O  O77  1  0.21150000  0.52540000  0.43200000  1.0 -0.4796633917
O  O78  1  0.78850000  0.47460000  0.43200000  1.0 -0.4796633917
O  O79  1  0.52540000  0.78850000  0.43200000  1.0 -0.4796633917
O  O80  1  0.47460000  0.21150000  0.43200000  1.0 -0.4796633917
O  O81  1  0.71150000  0.97460000  0.56800000  1.0 -0.4796633917
O  O82  1  0.28850000  0.02540000  0.56800000  1.0 -0.4796633917
O  O83  1  0.02540000  0.71150000  0.56800000  1.0 -0.4796633917
O  O84  1  0.97460000  0.28850000  0.56800000  1.0 -0.4796633917
O  O85  1  0.78850000  0.47460000  0.56800000  1.0 -0.4796633917
O  O86  1  0.21150000  0.52540000  0.56800000  1.0 -0.4796633917
O  O87  1  0.47460000  0.21150000  0.56800000  1.0 -0.4796633917
O  O88  1  0.52540000  0.78850000  0.56800000  1.0 -0.4796633917
O  O89  1  0.28850000  0.02540000  0.43200000  1.0 -0.4796633917
O  O90  1  0.71150000  0.97460000  0.43200000  1.0 -0.4796633917
O  O91  1  0.97460000  0.28850000  0.43200000  1.0 -0.4796633917
O  O92  1  0.02540000  0.71150000  0.43200000  1.0 -0.4796633917
O  O93  1  0.20349000  0.46367000  0.29700000  1.0 -0.5091868202
O  O94  1  0.79651000  0.53633000  0.29700000  1.0 -0.5091868202
O  O95  1  0.46367000  0.79651000  0.29700000  1.0 -0.5091868202
O  O96  1  0.53633000  0.20349000  0.29700000  1.0 -0.5091868202
O  O97  1  0.70349000  0.03633000  0.70300000  1.0 -0.5091868202
O  O98  1  0.29651000  0.96367000  0.70300000  1.0 -0.5091868202
O  O99  1  0.96367000  0.70349000  0.70300000  1.0 -0.5091868202
O  O100  1  0.03633000  0.29651000  0.70300000  1.0 -0.5091868202
O  O101  1  0.79651000  0.53633000  0.70300000  1.0 -0.5091868202
O  O102  1  0.20349000  0.46367000  0.70300000  1.0 -0.5091868202
O  O103  1  0.53633000  0.20349000  0.70300000  1.0 -0.5091868202
O  O104  1  0.46367000  0.79651000  0.70300000  1.0 -0.5091868202
O  O105  1  0.29651000  0.96367000  0.29700000  1.0 -0.5091868202
O  O106  1  0.70349000  0.03633000  0.29700000  1.0 -0.5091868202
O  O107  1  0.03633000  0.29651000  0.29700000  1.0 -0.5091868202
O  O108  1  0.96367000  0.70349000  0.29700000  1.0 -0.5091868202
O  O109  1  0.20144000  0.41955000  0.40190000  1.0 -0.5091868202
O  O110  1  0.79856000  0.58045000  0.40190000  1.0 -0.5157306055
O  O111  1  0.41955000  0.79856000  0.40190000  1.0 -0.5091868202
O  O112  1  0.58045000  0.20144000  0.40190000  1.0 -0.5091868202
O  O113  1  0.70144000  0.08045000  0.59810000  1.0 -0.5157306055
O  O114  1  0.29856000  0.91955000  0.59810000  1.0 -0.5157306055
O  O115  1  0.91955000  0.70144000  0.59810000  1.0 -0.5157306055
O  O116  1  0.08045000  0.29856000  0.59810000  1.0 -0.5157306055
O  O117  1  0.79856000  0.58045000  0.59810000  1.0 -0.5157306055
O  O118  1  0.20144000  0.41955000  0.59810000  1.0 -0.5091868202
O  O119  1  0.58045000  0.20144000  0.59810000  1.0 -0.5091868202
O  O120  1  0.41955000  0.79856000  0.59810000  1.0 -0.5157306055
O  O121  1  0.29856000  0.91955000  0.40190000  1.0 -0.5091868202
O  O122  1  0.70144000  0.08045000  0.40190000  1.0 -0.5091868202
O  O123  1  0.08045000  0.29856000  0.40190000  1.0 -0.5091868202
O  O124  1  0.91955000  0.70144000  0.40190000  1.0 -0.5157306055
O  O125  1  0.05990000  0.55990000  0.00000000  1.0 -0.7283481221
O  O126  1  0.94010000  0.44010000  0.00000000  1.0 -0.7283481221
O  O127  1  0.55990000  0.94010000  0.00000000  1.0 -0.7283481221
O  O128  1  0.44010000  0.05990000  0.00000000  1.0 -0.7283481221
O  O129  1  0.42090000  0.52450000  0.50000000  1.0 -0.5293631415
O  O130  1  0.57910000  0.47550000  0.50000000  1.0 -0.5293631415
O  O131  1  0.52450000  0.57910000  0.50000000  1.0 -0.5293631415
O  O132  1  0.47550000  0.42090000  0.50000000  1.0 -0.5293631415
O  O133  1  0.92090000  0.97550000  0.50000000  1.0 -0.5293631415
O  O134  1  0.07910000  0.02450000  0.50000000  1.0 -0.5293631415
O  O135  1  0.02450000  0.92090000  0.50000000  1.0 -0.5293631415
O  O136  1  0.97550000  0.07910000  0.50000000  1.0 -0.5293631415
O  O137  1  0.20510000  0.29490000  0.00000000  1.0 -0.7130777846
O  O138  1  0.79490000  0.70510000  0.00000000  1.0 -0.7130777846
O  O139  1  0.29490000  0.79490000  0.00000000  1.0 -0.7130777846
O  O140  1  0.70510000  0.20510000  0.00000000  1.0 -0.7130777846
