# DDEC6 charges by PACMAN v1.1 (https://github.com/mtap-research/PACMAN-charge/)
data_LADKIN_FSR_pacman
_symmetry_space_group_name_H-M   'P 1'
_cell_length_a   7.82240000
_cell_length_b   10.62570000
_cell_length_c   13.15570000
_cell_angle_alpha   94.72000000
_cell_angle_beta   92.33600000
_cell_angle_gamma   110.18100000
_symmetry_Int_Tables_number   1
_chemical_formula_structural   In5P12H14(CO8)4
_chemical_formula_sum   'In5 P12 H14 C4 O32'
_cell_volume   1020.07103710
_cell_formula_units_Z   1
loop_
 _symmetry_equiv_pos_site_id
 _symmetry_equiv_pos_as_xyz
  1  'x, y, z'
loop_
 _atom_site_type_symbol
 _atom_site_label
 _atom_site_symmetry_multiplicity
 _atom_site_fract_x
 _atom_site_fract_y
 _atom_site_fract_z
 _atom_site_occupancy
 _atom_site_charge
In  In1  1  0.00000000  0.00000000  0.00000000  1.0 1.3650093491
In  In2  1  0.47591000  0.75318000  0.74624000  1.0 1.460910421
In  In3  1  0.52409000  0.24682000  0.25376000  1.0 1.460910421
In  In4  1  0.51272000  0.77883000  0.24906000  1.0 1.4787175471
In  In5  1  0.48728000  0.22117000  0.75094000  1.0 1.4787175471
P  P1  1  0.80590000  0.07170000  0.78320000  1.0 1.0834027941
P  P2  1  0.19410000  0.92830000  0.21680000  1.0 1.0834027941
P  P3  1  0.84570000  0.09900000  0.22430000  1.0 0.4135307784
P  P4  1  0.15430000  0.90100000  0.77570000  1.0 0.4162655885
P  P5  1  0.57700000  0.73650000  0.49970000  1.0 1.0555358345
P  P6  1  0.42300000  0.26350000  0.50030000  1.0 1.0555358345
P  P7  1  0.57530000  0.80800000  0.00270000  1.0 0.3692175463
P  P8  1  0.42470000  0.19200000  0.99730000  1.0 0.3760835642
P  P9  1  0.75380000  0.07060000  0.17910000  1.0 0.3600696737
P  P10  1  0.24620000  0.92940000  0.82090000  1.0 0.3600696737
P  P11  1  0.58600000  0.72830000  0.99450000  1.0 0.404191416
P  P12  1  0.41400000  0.27170000  0.00550000  1.0 0.404191416
H  H1  1  0.93600000  0.09200000  0.74400000  1.0 -0.0322703009
H  H2  1  0.06400000  0.90800000  0.25600000  1.0 -0.0322703009
H  H3  1  0.95680000  0.12170000  0.26690000  1.0 0.0570092017
H  H4  1  0.04320000  0.87830000  0.73310000  1.0 0.0570092017
H  H5  1  0.70000000  0.80400000  0.53300000  1.0 0.0204409521
H  H6  1  0.30000000  0.19600000  0.46700000  1.0 0.0204409521
H  H7  1  0.57540000  0.89840000  0.01470000  1.0 0.0276622998
H  H8  1  0.42460000  0.10160000  0.98530000  1.0 0.0276622998
H  H9  1  0.61390000  0.56470000  0.51200000  1.0 0.3692175463
H  H10  1  0.38610000  0.43530000  0.48800000  1.0 0.3692175463
H  H11  1  0.64420000  0.04690000  0.13490000  1.0 0.0204409521
H  H12  1  0.35580000  0.95310000  0.86510000  1.0 0.0204409521
H  H13  1  0.58640000  0.63810000  0.98180000  1.0 0.0570092017
H  H14  1  0.41360000  0.36190000  0.01820000  1.0 0.0570092017
C  C1  1  0.62780000  0.54250000  0.25690000  1.0 0.4757700229
C  C2  1  0.37220000  0.45750000  0.74310000  1.0 0.4757700229
C  C3  1  0.41340000  0.48490000  0.25730000  1.0 0.4622124846
C  C4  1  0.58660000  0.51510000  0.74270000  1.0 0.4622124846
O  O1  1  0.85740000  0.08350000  0.89550000  1.0 -0.7112330979
O  O2  1  0.14260000  0.91650000  0.10450000  1.0 -0.7112330979
O  O3  1  0.77550000  0.81470000  0.00650000  1.0 -0.5018380667
O  O4  1  0.22450000  0.18530000  0.99350000  1.0 -0.5018380667
O  O5  1  0.47480000  0.72780000  0.08760000  1.0 -0.5018380667
O  O6  1  0.52520000  0.27220000  0.91240000  1.0 -0.5018380667
O  O7  1  0.73130000  0.18180000  0.75660000  1.0 -0.6757300084
O  O8  1  0.26870000  0.81820000  0.24340000  1.0 -0.6757300084
O  O9  1  0.72640000  0.95910000  0.24810000  1.0 -0.5018380667
O  O10  1  0.27360000  0.04090000  0.75190000  1.0 -0.5018380667
O  O11  1  0.69920000  0.66510000  0.25190000  1.0 -0.4619957802
O  O12  1  0.30080000  0.33490000  0.74810000  1.0 -0.4619957802
O  O13  1  0.53430000  0.80850000  0.41140000  1.0 -0.6714094465
O  O14  1  0.46570000  0.19150000  0.58860000  1.0 -0.6714094465
O  O15  1  0.44030000  0.72260000  0.58190000  1.0 -0.6872496193
O  O16  1  0.55970000  0.27740000  0.41810000  1.0 -0.6872496193
O  O17  1  0.68720000  0.93540000  0.73940000  1.0 -0.7235242908
O  O18  1  0.31280000  0.06460000  0.26060000  1.0 -0.7235242908
O  O19  1  0.33780000  0.36250000  0.26000000  1.0 -0.4619957802
O  O20  1  0.66220000  0.63750000  0.74000000  1.0 -0.4619957802
O  O21  1  0.47060000  0.74700000  0.90470000  1.0 -0.5125649159
O  O22  1  0.52940000  0.25300000  0.09530000  1.0 -0.5125649159
O  O23  1  0.70600000  0.46040000  0.26140000  1.0 -0.420179162
O  O24  1  0.29400000  0.53960000  0.73860000  1.0 -0.420179162
O  O25  1  0.32750000  0.56920000  0.25460000  1.0 -0.4619957802
O  O26  1  0.67250000  0.43080000  0.74540000  1.0 -0.4619957802
O  O27  1  0.58670000  0.59880000  0.46310000  1.0 -0.5406863873
O  O28  1  0.41330000  0.40120000  0.53690000  1.0 -0.5406863873
O  O29  1  0.90110000  0.10360000  0.11740000  1.0 -0.4619957802
O  O30  1  0.09890000  0.89640000  0.88260000  1.0 -0.4619957802
O  O31  1  0.76610000  0.20420000  0.25540000  1.0 -0.4742992109
O  O32  1  0.23390000  0.79580000  0.74460000  1.0 -0.4742992109
