# DDEC6 charges by PACMAN v1.1 (https://github.com/mtap-research/PACMAN-charge/)
data_LADQUF_FSR_pacman
_symmetry_space_group_name_H-M   'P 1'
_cell_length_a   11.46460000
_cell_length_b   13.62880000
_cell_length_c   23.79780000
_cell_angle_alpha   92.92900000
_cell_angle_beta   103.54800000
_cell_angle_gamma   112.49400000
_symmetry_Int_Tables_number   1
_chemical_formula_structural   Tb2H45C55NO16
_chemical_formula_sum   'Tb4 H90 C110 N2 O32'
_cell_volume   3298.64056552
_cell_formula_units_Z   2
loop_
 _symmetry_equiv_pos_site_id
 _symmetry_equiv_pos_as_xyz
  1  'x, y, z'
loop_
 _atom_site_type_symbol
 _atom_site_label
 _atom_site_symmetry_multiplicity
 _atom_site_fract_x
 _atom_site_fract_y
 _atom_site_fract_z
 _atom_site_occupancy
 _atom_site_charge
Tb  Tb1  1  0.37832000  0.30086000  0.51767000  1.0 2.0180930397
Tb  Tb2  1  0.62168000  0.69914000  0.48233000  1.0 2.0180930397
Tb  Tb3  1  0.64148000  0.59472000  0.96163000  1.0 2.0010520718
Tb  Tb4  1  0.35852000  0.40528000  0.03837000  1.0 2.0010520718
H  H1  1  0.63240000  0.33160000  0.13240000  1.0 0.1332704341
H  H2  1  0.36760000  0.66840000  0.86760000  1.0 0.1332704341
H  H3  1  0.75340000  0.28610000  0.21180000  1.0 0.1332704341
H  H4  1  0.24660000  0.71390000  0.78820000  1.0 0.1332704341
H  H5  1  0.93400000  0.27370000  0.30480000  1.0 0.1332704341
H  H6  1  0.06600000  0.72630000  0.69520000  1.0 0.1332704341
H  H7  1  0.10910000  0.30800000  0.38570000  1.0 0.1246504984
H  H8  1  0.89090000  0.69200000  0.61430000  1.0 0.1246504984
H  H9  1  0.32120000  0.58080000  0.33420000  1.0 0.1400387618
H  H10  1  0.67880000  0.41920000  0.66580000  1.0 0.1400387618
H  H11  1  0.21630000  0.51280000  0.18430000  1.0 0.1400387618
H  H12  1  0.78370000  0.48720000  0.81570000  1.0 0.1400387618
H  H13  1  0.31120000  0.62240000  0.22460000  1.0 0.1332704341
H  H14  1  0.68880000  0.37760000  0.77540000  1.0 0.1332704341
H  H15  1  0.20850000  0.62030000  0.16750000  1.0 0.1332704341
H  H16  1  0.79150000  0.37970000  0.83250000  1.0 0.1332704341
H  H17  1  0.12560000  0.72210000  0.22970000  1.0 0.1400387618
H  H18  1  0.87440000  0.27790000  0.77030000  1.0 0.1400387618
H  H19  1  0.23080000  0.72020000  0.28470000  1.0 0.1400387618
H  H20  1  0.76920000  0.27980000  0.71530000  1.0 0.1400387618
H  H21  1  0.08230000  0.67520000  0.28380000  1.0 0.1400387618
H  H22  1  0.91770000  0.32480000  0.71620000  1.0 0.1400387618
H  H23  1  0.95210000  0.59130000  0.13310000  1.0 0.1400387618
H  H24  1  0.04790000  0.40870000  0.86690000  1.0 0.1400387618
H  H25  1  0.49200000  0.63920000  0.17630000  1.0 0.1400387618
H  H26  1  0.50800000  0.36080000  0.82370000  1.0 0.1400387618
H  H27  1  0.60370000  0.72910000  0.27060000  1.0 0.1400387618
H  H28  1  0.39630000  0.27090000  0.72940000  1.0 0.1400387618
H  H29  1  0.77620000  0.85580000  0.37040000  1.0 0.1400387618
H  H30  1  0.22380000  0.14420000  0.62960000  1.0 0.1400387618
H  H31  1  0.94710000  0.98530000  0.44140000  1.0 0.1472906522
H  H32  1  0.05290000  0.01470000  0.55860000  1.0 0.1472906522
H  H33  1  0.13540000  0.10680000  0.32240000  1.0 0.1400387618
H  H34  1  0.86460000  0.89320000  0.67760000  1.0 0.1400387618
H  H35  1  0.05990000  0.87790000  0.23070000  1.0 0.1400387618
H  H36  1  0.94010000  0.12210000  0.76930000  1.0 0.1400387618
H  H37  1  0.13760000  0.99770000  0.22440000  1.0 0.1400387618
H  H38  1  0.86240000  0.00230000  0.77560000  1.0 0.1332704341
H  H39  1  0.03720000  0.91510000  0.16940000  1.0 0.1400387618
H  H40  1  0.96280000  0.08490000  0.83060000  1.0 0.1400387618
H  H41  1  0.92470000  0.04640000  0.15350000  1.0 0.1400387618
H  H42  1  0.07530000  0.95360000  0.84650000  1.0 0.1400387618
H  H43  1  0.03120000  0.12130000  0.20960000  1.0 0.1400387618
H  H44  1  0.96880000  0.87870000  0.79040000  1.0 0.1400387618
H  H45  1  0.88160000  0.08410000  0.20550000  1.0 0.1400387618
H  H46  1  0.11840000  0.91590000  0.79450000  1.0 0.1400387618
H  H47  1  0.77980000  0.83480000  0.11490000  1.0 0.1400387618
H  H48  1  0.22020000  0.16520000  0.88510000  1.0 0.1400387618
H  H49  1  0.53820000  0.01160000  0.55010000  1.0 0.1400387618
H  H50  1  0.46180000  0.98840000  0.44990000  1.0 0.1400387618
H  H51  1  0.58930000  0.88690000  0.60050000  1.0 0.1400387618
H  H52  1  0.41070000  0.11310000  0.39950000  1.0 0.1400387618
H  H53  1  0.62900000  0.75350000  0.67790000  1.0 0.1400387618
H  H54  1  0.37100000  0.24650000  0.32210000  1.0 0.1400387618
H  H55  1  0.65850000  0.66910000  0.75800000  1.0 0.1400387618
H  H56  1  0.34150000  0.33090000  0.24200000  1.0 0.1400387618
H  H57  1  0.56530000  0.86520000  0.85210000  1.0 0.1400387618
H  H58  1  0.43470000  0.13480000  0.14790000  1.0 0.1400387618
H  H59  1  0.62010000  0.06700000  0.84870000  1.0 0.1400387618
H  H60  1  0.37990000  0.93300000  0.15130000  1.0 0.1400387618
H  H61  1  0.58340000  0.14220000  0.80680000  1.0 0.1400387618
H  H62  1  0.41660000  0.85780000  0.19320000  1.0 0.1400387618
H  H63  1  0.69940000  0.11030000  0.80330000  1.0 0.1472906522
H  H64  1  0.30060000  0.88970000  0.19670000  1.0 0.1472906522
H  H65  1  0.31980000  0.88930000  0.74340000  1.0 0.1332704341
H  H66  1  0.68020000  0.11070000  0.25660000  1.0 0.1332704341
H  H67  1  0.34910000  0.01030000  0.76180000  1.0 0.1400387618
H  H68  1  0.65090000  0.98970000  0.23820000  1.0 0.1400387618
H  H69  1  0.37640000  0.94100000  0.80970000  1.0 0.1400387618
H  H70  1  0.62360000  0.05900000  0.19030000  1.0 0.1400387618
H  H71  1  0.47020000  0.13120000  0.69070000  1.0 0.1332704341
H  H72  1  0.52980000  0.86880000  0.30930000  1.0 0.1332704341
H  H73  1  0.02590000  0.37840000  0.53750000  1.0 0.1584429941
H  H74  1  0.97410000  0.62160000  0.46250000  1.0 0.1584429941
H  H75  1  0.12550000  0.42190000  0.50010000  1.0 0.1697498015
H  H76  1  0.87450000  0.57810000  0.49990000  1.0 0.1697498015
H  H77  1  0.11260000  0.50190000  0.54560000  1.0 0.1332704341
H  H78  1  0.88740000  0.49810000  0.45440000  1.0 0.1332704341
H  H79  1  0.23980000  0.61640000  0.63570000  1.0 0.1400387618
H  H80  1  0.76020000  0.38360000  0.36430000  1.0 0.1400387618
H  H81  1  0.22380000  0.56350000  0.69200000  1.0 0.1332704341
H  H82  1  0.77620000  0.43650000  0.30800000  1.0 0.1332704341
H  H83  1  0.10680000  0.52210000  0.63470000  1.0 0.1332704341
H  H84  1  0.89320000  0.47790000  0.36530000  1.0 0.1332704341
H  H85  1  0.32710000  0.39930000  0.69510000  1.0 0.1400387618
H  H86  1  0.67290000  0.60070000  0.30490000  1.0 0.1400387618
H  H87  1  0.40480000  0.52450000  0.70850000  1.0 0.1400387618
H  H88  1  0.59520000  0.47550000  0.29150000  1.0 0.1400387618
H  H89  1  0.42810000  0.45680000  0.66040000  1.0 0.1584429941
H  H90  1  0.57190000  0.54320000  0.33960000  1.0 0.1584429941
C  C1  1  0.70400000  0.49410000  0.07300000  1.0 0.6432569525
C  C2  1  0.29600000  0.50590000  0.92700000  1.0 0.6432569525
C  C3  1  0.78200000  0.46520000  0.12570000  1.0 -0.0111810044
C  C4  1  0.21800000  0.53480000  0.87430000  1.0 -0.0111810044
C  C5  1  0.72120000  0.37470000  0.14870000  1.0 -0.0986482506
C  C6  1  0.27880000  0.62530000  0.85130000  1.0 -0.0986482506
C  C7  1  0.79300000  0.34800000  0.19650000  1.0 -0.1389819347
C  C8  1  0.20700000  0.65200000  0.80350000  1.0 -0.1389819347
C  C9  1  0.92450000  0.41480000  0.22110000  1.0 0.0188168261
C  C10  1  0.07550000  0.58520000  0.77890000  1.0 0.0188168261
C  C11  1  0.01990000  0.41020000  0.27280000  1.0 0.0117249855
C  C12  1  0.98010000  0.58980000  0.72720000  1.0 0.0117249855
C  C13  1  0.01020000  0.33610000  0.31130000  1.0 -0.1389819347
C  C14  1  0.98980000  0.66390000  0.68870000  1.0 -0.1389819347
C  C15  1  0.11530000  0.35650000  0.35920000  1.0 -0.0986482506
C  C16  1  0.88470000  0.64350000  0.64080000  1.0 -0.0986482506
C  C17  1  0.23100000  0.44890000  0.36870000  1.0 -0.0300816461
C  C18  1  0.76900000  0.55110000  0.63130000  1.0 -0.0300816461
C  C19  1  0.34250000  0.47190000  0.42160000  1.0 0.6117946408
C  C20  1  0.65750000  0.52810000  0.57840000  1.0 0.6117946408
C  C21  1  0.24300000  0.52080000  0.32900000  1.0 -0.1319880881
C  C22  1  0.75700000  0.47920000  0.67100000  1.0 -0.1319880881
C  C23  1  0.13640000  0.50140000  0.28160000  1.0 0.0188168261
C  C24  1  0.86360000  0.49860000  0.71840000  1.0 0.0188168261
C  C25  1  0.12420000  0.57100000  0.23410000  1.0 0.1813047331
C  C26  1  0.87580000  0.42900000  0.76590000  1.0 0.1813047331
C  C27  1  0.22430000  0.58250000  0.19940000  1.0 -0.4521081992
C  C28  1  0.77570000  0.41750000  0.80060000  1.0 -0.4521081992
C  C29  1  0.14230000  0.68250000  0.26050000  1.0 -0.4521081992
C  C30  1  0.85770000  0.31750000  0.73950000  1.0 -0.4521081992
C  C31  1  0.98350000  0.50760000  0.19820000  1.0 0.0188168261
C  C32  1  0.01650000  0.49240000  0.80180000  1.0 0.0188168261
C  C33  1  0.91220000  0.53120000  0.14950000  1.0 -0.1319880881
C  C34  1  0.08780000  0.46880000  0.85050000  1.0 -0.1319880881
C  C35  1  0.55590000  0.66160000  0.07710000  1.0 0.6614639065
C  C36  1  0.44410000  0.33840000  0.92290000  1.0 0.6614639065
C  C37  1  0.62480000  0.72440000  0.13750000  1.0 -0.0300816461
C  C38  1  0.37520000  0.27560000  0.86250000  1.0 -0.0300816461
C  C39  1  0.57360000  0.69620000  0.18320000  1.0 -0.0986482506
C  C40  1  0.42640000  0.30380000  0.81680000  1.0 -0.0986482506
C  C41  1  0.63950000  0.74990000  0.23970000  1.0 -0.1319880881
C  C42  1  0.36050000  0.25010000  0.76030000  1.0 -0.1319880881
C  C43  1  0.76100000  0.83610000  0.24900000  1.0 0.0188168261
C  C44  1  0.23900000  0.16390000  0.75100000  1.0 0.0188168261
C  C45  1  0.85220000  0.90730000  0.30270000  1.0 0.0188168261
C  C46  1  0.14780000  0.09270000  0.69730000  1.0 0.0188168261
C  C47  1  0.84690000  0.90650000  0.36060000  1.0 -0.1168244355
C  C48  1  0.15310000  0.09350000  0.63940000  1.0 -0.1168244355
C  C49  1  0.94980000  0.98330000  0.40260000  1.0 -0.0881017879
C  C50  1  0.05020000  0.01670000  0.59740000  1.0 -0.0881017879
C  C51  1  0.05770000  0.05800000  0.38910000  1.0 -0.0111810044
C  C52  1  0.94230000  0.94200000  0.61090000  1.0 -0.0111810044
C  C53  1  0.17130000  0.14030000  0.43630000  1.0 0.5534987948
C  C54  1  0.82870000  0.85970000  0.56370000  1.0 0.5534987948
C  C55  1  0.06330000  0.05710000  0.33170000  1.0 -0.1389819347
C  C56  1  0.93670000  0.94290000  0.66830000  1.0 -0.1389819347
C  C57  1  0.96090000  0.98170000  0.28870000  1.0 0.0188168261
C  C58  1  0.03910000  0.01830000  0.71130000  1.0 0.0188168261
C  C59  1  0.94550000  0.96460000  0.22300000  1.0 0.1813047331
C  C60  1  0.05450000  0.03540000  0.77700000  1.0 0.1813047331
C  C61  1  0.05530000  0.93620000  0.21070000  1.0 -0.4521081992
C  C62  1  0.94470000  0.06380000  0.78930000  1.0 -0.4521081992
C  C63  1  0.94600000  0.06330000  0.19530000  1.0 -0.4521081992
C  C64  1  0.05400000  0.93670000  0.80470000  1.0 -0.4521081992
C  C65  1  0.81230000  0.86880000  0.20250000  1.0 0.0188168261
C  C66  1  0.18770000  0.13120000  0.79750000  1.0 0.0188168261
C  C67  1  0.74560000  0.81350000  0.14620000  1.0 -0.1389819347
C  C68  1  0.25440000  0.18650000  0.85380000  1.0 -0.1389819347
C  C69  1  0.46320000  0.16400000  0.58190000  1.0 0.5534987948
C  C70  1  0.53680000  0.83600000  0.41810000  1.0 0.5534987948
C  C71  1  0.49840000  0.08340000  0.61520000  1.0 -0.0111810044
C  C72  1  0.50160000  0.91660000  0.38480000  1.0 -0.0111810044
C  C73  1  0.53450000  0.00990000  0.58870000  1.0 -0.0881017879
C  C74  1  0.46550000  0.99010000  0.41130000  1.0 -0.0881017879
C  C75  1  0.56470000  0.93520000  0.61850000  1.0 -0.1168244355
C  C76  1  0.43530000  0.06480000  0.38150000  1.0 -0.1168244355
C  C77  1  0.55790000  0.93280000  0.67610000  1.0 0.0188168261
C  C78  1  0.44210000  0.06720000  0.32390000  1.0 0.0188168261
C  C79  1  0.58130000  0.86270000  0.71780000  1.0 0.0188168261
C  C80  1  0.41870000  0.13730000  0.28220000  1.0 0.0188168261
C  C81  1  0.61660000  0.77640000  0.71270000  1.0 -0.1389819347
C  C82  1  0.38340000  0.22360000  0.28730000  1.0 -0.1389819347
C  C83  1  0.63280000  0.72570000  0.76090000  1.0 -0.0986482506
C  C84  1  0.36720000  0.27430000  0.23910000  1.0 -0.0986482506
C  C85  1  0.61310000  0.75410000  0.81220000  1.0 -0.0300816461
C  C86  1  0.38690000  0.24590000  0.18780000  1.0 -0.0300816461
C  C87  1  0.62740000  0.69930000  0.86440000  1.0 0.5551655791
C  C88  1  0.37260000  0.30070000  0.13560000  1.0 0.5551655791
C  C89  1  0.57710000  0.84270000  0.81710000  1.0 -0.1465074965
C  C90  1  0.42290000  0.15730000  0.18290000  1.0 -0.1465074965
C  C91  1  0.55980000  0.89490000  0.76980000  1.0 0.0117249855
C  C92  1  0.44020000  0.10510000  0.23020000  1.0 0.0188168261
C  C93  1  0.51820000  0.98740000  0.76450000  1.0 0.1813047331
C  C94  1  0.48180000  0.01260000  0.23550000  1.0 0.1813047331
C  C95  1  0.61430000  0.08590000  0.81010000  1.0 -0.4604106047
C  C96  1  0.38570000  0.91410000  0.18990000  1.0 -0.4604106047
C  C97  1  0.37760000  0.95380000  0.77050000  1.0 -0.4604106047
C  C98  1  0.62240000  0.04620000  0.22950000  1.0 -0.4604106047
C  C99  1  0.52270000  0.00640000  0.70290000  1.0 0.0117249855
C  C100  1  0.47730000  0.99360000  0.29710000  1.0 0.0117249855
C  C101  1  0.49320000  0.08200000  0.67260000  1.0 -0.1465074965
C  C102  1  0.50680000  0.91800000  0.32740000  1.0 -0.1465074965
C  C103  1  0.11030000  0.43140000  0.53760000  1.0 -0.5497154095
C  C104  1  0.88970000  0.56860000  0.46240000  1.0 -0.5497154095
C  C105  1  0.22000000  0.41900000  0.58570000  1.0 0.5006015203
C  C106  1  0.78000000  0.58100000  0.41430000  1.0 0.5006015203
C  C107  1  0.20100000  0.55030000  0.65000000  1.0 -0.3426360586
C  C108  1  0.79900000  0.44970000  0.35000000  1.0 -0.3426360586
C  C109  1  0.36400000  0.46280000  0.67830000  1.0 -0.3641691902
C  C110  1  0.63600000  0.53720000  0.32170000  1.0 -0.3641691902
N  N1  1  0.24950000  0.47490000  0.63120000  1.0 0.0260243355
N  N2  1  0.75050000  0.52510000  0.36880000  1.0 0.0260243355
O  O1  1  0.76590000  0.55140000  0.04220000  1.0 -0.5793347754
O  O2  1  0.23410000  0.44860000  0.95780000  1.0 -0.5793347754
O  O3  1  0.58170000  0.45750000  0.06300000  1.0 -0.6599163511
O  O4  1  0.41830000  0.54250000  0.93700000  1.0 -0.6599163511
O  O5  1  0.45140000  0.54490000  0.42340000  1.0 -0.6083222129
O  O6  1  0.54860000  0.45510000  0.57660000  1.0 -0.6083222129
O  O7  1  0.32070000  0.42110000  0.46360000  1.0 -0.6201573012
O  O8  1  0.67930000  0.57890000  0.53640000  1.0 -0.6201573012
O  O9  1  0.61420000  0.68690000  0.03760000  1.0 -0.6410363414
O  O10  1  0.38580000  0.31310000  0.96240000  1.0 -0.6410363414
O  O11  1  0.44300000  0.58650000  0.07000000  1.0 -0.6488348343
O  O12  1  0.55700000  0.41350000  0.93000000  1.0 -0.6488348343
O  O13  1  0.27170000  0.19860000  0.42230000  1.0 -0.5916365781
O  O14  1  0.72830000  0.80140000  0.57770000  1.0 -0.5916365781
O  O15  1  0.16340000  0.15090000  0.48820000  1.0 -0.6201573012
O  O16  1  0.83660000  0.84910000  0.51180000  1.0 -0.6201573012
O  O17  1  0.46010000  0.16100000  0.52840000  1.0 -0.6006241936
O  O18  1  0.53990000  0.83900000  0.47160000  1.0 -0.6006241936
O  O19  1  0.43430000  0.23140000  0.60720000  1.0 -0.6201573012
O  O20  1  0.56570000  0.76860000  0.39280000  1.0 -0.6201573012
O  O21  1  0.63180000  0.60890000  0.85880000  1.0 -0.5916365781
O  O22  1  0.36820000  0.39110000  0.14120000  1.0 -0.5916365781
O  O23  1  0.63200000  0.74270000  0.91380000  1.0 -0.6006241936
O  O24  1  0.36800000  0.25730000  0.08620000  1.0 -0.6006241936
O  O25  1  0.54210000  0.35890000  0.46440000  1.0 -0.2714412161
O  O26  1  0.45790000  0.64110000  0.53560000  1.0 -0.2714412161
O  O27  1  0.26750000  0.35620000  0.57300000  1.0 -0.6006241936
O  O28  1  0.73250000  0.64380000  0.42700000  1.0 -0.6006241936
O  O29  1  0.84600000  0.57000000  0.93560000  1.0 -0.0485728201
O  O30  1  0.15400000  0.43000000  0.06440000  1.0 -0.0485728201
O  O31  1  0.86000000  0.70890000  0.97400000  1.0 -0.5717748203
O  O32  1  0.14000000  0.29110000  0.02600000  1.0 -0.5717748203
