# DDEC6 charges by PACMAN v1.1 (https://github.com/mtap-research/PACMAN-charge/)
data_LAFMAK_ASR_pacman
_chemical_formula_sum              "Co12 C204 H160 N28 O60"
_cell_length_a       13.0878
_cell_length_b       23.3762
_cell_length_c       33.3768
_cell_angle_alpha    90
_cell_angle_beta     90
_cell_angle_gamma    90

_symmetry_space_group_name_H-M    "P 1"
_symmetry_Int_Tables_number       1

loop_
  _symmetry_equiv_pos_as_xyz
  'x, y, z'

loop_
  _atom_site_type_symbol
  _atom_site_label
  _atom_site_symmetry_multiplicity
  _atom_site_fract_x
  _atom_site_fract_y
  _atom_site_fract_z
  _atom_site_occupancy
 _atom_site_charge
Co  Co1       1.0  0.57124  0.04332  0.59733  1.0000 0.8738358935
C   C1        1.0  0.56410  0.11906  0.54473  1.0000 0.5665719232
C   C2        1.0  0.55230  0.16667  0.51609  1.0000 -0.0420415948
C   C3        1.0  0.61260  0.21447  0.51907  1.0000 -0.0816627646
H   H1        1.0  0.66372  0.21581  0.53842  1.0000 0.1195677198
C   C4        1.0  0.59880  0.26050  0.49391  1.0000 -0.1900858868
H   H2        1.0  0.64010  0.29270  0.49613  1.0000 0.1405654069
C   C5        1.0  0.52370  0.25801  0.46572  1.0000 0.2260289064
C   C6        1.0  0.46250  0.21068  0.46163  1.0000 -0.1900858868
H   H3        1.0  0.41202  0.20955  0.44204  1.0000 0.1405654069
C   C7        1.0  0.47700  0.16495  0.48694  1.0000 -0.0717913562
H   H4        1.0  0.43601  0.13265  0.48445  1.0000 0.1195677198
C   C8        1.0  0.43500  0.34234  0.44461  1.0000 0.2485503078
C   C9        1.0  0.42690  0.38421  0.41629  1.0000 -0.2002715634
H   H5        1.0  0.47241  0.38514  0.39490  1.0000 0.1405654069
C   C10       1.0  0.35190  0.42489  0.41927  1.0000 -0.0816627646
H   H6        1.0  0.34700  0.45325  0.39982  1.0000 0.1275676256
C   C11       1.0  0.28290  0.42436  0.45095  1.0000 -0.0420415948
C   C12       1.0  0.29390  0.38202  0.47955  1.0000 -0.0816627646
H   H7        1.0  0.24930  0.38092  0.50122  1.0000 0.1275676256
C   C13       1.0  0.36980  0.34149  0.47651  1.0000 -0.220344534
H   H8        1.0  0.37656  0.31354  0.49616  1.0000 0.1275676256
C   C14       1.0  0.19970  0.46824  0.45335  1.0000 0.5893823041
C   C15       1.0  0.93960  0.44102  0.42032  1.0000 0.5893823041
C   C16       1.0  0.88880  0.38964  0.40361  1.0000 -0.0420415948
C   C17       1.0  0.92350  0.36670  0.36805  1.0000 -0.0816627646
H   H9        1.0  0.97775  0.38384  0.35463  1.0000 0.1195677198
C   C18       1.0  0.79690  0.29450  0.37045  1.0000 0.2367246618
C   C19       1.0  0.76120  0.31700  0.40504  1.0000 -0.208591176
H   H10       1.0  0.70537  0.30043  0.41773  1.0000 0.1275676256
C   C20       1.0  0.80790  0.36516  0.42183  1.0000 -0.0816627646
H   H11       1.0  0.78314  0.38035  0.44567  1.0000 0.1275676256
C   C21       1.0  0.87780  0.31790  0.35215  1.0000 -0.2002715634
H   H12       1.0  0.90352  0.30152  0.32883  1.0000 0.1405654069
C   C22       1.0  0.72610  0.04466  0.72974  1.0000 0.0893444961
C   C23       1.0  0.66990  0.99690  0.67370  1.0000 0.3043671569
C   C24       1.0  0.66000  0.09189  0.67518  1.0000 0.3220056465
H   H13       1.0  0.64232  0.12624  0.66295  1.0000 -0.0284187754
N   N1        1.0  0.64190  0.04395  0.65528  1.0000 -0.4237816164
N   N2        1.0  0.71360  0.99529  0.71147  1.0000 -0.2932252118
N   N3        1.0  0.66290  0.94420  0.65930  1.0000 -0.4652213881
H   H14       1.0  0.63820  0.93860  0.63573  1.0000 0.1941336265
H   H15       1.0  0.68318  0.91569  0.67346  1.0000 0.1819612907
O   O1        1.0  0.61580  0.12592  0.57588  1.0000 -0.4963302518
O   O2        1.0  0.51700  0.07224  0.53927  1.0000 -0.5828953663
O   O3        1.0  0.00480  0.46598  0.39817  1.0000 -0.5676605905
O   O4        1.0  0.91990  0.45515  0.45559  1.0000 -0.5485864112
O   O5        1.0  0.51440  0.30464  0.43899  1.0000 -0.220344534
O   O6        1.0  0.19770  0.50495  0.42630  1.0000 -0.5334374139
O   O7        1.0  0.13810  0.46364  0.48196  1.0000 -0.5580684895
C   C25       1.0  0.70300  0.09429  0.71265  1.0000 -0.2694978544
H   H16       1.0  0.71543  0.12895  0.72542  1.0000 0.1195677198
C   C26       1.0  0.78640  0.99529  0.78853  1.0000 -0.3712265918
H   H17       1.0  0.65964  0.96237  0.66051  1.0000 0.0573314114
N   N4        1.0  0.63670  0.14090  0.66110  1.0000 -0.4614874104
H   H18       1.0  0.60821  0.14366  0.63800  1.0000 0.2260289064
H   H19       1.0  0.64945  0.17128  0.67483  1.0000 0.2186406909
H   H20       1.0  0.73311  0.96099  0.72332  1.0000 0.1127739038
Co  Co2       1.0  0.92876  0.45668  0.59733  1.0000 0.8738358935
C   C27       1.0  0.93590  0.38094  0.54473  1.0000 0.5665719232
C   C28       1.0  0.94770  0.33333  0.51609  1.0000 -0.0420415948
C   C29       1.0  0.88740  0.28553  0.51907  1.0000 -0.0816627646
H   H21       1.0  0.83628  0.28419  0.53842  1.0000 0.1195677198
C   C30       1.0  0.90120  0.23950  0.49391  1.0000 -0.1900858868
H   H22       1.0  0.85990  0.20730  0.49613  1.0000 0.1405654069
C   C31       1.0  0.97630  0.24199  0.46572  1.0000 0.2260289064
C   C32       1.0  0.03750  0.28932  0.46163  1.0000 -0.1900858868
H   H23       1.0  0.08798  0.29045  0.44204  1.0000 0.1405654069
C   C33       1.0  0.02300  0.33505  0.48694  1.0000 -0.0717913562
H   H24       1.0  0.06399  0.36735  0.48445  1.0000 0.1195677198
C   C34       1.0  0.06500  0.15766  0.44461  1.0000 0.2485503078
C   C35       1.0  0.07310  0.11579  0.41629  1.0000 -0.2002715634
H   H25       1.0  0.02759  0.11486  0.39490  1.0000 0.1405654069
C   C36       1.0  0.14810  0.07511  0.41927  1.0000 -0.0816627646
H   H26       1.0  0.15300  0.04675  0.39982  1.0000 0.1275676256
C   C37       1.0  0.21710  0.07564  0.45095  1.0000 -0.0420415948
C   C38       1.0  0.20610  0.11798  0.47955  1.0000 -0.0816627646
H   H27       1.0  0.25070  0.11908  0.50122  1.0000 0.1275676256
C   C39       1.0  0.13020  0.15851  0.47651  1.0000 -0.220344534
H   H28       1.0  0.12344  0.18646  0.49616  1.0000 0.1275676256
C   C40       1.0  0.30030  0.03176  0.45335  1.0000 0.5893823041
C   C41       1.0  0.56040  0.05898  0.42032  1.0000 0.5893823041
C   C42       1.0  0.61120  0.11036  0.40361  1.0000 -0.0420415948
C   C43       1.0  0.57650  0.13330  0.36805  1.0000 -0.0816627646
H   H29       1.0  0.52225  0.11616  0.35463  1.0000 0.1195677198
C   C44       1.0  0.70310  0.20550  0.37045  1.0000 0.2367246618
C   C45       1.0  0.73880  0.18300  0.40504  1.0000 -0.208591176
H   H30       1.0  0.79463  0.19957  0.41773  1.0000 0.1275676256
C   C46       1.0  0.69210  0.13484  0.42183  1.0000 -0.0816627646
H   H31       1.0  0.71685  0.11965  0.44567  1.0000 0.1275676256
C   C47       1.0  0.62220  0.18210  0.35215  1.0000 -0.2002715634
H   H32       1.0  0.59648  0.19848  0.32883  1.0000 0.1405654069
C   C48       1.0  0.77390  0.45534  0.72974  1.0000 0.0893444961
C   C49       1.0  0.83010  0.50310  0.67370  1.0000 0.3043671569
C   C50       1.0  0.84000  0.40811  0.67518  1.0000 0.3220056465
H   H33       1.0  0.85768  0.37376  0.66295  1.0000 -0.0284187754
N   N5        1.0  0.85810  0.45605  0.65528  1.0000 -0.4237816164
N   N6        1.0  0.78640  0.50471  0.71147  1.0000 -0.2932252118
N   N7        1.0  0.83710  0.55580  0.65930  1.0000 -0.4652213881
H   H34       1.0  0.86180  0.56140  0.63573  1.0000 0.1941336265
H   H35       1.0  0.81682  0.58431  0.67346  1.0000 0.1819612907
O   O8        1.0  0.88420  0.37408  0.57588  1.0000 -0.4963302518
O   O9        1.0  0.98300  0.42776  0.53927  1.0000 -0.5828953663
O   O10       1.0  0.49520  0.03402  0.39817  1.0000 -0.5676605905
O   O11       1.0  0.58010  0.04485  0.45559  1.0000 -0.5485864112
O   O12       1.0  0.98560  0.19536  0.43899  1.0000 -0.220344534
O   O13       1.0  0.30230  0.99505  0.42630  1.0000 -0.5334374139
O   O14       1.0  0.36190  0.03636  0.48196  1.0000 -0.5580684895
C   C51       1.0  0.79700  0.40571  0.71265  1.0000 -0.2694978544
H   H36       1.0  0.78457  0.37105  0.72542  1.0000 0.1195677198
C   C52       1.0  0.71360  0.50471  0.78853  1.0000 -0.3712265918
H   H37       1.0  0.84036  0.53763  0.66051  1.0000 0.0573314114
N   N8        1.0  0.86330  0.35910  0.66110  1.0000 -0.4614874104
H   H38       1.0  0.89179  0.35634  0.63800  1.0000 0.2260289064
H   H39       1.0  0.85055  0.32872  0.67483  1.0000 0.2186406909
H   H40       1.0  0.76689  0.53902  0.72332  1.0000 0.1127739038
Co  Co3       1.0  0.92876  0.04332  0.90267  1.0000 0.8606333455
C   C53       1.0  0.93590  0.11906  0.95527  1.0000 0.5665719232
C   C54       1.0  0.94770  0.16667  0.98391  1.0000 -0.0420415948
C   C55       1.0  0.88740  0.21447  0.98093  1.0000 -0.0816627646
H   H41       1.0  0.83628  0.21581  0.96158  1.0000 0.1195677198
C   C56       1.0  0.90120  0.26050  0.00609  1.0000 -0.1900858868
H   H42       1.0  0.85990  0.29270  0.00387  1.0000 0.1405654069
C   C57       1.0  0.97630  0.25801  0.03428  1.0000 0.2260289064
C   C58       1.0  0.03750  0.21068  0.03837  1.0000 -0.1900858868
H   H43       1.0  0.08798  0.20955  0.05796  1.0000 0.1405654069
C   C59       1.0  0.02300  0.16495  0.01306  1.0000 -0.0717913562
H   H44       1.0  0.06399  0.13265  0.01555  1.0000 0.1195677198
C   C60       1.0  0.06500  0.34234  0.05539  1.0000 0.2485503078
C   C61       1.0  0.07310  0.38421  0.08371  1.0000 -0.2002715634
H   H45       1.0  0.02759  0.38514  0.10510  1.0000 0.1405654069
C   C62       1.0  0.14810  0.42489  0.08073  1.0000 -0.0877194533
H   H46       1.0  0.15300  0.45325  0.10018  1.0000 0.1275676256
C   C63       1.0  0.21710  0.42436  0.04905  1.0000 -0.0420415948
C   C64       1.0  0.20610  0.38202  0.02045  1.0000 -0.0816627646
H   H47       1.0  0.25070  0.38092  0.99878  1.0000 0.1275676256
C   C65       1.0  0.13020  0.34149  0.02349  1.0000 -0.220344534
H   H48       1.0  0.12344  0.31354  0.00384  1.0000 0.1275676256
C   C66       1.0  0.30030  0.46824  0.04665  1.0000 0.5893823041
C   C67       1.0  0.56040  0.44102  0.07968  1.0000 0.5893823041
C   C68       1.0  0.61120  0.38964  0.09639  1.0000 -0.0420415948
C   C69       1.0  0.57650  0.36670  0.13195  1.0000 -0.0877194533
H   H49       1.0  0.52225  0.38384  0.14537  1.0000 0.1127739038
C   C70       1.0  0.70310  0.29450  0.12955  1.0000 0.2367246618
C   C71       1.0  0.73880  0.31700  0.09496  1.0000 -0.208591176
H   H50       1.0  0.79463  0.30043  0.08227  1.0000 0.1275676256
C   C72       1.0  0.69210  0.36516  0.07817  1.0000 -0.0816627646
H   H51       1.0  0.71685  0.38035  0.05433  1.0000 0.1275676256
C   C73       1.0  0.62220  0.31790  0.14785  1.0000 -0.2002715634
H   H52       1.0  0.59648  0.30152  0.17117  1.0000 0.1405654069
C   C74       1.0  0.77390  0.04466  0.77026  1.0000 0.2485503078
C   C75       1.0  0.83010  0.99690  0.82630  1.0000 0.3742633781
C   C76       1.0  0.84000  0.09189  0.82482  1.0000 0.3497185876
H   H53       1.0  0.85768  0.12624  0.83705  1.0000 -0.0420415948
N   N9        1.0  0.85810  0.04395  0.84472  1.0000 -0.4512424498
N   N10       1.0  0.83710  0.94420  0.84070  1.0000 -0.4902545938
H   H54       1.0  0.86180  0.93860  0.86427  1.0000 0.1982822513
H   H55       1.0  0.81682  0.91569  0.82654  1.0000 0.1819612907
O   O15       1.0  0.88420  0.12592  0.92412  1.0000 -0.4963302518
O   O16       1.0  0.98300  0.07224  0.96073  1.0000 -0.5828953663
O   O17       1.0  0.49520  0.46598  0.10183  1.0000 -0.5676605905
O   O18       1.0  0.58010  0.45515  0.04441  1.0000 -0.5485864112
O   O19       1.0  0.98560  0.30464  0.06101  1.0000 -0.220344534
O   O20       1.0  0.30230  0.50495  0.07370  1.0000 -0.5402550528
O   O21       1.0  0.36190  0.46364  0.01804  1.0000 -0.5580684895
C   C77       1.0  0.79700  0.09429  0.78735  1.0000 -0.3322441409
H   H56       1.0  0.78457  0.12895  0.77458  1.0000 0.1405654069
H   H57       1.0  0.84036  0.96237  0.83949  1.0000 0.0573314114
N   N11       1.0  0.86330  0.14090  0.83890  1.0000 -0.4512424498
H   H58       1.0  0.89179  0.14366  0.86200  1.0000 0.2260289064
H   H59       1.0  0.85055  0.17128  0.82517  1.0000 0.211163061
H   H60       1.0  0.76689  0.96099  0.77668  1.0000 0.2716864442
Co  Co4       1.0  0.57124  0.45668  0.90267  1.0000 0.8606333455
C   C78       1.0  0.56410  0.38094  0.95527  1.0000 0.5665719232
C   C79       1.0  0.55230  0.33333  0.98391  1.0000 -0.0420415948
C   C80       1.0  0.61260  0.28553  0.98093  1.0000 -0.0816627646
H   H61       1.0  0.66372  0.28419  0.96158  1.0000 0.1195677198
C   C81       1.0  0.59880  0.23950  0.00609  1.0000 -0.1900858868
H   H62       1.0  0.64010  0.20730  0.00387  1.0000 0.1405654069
C   C82       1.0  0.52370  0.24199  0.03428  1.0000 0.2260289064
C   C83       1.0  0.46250  0.28932  0.03837  1.0000 -0.1900858868
H   H63       1.0  0.41202  0.29045  0.05796  1.0000 0.1405654069
C   C84       1.0  0.47700  0.33505  0.01306  1.0000 -0.0717913562
H   H64       1.0  0.43601  0.36735  0.01555  1.0000 0.1195677198
C   C85       1.0  0.43500  0.15766  0.05539  1.0000 0.2485503078
C   C86       1.0  0.42690  0.11579  0.08371  1.0000 -0.2002715634
H   H65       1.0  0.47241  0.11486  0.10510  1.0000 0.1405654069
C   C87       1.0  0.35190  0.07511  0.08073  1.0000 -0.0877194533
H   H66       1.0  0.34700  0.04675  0.10018  1.0000 0.1275676256
C   C88       1.0  0.28290  0.07564  0.04905  1.0000 -0.0420415948
C   C89       1.0  0.29390  0.11798  0.02045  1.0000 -0.0816627646
H   H67       1.0  0.24930  0.11908  0.99878  1.0000 0.1275676256
C   C90       1.0  0.36980  0.15851  0.02349  1.0000 -0.220344534
H   H68       1.0  0.37656  0.18646  0.00384  1.0000 0.1275676256
C   C91       1.0  0.19970  0.03176  0.04665  1.0000 0.5893823041
C   C92       1.0  0.93960  0.05898  0.07968  1.0000 0.5893823041
C   C93       1.0  0.88880  0.11036  0.09639  1.0000 -0.0420415948
C   C94       1.0  0.92350  0.13330  0.13195  1.0000 -0.0877194533
H   H69       1.0  0.97775  0.11616  0.14537  1.0000 0.1127739038
C   C95       1.0  0.79690  0.20550  0.12955  1.0000 0.2367246618
C   C96       1.0  0.76120  0.18300  0.09496  1.0000 -0.208591176
H   H70       1.0  0.70537  0.19957  0.08227  1.0000 0.1275676256
C   C97       1.0  0.80790  0.13484  0.07817  1.0000 -0.0816627646
H   H71       1.0  0.78314  0.11965  0.05433  1.0000 0.1275676256
C   C98       1.0  0.87780  0.18210  0.14785  1.0000 -0.2002715634
H   H72       1.0  0.90352  0.19848  0.17117  1.0000 0.1405654069
C   C99       1.0  0.72610  0.45534  0.77026  1.0000 0.2485503078
C   C100      1.0  0.66990  0.50310  0.82630  1.0000 0.3742633781
C   C101      1.0  0.66000  0.40811  0.82482  1.0000 0.3497185876
H   H73       1.0  0.64232  0.37376  0.83705  1.0000 -0.0420415948
N   N12       1.0  0.64190  0.45605  0.84472  1.0000 -0.4512424498
N   N13       1.0  0.66290  0.55580  0.84070  1.0000 -0.4902545938
H   H74       1.0  0.63820  0.56140  0.86427  1.0000 0.1982822513
H   H75       1.0  0.68318  0.58431  0.82654  1.0000 0.1819612907
O   O22       1.0  0.61580  0.37408  0.92412  1.0000 -0.4963302518
O   O23       1.0  0.51700  0.42776  0.96073  1.0000 -0.5828953663
O   O24       1.0  0.00480  0.03402  0.10183  1.0000 -0.5676605905
O   O25       1.0  0.91990  0.04485  0.04441  1.0000 -0.5485864112
O   O26       1.0  0.51440  0.19536  0.06101  1.0000 -0.220344534
O   O27       1.0  0.19770  0.99505  0.07370  1.0000 -0.5402550528
O   O28       1.0  0.13810  0.03636  0.01804  1.0000 -0.5580684895
C   C102      1.0  0.70300  0.40571  0.78735  1.0000 -0.3322441409
H   H76       1.0  0.71543  0.37105  0.77458  1.0000 0.1405654069
H   H77       1.0  0.65964  0.53763  0.83949  1.0000 0.0573314114
N   N14       1.0  0.63670  0.35910  0.83890  1.0000 -0.4512424498
H   H78       1.0  0.60821  0.35634  0.86200  1.0000 0.2260289064
H   H79       1.0  0.64945  0.32872  0.82517  1.0000 0.211163061
H   H80       1.0  0.73311  0.53902  0.77668  1.0000 0.2716864442
Co  Co5       1.0  0.42876  0.95668  0.40267  1.0000 0.8738358935
C   C103      1.0  0.43590  0.88094  0.45527  1.0000 0.5665719232
C   C104      1.0  0.44770  0.83333  0.48391  1.0000 -0.0420415948
C   C105      1.0  0.38740  0.78553  0.48093  1.0000 -0.0816627646
H   H81       1.0  0.33628  0.78419  0.46158  1.0000 0.1195677198
C   C106      1.0  0.40120  0.73950  0.50609  1.0000 -0.1900858868
H   H82       1.0  0.35990  0.70730  0.50387  1.0000 0.1405654069
C   C107      1.0  0.47630  0.74199  0.53428  1.0000 0.2260289064
C   C108      1.0  0.53750  0.78932  0.53837  1.0000 -0.1900858868
H   H83       1.0  0.58798  0.79045  0.55796  1.0000 0.1405654069
C   C109      1.0  0.52300  0.83505  0.51306  1.0000 -0.0717913562
H   H84       1.0  0.56399  0.86735  0.51555  1.0000 0.1195677198
C   C110      1.0  0.56500  0.65766  0.55539  1.0000 0.2485503078
C   C111      1.0  0.57310  0.61579  0.58371  1.0000 -0.2002715634
H   H85       1.0  0.52759  0.61486  0.60510  1.0000 0.1405654069
C   C112      1.0  0.64810  0.57511  0.58073  1.0000 -0.0816627646
H   H86       1.0  0.65300  0.54675  0.60018  1.0000 0.1275676256
C   C113      1.0  0.71710  0.57564  0.54905  1.0000 -0.0420415948
C   C114      1.0  0.70610  0.61798  0.52045  1.0000 -0.0816627646
H   H87       1.0  0.75070  0.61908  0.49878  1.0000 0.1275676256
C   C115      1.0  0.63020  0.65851  0.52349  1.0000 -0.220344534
H   H88       1.0  0.62344  0.68646  0.50384  1.0000 0.1275676256
C   C116      1.0  0.80030  0.53176  0.54665  1.0000 0.5893823041
C   C117      1.0  0.06040  0.55898  0.57968  1.0000 0.5893823041
C   C118      1.0  0.11120  0.61036  0.59639  1.0000 -0.0420415948
C   C119      1.0  0.07650  0.63330  0.63195  1.0000 -0.0816627646
H   H89       1.0  0.02225  0.61616  0.64537  1.0000 0.1195677198
C   C120      1.0  0.20310  0.70550  0.62955  1.0000 0.2367246618
C   C121      1.0  0.23880  0.68300  0.59496  1.0000 -0.208591176
H   H90       1.0  0.29463  0.69957  0.58227  1.0000 0.1275676256
C   C122      1.0  0.19210  0.63484  0.57817  1.0000 -0.0816627646
H   H91       1.0  0.21686  0.61965  0.55433  1.0000 0.1275676256
C   C123      1.0  0.12220  0.68210  0.64785  1.0000 -0.2002715634
H   H92       1.0  0.09648  0.69848  0.67117  1.0000 0.1405654069
C   C124      1.0  0.27390  0.95534  0.27026  1.0000 0.0893444961
C   C125      1.0  0.33010  0.00310  0.32630  1.0000 0.3043671569
C   C126      1.0  0.34000  0.90811  0.32482  1.0000 0.3220056465
H   H93       1.0  0.35768  0.87376  0.33705  1.0000 -0.0284187754
N   N15       1.0  0.35810  0.95605  0.34472  1.0000 -0.4237816164
N   N16       1.0  0.28640  0.00471  0.28853  1.0000 -0.2932252118
N   N17       1.0  0.33710  0.05580  0.34070  1.0000 -0.4652213881
H   H94       1.0  0.36180  0.06140  0.36427  1.0000 0.1941336265
H   H95       1.0  0.31682  0.08431  0.32654  1.0000 0.1819612907
O   O29       1.0  0.38420  0.87408  0.42412  1.0000 -0.4963302518
O   O30       1.0  0.48300  0.92776  0.46073  1.0000 -0.5828953663
O   O31       1.0  0.99520  0.53402  0.60183  1.0000 -0.5676605905
O   O32       1.0  0.08010  0.54485  0.54441  1.0000 -0.5485864112
O   O33       1.0  0.48560  0.69536  0.56101  1.0000 -0.220344534
O   O34       1.0  0.80230  0.49505  0.57370  1.0000 -0.5334374139
O   O35       1.0  0.86190  0.53636  0.51804  1.0000 -0.5580684895
C   C127      1.0  0.29700  0.90571  0.28735  1.0000 -0.2694978544
H   H96       1.0  0.28457  0.87105  0.27458  1.0000 0.1195677198
C   C128      1.0  0.21360  0.00471  0.21147  1.0000 -0.3712265918
H   H97       1.0  0.34036  0.03763  0.33949  1.0000 0.0573314114
N   N18       1.0  0.36330  0.85910  0.33890  1.0000 -0.4614874104
H   H98       1.0  0.39179  0.85634  0.36200  1.0000 0.2260289064
H   H99       1.0  0.35055  0.82872  0.32517  1.0000 0.2186406909
H   H100      1.0  0.26689  0.03901  0.27668  1.0000 0.1127739038
Co  Co6       1.0  0.07124  0.54332  0.40267  1.0000 0.8738358935
C   C129      1.0  0.06410  0.61906  0.45527  1.0000 0.5665719232
C   C130      1.0  0.05230  0.66667  0.48391  1.0000 -0.0420415948
C   C131      1.0  0.11260  0.71447  0.48093  1.0000 -0.0816627646
H   H101      1.0  0.16372  0.71581  0.46158  1.0000 0.1195677198
C   C132      1.0  0.09880  0.76050  0.50609  1.0000 -0.1900858868
H   H102      1.0  0.14010  0.79270  0.50387  1.0000 0.1405654069
C   C133      1.0  0.02370  0.75801  0.53428  1.0000 0.2260289064
C   C134      1.0  0.96250  0.71068  0.53837  1.0000 -0.1900858868
H   H103      1.0  0.91202  0.70955  0.55796  1.0000 0.1405654069
C   C135      1.0  0.97700  0.66495  0.51306  1.0000 -0.0717913562
H   H104      1.0  0.93601  0.63265  0.51555  1.0000 0.1195677198
C   C136      1.0  0.93500  0.84234  0.55539  1.0000 0.2485503078
C   C137      1.0  0.92690  0.88421  0.58371  1.0000 -0.2002715634
H   H105      1.0  0.97241  0.88514  0.60510  1.0000 0.1405654069
C   C138      1.0  0.85190  0.92489  0.58073  1.0000 -0.0816627646
H   H106      1.0  0.84700  0.95325  0.60018  1.0000 0.1275676256
C   C139      1.0  0.78290  0.92436  0.54905  1.0000 -0.0420415948
C   C140      1.0  0.79390  0.88202  0.52045  1.0000 -0.0816627646
H   H107      1.0  0.74930  0.88092  0.49878  1.0000 0.1275676256
C   C141      1.0  0.86980  0.84149  0.52349  1.0000 -0.220344534
H   H108      1.0  0.87656  0.81354  0.50384  1.0000 0.1275676256
C   C142      1.0  0.69970  0.96824  0.54665  1.0000 0.5893823041
C   C143      1.0  0.43960  0.94102  0.57968  1.0000 0.5893823041
C   C144      1.0  0.38880  0.88964  0.59639  1.0000 -0.0420415948
C   C145      1.0  0.42350  0.86670  0.63195  1.0000 -0.0816627646
H   H109      1.0  0.47775  0.88384  0.64537  1.0000 0.1195677198
C   C146      1.0  0.29690  0.79450  0.62955  1.0000 0.2367246618
C   C147      1.0  0.26120  0.81700  0.59496  1.0000 -0.208591176
H   H110      1.0  0.20537  0.80043  0.58227  1.0000 0.1275676256
C   C148      1.0  0.30790  0.86516  0.57817  1.0000 -0.0816627646
H   H111      1.0  0.28314  0.88035  0.55433  1.0000 0.1275676256
C   C149      1.0  0.37780  0.81790  0.64785  1.0000 -0.2002715634
H   H112      1.0  0.40352  0.80152  0.67117  1.0000 0.1405654069
C   C150      1.0  0.22610  0.54466  0.27026  1.0000 0.0893444961
C   C151      1.0  0.16990  0.49690  0.32630  1.0000 0.3043671569
C   C152      1.0  0.16000  0.59189  0.32482  1.0000 0.3220056465
H   H113      1.0  0.14232  0.62624  0.33705  1.0000 -0.0284187754
N   N19       1.0  0.14190  0.54395  0.34472  1.0000 -0.4237816164
N   N20       1.0  0.21360  0.49529  0.28853  1.0000 -0.2932252118
N   N21       1.0  0.16290  0.44420  0.34070  1.0000 -0.4652213881
H   H114      1.0  0.13820  0.43860  0.36427  1.0000 0.1941336265
H   H115      1.0  0.18318  0.41569  0.32654  1.0000 0.1819612907
O   O36       1.0  0.11580  0.62592  0.42412  1.0000 -0.4963302518
O   O37       1.0  0.01700  0.57224  0.46073  1.0000 -0.5828953663
O   O38       1.0  0.50480  0.96598  0.60183  1.0000 -0.5676605905
O   O39       1.0  0.41990  0.95515  0.54441  1.0000 -0.5485864112
O   O40       1.0  0.01440  0.80464  0.56101  1.0000 -0.220344534
O   O41       1.0  0.69770  0.00495  0.57370  1.0000 -0.5334374139
O   O42       1.0  0.63810  0.96364  0.51804  1.0000 -0.5580684895
C   C153      1.0  0.20300  0.59429  0.28735  1.0000 -0.2694978544
H   H116      1.0  0.21543  0.62895  0.27458  1.0000 0.1195677198
C   C154      1.0  0.28640  0.49529  0.21147  1.0000 -0.3712265918
H   H117      1.0  0.15964  0.46237  0.33949  1.0000 0.0573314114
N   N22       1.0  0.13670  0.64090  0.33890  1.0000 -0.4614874104
H   H118      1.0  0.10821  0.64366  0.36200  1.0000 0.2260289064
H   H119      1.0  0.14944  0.67128  0.32517  1.0000 0.2186406909
H   H120      1.0  0.23311  0.46099  0.27668  1.0000 0.1127739038
Co  Co7       1.0  0.07124  0.95668  0.09733  1.0000 0.8606333455
C   C155      1.0  0.06410  0.88094  0.04473  1.0000 0.5665719232
C   C156      1.0  0.05230  0.83333  0.01609  1.0000 -0.0420415948
C   C157      1.0  0.11260  0.78553  0.01907  1.0000 -0.0816627646
H   H121      1.0  0.16372  0.78419  0.03842  1.0000 0.1195677198
C   C158      1.0  0.09880  0.73950  0.99391  1.0000 -0.1900858868
H   H122      1.0  0.14010  0.70730  0.99613  1.0000 0.1405654069
C   C159      1.0  0.02370  0.74199  0.96572  1.0000 0.2260289064
C   C160      1.0  0.96250  0.78932  0.96163  1.0000 -0.1900858868
H   H123      1.0  0.91202  0.79045  0.94204  1.0000 0.1405654069
C   C161      1.0  0.97700  0.83505  0.98694  1.0000 -0.0717913562
H   H124      1.0  0.93601  0.86735  0.98445  1.0000 0.1195677198
C   C162      1.0  0.93500  0.65766  0.94461  1.0000 0.2485503078
C   C163      1.0  0.92690  0.61579  0.91629  1.0000 -0.2002715634
H   H125      1.0  0.97241  0.61486  0.89490  1.0000 0.1405654069
C   C164      1.0  0.85190  0.57511  0.91927  1.0000 -0.0877194533
H   H126      1.0  0.84700  0.54675  0.89982  1.0000 0.1275676256
C   C165      1.0  0.78290  0.57564  0.95095  1.0000 -0.0420415948
C   C166      1.0  0.79390  0.61798  0.97955  1.0000 -0.0816627646
H   H127      1.0  0.74930  0.61908  0.00122  1.0000 0.1275676256
C   C167      1.0  0.86980  0.65851  0.97651  1.0000 -0.220344534
H   H128      1.0  0.87656  0.68646  0.99616  1.0000 0.1275676256
C   C168      1.0  0.69970  0.53176  0.95335  1.0000 0.5893823041
C   C169      1.0  0.43960  0.55898  0.92032  1.0000 0.5893823041
C   C170      1.0  0.38880  0.61036  0.90361  1.0000 -0.0420415948
C   C171      1.0  0.42350  0.63330  0.86805  1.0000 -0.0877194533
H   H129      1.0  0.47775  0.61616  0.85463  1.0000 0.1127739038
C   C172      1.0  0.29690  0.70550  0.87045  1.0000 0.2367246618
C   C173      1.0  0.26120  0.68300  0.90504  1.0000 -0.208591176
H   H130      1.0  0.20537  0.69957  0.91773  1.0000 0.1275676256
C   C174      1.0  0.30790  0.63484  0.92183  1.0000 -0.0816627646
H   H131      1.0  0.28314  0.61965  0.94567  1.0000 0.1275676256
C   C175      1.0  0.37780  0.68210  0.85215  1.0000 -0.2002715634
H   H132      1.0  0.40352  0.69848  0.82883  1.0000 0.1405654069
C   C176      1.0  0.22610  0.95534  0.22974  1.0000 0.2485503078
C   C177      1.0  0.16990  0.00310  0.17370  1.0000 0.3742633781
C   C178      1.0  0.16000  0.90811  0.17518  1.0000 0.3497185876
H   H133      1.0  0.14232  0.87376  0.16295  1.0000 -0.0420415948
N   N23       1.0  0.14190  0.95605  0.15528  1.0000 -0.4442742596
N   N24       1.0  0.16290  0.05580  0.15930  1.0000 -0.4902545938
H   H134      1.0  0.13820  0.06140  0.13573  1.0000 0.1982822513
H   H135      1.0  0.18318  0.08431  0.17346  1.0000 0.1819612907
O   O43       1.0  0.11580  0.87408  0.07588  1.0000 -0.4963302518
O   O44       1.0  0.01700  0.92776  0.03927  1.0000 -0.5828953663
O   O45       1.0  0.50480  0.53402  0.89817  1.0000 -0.5676605905
O   O46       1.0  0.41990  0.54485  0.95559  1.0000 -0.5485864112
O   O47       1.0  0.01440  0.69536  0.93899  1.0000 -0.220344534
O   O48       1.0  0.69770  0.49505  0.92630  1.0000 -0.5402550528
O   O49       1.0  0.63810  0.53636  0.98196  1.0000 -0.5580684895
C   C179      1.0  0.20300  0.90571  0.21265  1.0000 -0.3322441409
H   H136      1.0  0.21543  0.87105  0.22542  1.0000 0.1405654069
H   H137      1.0  0.15964  0.03763  0.16051  1.0000 0.0573314114
N   N25       1.0  0.13670  0.85910  0.16110  1.0000 -0.4512424498
H   H138      1.0  0.10821  0.85634  0.13800  1.0000 0.2260289064
H   H139      1.0  0.14944  0.82872  0.17483  1.0000 0.211163061
H   H140      1.0  0.23311  0.03901  0.22332  1.0000 0.2716864442
Co  Co8       1.0  0.42876  0.54332  0.09733  1.0000 0.8606333455
C   C180      1.0  0.43590  0.61906  0.04473  1.0000 0.5665719232
C   C181      1.0  0.44770  0.66667  0.01609  1.0000 -0.0420415948
C   C182      1.0  0.38740  0.71447  0.01907  1.0000 -0.0816627646
H   H141      1.0  0.33628  0.71581  0.03842  1.0000 0.1195677198
C   C183      1.0  0.40120  0.76050  0.99391  1.0000 -0.1900858868
H   H142      1.0  0.35990  0.79270  0.99613  1.0000 0.1405654069
C   C184      1.0  0.47630  0.75801  0.96572  1.0000 0.2260289064
C   C185      1.0  0.53750  0.71068  0.96163  1.0000 -0.1900858868
H   H143      1.0  0.58798  0.70955  0.94204  1.0000 0.1405654069
C   C186      1.0  0.52300  0.66495  0.98694  1.0000 -0.0717913562
H   H144      1.0  0.56399  0.63265  0.98445  1.0000 0.1195677198
C   C187      1.0  0.56500  0.84234  0.94461  1.0000 0.2485503078
C   C188      1.0  0.57310  0.88421  0.91629  1.0000 -0.2002715634
H   H145      1.0  0.52759  0.88514  0.89490  1.0000 0.1405654069
C   C189      1.0  0.64810  0.92489  0.91927  1.0000 -0.0877194533
H   H146      1.0  0.65300  0.95325  0.89982  1.0000 0.1275676256
C   C190      1.0  0.71710  0.92436  0.95095  1.0000 -0.0420415948
C   C191      1.0  0.70610  0.88202  0.97955  1.0000 -0.0816627646
H   H147      1.0  0.75070  0.88092  0.00122  1.0000 0.1275676256
C   C192      1.0  0.63020  0.84149  0.97651  1.0000 -0.220344534
H   H148      1.0  0.62344  0.81354  0.99616  1.0000 0.1275676256
C   C193      1.0  0.80030  0.96824  0.95335  1.0000 0.5893823041
C   C194      1.0  0.06040  0.94102  0.92032  1.0000 0.5893823041
C   C195      1.0  0.11120  0.88964  0.90361  1.0000 -0.0420415948
C   C196      1.0  0.07650  0.86670  0.86805  1.0000 -0.0877194533
H   H149      1.0  0.02225  0.88384  0.85463  1.0000 0.1127739038
C   C197      1.0  0.20310  0.79450  0.87045  1.0000 0.2367246618
C   C198      1.0  0.23880  0.81700  0.90504  1.0000 -0.208591176
H   H150      1.0  0.29463  0.80043  0.91773  1.0000 0.1275676256
C   C199      1.0  0.19210  0.86516  0.92183  1.0000 -0.0816627646
H   H151      1.0  0.21686  0.88035  0.94567  1.0000 0.1275676256
C   C200      1.0  0.12220  0.81790  0.85215  1.0000 -0.2002715634
H   H152      1.0  0.09648  0.80152  0.82883  1.0000 0.1405654069
C   C201      1.0  0.27390  0.54466  0.22974  1.0000 0.2485503078
C   C202      1.0  0.33010  0.49690  0.17370  1.0000 0.3742633781
C   C203      1.0  0.34000  0.59189  0.17518  1.0000 0.3497185876
H   H153      1.0  0.35768  0.62624  0.16295  1.0000 -0.0420415948
N   N26       1.0  0.35810  0.54395  0.15528  1.0000 -0.4442742596
N   N27       1.0  0.33710  0.44420  0.15930  1.0000 -0.4902545938
H   H154      1.0  0.36180  0.43860  0.13573  1.0000 0.1982822513
H   H155      1.0  0.31682  0.41569  0.17346  1.0000 0.1819612907
O   O50       1.0  0.38420  0.62592  0.07588  1.0000 -0.4963302518
O   O51       1.0  0.48300  0.57224  0.03927  1.0000 -0.5828953663
O   O52       1.0  0.99520  0.96598  0.89817  1.0000 -0.5676605905
O   O53       1.0  0.08010  0.95515  0.95559  1.0000 -0.5485864112
O   O54       1.0  0.48560  0.80464  0.93899  1.0000 -0.220344534
O   O55       1.0  0.80230  0.00495  0.92630  1.0000 -0.5402550528
O   O56       1.0  0.86190  0.96364  0.98196  1.0000 -0.5580684895
C   C204      1.0  0.29700  0.59429  0.21265  1.0000 -0.3322441409
H   H156      1.0  0.28457  0.62895  0.22542  1.0000 0.1405654069
H   H157      1.0  0.34036  0.46237  0.16051  1.0000 0.0573314114
N   N28       1.0  0.36330  0.64090  0.16110  1.0000 -0.4512424498
H   H158      1.0  0.39179  0.64366  0.13800  1.0000 0.2260289064
H   H159      1.0  0.35055  0.67128  0.17483  1.0000 0.211163061
H   H160      1.0  0.26689  0.46099  0.22332  1.0000 0.2716864442
Co  Co9       1.0  0.00000  0.50000  0.50000  1.0000 1.1064596942
Co  Co10      1.0  0.50000  0.00000  0.50000  1.0000 1.1064596942
Co  Co11      1.0  0.50000  0.50000  0.00000  1.0000 1.1048668196
Co  Co12      1.0  0.00000  0.00000  0.00000  1.0000 1.1064596942
O   O57       1.0  0.75000  0.25000  0.35018  1.0000 -0.208591176
O   O58       1.0  0.75000  0.25000  0.14982  1.0000 -0.208591176
O   O59       1.0  0.25000  0.75000  0.64982  1.0000 -0.208591176
O   O60       1.0  0.25000  0.75000  0.85018  1.0000 -0.208591176
  C   C205      1.0  0.71360  0.99529  0.71147  1.0000
  N   N29       1.0  0.78640  0.99529  0.78853  1.0000
  C   C206      1.0  0.78640  0.50471  0.71147  1.0000
  N   N30       1.0  0.71360  0.50471  0.78853  1.0000
  C   C207      1.0  0.28640  0.00471  0.28853  1.0000
  N   N31       1.0  0.21360  0.00471  0.21147  1.0000
  C   C208      1.0  0.21360  0.49529  0.28853  1.0000
  N   N32       1.0  0.28640  0.49529  0.21147  1.0000
