# DDEC6 charges by PACMAN v1.1 (https://github.com/mtap-research/PACMAN-charge/)
data_LAFQUG_ASR_pacman
_symmetry_space_group_name_H-M   'P 1'
_cell_length_a   45.05970000
_cell_length_b   45.05970000
_cell_length_c   45.05970000
_cell_angle_alpha   60.00000000
_cell_angle_beta   60.00000000
_cell_angle_gamma   60.00000000
_symmetry_Int_Tables_number   1
_chemical_formula_structural   CoH16C26(SN5)2
_chemical_formula_sum   'Co48 H768 C1248 S96 N480'
_cell_volume   64691.89753166
_cell_formula_units_Z   48
loop_
 _symmetry_equiv_pos_site_id
 _symmetry_equiv_pos_as_xyz
  1  'x, y, z'
loop_
 _atom_site_type_symbol
 _atom_site_label
 _atom_site_symmetry_multiplicity
 _atom_site_fract_x
 _atom_site_fract_y
 _atom_site_fract_z
 _atom_site_occupancy
 _atom_site_charge
Co  Co1  1  0.62500000  0.36684000  0.12500000  1.0 0.6690634418
Co  Co2  1  0.62500000  0.88316000  0.36684000  1.0 0.6690634418
Co  Co3  1  0.88316000  0.36684000  0.62500000  1.0 0.6690634418
Co  Co4  1  0.36684000  0.62500000  0.88316000  1.0 0.6690634418
Co  Co5  1  0.88316000  0.12500000  0.36684000  1.0 0.6690634418
Co  Co6  1  0.36684000  0.88316000  0.12500000  1.0 0.6690634418
Co  Co7  1  0.12500000  0.62500000  0.36684000  1.0 0.6690634418
Co  Co8  1  0.88316000  0.62500000  0.12500000  1.0 0.6690634418
Co  Co9  1  0.12500000  0.36684000  0.88316000  1.0 0.6690634418
Co  Co10  1  0.12500000  0.88316000  0.62500000  1.0 0.6690634418
Co  Co11  1  0.62500000  0.12500000  0.88316000  1.0 0.6690634418
Co  Co12  1  0.36684000  0.12500000  0.62500000  1.0 0.6690634418
Co  Co13  1  0.12500000  0.38316000  0.62500000  1.0 0.6690634418
Co  Co14  1  0.12500000  0.86684000  0.38316000  1.0 0.6690634418
Co  Co15  1  0.86684000  0.38316000  0.12500000  1.0 0.6690634418
Co  Co16  1  0.38316000  0.12500000  0.86684000  1.0 0.6690634418
Co  Co17  1  0.86684000  0.62500000  0.38316000  1.0 0.6690634418
Co  Co18  1  0.38316000  0.86684000  0.62500000  1.0 0.6690634418
Co  Co19  1  0.62500000  0.12500000  0.38316000  1.0 0.6690634418
Co  Co20  1  0.86684000  0.12500000  0.62500000  1.0 0.6690634418
Co  Co21  1  0.62500000  0.38316000  0.86684000  1.0 0.6690634418
Co  Co22  1  0.62500000  0.86684000  0.12500000  1.0 0.6690634418
Co  Co23  1  0.12500000  0.62500000  0.86684000  1.0 0.6690634418
Co  Co24  1  0.38316000  0.62500000  0.12500000  1.0 0.6690634418
Co  Co25  1  0.62277000  0.62277000  0.87723000  1.0 0.6643578424
Co  Co26  1  0.62723000  0.62723000  0.37277000  1.0 0.6643578424
Co  Co27  1  0.62723000  0.37277000  0.62723000  1.0 0.6643578424
Co  Co28  1  0.37277000  0.62723000  0.62723000  1.0 0.6643578424
Co  Co29  1  0.62723000  0.37277000  0.37277000  1.0 0.6643578424
Co  Co30  1  0.62277000  0.87723000  0.87723000  1.0 0.6643578424
Co  Co31  1  0.37277000  0.62723000  0.37277000  1.0 0.6643578424
Co  Co32  1  0.87723000  0.62277000  0.87723000  1.0 0.6643578424
Co  Co33  1  0.37277000  0.37277000  0.62723000  1.0 0.6643578424
Co  Co34  1  0.87723000  0.87723000  0.62277000  1.0 0.6643578424
Co  Co35  1  0.87723000  0.62277000  0.62277000  1.0 0.6643578424
Co  Co36  1  0.62277000  0.87723000  0.62277000  1.0 0.6643578424
Co  Co37  1  0.12723000  0.12723000  0.87277000  1.0 0.6643578424
Co  Co38  1  0.12277000  0.12277000  0.37723000  1.0 0.6643578424
Co  Co39  1  0.12277000  0.37723000  0.12277000  1.0 0.6643578424
Co  Co40  1  0.37723000  0.12277000  0.12277000  1.0 0.6643578424
Co  Co41  1  0.12277000  0.37723000  0.37723000  1.0 0.6643578424
Co  Co42  1  0.12723000  0.87277000  0.87277000  1.0 0.6690634418
Co  Co43  1  0.37723000  0.12277000  0.37723000  1.0 0.6643578424
Co  Co44  1  0.87277000  0.12723000  0.87277000  1.0 0.6643578424
Co  Co45  1  0.37723000  0.37723000  0.12277000  1.0 0.6643578424
Co  Co46  1  0.87277000  0.87277000  0.12723000  1.0 0.6643578424
Co  Co47  1  0.87277000  0.12723000  0.12723000  1.0 0.6643578424
Co  Co48  1  0.12723000  0.87277000  0.12723000  1.0 0.6643578424
H  H1  1  0.41620000  0.68920000  0.06040000  1.0 0.1006218573
H  H2  1  0.83380000  0.56080000  0.41580000  1.0 0.1006218573
H  H3  1  0.56080000  0.41580000  0.83380000  1.0 0.1006218573
H  H4  1  0.41580000  0.83380000  0.56080000  1.0 0.1006218573
H  H5  1  0.56080000  0.18960000  0.41580000  1.0 0.1006218573
H  H6  1  0.68920000  0.83420000  0.06040000  1.0 0.1006218573
H  H7  1  0.18960000  0.83380000  0.41580000  1.0 0.1006218573
H  H8  1  0.83420000  0.41620000  0.06040000  1.0 0.1006218573
H  H9  1  0.18960000  0.41580000  0.56080000  1.0 0.1006218573
H  H10  1  0.83420000  0.06040000  0.68920000  1.0 0.1006218573
H  H11  1  0.68920000  0.41620000  0.83420000  1.0 0.1006218573
H  H12  1  0.56080000  0.83380000  0.18960000  1.0 0.1006218573
H  H13  1  0.18960000  0.56080000  0.83380000  1.0 0.1006218573
H  H14  1  0.83420000  0.68920000  0.41620000  1.0 0.1006218573
H  H15  1  0.83380000  0.18960000  0.56080000  1.0 0.1006218573
H  H16  1  0.41620000  0.83420000  0.68920000  1.0 0.1006218573
H  H17  1  0.41620000  0.06040000  0.83420000  1.0 0.1006218573
H  H18  1  0.06040000  0.68920000  0.83420000  1.0 0.1006218573
H  H19  1  0.41580000  0.56080000  0.18960000  1.0 0.1006218573
H  H20  1  0.83380000  0.41580000  0.18960000  1.0 0.1006218573
H  H21  1  0.06040000  0.83420000  0.41620000  1.0 0.1006218573
H  H22  1  0.41580000  0.18960000  0.83380000  1.0 0.1006218573
H  H23  1  0.68920000  0.06040000  0.41620000  1.0 0.1006218573
H  H24  1  0.06040000  0.41620000  0.68920000  1.0 0.1006218573
H  H25  1  0.33380000  0.06080000  0.68960000  1.0 0.1006218573
H  H26  1  0.91620000  0.18920000  0.33420000  1.0 0.1006218573
H  H27  1  0.18920000  0.33420000  0.91620000  1.0 0.1006218573
H  H28  1  0.33420000  0.91620000  0.18920000  1.0 0.1006218573
H  H29  1  0.18920000  0.56040000  0.33420000  1.0 0.1006218573
H  H30  1  0.06080000  0.91580000  0.68960000  1.0 0.1006218573
H  H31  1  0.56040000  0.91620000  0.33420000  1.0 0.1006218573
H  H32  1  0.91580000  0.33380000  0.68960000  1.0 0.1006218573
H  H33  1  0.56040000  0.33420000  0.18920000  1.0 0.1006218573
H  H34  1  0.91580000  0.68960000  0.06080000  1.0 0.1006218573
H  H35  1  0.06080000  0.33380000  0.91580000  1.0 0.1006218573
H  H36  1  0.18920000  0.91620000  0.56040000  1.0 0.1006218573
H  H37  1  0.56040000  0.18920000  0.91620000  1.0 0.1006218573
H  H38  1  0.91580000  0.06080000  0.33380000  1.0 0.1006218573
H  H39  1  0.91620000  0.56040000  0.18920000  1.0 0.1006218573
H  H40  1  0.33380000  0.91580000  0.06080000  1.0 0.1006218573
H  H41  1  0.33380000  0.68960000  0.91580000  1.0 0.1006218573
H  H42  1  0.68960000  0.06080000  0.91580000  1.0 0.1006218573
H  H43  1  0.33420000  0.18920000  0.56040000  1.0 0.1006218573
H  H44  1  0.91620000  0.33420000  0.56040000  1.0 0.1006218573
H  H45  1  0.68960000  0.91580000  0.33380000  1.0 0.1006218573
H  H46  1  0.33420000  0.56040000  0.91620000  1.0 0.1006218573
H  H47  1  0.06080000  0.68960000  0.33380000  1.0 0.1006218573
H  H48  1  0.68960000  0.33380000  0.06080000  1.0 0.1006218573
H  H49  1  0.47120000  0.69540000  0.01740000  1.0 0.1380811221
H  H50  1  0.77880000  0.55460000  0.43400000  1.0 0.1380811221
H  H51  1  0.55460000  0.43400000  0.77880000  1.0 0.1380811221
H  H52  1  0.43400000  0.77880000  0.55460000  1.0 0.1380811221
H  H53  1  0.55460000  0.23260000  0.43400000  1.0 0.1380811221
H  H54  1  0.69540000  0.81600000  0.01740000  1.0 0.1380811221
H  H55  1  0.23260000  0.77880000  0.43400000  1.0 0.1380811221
H  H56  1  0.81600000  0.47120000  0.01740000  1.0 0.1380811221
H  H57  1  0.23260000  0.43400000  0.55460000  1.0 0.1380811221
H  H58  1  0.81600000  0.01740000  0.69540000  1.0 0.1380811221
H  H59  1  0.69540000  0.47120000  0.81600000  1.0 0.1380811221
H  H60  1  0.55460000  0.77880000  0.23260000  1.0 0.1380811221
H  H61  1  0.23260000  0.55460000  0.77880000  1.0 0.1380811221
H  H62  1  0.81600000  0.69540000  0.47120000  1.0 0.1380811221
H  H63  1  0.77880000  0.23260000  0.55460000  1.0 0.1380811221
H  H64  1  0.47120000  0.81600000  0.69540000  1.0 0.1380811221
H  H65  1  0.47120000  0.01740000  0.81600000  1.0 0.1380811221
H  H66  1  0.01740000  0.69540000  0.81600000  1.0 0.1380811221
H  H67  1  0.43400000  0.55460000  0.23260000  1.0 0.1380811221
H  H68  1  0.77880000  0.43400000  0.23260000  1.0 0.1380811221
H  H69  1  0.01740000  0.81600000  0.47120000  1.0 0.1380811221
H  H70  1  0.43400000  0.23260000  0.77880000  1.0 0.1380811221
H  H71  1  0.69540000  0.01740000  0.47120000  1.0 0.1380811221
H  H72  1  0.01740000  0.47120000  0.69540000  1.0 0.1380811221
H  H73  1  0.27880000  0.05460000  0.73260000  1.0 0.1380811221
H  H74  1  0.97120000  0.19540000  0.31600000  1.0 0.1380811221
H  H75  1  0.19540000  0.31600000  0.97120000  1.0 0.1380811221
H  H76  1  0.31600000  0.97120000  0.19540000  1.0 0.1380811221
H  H77  1  0.19540000  0.51740000  0.31600000  1.0 0.1380811221
H  H78  1  0.05460000  0.93400000  0.73260000  1.0 0.1380811221
H  H79  1  0.51740000  0.97120000  0.31600000  1.0 0.1380811221
H  H80  1  0.93400000  0.27880000  0.73260000  1.0 0.1380811221
H  H81  1  0.51740000  0.31600000  0.19540000  1.0 0.1380811221
H  H82  1  0.93400000  0.73260000  0.05460000  1.0 0.1380811221
H  H83  1  0.05460000  0.27880000  0.93400000  1.0 0.1380811221
H  H84  1  0.19540000  0.97120000  0.51740000  1.0 0.1380811221
H  H85  1  0.51740000  0.19540000  0.97120000  1.0 0.1380811221
H  H86  1  0.93400000  0.05460000  0.27880000  1.0 0.1380811221
H  H87  1  0.97120000  0.51740000  0.19540000  1.0 0.1380811221
H  H88  1  0.27880000  0.93400000  0.05460000  1.0 0.1380811221
H  H89  1  0.27880000  0.73260000  0.93400000  1.0 0.1380811221
H  H90  1  0.73260000  0.05460000  0.93400000  1.0 0.1380811221
H  H91  1  0.31600000  0.19540000  0.51740000  1.0 0.1380811221
H  H92  1  0.97120000  0.31600000  0.51740000  1.0 0.1380811221
H  H93  1  0.73260000  0.93400000  0.27880000  1.0 0.1380811221
H  H94  1  0.31600000  0.51740000  0.97120000  1.0 0.1380811221
H  H95  1  0.05460000  0.73260000  0.27880000  1.0 0.1380811221
H  H96  1  0.73260000  0.27880000  0.05460000  1.0 0.1380811221
H  H97  1  0.52250000  0.64330000  0.01150000  1.0 0.1218328976
H  H98  1  0.72750000  0.60670000  0.42730000  1.0 0.1218328976
H  H99  1  0.60670000  0.42730000  0.72750000  1.0 0.1218328976
H  H100  1  0.42730000  0.72750000  0.60670000  1.0 0.1218328976
H  H101  1  0.60670000  0.23850000  0.42730000  1.0 0.1218328976
H  H102  1  0.64330000  0.82270000  0.01150000  1.0 0.1218328976
H  H103  1  0.23850000  0.72750000  0.42730000  1.0 0.1218328976
H  H104  1  0.82270000  0.52250000  0.01150000  1.0 0.1218328976
H  H105  1  0.23850000  0.42730000  0.60670000  1.0 0.1218328976
H  H106  1  0.82270000  0.01150000  0.64330000  1.0 0.1218328976
H  H107  1  0.64330000  0.52250000  0.82270000  1.0 0.1218328976
H  H108  1  0.60670000  0.72750000  0.23850000  1.0 0.1218328976
H  H109  1  0.23850000  0.60670000  0.72750000  1.0 0.1218328976
H  H110  1  0.82270000  0.64330000  0.52250000  1.0 0.1218328976
H  H111  1  0.72750000  0.23850000  0.60670000  1.0 0.1218328976
H  H112  1  0.52250000  0.82270000  0.64330000  1.0 0.1218328976
H  H113  1  0.52250000  0.01150000  0.82270000  1.0 0.1218328976
H  H114  1  0.01150000  0.64330000  0.82270000  1.0 0.1218328976
H  H115  1  0.42730000  0.60670000  0.23850000  1.0 0.1218328976
H  H116  1  0.72750000  0.42730000  0.23850000  1.0 0.1218328976
H  H117  1  0.01150000  0.82270000  0.52250000  1.0 0.1218328976
H  H118  1  0.42730000  0.23850000  0.72750000  1.0 0.1218328976
H  H119  1  0.64330000  0.01150000  0.52250000  1.0 0.1218328976
H  H120  1  0.01150000  0.52250000  0.64330000  1.0 0.1218328976
H  H121  1  0.22750000  0.10670000  0.73850000  1.0 0.1218328976
H  H122  1  0.02250000  0.14330000  0.32270000  1.0 0.1218328976
H  H123  1  0.14330000  0.32270000  0.02250000  1.0 0.1218328976
H  H124  1  0.32270000  0.02250000  0.14330000  1.0 0.1218328976
H  H125  1  0.14330000  0.51150000  0.32270000  1.0 0.1218328976
H  H126  1  0.10670000  0.92730000  0.73850000  1.0 0.1218328976
H  H127  1  0.51150000  0.02250000  0.32270000  1.0 0.1218328976
H  H128  1  0.92730000  0.22750000  0.73850000  1.0 0.1218328976
H  H129  1  0.51150000  0.32270000  0.14330000  1.0 0.1218328976
H  H130  1  0.92730000  0.73850000  0.10670000  1.0 0.1218328976
H  H131  1  0.10670000  0.22750000  0.92730000  1.0 0.1218328976
H  H132  1  0.14330000  0.02250000  0.51150000  1.0 0.1218328976
H  H133  1  0.51150000  0.14330000  0.02250000  1.0 0.1218328976
H  H134  1  0.92730000  0.10670000  0.22750000  1.0 0.1218328976
H  H135  1  0.02250000  0.51150000  0.14330000  1.0 0.1218328976
H  H136  1  0.22750000  0.92730000  0.10670000  1.0 0.1218328976
H  H137  1  0.22750000  0.73850000  0.92730000  1.0 0.1218328976
H  H138  1  0.73850000  0.10670000  0.92730000  1.0 0.1218328976
H  H139  1  0.32270000  0.14330000  0.51150000  1.0 0.1218328976
H  H140  1  0.02250000  0.32270000  0.51150000  1.0 0.1218328976
H  H141  1  0.73850000  0.92730000  0.22750000  1.0 0.1218328976
H  H142  1  0.32270000  0.51150000  0.02250000  1.0 0.1218328976
H  H143  1  0.10670000  0.73850000  0.22750000  1.0 0.1218328976
H  H144  1  0.73850000  0.22750000  0.10670000  1.0 0.1218328976
H  H145  1  0.46200000  0.58400000  0.10020000  1.0 0.1067867849
H  H146  1  0.78800000  0.66600000  0.39620000  1.0 0.1067867849
H  H147  1  0.66600000  0.39620000  0.78800000  1.0 0.1067867849
H  H148  1  0.39620000  0.78800000  0.66600000  1.0 0.1067867849
H  H149  1  0.66600000  0.14980000  0.39620000  1.0 0.1067867849
H  H150  1  0.58400000  0.85380000  0.10020000  1.0 0.1067867849
H  H151  1  0.14980000  0.78800000  0.39620000  1.0 0.1067867849
H  H152  1  0.85380000  0.46200000  0.10020000  1.0 0.1067867849
H  H153  1  0.14980000  0.39620000  0.66600000  1.0 0.1067867849
H  H154  1  0.85380000  0.10020000  0.58400000  1.0 0.1067867849
H  H155  1  0.58400000  0.46200000  0.85380000  1.0 0.1067867849
H  H156  1  0.66600000  0.78800000  0.14980000  1.0 0.1067867849
H  H157  1  0.14980000  0.66600000  0.78800000  1.0 0.1067867849
H  H158  1  0.85380000  0.58400000  0.46200000  1.0 0.1067867849
H  H159  1  0.78800000  0.14980000  0.66600000  1.0 0.1067867849
H  H160  1  0.46200000  0.85380000  0.58400000  1.0 0.1067867849
H  H161  1  0.46200000  0.10020000  0.85380000  1.0 0.1067867849
H  H162  1  0.10020000  0.58400000  0.85380000  1.0 0.1067867849
H  H163  1  0.39620000  0.66600000  0.14980000  1.0 0.1067867849
H  H164  1  0.78800000  0.39620000  0.14980000  1.0 0.1067867849
H  H165  1  0.10020000  0.85380000  0.46200000  1.0 0.1067867849
H  H166  1  0.39620000  0.14980000  0.78800000  1.0 0.1067867849
H  H167  1  0.58400000  0.10020000  0.46200000  1.0 0.1067867849
H  H168  1  0.10020000  0.46200000  0.58400000  1.0 0.1067867849
H  H169  1  0.28800000  0.16600000  0.64980000  1.0 0.1067867849
H  H170  1  0.96200000  0.08400000  0.35380000  1.0 0.1067867849
H  H171  1  0.08400000  0.35380000  0.96200000  1.0 0.1067867849
H  H172  1  0.35380000  0.96200000  0.08400000  1.0 0.1067867849
H  H173  1  0.08400000  0.60020000  0.35380000  1.0 0.1067867849
H  H174  1  0.16600000  0.89620000  0.64980000  1.0 0.1067867849
H  H175  1  0.60020000  0.96200000  0.35380000  1.0 0.1067867849
H  H176  1  0.89620000  0.28800000  0.64980000  1.0 0.1067867849
H  H177  1  0.60020000  0.35380000  0.08400000  1.0 0.1067867849
H  H178  1  0.89620000  0.64980000  0.16600000  1.0 0.1067867849
H  H179  1  0.16600000  0.28800000  0.89620000  1.0 0.1067867849
H  H180  1  0.08400000  0.96200000  0.60020000  1.0 0.1067867849
H  H181  1  0.60020000  0.08400000  0.96200000  1.0 0.1067867849
H  H182  1  0.89620000  0.16600000  0.28800000  1.0 0.1067867849
H  H183  1  0.96200000  0.60020000  0.08400000  1.0 0.1067867849
H  H184  1  0.28800000  0.89620000  0.16600000  1.0 0.1067867849
H  H185  1  0.28800000  0.64980000  0.89620000  1.0 0.1067867849
H  H186  1  0.64980000  0.16600000  0.89620000  1.0 0.1067867849
H  H187  1  0.35380000  0.08400000  0.60020000  1.0 0.1067867849
H  H188  1  0.96200000  0.35380000  0.60020000  1.0 0.1067867849
H  H189  1  0.64980000  0.89620000  0.28800000  1.0 0.1067867849
H  H190  1  0.35380000  0.60020000  0.96200000  1.0 0.1067867849
H  H191  1  0.16600000  0.64980000  0.28800000  1.0 0.1067867849
H  H192  1  0.64980000  0.28800000  0.16600000  1.0 0.1067867849
H  H193  1  0.55480000  0.39400000  0.18740000  1.0 0.1006218573
H  H194  1  0.69520000  0.85600000  0.38620000  1.0 0.1006218573
H  H195  1  0.85600000  0.38620000  0.69520000  1.0 0.1006218573
H  H196  1  0.38620000  0.69520000  0.85600000  1.0 0.1006218573
H  H197  1  0.85600000  0.06260000  0.38620000  1.0 0.1006218573
H  H198  1  0.39400000  0.86380000  0.18740000  1.0 0.1006218573
H  H199  1  0.06260000  0.69520000  0.38620000  1.0 0.1006218573
H  H200  1  0.86380000  0.55480000  0.18740000  1.0 0.1006218573
H  H201  1  0.06260000  0.38620000  0.85600000  1.0 0.1006218573
H  H202  1  0.86380000  0.18740000  0.39400000  1.0 0.1006218573
H  H203  1  0.39400000  0.55480000  0.86380000  1.0 0.1006218573
H  H204  1  0.85600000  0.69520000  0.06260000  1.0 0.1006218573
H  H205  1  0.06260000  0.85600000  0.69520000  1.0 0.1006218573
H  H206  1  0.86380000  0.39400000  0.55480000  1.0 0.1006218573
H  H207  1  0.69520000  0.06260000  0.85600000  1.0 0.1006218573
H  H208  1  0.55480000  0.86380000  0.39400000  1.0 0.1006218573
H  H209  1  0.55480000  0.18740000  0.86380000  1.0 0.1006218573
H  H210  1  0.18740000  0.39400000  0.86380000  1.0 0.1006218573
H  H211  1  0.38620000  0.85600000  0.06260000  1.0 0.1006218573
H  H212  1  0.69520000  0.38620000  0.06260000  1.0 0.1006218573
H  H213  1  0.18740000  0.86380000  0.55480000  1.0 0.1006218573
H  H214  1  0.38620000  0.06260000  0.69520000  1.0 0.1006218573
H  H215  1  0.39400000  0.18740000  0.55480000  1.0 0.1006218573
H  H216  1  0.18740000  0.55480000  0.39400000  1.0 0.1006218573
H  H217  1  0.19520000  0.35600000  0.56260000  1.0 0.1006218573
H  H218  1  0.05480000  0.89400000  0.36380000  1.0 0.1006218573
H  H219  1  0.89400000  0.36380000  0.05480000  1.0 0.1006218573
H  H220  1  0.36380000  0.05480000  0.89400000  1.0 0.1006218573
H  H221  1  0.89400000  0.68740000  0.36380000  1.0 0.1006218573
H  H222  1  0.35600000  0.88620000  0.56260000  1.0 0.1006218573
H  H223  1  0.68740000  0.05480000  0.36380000  1.0 0.1006218573
H  H224  1  0.88620000  0.19520000  0.56260000  1.0 0.1006218573
H  H225  1  0.68740000  0.36380000  0.89400000  1.0 0.1006218573
H  H226  1  0.88620000  0.56260000  0.35600000  1.0 0.1006218573
H  H227  1  0.35600000  0.19520000  0.88620000  1.0 0.1006218573
H  H228  1  0.89400000  0.05480000  0.68740000  1.0 0.1006218573
H  H229  1  0.68740000  0.89400000  0.05480000  1.0 0.1006218573
H  H230  1  0.88620000  0.35600000  0.19520000  1.0 0.1006218573
H  H231  1  0.05480000  0.68740000  0.89400000  1.0 0.1006218573
H  H232  1  0.19520000  0.88620000  0.35600000  1.0 0.1006218573
H  H233  1  0.19520000  0.56260000  0.88620000  1.0 0.1006218573
H  H234  1  0.56260000  0.35600000  0.88620000  1.0 0.1006218573
H  H235  1  0.36380000  0.89400000  0.68740000  1.0 0.1006218573
H  H236  1  0.05480000  0.36380000  0.68740000  1.0 0.1006218573
H  H237  1  0.56260000  0.88620000  0.19520000  1.0 0.1006218573
H  H238  1  0.36380000  0.68740000  0.05480000  1.0 0.1006218573
H  H239  1  0.35600000  0.56260000  0.19520000  1.0 0.1006218573
H  H240  1  0.56260000  0.19520000  0.35600000  1.0 0.1006218573
H  H241  1  0.50560000  0.44580000  0.19540000  1.0 0.1380811221
H  H242  1  0.74440000  0.80420000  0.39680000  1.0 0.1380811221
H  H243  1  0.80420000  0.39680000  0.74440000  1.0 0.1380811221
H  H244  1  0.39680000  0.74440000  0.80420000  1.0 0.1380811221
H  H245  1  0.80420000  0.05460000  0.39680000  1.0 0.1380811221
H  H246  1  0.44580000  0.85320000  0.19540000  1.0 0.1380811221
H  H247  1  0.05460000  0.74440000  0.39680000  1.0 0.1380811221
H  H248  1  0.85320000  0.50560000  0.19540000  1.0 0.1380811221
H  H249  1  0.05460000  0.39680000  0.80420000  1.0 0.1380811221
H  H250  1  0.85320000  0.19540000  0.44580000  1.0 0.1380811221
H  H251  1  0.44580000  0.50560000  0.85320000  1.0 0.1380811221
H  H252  1  0.80420000  0.74440000  0.05460000  1.0 0.1380811221
H  H253  1  0.05460000  0.80420000  0.74440000  1.0 0.1380811221
H  H254  1  0.85320000  0.44580000  0.50560000  1.0 0.1380811221
H  H255  1  0.74440000  0.05460000  0.80420000  1.0 0.1380811221
H  H256  1  0.50560000  0.85320000  0.44580000  1.0 0.1380811221
H  H257  1  0.50560000  0.19540000  0.85320000  1.0 0.1380811221
H  H258  1  0.19540000  0.44580000  0.85320000  1.0 0.1380811221
H  H259  1  0.39680000  0.80420000  0.05460000  1.0 0.1380811221
H  H260  1  0.74440000  0.39680000  0.05460000  1.0 0.1380811221
H  H261  1  0.19540000  0.85320000  0.50560000  1.0 0.1380811221
H  H262  1  0.39680000  0.05460000  0.74440000  1.0 0.1380811221
H  H263  1  0.44580000  0.19540000  0.50560000  1.0 0.1380811221
H  H264  1  0.19540000  0.50560000  0.44580000  1.0 0.1380811221
H  H265  1  0.24440000  0.30420000  0.55460000  1.0 0.1380811221
H  H266  1  0.00560000  0.94580000  0.35320000  1.0 0.1380811221
H  H267  1  0.94580000  0.35320000  0.00560000  1.0 0.1380811221
H  H268  1  0.35320000  0.00560000  0.94580000  1.0 0.1380811221
H  H269  1  0.94580000  0.69540000  0.35320000  1.0 0.1380811221
H  H270  1  0.30420000  0.89680000  0.55460000  1.0 0.1380811221
H  H271  1  0.69540000  0.00560000  0.35320000  1.0 0.1380811221
H  H272  1  0.89680000  0.24440000  0.55460000  1.0 0.1380811221
H  H273  1  0.69540000  0.35320000  0.94580000  1.0 0.1380811221
H  H274  1  0.89680000  0.55460000  0.30420000  1.0 0.1380811221
H  H275  1  0.30420000  0.24440000  0.89680000  1.0 0.1380811221
H  H276  1  0.94580000  0.00560000  0.69540000  1.0 0.1380811221
H  H277  1  0.69540000  0.94580000  0.00560000  1.0 0.1380811221
H  H278  1  0.89680000  0.30420000  0.24440000  1.0 0.1380811221
H  H279  1  0.00560000  0.69540000  0.94580000  1.0 0.1380811221
H  H280  1  0.24440000  0.89680000  0.30420000  1.0 0.1380811221
H  H281  1  0.24440000  0.55460000  0.89680000  1.0 0.1380811221
H  H282  1  0.55460000  0.30420000  0.89680000  1.0 0.1380811221
H  H283  1  0.35320000  0.94580000  0.69540000  1.0 0.1380811221
H  H284  1  0.00560000  0.35320000  0.69540000  1.0 0.1380811221
H  H285  1  0.55460000  0.89680000  0.24440000  1.0 0.1380811221
H  H286  1  0.35320000  0.69540000  0.00560000  1.0 0.1380811221
H  H287  1  0.30420000  0.55460000  0.24440000  1.0 0.1380811221
H  H288  1  0.55460000  0.24440000  0.30420000  1.0 0.1380811221
H  H289  1  0.50290000  0.50090000  0.14710000  1.0 0.1218328976
H  H290  1  0.74710000  0.74910000  0.40090000  1.0 0.1218328976
H  H291  1  0.74910000  0.40090000  0.74710000  1.0 0.1218328976
H  H292  1  0.40090000  0.74710000  0.74910000  1.0 0.1218328976
H  H293  1  0.74910000  0.10290000  0.40090000  1.0 0.1218328976
H  H294  1  0.50090000  0.84910000  0.14710000  1.0 0.1218328976
H  H295  1  0.10290000  0.74710000  0.40090000  1.0 0.1218328976
H  H296  1  0.84910000  0.50290000  0.14710000  1.0 0.1218328976
H  H297  1  0.10290000  0.40090000  0.74910000  1.0 0.1218328976
H  H298  1  0.84910000  0.14710000  0.50090000  1.0 0.1218328976
H  H299  1  0.50090000  0.50290000  0.84910000  1.0 0.1218328976
H  H300  1  0.74910000  0.74710000  0.10290000  1.0 0.1218328976
H  H301  1  0.10290000  0.74910000  0.74710000  1.0 0.1218328976
H  H302  1  0.84910000  0.50090000  0.50290000  1.0 0.1218328976
H  H303  1  0.74710000  0.10290000  0.74910000  1.0 0.1218328976
H  H304  1  0.50290000  0.84910000  0.50090000  1.0 0.1218328976
H  H305  1  0.50290000  0.14710000  0.84910000  1.0 0.1218328976
H  H306  1  0.14710000  0.50090000  0.84910000  1.0 0.1218328976
H  H307  1  0.40090000  0.74910000  0.10290000  1.0 0.1218328976
H  H308  1  0.74710000  0.40090000  0.10290000  1.0 0.1218328976
H  H309  1  0.14710000  0.84910000  0.50290000  1.0 0.1218328976
H  H310  1  0.40090000  0.10290000  0.74710000  1.0 0.1218328976
H  H311  1  0.50090000  0.14710000  0.50290000  1.0 0.1218328976
H  H312  1  0.14710000  0.50290000  0.50090000  1.0 0.1218328976
H  H313  1  0.24710000  0.24910000  0.60290000  1.0 0.1218328976
H  H314  1  0.00290000  0.00090000  0.34910000  1.0 0.1218328976
H  H315  1  0.00090000  0.34910000  0.00290000  1.0 0.1218328976
H  H316  1  0.34910000  0.00290000  0.00090000  1.0 0.1218328976
H  H317  1  0.00090000  0.64710000  0.34910000  1.0 0.1218328976
H  H318  1  0.24910000  0.90090000  0.60290000  1.0 0.1218328976
H  H319  1  0.64710000  0.00290000  0.34910000  1.0 0.1218328976
H  H320  1  0.90090000  0.24710000  0.60290000  1.0 0.1218328976
H  H321  1  0.64710000  0.34910000  0.00090000  1.0 0.1218328976
H  H322  1  0.90090000  0.60290000  0.24910000  1.0 0.1218328976
H  H323  1  0.24910000  0.24710000  0.90090000  1.0 0.1218328976
H  H324  1  0.00090000  0.00290000  0.64710000  1.0 0.1218328976
H  H325  1  0.64710000  0.00090000  0.00290000  1.0 0.1218328976
H  H326  1  0.90090000  0.24910000  0.24710000  1.0 0.1218328976
H  H327  1  0.00290000  0.64710000  0.00090000  1.0 0.1218328976
H  H328  1  0.24710000  0.90090000  0.24910000  1.0 0.1218328976
H  H329  1  0.24710000  0.60290000  0.90090000  1.0 0.1218328976
H  H330  1  0.60290000  0.24910000  0.90090000  1.0 0.1218328976
H  H331  1  0.34910000  0.00090000  0.64710000  1.0 0.1218328976
H  H332  1  0.00290000  0.34910000  0.64710000  1.0 0.1218328976
H  H333  1  0.60290000  0.90090000  0.24710000  1.0 0.1218328976
H  H334  1  0.34910000  0.64710000  0.00290000  1.0 0.1218328976
H  H335  1  0.24910000  0.60290000  0.24710000  1.0 0.1218328976
H  H336  1  0.60290000  0.24710000  0.24910000  1.0 0.1218328976
H  H337  1  0.59980000  0.44840000  0.08640000  1.0 0.1067867849
H  H338  1  0.65020000  0.80160000  0.38460000  1.0 0.1067867849
H  H339  1  0.80160000  0.38460000  0.65020000  1.0 0.1067867849
H  H340  1  0.38460000  0.65020000  0.80160000  1.0 0.1067867849
H  H341  1  0.80160000  0.16360000  0.38460000  1.0 0.1067867849
H  H342  1  0.44840000  0.86540000  0.08640000  1.0 0.1067867849
H  H343  1  0.16360000  0.65020000  0.38460000  1.0 0.1067867849
H  H344  1  0.86540000  0.59980000  0.08640000  1.0 0.1067867849
H  H345  1  0.16360000  0.38460000  0.80160000  1.0 0.1067867849
H  H346  1  0.86540000  0.08640000  0.44840000  1.0 0.1067867849
H  H347  1  0.44840000  0.59980000  0.86540000  1.0 0.1067867849
H  H348  1  0.80160000  0.65020000  0.16360000  1.0 0.1067867849
H  H349  1  0.16360000  0.80160000  0.65020000  1.0 0.1067867849
H  H350  1  0.86540000  0.44840000  0.59980000  1.0 0.1067867849
H  H351  1  0.65020000  0.16360000  0.80160000  1.0 0.1067867849
H  H352  1  0.59980000  0.86540000  0.44840000  1.0 0.1067867849
H  H353  1  0.59980000  0.08640000  0.86540000  1.0 0.1067867849
H  H354  1  0.08640000  0.44840000  0.86540000  1.0 0.1067867849
H  H355  1  0.38460000  0.80160000  0.16360000  1.0 0.1067867849
H  H356  1  0.65020000  0.38460000  0.16360000  1.0 0.1067867849
H  H357  1  0.08640000  0.86540000  0.59980000  1.0 0.1067867849
H  H358  1  0.38460000  0.16360000  0.65020000  1.0 0.1067867849
H  H359  1  0.44840000  0.08640000  0.59980000  1.0 0.1067867849
H  H360  1  0.08640000  0.59980000  0.44840000  1.0 0.1067867849
H  H361  1  0.15020000  0.30160000  0.66360000  1.0 0.1067867849
H  H362  1  0.09980000  0.94840000  0.36540000  1.0 0.1067867849
H  H363  1  0.94840000  0.36540000  0.09980000  1.0 0.1067867849
H  H364  1  0.36540000  0.09980000  0.94840000  1.0 0.1067867849
H  H365  1  0.94840000  0.58640000  0.36540000  1.0 0.1067867849
H  H366  1  0.30160000  0.88460000  0.66360000  1.0 0.1067867849
H  H367  1  0.58640000  0.09980000  0.36540000  1.0 0.1067867849
H  H368  1  0.88460000  0.15020000  0.66360000  1.0 0.1067867849
H  H369  1  0.58640000  0.36540000  0.94840000  1.0 0.1067867849
H  H370  1  0.88460000  0.66360000  0.30160000  1.0 0.1067867849
H  H371  1  0.30160000  0.15020000  0.88460000  1.0 0.1067867849
H  H372  1  0.94840000  0.09980000  0.58640000  1.0 0.1067867849
H  H373  1  0.58640000  0.94840000  0.09980000  1.0 0.1067867849
H  H374  1  0.88460000  0.30160000  0.15020000  1.0 0.1067867849
H  H375  1  0.09980000  0.58640000  0.94840000  1.0 0.1067867849
H  H376  1  0.15020000  0.88460000  0.30160000  1.0 0.1067867849
H  H377  1  0.15020000  0.66360000  0.88460000  1.0 0.1067867849
H  H378  1  0.66360000  0.30160000  0.88460000  1.0 0.1067867849
H  H379  1  0.36540000  0.94840000  0.58640000  1.0 0.1067867849
H  H380  1  0.09980000  0.36540000  0.58640000  1.0 0.1067867849
H  H381  1  0.66360000  0.88460000  0.15020000  1.0 0.1067867849
H  H382  1  0.36540000  0.58640000  0.09980000  1.0 0.1067867849
H  H383  1  0.30160000  0.66360000  0.15020000  1.0 0.1067867849
H  H384  1  0.66360000  0.15020000  0.30160000  1.0 0.1067867849
H  H385  1  0.58320000  0.59200000  0.95700000  1.0 0.1006218573
H  H386  1  0.66680000  0.65800000  0.38220000  1.0 0.1006218573
H  H387  1  0.65800000  0.38220000  0.66680000  1.0 0.1006218573
H  H388  1  0.38220000  0.66680000  0.65800000  1.0 0.1006218573
H  H389  1  0.65800000  0.29300000  0.38220000  1.0 0.1006218573
H  H390  1  0.59200000  0.86780000  0.95700000  1.0 0.1006218573
H  H391  1  0.29300000  0.66680000  0.38220000  1.0 0.1006218573
H  H392  1  0.86780000  0.58320000  0.95700000  1.0 0.1006218573
H  H393  1  0.29300000  0.38220000  0.65800000  1.0 0.1006218573
H  H394  1  0.86780000  0.95700000  0.59200000  1.0 0.1006218573
H  H395  1  0.59200000  0.58320000  0.86780000  1.0 0.1006218573
H  H396  1  0.65800000  0.66680000  0.29300000  1.0 0.1006218573
H  H397  1  0.29300000  0.65800000  0.66680000  1.0 0.1006218573
H  H398  1  0.86780000  0.59200000  0.58320000  1.0 0.1006218573
H  H399  1  0.66680000  0.29300000  0.65800000  1.0 0.1006218573
H  H400  1  0.58320000  0.86780000  0.59200000  1.0 0.1006218573
H  H401  1  0.58320000  0.95700000  0.86780000  1.0 0.1006218573
H  H402  1  0.95700000  0.59200000  0.86780000  1.0 0.1006218573
H  H403  1  0.38220000  0.65800000  0.29300000  1.0 0.1006218573
H  H404  1  0.66680000  0.38220000  0.29300000  1.0 0.1006218573
H  H405  1  0.95700000  0.86780000  0.58320000  1.0 0.1006218573
H  H406  1  0.38220000  0.29300000  0.66680000  1.0 0.1006218573
H  H407  1  0.59200000  0.95700000  0.58320000  1.0 0.1006218573
H  H408  1  0.95700000  0.58320000  0.59200000  1.0 0.1006218573
H  H409  1  0.16680000  0.15800000  0.79300000  1.0 0.1006218573
H  H410  1  0.08320000  0.09200000  0.36780000  1.0 0.1006218573
H  H411  1  0.09200000  0.36780000  0.08320000  1.0 0.1006218573
H  H412  1  0.36780000  0.08320000  0.09200000  1.0 0.1006218573
H  H413  1  0.09200000  0.45700000  0.36780000  1.0 0.1006218573
H  H414  1  0.15800000  0.88220000  0.79300000  1.0 0.1006218573
H  H415  1  0.45700000  0.08320000  0.36780000  1.0 0.1006218573
H  H416  1  0.88220000  0.16680000  0.79300000  1.0 0.1006218573
H  H417  1  0.45700000  0.36780000  0.09200000  1.0 0.1006218573
H  H418  1  0.88220000  0.79300000  0.15800000  1.0 0.1006218573
H  H419  1  0.15800000  0.16680000  0.88220000  1.0 0.1006218573
H  H420  1  0.09200000  0.08320000  0.45700000  1.0 0.1006218573
H  H421  1  0.45700000  0.09200000  0.08320000  1.0 0.1006218573
H  H422  1  0.88220000  0.15800000  0.16680000  1.0 0.1006218573
H  H423  1  0.08320000  0.45700000  0.09200000  1.0 0.1006218573
H  H424  1  0.16680000  0.88220000  0.15800000  1.0 0.1006218573
H  H425  1  0.16680000  0.79300000  0.88220000  1.0 0.1006218573
H  H426  1  0.79300000  0.15800000  0.88220000  1.0 0.1006218573
H  H427  1  0.36780000  0.09200000  0.45700000  1.0 0.1006218573
H  H428  1  0.08320000  0.36780000  0.45700000  1.0 0.1006218573
H  H429  1  0.79300000  0.88220000  0.16680000  1.0 0.1006218573
H  H430  1  0.36780000  0.45700000  0.08320000  1.0 0.1006218573
H  H431  1  0.15800000  0.79300000  0.16680000  1.0 0.1006218573
H  H432  1  0.79300000  0.16680000  0.15800000  1.0 0.1006218573
H  H433  1  0.63510000  0.48530000  0.00030000  1.0 0.1218328976
H  H434  1  0.61490000  0.76470000  0.37070000  1.0 0.1218328976
H  H435  1  0.76470000  0.37070000  0.61490000  1.0 0.1218328976
H  H436  1  0.37070000  0.61490000  0.76470000  1.0 0.1218328976
H  H437  1  0.76470000  0.24970000  0.37070000  1.0 0.1218328976
H  H438  1  0.48530000  0.87930000  0.00030000  1.0 0.1218328976
H  H439  1  0.24970000  0.61490000  0.37070000  1.0 0.1218328976
H  H440  1  0.87930000  0.63510000  0.00030000  1.0 0.1218328976
H  H441  1  0.24970000  0.37070000  0.76470000  1.0 0.1218328976
H  H442  1  0.87930000  0.00030000  0.48530000  1.0 0.1218328976
H  H443  1  0.48530000  0.63510000  0.87930000  1.0 0.1218328976
H  H444  1  0.76470000  0.61490000  0.24970000  1.0 0.1218328976
H  H445  1  0.24970000  0.76470000  0.61490000  1.0 0.1218328976
H  H446  1  0.87930000  0.48530000  0.63510000  1.0 0.1218328976
H  H447  1  0.61490000  0.24970000  0.76470000  1.0 0.1218328976
H  H448  1  0.63510000  0.87930000  0.48530000  1.0 0.1218328976
H  H449  1  0.63510000  0.00030000  0.87930000  1.0 0.1218328976
H  H450  1  0.00030000  0.48530000  0.87930000  1.0 0.1218328976
H  H451  1  0.37070000  0.76470000  0.24970000  1.0 0.1218328976
H  H452  1  0.61490000  0.37070000  0.24970000  1.0 0.1218328976
H  H453  1  0.00030000  0.87930000  0.63510000  1.0 0.1218328976
H  H454  1  0.37070000  0.24970000  0.61490000  1.0 0.1218328976
H  H455  1  0.48530000  0.00030000  0.63510000  1.0 0.1218328976
H  H456  1  0.00030000  0.63510000  0.48530000  1.0 0.1218328976
H  H457  1  0.11490000  0.26470000  0.74970000  1.0 0.1218328976
H  H458  1  0.13510000  0.98530000  0.37930000  1.0 0.1218328976
H  H459  1  0.98530000  0.37930000  0.13510000  1.0 0.1218328976
H  H460  1  0.37930000  0.13510000  0.98530000  1.0 0.1218328976
H  H461  1  0.98530000  0.50030000  0.37930000  1.0 0.1218328976
H  H462  1  0.26470000  0.87070000  0.74970000  1.0 0.1218328976
H  H463  1  0.50030000  0.13510000  0.37930000  1.0 0.1218328976
H  H464  1  0.87070000  0.11490000  0.74970000  1.0 0.1218328976
H  H465  1  0.50030000  0.37930000  0.98530000  1.0 0.1218328976
H  H466  1  0.87070000  0.74970000  0.26470000  1.0 0.1218328976
H  H467  1  0.26470000  0.11490000  0.87070000  1.0 0.1218328976
H  H468  1  0.98530000  0.13510000  0.50030000  1.0 0.1218328976
H  H469  1  0.50030000  0.98530000  0.13510000  1.0 0.1218328976
H  H470  1  0.87070000  0.26470000  0.11490000  1.0 0.1218328976
H  H471  1  0.13510000  0.50030000  0.98530000  1.0 0.1218328976
H  H472  1  0.11490000  0.87070000  0.26470000  1.0 0.1218328976
H  H473  1  0.11490000  0.74970000  0.87070000  1.0 0.1218328976
H  H474  1  0.74970000  0.26470000  0.87070000  1.0 0.1218328976
H  H475  1  0.37930000  0.98530000  0.50030000  1.0 0.1218328976
H  H476  1  0.13510000  0.37930000  0.50030000  1.0 0.1218328976
H  H477  1  0.74970000  0.87070000  0.11490000  1.0 0.1218328976
H  H478  1  0.37930000  0.50030000  0.13510000  1.0 0.1218328976
H  H479  1  0.26470000  0.74970000  0.11490000  1.0 0.1218328976
H  H480  1  0.74970000  0.11490000  0.26470000  1.0 0.1218328976
H  H481  1  0.67670000  0.48650000  0.94170000  1.0 0.1380811221
H  H482  1  0.57330000  0.76350000  0.35490000  1.0 0.1380811221
H  H483  1  0.76350000  0.35490000  0.57330000  1.0 0.1380811221
H  H484  1  0.35490000  0.57330000  0.76350000  1.0 0.1380811221
H  H485  1  0.76350000  0.30830000  0.35490000  1.0 0.1380811221
H  H486  1  0.48650000  0.89510000  0.94170000  1.0 0.1380811221
H  H487  1  0.30830000  0.57330000  0.35490000  1.0 0.1380811221
H  H488  1  0.89510000  0.67670000  0.94170000  1.0 0.1380811221
H  H489  1  0.30830000  0.35490000  0.76350000  1.0 0.1380811221
H  H490  1  0.89510000  0.94170000  0.48650000  1.0 0.1380811221
H  H491  1  0.48650000  0.67670000  0.89510000  1.0 0.1380811221
H  H492  1  0.76350000  0.57330000  0.30830000  1.0 0.1380811221
H  H493  1  0.30830000  0.76350000  0.57330000  1.0 0.1380811221
H  H494  1  0.89510000  0.48650000  0.67670000  1.0 0.1380811221
H  H495  1  0.57330000  0.30830000  0.76350000  1.0 0.1380811221
H  H496  1  0.67670000  0.89510000  0.48650000  1.0 0.1380811221
H  H497  1  0.67670000  0.94170000  0.89510000  1.0 0.1380811221
H  H498  1  0.94170000  0.48650000  0.89510000  1.0 0.1380811221
H  H499  1  0.35490000  0.76350000  0.30830000  1.0 0.1380811221
H  H500  1  0.57330000  0.35490000  0.30830000  1.0 0.1380811221
H  H501  1  0.94170000  0.89510000  0.67670000  1.0 0.1380811221
H  H502  1  0.35490000  0.30830000  0.57330000  1.0 0.1380811221
H  H503  1  0.48650000  0.94170000  0.67670000  1.0 0.1380811221
H  H504  1  0.94170000  0.67670000  0.48650000  1.0 0.1380811221
H  H505  1  0.07330000  0.26350000  0.80830000  1.0 0.1380811221
H  H506  1  0.17670000  0.98650000  0.39510000  1.0 0.1380811221
H  H507  1  0.98650000  0.39510000  0.17670000  1.0 0.1380811221
H  H508  1  0.39510000  0.17670000  0.98650000  1.0 0.1380811221
H  H509  1  0.98650000  0.44170000  0.39510000  1.0 0.1380811221
H  H510  1  0.26350000  0.85490000  0.80830000  1.0 0.1380811221
H  H511  1  0.44170000  0.17670000  0.39510000  1.0 0.1380811221
H  H512  1  0.85490000  0.07330000  0.80830000  1.0 0.1380811221
H  H513  1  0.44170000  0.39510000  0.98650000  1.0 0.1380811221
H  H514  1  0.85490000  0.80830000  0.26350000  1.0 0.1380811221
H  H515  1  0.26350000  0.07330000  0.85490000  1.0 0.1380811221
H  H516  1  0.98650000  0.17670000  0.44170000  1.0 0.1380811221
H  H517  1  0.44170000  0.98650000  0.17670000  1.0 0.1380811221
H  H518  1  0.85490000  0.26350000  0.07330000  1.0 0.1380811221
H  H519  1  0.17670000  0.44170000  0.98650000  1.0 0.1380811221
H  H520  1  0.07330000  0.85490000  0.26350000  1.0 0.1380811221
H  H521  1  0.07330000  0.80830000  0.85490000  1.0 0.1380811221
H  H522  1  0.80830000  0.26350000  0.85490000  1.0 0.1380811221
H  H523  1  0.39510000  0.98650000  0.44170000  1.0 0.1380811221
H  H524  1  0.17670000  0.39510000  0.44170000  1.0 0.1380811221
H  H525  1  0.80830000  0.85490000  0.07330000  1.0 0.1380811221
H  H526  1  0.39510000  0.44170000  0.17670000  1.0 0.1380811221
H  H527  1  0.26350000  0.80830000  0.07330000  1.0 0.1380811221
H  H528  1  0.80830000  0.07330000  0.26350000  1.0 0.1380811221
H  H529  1  0.67140000  0.54080000  0.89360000  1.0 0.1006218573
H  H530  1  0.57860000  0.70920000  0.35580000  1.0 0.1006218573
H  H531  1  0.70920000  0.35580000  0.57860000  1.0 0.1006218573
H  H532  1  0.35580000  0.57860000  0.70920000  1.0 0.1006218573
H  H533  1  0.70920000  0.35640000  0.35580000  1.0 0.1006218573
H  H534  1  0.54080000  0.89420000  0.89360000  1.0 0.1006218573
H  H535  1  0.35640000  0.57860000  0.35580000  1.0 0.1006218573
H  H536  1  0.89420000  0.67140000  0.89360000  1.0 0.1006218573
H  H537  1  0.35640000  0.35580000  0.70920000  1.0 0.1006218573
H  H538  1  0.89420000  0.89360000  0.54080000  1.0 0.1006218573
H  H539  1  0.54080000  0.67140000  0.89420000  1.0 0.1006218573
H  H540  1  0.70920000  0.57860000  0.35640000  1.0 0.1006218573
H  H541  1  0.35640000  0.70920000  0.57860000  1.0 0.1006218573
H  H542  1  0.89420000  0.54080000  0.67140000  1.0 0.1006218573
H  H543  1  0.57860000  0.35640000  0.70920000  1.0 0.1006218573
H  H544  1  0.67140000  0.89420000  0.54080000  1.0 0.1006218573
H  H545  1  0.67140000  0.89360000  0.89420000  1.0 0.1006218573
H  H546  1  0.89360000  0.54080000  0.89420000  1.0 0.1006218573
H  H547  1  0.35580000  0.70920000  0.35640000  1.0 0.1006218573
H  H548  1  0.57860000  0.35580000  0.35640000  1.0 0.1006218573
H  H549  1  0.89360000  0.89420000  0.67140000  1.0 0.1006218573
H  H550  1  0.35580000  0.35640000  0.57860000  1.0 0.1006218573
H  H551  1  0.54080000  0.89360000  0.67140000  1.0 0.1006218573
H  H552  1  0.89360000  0.67140000  0.54080000  1.0 0.1006218573
H  H553  1  0.07860000  0.20920000  0.85640000  1.0 0.1006218573
H  H554  1  0.17140000  0.04080000  0.39420000  1.0 0.1006218573
H  H555  1  0.04080000  0.39420000  0.17140000  1.0 0.1006218573
H  H556  1  0.39420000  0.17140000  0.04080000  1.0 0.1006218573
H  H557  1  0.04080000  0.39360000  0.39420000  1.0 0.1006218573
H  H558  1  0.20920000  0.85580000  0.85640000  1.0 0.1006218573
H  H559  1  0.39360000  0.17140000  0.39420000  1.0 0.1006218573
H  H560  1  0.85580000  0.07860000  0.85640000  1.0 0.1006218573
H  H561  1  0.39360000  0.39420000  0.04080000  1.0 0.1006218573
H  H562  1  0.85580000  0.85640000  0.20920000  1.0 0.1006218573
H  H563  1  0.20920000  0.07860000  0.85580000  1.0 0.1006218573
H  H564  1  0.04080000  0.17140000  0.39360000  1.0 0.1006218573
H  H565  1  0.39360000  0.04080000  0.17140000  1.0 0.1006218573
H  H566  1  0.85580000  0.20920000  0.07860000  1.0 0.1006218573
H  H567  1  0.17140000  0.39360000  0.04080000  1.0 0.1006218573
H  H568  1  0.07860000  0.85580000  0.20920000  1.0 0.1006218573
H  H569  1  0.07860000  0.85640000  0.85580000  1.0 0.1006218573
H  H570  1  0.85640000  0.20920000  0.85580000  1.0 0.1006218573
H  H571  1  0.39420000  0.04080000  0.39360000  1.0 0.1006218573
H  H572  1  0.17140000  0.39420000  0.39360000  1.0 0.1006218573
H  H573  1  0.85640000  0.85580000  0.07860000  1.0 0.1006218573
H  H574  1  0.39420000  0.39360000  0.17140000  1.0 0.1006218573
H  H575  1  0.20920000  0.85640000  0.07860000  1.0 0.1006218573
H  H576  1  0.85640000  0.07860000  0.20920000  1.0 0.1006218573
H  H577  1  0.61400000  0.64880000  0.80380000  1.0 0.1006218573
H  H578  1  0.63600000  0.60120000  0.31660000  1.0 0.1006218573
H  H579  1  0.60120000  0.31660000  0.63600000  1.0 0.1006218573
H  H580  1  0.31660000  0.63600000  0.60120000  1.0 0.1006218573
H  H581  1  0.60120000  0.44620000  0.31660000  1.0 0.1006218573
H  H582  1  0.64880000  0.93340000  0.80380000  1.0 0.1006218573
H  H583  1  0.44620000  0.63600000  0.31660000  1.0 0.1006218573
H  H584  1  0.93340000  0.61400000  0.80380000  1.0 0.1006218573
H  H585  1  0.44620000  0.31660000  0.60120000  1.0 0.1006218573
H  H586  1  0.93340000  0.80380000  0.64880000  1.0 0.1006218573
H  H587  1  0.64880000  0.61400000  0.93340000  1.0 0.1006218573
H  H588  1  0.60120000  0.63600000  0.44620000  1.0 0.1006218573
H  H589  1  0.44620000  0.60120000  0.63600000  1.0 0.1006218573
H  H590  1  0.93340000  0.64880000  0.61400000  1.0 0.1006218573
H  H591  1  0.63600000  0.44620000  0.60120000  1.0 0.1006218573
H  H592  1  0.61400000  0.93340000  0.64880000  1.0 0.1006218573
H  H593  1  0.61400000  0.80380000  0.93340000  1.0 0.1006218573
H  H594  1  0.80380000  0.64880000  0.93340000  1.0 0.1006218573
H  H595  1  0.31660000  0.60120000  0.44620000  1.0 0.1006218573
H  H596  1  0.63600000  0.31660000  0.44620000  1.0 0.1006218573
H  H597  1  0.80380000  0.93340000  0.61400000  1.0 0.1006218573
H  H598  1  0.31660000  0.44620000  0.63600000  1.0 0.1006218573
H  H599  1  0.64880000  0.80380000  0.61400000  1.0 0.1006218573
H  H600  1  0.80380000  0.61400000  0.64880000  1.0 0.1006218573
H  H601  1  0.13600000  0.10120000  0.94620000  1.0 0.1006218573
H  H602  1  0.11400000  0.14880000  0.43340000  1.0 0.1006218573
H  H603  1  0.14880000  0.43340000  0.11400000  1.0 0.1006218573
H  H604  1  0.43340000  0.11400000  0.14880000  1.0 0.1006218573
H  H605  1  0.14880000  0.30380000  0.43340000  1.0 0.1006218573
H  H606  1  0.10120000  0.81660000  0.94620000  1.0 0.1006218573
H  H607  1  0.30380000  0.11400000  0.43340000  1.0 0.1006218573
H  H608  1  0.81660000  0.13600000  0.94620000  1.0 0.1006218573
H  H609  1  0.30380000  0.43340000  0.14880000  1.0 0.1006218573
H  H610  1  0.81660000  0.94620000  0.10120000  1.0 0.1006218573
H  H611  1  0.10120000  0.13600000  0.81660000  1.0 0.1006218573
H  H612  1  0.14880000  0.11400000  0.30380000  1.0 0.1006218573
H  H613  1  0.30380000  0.14880000  0.11400000  1.0 0.1006218573
H  H614  1  0.81660000  0.10120000  0.13600000  1.0 0.1006218573
H  H615  1  0.11400000  0.30380000  0.14880000  1.0 0.1006218573
H  H616  1  0.13600000  0.81660000  0.10120000  1.0 0.1006218573
H  H617  1  0.13600000  0.94620000  0.81660000  1.0 0.1006218573
H  H618  1  0.94620000  0.10120000  0.81660000  1.0 0.1006218573
H  H619  1  0.43340000  0.14880000  0.30380000  1.0 0.1006218573
H  H620  1  0.11400000  0.43340000  0.30380000  1.0 0.1006218573
H  H621  1  0.94620000  0.81660000  0.13600000  1.0 0.1006218573
H  H622  1  0.43340000  0.30380000  0.11400000  1.0 0.1006218573
H  H623  1  0.10120000  0.94620000  0.13600000  1.0 0.1006218573
H  H624  1  0.94620000  0.13600000  0.10120000  1.0 0.1006218573
H  H625  1  0.60240000  0.70020000  0.75520000  1.0 0.1380811221
H  H626  1  0.64760000  0.54980000  0.30780000  1.0 0.1380811221
H  H627  1  0.54980000  0.30780000  0.64760000  1.0 0.1380811221
H  H628  1  0.30780000  0.64760000  0.54980000  1.0 0.1380811221
H  H629  1  0.54980000  0.49480000  0.30780000  1.0 0.1380811221
H  H630  1  0.70020000  0.94220000  0.75520000  1.0 0.1380811221
H  H631  1  0.49480000  0.64760000  0.30780000  1.0 0.1380811221
H  H632  1  0.94220000  0.60240000  0.75520000  1.0 0.1380811221
H  H633  1  0.49480000  0.30780000  0.54980000  1.0 0.1380811221
H  H634  1  0.94220000  0.75520000  0.70020000  1.0 0.1380811221
H  H635  1  0.70020000  0.60240000  0.94220000  1.0 0.1380811221
H  H636  1  0.54980000  0.64760000  0.49480000  1.0 0.1380811221
H  H637  1  0.49480000  0.54980000  0.64760000  1.0 0.1380811221
H  H638  1  0.94220000  0.70020000  0.60240000  1.0 0.1380811221
H  H639  1  0.64760000  0.49480000  0.54980000  1.0 0.1380811221
H  H640  1  0.60240000  0.94220000  0.70020000  1.0 0.1380811221
H  H641  1  0.60240000  0.75520000  0.94220000  1.0 0.1380811221
H  H642  1  0.75520000  0.70020000  0.94220000  1.0 0.1380811221
H  H643  1  0.30780000  0.54980000  0.49480000  1.0 0.1380811221
H  H644  1  0.64760000  0.30780000  0.49480000  1.0 0.1380811221
H  H645  1  0.75520000  0.94220000  0.60240000  1.0 0.1380811221
H  H646  1  0.30780000  0.49480000  0.64760000  1.0 0.1380811221
H  H647  1  0.70020000  0.75520000  0.60240000  1.0 0.1380811221
H  H648  1  0.75520000  0.60240000  0.70020000  1.0 0.1380811221
H  H649  1  0.14760000  0.04980000  0.99480000  1.0 0.1380811221
H  H650  1  0.10240000  0.20020000  0.44220000  1.0 0.1380811221
H  H651  1  0.20020000  0.44220000  0.10240000  1.0 0.1380811221
H  H652  1  0.44220000  0.10240000  0.20020000  1.0 0.1380811221
H  H653  1  0.20020000  0.25520000  0.44220000  1.0 0.1380811221
H  H654  1  0.04980000  0.80780000  0.99480000  1.0 0.1380811221
H  H655  1  0.25520000  0.10240000  0.44220000  1.0 0.1380811221
H  H656  1  0.80780000  0.14760000  0.99480000  1.0 0.1380811221
H  H657  1  0.25520000  0.44220000  0.20020000  1.0 0.1380811221
H  H658  1  0.80780000  0.99480000  0.04980000  1.0 0.1380811221
H  H659  1  0.04980000  0.14760000  0.80780000  1.0 0.1380811221
H  H660  1  0.20020000  0.10240000  0.25520000  1.0 0.1380811221
H  H661  1  0.25520000  0.20020000  0.10240000  1.0 0.1380811221
H  H662  1  0.80780000  0.04980000  0.14760000  1.0 0.1380811221
H  H663  1  0.10240000  0.25520000  0.20020000  1.0 0.1380811221
H  H664  1  0.14760000  0.80780000  0.04980000  1.0 0.1380811221
H  H665  1  0.14760000  0.99480000  0.80780000  1.0 0.1380811221
H  H666  1  0.99480000  0.04980000  0.80780000  1.0 0.1380811221
H  H667  1  0.44220000  0.20020000  0.25520000  1.0 0.1380811221
H  H668  1  0.10240000  0.44220000  0.25520000  1.0 0.1380811221
H  H669  1  0.99480000  0.80780000  0.14760000  1.0 0.1380811221
H  H670  1  0.44220000  0.25520000  0.10240000  1.0 0.1380811221
H  H671  1  0.04980000  0.99480000  0.14760000  1.0 0.1380811221
H  H672  1  0.99480000  0.14760000  0.04980000  1.0 0.1380811221
H  H673  1  0.60090000  0.75510000  0.75090000  1.0 0.1218328976
H  H674  1  0.64910000  0.49490000  0.35690000  1.0 0.1218328976
H  H675  1  0.49490000  0.35690000  0.64910000  1.0 0.1218328976
H  H676  1  0.35690000  0.64910000  0.49490000  1.0 0.1218328976
H  H677  1  0.49490000  0.49910000  0.35690000  1.0 0.1218328976
H  H678  1  0.75510000  0.89310000  0.75090000  1.0 0.1218328976
H  H679  1  0.49910000  0.64910000  0.35690000  1.0 0.1218328976
H  H680  1  0.89310000  0.60090000  0.75090000  1.0 0.1218328976
H  H681  1  0.49910000  0.35690000  0.49490000  1.0 0.1218328976
H  H682  1  0.89310000  0.75090000  0.75510000  1.0 0.1218328976
H  H683  1  0.75510000  0.60090000  0.89310000  1.0 0.1218328976
H  H684  1  0.49490000  0.64910000  0.49910000  1.0 0.1218328976
H  H685  1  0.49910000  0.49490000  0.64910000  1.0 0.1218328976
H  H686  1  0.89310000  0.75510000  0.60090000  1.0 0.1218328976
H  H687  1  0.64910000  0.49910000  0.49490000  1.0 0.1218328976
H  H688  1  0.60090000  0.89310000  0.75510000  1.0 0.1218328976
H  H689  1  0.60090000  0.75090000  0.89310000  1.0 0.1218328976
H  H690  1  0.75090000  0.75510000  0.89310000  1.0 0.1218328976
H  H691  1  0.35690000  0.49490000  0.49910000  1.0 0.1218328976
H  H692  1  0.64910000  0.35690000  0.49910000  1.0 0.1218328976
H  H693  1  0.75090000  0.89310000  0.60090000  1.0 0.1218328976
H  H694  1  0.35690000  0.49910000  0.64910000  1.0 0.1218328976
H  H695  1  0.75510000  0.75090000  0.60090000  1.0 0.1218328976
H  H696  1  0.75090000  0.60090000  0.75510000  1.0 0.1218328976
H  H697  1  0.14910000  0.99490000  0.99910000  1.0 0.1218328976
H  H698  1  0.10090000  0.25510000  0.39310000  1.0 0.1218328976
H  H699  1  0.25510000  0.39310000  0.10090000  1.0 0.1218328976
H  H700  1  0.39310000  0.10090000  0.25510000  1.0 0.1218328976
H  H701  1  0.25510000  0.25090000  0.39310000  1.0 0.1218328976
H  H702  1  0.99490000  0.85690000  0.99910000  1.0 0.1218328976
H  H703  1  0.25090000  0.10090000  0.39310000  1.0 0.1218328976
H  H704  1  0.85690000  0.14910000  0.99910000  1.0 0.1218328976
H  H705  1  0.25090000  0.39310000  0.25510000  1.0 0.1218328976
H  H706  1  0.85690000  0.99910000  0.99490000  1.0 0.1218328976
H  H707  1  0.99490000  0.14910000  0.85690000  1.0 0.1218328976
H  H708  1  0.25510000  0.10090000  0.25090000  1.0 0.1218328976
H  H709  1  0.25090000  0.25510000  0.10090000  1.0 0.1218328976
H  H710  1  0.85690000  0.99490000  0.14910000  1.0 0.1218328976
H  H711  1  0.10090000  0.25090000  0.25510000  1.0 0.1218328976
H  H712  1  0.14910000  0.85690000  0.99490000  1.0 0.1218328976
H  H713  1  0.14910000  0.99910000  0.85690000  1.0 0.1218328976
H  H714  1  0.99910000  0.99490000  0.85690000  1.0 0.1218328976
H  H715  1  0.39310000  0.25510000  0.25090000  1.0 0.1218328976
H  H716  1  0.10090000  0.39310000  0.25090000  1.0 0.1218328976
H  H717  1  0.99910000  0.85690000  0.14910000  1.0 0.1218328976
H  H718  1  0.39310000  0.25090000  0.10090000  1.0 0.1218328976
H  H719  1  0.99490000  0.99910000  0.14910000  1.0 0.1218328976
H  H720  1  0.99910000  0.14910000  0.99490000  1.0 0.1218328976
H  H721  1  0.62060000  0.70260000  0.84600000  1.0 0.1067867849
H  H722  1  0.62940000  0.54740000  0.41920000  1.0 0.1067867849
H  H723  1  0.54740000  0.41920000  0.62940000  1.0 0.1067867849
H  H724  1  0.41920000  0.62940000  0.54740000  1.0 0.1067867849
H  H725  1  0.54740000  0.40400000  0.41920000  1.0 0.1067867849
H  H726  1  0.70260000  0.83080000  0.84600000  1.0 0.1067867849
H  H727  1  0.40400000  0.62940000  0.41920000  1.0 0.1067867849
H  H728  1  0.83080000  0.62060000  0.84600000  1.0 0.1067867849
H  H729  1  0.40400000  0.41920000  0.54740000  1.0 0.1067867849
H  H730  1  0.83080000  0.84600000  0.70260000  1.0 0.1067867849
H  H731  1  0.70260000  0.62060000  0.83080000  1.0 0.1067867849
H  H732  1  0.54740000  0.62940000  0.40400000  1.0 0.1067867849
H  H733  1  0.40400000  0.54740000  0.62940000  1.0 0.1067867849
H  H734  1  0.83080000  0.70260000  0.62060000  1.0 0.1067867849
H  H735  1  0.62940000  0.40400000  0.54740000  1.0 0.1067867849
H  H736  1  0.62060000  0.83080000  0.70260000  1.0 0.1067867849
H  H737  1  0.62060000  0.84600000  0.83080000  1.0 0.1067867849
H  H738  1  0.84600000  0.70260000  0.83080000  1.0 0.1067867849
H  H739  1  0.41920000  0.54740000  0.40400000  1.0 0.1067867849
H  H740  1  0.62940000  0.41920000  0.40400000  1.0 0.1067867849
H  H741  1  0.84600000  0.83080000  0.62060000  1.0 0.1067867849
H  H742  1  0.41920000  0.40400000  0.62940000  1.0 0.1067867849
H  H743  1  0.70260000  0.84600000  0.62060000  1.0 0.1067867849
H  H744  1  0.84600000  0.62060000  0.70260000  1.0 0.1067867849
H  H745  1  0.12940000  0.04740000  0.90400000  1.0 0.1067867849
H  H746  1  0.12060000  0.20260000  0.33080000  1.0 0.1067867849
H  H747  1  0.20260000  0.33080000  0.12060000  1.0 0.1067867849
H  H748  1  0.33080000  0.12060000  0.20260000  1.0 0.1067867849
H  H749  1  0.20260000  0.34600000  0.33080000  1.0 0.1067867849
H  H750  1  0.04740000  0.91920000  0.90400000  1.0 0.1067867849
H  H751  1  0.34600000  0.12060000  0.33080000  1.0 0.1067867849
H  H752  1  0.91920000  0.12940000  0.90400000  1.0 0.1067867849
H  H753  1  0.34600000  0.33080000  0.20260000  1.0 0.1067867849
H  H754  1  0.91920000  0.90400000  0.04740000  1.0 0.1067867849
H  H755  1  0.04740000  0.12940000  0.91920000  1.0 0.1067867849
H  H756  1  0.20260000  0.12060000  0.34600000  1.0 0.1067867849
H  H757  1  0.34600000  0.20260000  0.12060000  1.0 0.1067867849
H  H758  1  0.91920000  0.04740000  0.12940000  1.0 0.1067867849
H  H759  1  0.12060000  0.34600000  0.20260000  1.0 0.1067867849
H  H760  1  0.12940000  0.91920000  0.04740000  1.0 0.1067867849
H  H761  1  0.12940000  0.90400000  0.91920000  1.0 0.1067867849
H  H762  1  0.90400000  0.04740000  0.91920000  1.0 0.1067867849
H  H763  1  0.33080000  0.20260000  0.34600000  1.0 0.1067867849
H  H764  1  0.12060000  0.33080000  0.34600000  1.0 0.1067867849
H  H765  1  0.90400000  0.91920000  0.12940000  1.0 0.1067867849
H  H766  1  0.33080000  0.34600000  0.12060000  1.0 0.1067867849
H  H767  1  0.04740000  0.90400000  0.12940000  1.0 0.1067867849
H  H768  1  0.90400000  0.12940000  0.04740000  1.0 0.1067867849
C  C1  1  0.64589000  0.40005000  0.03839000  1.0 0.2418804561
C  C2  1  0.60411000  0.84995000  0.33433000  1.0 0.2418804561
C  C3  1  0.84995000  0.33433000  0.60411000  1.0 0.2418804561
C  C4  1  0.33433000  0.60411000  0.84995000  1.0 0.2418804561
C  C5  1  0.84995000  0.21161000  0.33433000  1.0 0.2418804561
C  C6  1  0.40005000  0.91567000  0.03839000  1.0 0.2418804561
C  C7  1  0.21161000  0.60411000  0.33433000  1.0 0.2418804561
C  C8  1  0.91567000  0.64589000  0.03839000  1.0 0.2418804561
C  C9  1  0.21161000  0.33433000  0.84995000  1.0 0.2418804561
C  C10  1  0.91567000  0.03839000  0.40005000  1.0 0.2418804561
C  C11  1  0.40005000  0.64589000  0.91567000  1.0 0.2418804561
C  C12  1  0.84995000  0.60411000  0.21161000  1.0 0.2418804561
C  C13  1  0.21161000  0.84995000  0.60411000  1.0 0.2418804561
C  C14  1  0.91567000  0.40005000  0.64589000  1.0 0.2418804561
C  C15  1  0.60411000  0.21161000  0.84995000  1.0 0.2418804561
C  C16  1  0.64589000  0.91567000  0.40005000  1.0 0.2418804561
C  C17  1  0.64589000  0.03839000  0.91567000  1.0 0.2418804561
C  C18  1  0.03839000  0.40005000  0.91567000  1.0 0.2418804561
C  C19  1  0.33433000  0.84995000  0.21161000  1.0 0.2418804561
C  C20  1  0.60411000  0.33433000  0.21161000  1.0 0.2418804561
C  C21  1  0.03839000  0.91567000  0.64589000  1.0 0.2418804561
C  C22  1  0.33433000  0.21161000  0.60411000  1.0 0.2418804561
C  C23  1  0.40005000  0.03839000  0.64589000  1.0 0.2418804561
C  C24  1  0.03839000  0.64589000  0.40005000  1.0 0.2418804561
C  C25  1  0.10411000  0.34995000  0.71161000  1.0 0.2418804561
C  C26  1  0.14589000  0.90005000  0.41567000  1.0 0.2418804561
C  C27  1  0.90005000  0.41567000  0.14589000  1.0 0.2418804561
C  C28  1  0.41567000  0.14589000  0.90005000  1.0 0.2418804561
C  C29  1  0.90005000  0.53839000  0.41567000  1.0 0.2418804561
C  C30  1  0.34995000  0.83433000  0.71161000  1.0 0.2418804561
C  C31  1  0.53839000  0.14589000  0.41567000  1.0 0.2418804561
C  C32  1  0.83433000  0.10411000  0.71161000  1.0 0.2418804561
C  C33  1  0.53839000  0.41567000  0.90005000  1.0 0.2418804561
C  C34  1  0.83433000  0.71161000  0.34995000  1.0 0.2418804561
C  C35  1  0.34995000  0.10411000  0.83433000  1.0 0.2418804561
C  C36  1  0.90005000  0.14589000  0.53839000  1.0 0.2418804561
C  C37  1  0.53839000  0.90005000  0.14589000  1.0 0.2418804561
C  C38  1  0.83433000  0.34995000  0.10411000  1.0 0.2418804561
C  C39  1  0.14589000  0.53839000  0.90005000  1.0 0.2418804561
C  C40  1  0.10411000  0.83433000  0.34995000  1.0 0.2418804561
C  C41  1  0.10411000  0.71161000  0.83433000  1.0 0.2418804561
C  C42  1  0.71161000  0.34995000  0.83433000  1.0 0.2418804561
C  C43  1  0.41567000  0.90005000  0.53839000  1.0 0.2418804561
C  C44  1  0.14589000  0.41567000  0.53839000  1.0 0.2418804561
C  C45  1  0.71161000  0.83433000  0.10411000  1.0 0.2418804561
C  C46  1  0.41567000  0.53839000  0.14589000  1.0 0.2418804561
C  C47  1  0.34995000  0.71161000  0.10411000  1.0 0.2418804561
C  C48  1  0.71161000  0.10411000  0.34995000  1.0 0.2418804561
C  C49  1  0.67267000  0.57953000  0.81973000  1.0 0.2418804561
C  C50  1  0.57733000  0.67047000  0.32193000  1.0 0.2418804561
C  C51  1  0.67047000  0.32193000  0.57733000  1.0 0.2418804561
C  C52  1  0.32193000  0.57733000  0.67047000  1.0 0.2418804561
C  C53  1  0.67047000  0.43027000  0.32193000  1.0 0.2418804561
C  C54  1  0.57953000  0.92807000  0.81973000  1.0 0.2418804561
C  C55  1  0.43027000  0.57733000  0.32193000  1.0 0.2418804561
C  C56  1  0.92807000  0.67267000  0.81973000  1.0 0.2418804561
C  C57  1  0.43027000  0.32193000  0.67047000  1.0 0.2418804561
C  C58  1  0.92807000  0.81973000  0.57953000  1.0 0.2418804561
C  C59  1  0.57953000  0.67267000  0.92807000  1.0 0.2418804561
C  C60  1  0.67047000  0.57733000  0.43027000  1.0 0.2418804561
C  C61  1  0.43027000  0.67047000  0.57733000  1.0 0.2418804561
C  C62  1  0.92807000  0.57953000  0.67267000  1.0 0.2418804561
C  C63  1  0.57733000  0.43027000  0.67047000  1.0 0.2418804561
C  C64  1  0.67267000  0.92807000  0.57953000  1.0 0.2418804561
C  C65  1  0.67267000  0.81973000  0.92807000  1.0 0.2418804561
C  C66  1  0.81973000  0.57953000  0.92807000  1.0 0.2418804561
C  C67  1  0.32193000  0.67047000  0.43027000  1.0 0.2418804561
C  C68  1  0.57733000  0.32193000  0.43027000  1.0 0.2418804561
C  C69  1  0.81973000  0.92807000  0.67267000  1.0 0.2418804561
C  C70  1  0.32193000  0.43027000  0.57733000  1.0 0.2418804561
C  C71  1  0.57953000  0.81973000  0.67267000  1.0 0.2418804561
C  C72  1  0.81973000  0.67267000  0.57953000  1.0 0.2418804561
C  C73  1  0.07733000  0.17047000  0.93027000  1.0 0.2418804561
C  C74  1  0.17267000  0.07953000  0.42807000  1.0 0.2418804561
C  C75  1  0.07953000  0.42807000  0.17267000  1.0 0.2418804561
C  C76  1  0.42807000  0.17267000  0.07953000  1.0 0.2418804561
C  C77  1  0.07953000  0.31973000  0.42807000  1.0 0.2418804561
C  C78  1  0.17047000  0.82193000  0.93027000  1.0 0.2418804561
C  C79  1  0.31973000  0.17267000  0.42807000  1.0 0.2418804561
C  C80  1  0.82193000  0.07733000  0.93027000  1.0 0.2418804561
C  C81  1  0.31973000  0.42807000  0.07953000  1.0 0.2418804561
C  C82  1  0.82193000  0.93027000  0.17047000  1.0 0.2418804561
C  C83  1  0.17047000  0.07733000  0.82193000  1.0 0.2418804561
C  C84  1  0.07953000  0.17267000  0.31973000  1.0 0.2418804561
C  C85  1  0.31973000  0.07953000  0.17267000  1.0 0.2418804561
C  C86  1  0.82193000  0.17047000  0.07733000  1.0 0.2418804561
C  C87  1  0.17267000  0.31973000  0.07953000  1.0 0.2418804561
C  C88  1  0.07733000  0.82193000  0.17047000  1.0 0.2418804561
C  C89  1  0.07733000  0.93027000  0.82193000  1.0 0.2418804561
C  C90  1  0.93027000  0.17047000  0.82193000  1.0 0.2418804561
C  C91  1  0.42807000  0.07953000  0.31973000  1.0 0.2418804561
C  C92  1  0.17267000  0.42807000  0.31973000  1.0 0.2418804561
C  C93  1  0.93027000  0.82193000  0.07733000  1.0 0.2418804561
C  C94  1  0.42807000  0.31973000  0.17267000  1.0 0.2418804561
C  C95  1  0.17047000  0.93027000  0.07733000  1.0 0.2418804561
C  C96  1  0.93027000  0.07733000  0.17047000  1.0 0.2418804561
C  C97  1  0.43714000  0.66806000  0.05970000  1.0 0.0722431306
C  C98  1  0.81286000  0.58194000  0.41490000  1.0 0.0722431306
C  C99  1  0.58194000  0.41490000  0.81286000  1.0 0.0722431306
C  C100  1  0.41490000  0.81286000  0.58194000  1.0 0.0722431306
C  C101  1  0.58194000  0.19030000  0.41490000  1.0 0.0722431306
C  C102  1  0.66806000  0.83510000  0.05970000  1.0 0.0722431306
C  C103  1  0.19030000  0.81286000  0.41490000  1.0 0.0722431306
C  C104  1  0.83510000  0.43714000  0.05970000  1.0 0.0722431306
C  C105  1  0.19030000  0.41490000  0.58194000  1.0 0.0722431306
C  C106  1  0.83510000  0.05970000  0.66806000  1.0 0.0722431306
C  C107  1  0.66806000  0.43714000  0.83510000  1.0 0.0722431306
C  C108  1  0.58194000  0.81286000  0.19030000  1.0 0.0722431306
C  C109  1  0.19030000  0.58194000  0.81286000  1.0 0.0722431306
C  C110  1  0.83510000  0.66806000  0.43714000  1.0 0.0722431306
C  C111  1  0.81286000  0.19030000  0.58194000  1.0 0.0722431306
C  C112  1  0.43714000  0.83510000  0.66806000  1.0 0.0722431306
C  C113  1  0.43714000  0.05970000  0.83510000  1.0 0.0722431306
C  C114  1  0.05970000  0.66806000  0.83510000  1.0 0.0722431306
C  C115  1  0.41490000  0.58194000  0.19030000  1.0 0.0722431306
C  C116  1  0.81286000  0.41490000  0.19030000  1.0 0.0722431306
C  C117  1  0.05970000  0.83510000  0.43714000  1.0 0.0722431306
C  C118  1  0.41490000  0.19030000  0.81286000  1.0 0.0722431306
C  C119  1  0.66806000  0.05970000  0.43714000  1.0 0.0722431306
C  C120  1  0.05970000  0.43714000  0.66806000  1.0 0.0722431306
C  C121  1  0.31286000  0.08194000  0.69030000  1.0 0.0722431306
C  C122  1  0.93714000  0.16806000  0.33510000  1.0 0.0722431306
C  C123  1  0.16806000  0.33510000  0.93714000  1.0 0.0722431306
C  C124  1  0.33510000  0.93714000  0.16806000  1.0 0.0722431306
C  C125  1  0.16806000  0.55970000  0.33510000  1.0 0.0722431306
C  C126  1  0.08194000  0.91490000  0.69030000  1.0 0.0722431306
C  C127  1  0.55970000  0.93714000  0.33510000  1.0 0.0722431306
C  C128  1  0.91490000  0.31286000  0.69030000  1.0 0.0722431306
C  C129  1  0.55970000  0.33510000  0.16806000  1.0 0.0722431306
C  C130  1  0.91490000  0.69030000  0.08194000  1.0 0.0722431306
C  C131  1  0.08194000  0.31286000  0.91490000  1.0 0.0722431306
C  C132  1  0.16806000  0.93714000  0.55970000  1.0 0.0722431306
C  C133  1  0.55970000  0.16806000  0.93714000  1.0 0.0722431306
C  C134  1  0.91490000  0.08194000  0.31286000  1.0 0.0722431306
C  C135  1  0.93714000  0.55970000  0.16806000  1.0 0.0722431306
C  C136  1  0.31286000  0.91490000  0.08194000  1.0 0.0722431306
C  C137  1  0.31286000  0.69030000  0.91490000  1.0 0.0722431306
C  C138  1  0.69030000  0.08194000  0.91490000  1.0 0.0722431306
C  C139  1  0.33510000  0.16806000  0.55970000  1.0 0.0722431306
C  C140  1  0.93714000  0.33510000  0.55970000  1.0 0.0722431306
C  C141  1  0.69030000  0.91490000  0.31286000  1.0 0.0722431306
C  C142  1  0.33510000  0.55970000  0.93714000  1.0 0.0722431306
C  C143  1  0.08194000  0.69030000  0.31286000  1.0 0.0722431306
C  C144  1  0.69030000  0.31286000  0.08194000  1.0 0.0722431306
C  C145  1  0.46977000  0.67195000  0.03331000  1.0 -0.1290551781
C  C146  1  0.78023000  0.57805000  0.42503000  1.0 -0.1290551781
C  C147  1  0.57805000  0.42503000  0.78023000  1.0 -0.1290551781
C  C148  1  0.42503000  0.78023000  0.57805000  1.0 -0.1290551781
C  C149  1  0.57805000  0.21669000  0.42503000  1.0 -0.1290551781
C  C150  1  0.67195000  0.82497000  0.03331000  1.0 -0.1290551781
C  C151  1  0.21669000  0.78023000  0.42503000  1.0 -0.1290551781
C  C152  1  0.82497000  0.46977000  0.03331000  1.0 -0.1290551781
C  C153  1  0.21669000  0.42503000  0.57805000  1.0 -0.1290551781
C  C154  1  0.82497000  0.03331000  0.67195000  1.0 -0.1290551781
C  C155  1  0.67195000  0.46977000  0.82497000  1.0 -0.1290551781
C  C156  1  0.57805000  0.78023000  0.21669000  1.0 -0.1290551781
C  C157  1  0.21669000  0.57805000  0.78023000  1.0 -0.1290551781
C  C158  1  0.82497000  0.67195000  0.46977000  1.0 -0.1290551781
C  C159  1  0.78023000  0.21669000  0.57805000  1.0 -0.1290551781
C  C160  1  0.46977000  0.82497000  0.67195000  1.0 -0.1290551781
C  C161  1  0.46977000  0.03331000  0.82497000  1.0 -0.1290551781
C  C162  1  0.03331000  0.67195000  0.82497000  1.0 -0.1290551781
C  C163  1  0.42503000  0.57805000  0.21669000  1.0 -0.1290551781
C  C164  1  0.78023000  0.42503000  0.21669000  1.0 -0.1290551781
C  C165  1  0.03331000  0.82497000  0.46977000  1.0 -0.1290551781
C  C166  1  0.42503000  0.21669000  0.78023000  1.0 -0.1290551781
C  C167  1  0.67195000  0.03331000  0.46977000  1.0 -0.1290551781
C  C168  1  0.03331000  0.46977000  0.67195000  1.0 -0.1290551781
C  C169  1  0.28023000  0.07805000  0.71669000  1.0 -0.1290551781
C  C170  1  0.96977000  0.17195000  0.32497000  1.0 -0.1290551781
C  C171  1  0.17195000  0.32497000  0.96977000  1.0 -0.1290551781
C  C172  1  0.32497000  0.96977000  0.17195000  1.0 -0.1290551781
C  C173  1  0.17195000  0.53331000  0.32497000  1.0 -0.1290551781
C  C174  1  0.07805000  0.92503000  0.71669000  1.0 -0.1290551781
C  C175  1  0.53331000  0.96977000  0.32497000  1.0 -0.1290551781
C  C176  1  0.92503000  0.28023000  0.71669000  1.0 -0.1290551781
C  C177  1  0.53331000  0.32497000  0.17195000  1.0 -0.1290551781
C  C178  1  0.92503000  0.71669000  0.07805000  1.0 -0.1290551781
C  C179  1  0.07805000  0.28023000  0.92503000  1.0 -0.1290551781
C  C180  1  0.17195000  0.96977000  0.53331000  1.0 -0.1290551781
C  C181  1  0.53331000  0.17195000  0.96977000  1.0 -0.1290551781
C  C182  1  0.92503000  0.07805000  0.28023000  1.0 -0.1290551781
C  C183  1  0.96977000  0.53331000  0.17195000  1.0 -0.1290551781
C  C184  1  0.28023000  0.92503000  0.07805000  1.0 -0.1290551781
C  C185  1  0.28023000  0.71669000  0.92503000  1.0 -0.1290551781
C  C186  1  0.71669000  0.07805000  0.92503000  1.0 -0.1290551781
C  C187  1  0.32497000  0.17195000  0.53331000  1.0 -0.1290551781
C  C188  1  0.96977000  0.32497000  0.53331000  1.0 -0.1290551781
C  C189  1  0.71669000  0.92503000  0.28023000  1.0 -0.1290551781
C  C190  1  0.32497000  0.53331000  0.96977000  1.0 -0.1290551781
C  C191  1  0.07805000  0.71669000  0.28023000  1.0 -0.1290551781
C  C192  1  0.71669000  0.28023000  0.07805000  1.0 -0.1290551781
C  C193  1  0.50015000  0.64151000  0.03025000  1.0 -0.053223551
C  C194  1  0.74985000  0.60849000  0.42191000  1.0 -0.053223551
C  C195  1  0.60849000  0.42191000  0.74985000  1.0 -0.053223551
C  C196  1  0.42191000  0.74985000  0.60849000  1.0 -0.053223551
C  C197  1  0.60849000  0.21975000  0.42191000  1.0 -0.053223551
C  C198  1  0.64151000  0.82809000  0.03025000  1.0 -0.053223551
C  C199  1  0.21975000  0.74985000  0.42191000  1.0 -0.053223551
C  C200  1  0.82809000  0.50015000  0.03025000  1.0 -0.053223551
C  C201  1  0.21975000  0.42191000  0.60849000  1.0 -0.053223551
C  C202  1  0.82809000  0.03025000  0.64151000  1.0 -0.053223551
C  C203  1  0.64151000  0.50015000  0.82809000  1.0 -0.053223551
C  C204  1  0.60849000  0.74985000  0.21975000  1.0 -0.053223551
C  C205  1  0.21975000  0.60849000  0.74985000  1.0 -0.053223551
C  C206  1  0.82809000  0.64151000  0.50015000  1.0 -0.053223551
C  C207  1  0.74985000  0.21975000  0.60849000  1.0 -0.053223551
C  C208  1  0.50015000  0.82809000  0.64151000  1.0 -0.053223551
C  C209  1  0.50015000  0.03025000  0.82809000  1.0 -0.053223551
C  C210  1  0.03025000  0.64151000  0.82809000  1.0 -0.053223551
C  C211  1  0.42191000  0.60849000  0.21975000  1.0 -0.053223551
C  C212  1  0.74985000  0.42191000  0.21975000  1.0 -0.053223551
C  C213  1  0.03025000  0.82809000  0.50015000  1.0 -0.053223551
C  C214  1  0.42191000  0.21975000  0.74985000  1.0 -0.053223551
C  C215  1  0.64151000  0.03025000  0.50015000  1.0 -0.053223551
C  C216  1  0.03025000  0.50015000  0.64151000  1.0 -0.053223551
C  C217  1  0.24985000  0.10849000  0.71975000  1.0 -0.053223551
C  C218  1  0.00015000  0.14151000  0.32809000  1.0 -0.053223551
C  C219  1  0.14151000  0.32809000  0.00015000  1.0 -0.053223551
C  C220  1  0.32809000  0.00015000  0.14151000  1.0 -0.053223551
C  C221  1  0.14151000  0.53025000  0.32809000  1.0 -0.053223551
C  C222  1  0.10849000  0.92191000  0.71975000  1.0 -0.053223551
C  C223  1  0.53025000  0.00015000  0.32809000  1.0 -0.053223551
C  C224  1  0.92191000  0.24985000  0.71975000  1.0 -0.053223551
C  C225  1  0.53025000  0.32809000  0.14151000  1.0 -0.053223551
C  C226  1  0.92191000  0.71975000  0.10849000  1.0 -0.053223551
C  C227  1  0.10849000  0.24985000  0.92191000  1.0 -0.053223551
C  C228  1  0.14151000  0.00015000  0.53025000  1.0 -0.053223551
C  C229  1  0.53025000  0.14151000  0.00015000  1.0 -0.053223551
C  C230  1  0.92191000  0.10849000  0.24985000  1.0 -0.053223551
C  C231  1  0.00015000  0.53025000  0.14151000  1.0 -0.053223551
C  C232  1  0.24985000  0.92191000  0.10849000  1.0 -0.053223551
C  C233  1  0.24985000  0.71975000  0.92191000  1.0 -0.053223551
C  C234  1  0.71975000  0.10849000  0.92191000  1.0 -0.053223551
C  C235  1  0.32809000  0.14151000  0.53025000  1.0 -0.053223551
C  C236  1  0.00015000  0.32809000  0.53025000  1.0 -0.053223551
C  C237  1  0.71975000  0.92191000  0.24985000  1.0 -0.053223551
C  C238  1  0.32809000  0.53025000  0.00015000  1.0 -0.053223551
C  C239  1  0.10849000  0.71975000  0.24985000  1.0 -0.053223551
C  C240  1  0.71975000  0.24985000  0.10849000  1.0 -0.053223551
C  C241  1  0.49687000  0.60813000  0.05553000  1.0 -0.0232677735
C  C242  1  0.75313000  0.64187000  0.41053000  1.0 -0.0232677735
C  C243  1  0.64187000  0.41053000  0.75313000  1.0 -0.0232677735
C  C244  1  0.41053000  0.75313000  0.64187000  1.0 -0.0232677735
C  C245  1  0.64187000  0.19447000  0.41053000  1.0 -0.0232677735
C  C246  1  0.60813000  0.83947000  0.05553000  1.0 -0.0232677735
C  C247  1  0.19447000  0.75313000  0.41053000  1.0 -0.0232677735
C  C248  1  0.83947000  0.49687000  0.05553000  1.0 -0.0232677735
C  C249  1  0.19447000  0.41053000  0.64187000  1.0 -0.0232677735
C  C250  1  0.83947000  0.05553000  0.60813000  1.0 -0.0232677735
C  C251  1  0.60813000  0.49687000  0.83947000  1.0 -0.0232677735
C  C252  1  0.64187000  0.75313000  0.19447000  1.0 -0.0232677735
C  C253  1  0.19447000  0.64187000  0.75313000  1.0 -0.0232677735
C  C254  1  0.83947000  0.60813000  0.49687000  1.0 -0.0232677735
C  C255  1  0.75313000  0.19447000  0.64187000  1.0 -0.0232677735
C  C256  1  0.49687000  0.83947000  0.60813000  1.0 -0.0232677735
C  C257  1  0.49687000  0.05553000  0.83947000  1.0 -0.0232677735
C  C258  1  0.05553000  0.60813000  0.83947000  1.0 -0.0232677735
C  C259  1  0.41053000  0.64187000  0.19447000  1.0 -0.0232677735
C  C260  1  0.75313000  0.41053000  0.19447000  1.0 -0.0232677735
C  C261  1  0.05553000  0.83947000  0.49687000  1.0 -0.0232677735
C  C262  1  0.41053000  0.19447000  0.75313000  1.0 -0.0232677735
C  C263  1  0.60813000  0.05553000  0.49687000  1.0 -0.0232677735
C  C264  1  0.05553000  0.49687000  0.60813000  1.0 -0.0232677735
C  C265  1  0.25313000  0.14187000  0.69447000  1.0 -0.0232677735
C  C266  1  0.99687000  0.10813000  0.33947000  1.0 -0.0232677735
C  C267  1  0.10813000  0.33947000  0.99687000  1.0 -0.0232677735
C  C268  1  0.33947000  0.99687000  0.10813000  1.0 -0.0232677735
C  C269  1  0.10813000  0.55553000  0.33947000  1.0 -0.0232677735
C  C270  1  0.14187000  0.91053000  0.69447000  1.0 -0.0232677735
C  C271  1  0.55553000  0.99687000  0.33947000  1.0 -0.0232677735
C  C272  1  0.91053000  0.25313000  0.69447000  1.0 -0.0232677735
C  C273  1  0.55553000  0.33947000  0.10813000  1.0 -0.0232677735
C  C274  1  0.91053000  0.69447000  0.14187000  1.0 -0.0232677735
C  C275  1  0.14187000  0.25313000  0.91053000  1.0 -0.0232677735
C  C276  1  0.10813000  0.99687000  0.55553000  1.0 -0.0232677735
C  C277  1  0.55553000  0.10813000  0.99687000  1.0 -0.0232677735
C  C278  1  0.91053000  0.14187000  0.25313000  1.0 -0.0232677735
C  C279  1  0.99687000  0.55553000  0.10813000  1.0 -0.0232677735
C  C280  1  0.25313000  0.91053000  0.14187000  1.0 -0.0232677735
C  C281  1  0.25313000  0.69447000  0.91053000  1.0 -0.0232677735
C  C282  1  0.69447000  0.14187000  0.91053000  1.0 -0.0232677735
C  C283  1  0.33947000  0.10813000  0.55553000  1.0 -0.0232677735
C  C284  1  0.99687000  0.33947000  0.55553000  1.0 -0.0232677735
C  C285  1  0.69447000  0.91053000  0.25313000  1.0 -0.0232677735
C  C286  1  0.33947000  0.55553000  0.99687000  1.0 -0.0232677735
C  C287  1  0.14187000  0.69447000  0.25313000  1.0 -0.0232677735
C  C288  1  0.69447000  0.25313000  0.14187000  1.0 -0.0232677735
C  C289  1  0.46356000  0.60690000  0.08224000  1.0 0.0601749058
C  C290  1  0.78644000  0.64310000  0.40270000  1.0 0.0601749058
C  C291  1  0.64310000  0.40270000  0.78644000  1.0 0.0601749058
C  C292  1  0.40270000  0.78644000  0.64310000  1.0 0.0601749058
C  C293  1  0.64310000  0.16776000  0.40270000  1.0 0.0601749058
C  C294  1  0.60690000  0.84730000  0.08224000  1.0 0.0601749058
C  C295  1  0.16776000  0.78644000  0.40270000  1.0 0.0601749058
C  C296  1  0.84730000  0.46356000  0.08224000  1.0 0.0601749058
C  C297  1  0.16776000  0.40270000  0.64310000  1.0 0.0601749058
C  C298  1  0.84730000  0.08224000  0.60690000  1.0 0.0601749058
C  C299  1  0.60690000  0.46356000  0.84730000  1.0 0.0601749058
C  C300  1  0.64310000  0.78644000  0.16776000  1.0 0.0601749058
C  C301  1  0.16776000  0.64310000  0.78644000  1.0 0.0601749058
C  C302  1  0.84730000  0.60690000  0.46356000  1.0 0.0601749058
C  C303  1  0.78644000  0.16776000  0.64310000  1.0 0.0601749058
C  C304  1  0.46356000  0.84730000  0.60690000  1.0 0.0601749058
C  C305  1  0.46356000  0.08224000  0.84730000  1.0 0.0601749058
C  C306  1  0.08224000  0.60690000  0.84730000  1.0 0.0601749058
C  C307  1  0.40270000  0.64310000  0.16776000  1.0 0.0601749058
C  C308  1  0.78644000  0.40270000  0.16776000  1.0 0.0601749058
C  C309  1  0.08224000  0.84730000  0.46356000  1.0 0.0601749058
C  C310  1  0.40270000  0.16776000  0.78644000  1.0 0.0601749058
C  C311  1  0.60690000  0.08224000  0.46356000  1.0 0.0601749058
C  C312  1  0.08224000  0.46356000  0.60690000  1.0 0.0601749058
C  C313  1  0.28644000  0.14310000  0.66776000  1.0 0.0601749058
C  C314  1  0.96356000  0.10690000  0.34730000  1.0 0.0601749058
C  C315  1  0.10690000  0.34730000  0.96356000  1.0 0.0601749058
C  C316  1  0.34730000  0.96356000  0.10690000  1.0 0.0601749058
C  C317  1  0.10690000  0.58224000  0.34730000  1.0 0.0601749058
C  C318  1  0.14310000  0.90270000  0.66776000  1.0 0.0601749058
C  C319  1  0.58224000  0.96356000  0.34730000  1.0 0.0601749058
C  C320  1  0.90270000  0.28644000  0.66776000  1.0 0.0601749058
C  C321  1  0.58224000  0.34730000  0.10690000  1.0 0.0601749058
C  C322  1  0.90270000  0.66776000  0.14310000  1.0 0.0601749058
C  C323  1  0.14310000  0.28644000  0.90270000  1.0 0.0601749058
C  C324  1  0.10690000  0.96356000  0.58224000  1.0 0.0601749058
C  C325  1  0.58224000  0.10690000  0.96356000  1.0 0.0601749058
C  C326  1  0.90270000  0.14310000  0.28644000  1.0 0.0601749058
C  C327  1  0.96356000  0.58224000  0.10690000  1.0 0.0601749058
C  C328  1  0.28644000  0.90270000  0.14310000  1.0 0.0601749058
C  C329  1  0.28644000  0.66776000  0.90270000  1.0 0.0601749058
C  C330  1  0.66776000  0.14310000  0.90270000  1.0 0.0601749058
C  C331  1  0.34730000  0.10690000  0.58224000  1.0 0.0601749058
C  C332  1  0.96356000  0.34730000  0.58224000  1.0 0.0601749058
C  C333  1  0.66776000  0.90270000  0.28644000  1.0 0.0601749058
C  C334  1  0.34730000  0.58224000  0.96356000  1.0 0.0601749058
C  C335  1  0.14310000  0.66776000  0.28644000  1.0 0.0601749058
C  C336  1  0.66776000  0.28644000  0.14310000  1.0 0.0601749058
C  C337  1  0.55417000  0.41621000  0.16749000  1.0 0.0784256325
C  C338  1  0.69583000  0.83379000  0.38787000  1.0 0.0784256325
C  C339  1  0.83379000  0.38787000  0.69583000  1.0 0.0784256325
C  C340  1  0.38787000  0.69583000  0.83379000  1.0 0.0784256325
C  C341  1  0.83379000  0.08251000  0.38787000  1.0 0.0784256325
C  C342  1  0.41621000  0.86213000  0.16749000  1.0 0.0784256325
C  C343  1  0.08251000  0.69583000  0.38787000  1.0 0.0784256325
C  C344  1  0.86213000  0.55417000  0.16749000  1.0 0.0784256325
C  C345  1  0.08251000  0.38787000  0.83379000  1.0 0.0784256325
C  C346  1  0.86213000  0.16749000  0.41621000  1.0 0.0784256325
C  C347  1  0.41621000  0.55417000  0.86213000  1.0 0.0784256325
C  C348  1  0.83379000  0.69583000  0.08251000  1.0 0.0784256325
C  C349  1  0.08251000  0.83379000  0.69583000  1.0 0.0784256325
C  C350  1  0.86213000  0.41621000  0.55417000  1.0 0.0784256325
C  C351  1  0.69583000  0.08251000  0.83379000  1.0 0.0784256325
C  C352  1  0.55417000  0.86213000  0.41621000  1.0 0.0784256325
C  C353  1  0.55417000  0.16749000  0.86213000  1.0 0.0784256325
C  C354  1  0.16749000  0.41621000  0.86213000  1.0 0.0784256325
C  C355  1  0.38787000  0.83379000  0.08251000  1.0 0.0784256325
C  C356  1  0.69583000  0.38787000  0.08251000  1.0 0.0784256325
C  C357  1  0.16749000  0.86213000  0.55417000  1.0 0.0784256325
C  C358  1  0.38787000  0.08251000  0.69583000  1.0 0.0784256325
C  C359  1  0.41621000  0.16749000  0.55417000  1.0 0.0784256325
C  C360  1  0.16749000  0.55417000  0.41621000  1.0 0.0784256325
C  C361  1  0.19583000  0.33379000  0.58251000  1.0 0.0784256325
C  C362  1  0.05417000  0.91621000  0.36213000  1.0 0.0784256325
C  C363  1  0.91621000  0.36213000  0.05417000  1.0 0.0784256325
C  C364  1  0.36213000  0.05417000  0.91621000  1.0 0.0784256325
C  C365  1  0.91621000  0.66749000  0.36213000  1.0 0.0784256325
C  C366  1  0.33379000  0.88787000  0.58251000  1.0 0.0784256325
C  C367  1  0.66749000  0.05417000  0.36213000  1.0 0.0784256325
C  C368  1  0.88787000  0.19583000  0.58251000  1.0 0.0784256325
C  C369  1  0.66749000  0.36213000  0.91621000  1.0 0.0784256325
C  C370  1  0.88787000  0.58251000  0.33379000  1.0 0.0784256325
C  C371  1  0.33379000  0.19583000  0.88787000  1.0 0.0784256325
C  C372  1  0.91621000  0.05417000  0.66749000  1.0 0.0784256325
C  C373  1  0.66749000  0.91621000  0.05417000  1.0 0.0784256325
C  C374  1  0.88787000  0.33379000  0.19583000  1.0 0.0784256325
C  C375  1  0.05417000  0.66749000  0.91621000  1.0 0.0784256325
C  C376  1  0.19583000  0.88787000  0.33379000  1.0 0.0784256325
C  C377  1  0.19583000  0.58251000  0.88787000  1.0 0.0784256325
C  C378  1  0.58251000  0.33379000  0.88787000  1.0 0.0784256325
C  C379  1  0.36213000  0.91621000  0.66749000  1.0 0.0784256325
C  C380  1  0.05417000  0.36213000  0.66749000  1.0 0.0784256325
C  C381  1  0.58251000  0.88787000  0.19583000  1.0 0.0784256325
C  C382  1  0.36213000  0.66749000  0.05417000  1.0 0.0784256325
C  C383  1  0.33379000  0.58251000  0.19583000  1.0 0.0784256325
C  C384  1  0.58251000  0.19583000  0.33379000  1.0 0.0784256325
C  C385  1  0.52460000  0.44710000  0.17260000  1.0 -0.1290551781
C  C386  1  0.72540000  0.80290000  0.39430000  1.0 -0.1290551781
C  C387  1  0.80290000  0.39430000  0.72540000  1.0 -0.1290551781
C  C388  1  0.39430000  0.72540000  0.80290000  1.0 -0.1290551781
C  C389  1  0.80290000  0.07740000  0.39430000  1.0 -0.1290551781
C  C390  1  0.44710000  0.85570000  0.17260000  1.0 -0.1290551781
C  C391  1  0.07740000  0.72540000  0.39430000  1.0 -0.1290551781
C  C392  1  0.85570000  0.52460000  0.17260000  1.0 -0.1290551781
C  C393  1  0.07740000  0.39430000  0.80290000  1.0 -0.1290551781
C  C394  1  0.85570000  0.17260000  0.44710000  1.0 -0.1290551781
C  C395  1  0.44710000  0.52460000  0.85570000  1.0 -0.1290551781
C  C396  1  0.80290000  0.72540000  0.07740000  1.0 -0.1290551781
C  C397  1  0.07740000  0.80290000  0.72540000  1.0 -0.1290551781
C  C398  1  0.85570000  0.44710000  0.52460000  1.0 -0.1290551781
C  C399  1  0.72540000  0.07740000  0.80290000  1.0 -0.1290551781
C  C400  1  0.52460000  0.85570000  0.44710000  1.0 -0.1290551781
C  C401  1  0.52460000  0.17260000  0.85570000  1.0 -0.1290551781
C  C402  1  0.17260000  0.44710000  0.85570000  1.0 -0.1290551781
C  C403  1  0.39430000  0.80290000  0.07740000  1.0 -0.1290551781
C  C404  1  0.72540000  0.39430000  0.07740000  1.0 -0.1290551781
C  C405  1  0.17260000  0.85570000  0.52460000  1.0 -0.1290551781
C  C406  1  0.39430000  0.07740000  0.72540000  1.0 -0.1290551781
C  C407  1  0.44710000  0.17260000  0.52460000  1.0 -0.1290551781
C  C408  1  0.17260000  0.52460000  0.44710000  1.0 -0.1290551781
C  C409  1  0.22540000  0.30290000  0.57740000  1.0 -0.1290551781
C  C410  1  0.02460000  0.94710000  0.35570000  1.0 -0.1290551781
C  C411  1  0.94710000  0.35570000  0.02460000  1.0 -0.1290551781
C  C412  1  0.35570000  0.02460000  0.94710000  1.0 -0.1290551781
C  C413  1  0.94710000  0.67260000  0.35570000  1.0 -0.1290551781
C  C414  1  0.30290000  0.89430000  0.57740000  1.0 -0.1290551781
C  C415  1  0.67260000  0.02460000  0.35570000  1.0 -0.1290551781
C  C416  1  0.89430000  0.22540000  0.57740000  1.0 -0.1290551781
C  C417  1  0.67260000  0.35570000  0.94710000  1.0 -0.1290551781
C  C418  1  0.89430000  0.57740000  0.30290000  1.0 -0.1290551781
C  C419  1  0.30290000  0.22540000  0.89430000  1.0 -0.1290551781
C  C420  1  0.94710000  0.02460000  0.67260000  1.0 -0.1290551781
C  C421  1  0.67260000  0.94710000  0.02460000  1.0 -0.1290551781
C  C422  1  0.89430000  0.30290000  0.22540000  1.0 -0.1290551781
C  C423  1  0.02460000  0.67260000  0.94710000  1.0 -0.1290551781
C  C424  1  0.22540000  0.89430000  0.30290000  1.0 -0.1290551781
C  C425  1  0.22540000  0.57740000  0.89430000  1.0 -0.1290551781
C  C426  1  0.57740000  0.30290000  0.89430000  1.0 -0.1290551781
C  C427  1  0.35570000  0.94710000  0.67260000  1.0 -0.1290551781
C  C428  1  0.02460000  0.35570000  0.67260000  1.0 -0.1290551781
C  C429  1  0.57740000  0.89430000  0.22540000  1.0 -0.1290551781
C  C430  1  0.35570000  0.67260000  0.02460000  1.0 -0.1290551781
C  C431  1  0.30290000  0.57740000  0.22540000  1.0 -0.1290551781
C  C432  1  0.57740000  0.22540000  0.30290000  1.0 -0.1290551781
C  C433  1  0.52309000  0.47939000  0.14445000  1.0 -0.0571592462
C  C434  1  0.72691000  0.77061000  0.39693000  1.0 -0.0571592462
C  C435  1  0.77061000  0.39693000  0.72691000  1.0 -0.0571592462
C  C436  1  0.39693000  0.72691000  0.77061000  1.0 -0.0571592462
C  C437  1  0.77061000  0.10555000  0.39693000  1.0 -0.0571592462
C  C438  1  0.47939000  0.85307000  0.14445000  1.0 -0.0571592462
C  C439  1  0.10555000  0.72691000  0.39693000  1.0 -0.0571592462
C  C440  1  0.85307000  0.52309000  0.14445000  1.0 -0.0571592462
C  C441  1  0.10555000  0.39693000  0.77061000  1.0 -0.0571592462
C  C442  1  0.85307000  0.14445000  0.47939000  1.0 -0.0571592462
C  C443  1  0.47939000  0.52309000  0.85307000  1.0 -0.0571592462
C  C444  1  0.77061000  0.72691000  0.10555000  1.0 -0.0571592462
C  C445  1  0.10555000  0.77061000  0.72691000  1.0 -0.0571592462
C  C446  1  0.85307000  0.47939000  0.52309000  1.0 -0.0571592462
C  C447  1  0.72691000  0.10555000  0.77061000  1.0 -0.0571592462
C  C448  1  0.52309000  0.85307000  0.47939000  1.0 -0.0571592462
C  C449  1  0.52309000  0.14445000  0.85307000  1.0 -0.0571592462
C  C450  1  0.14445000  0.47939000  0.85307000  1.0 -0.0571592462
C  C451  1  0.39693000  0.77061000  0.10555000  1.0 -0.0571592462
C  C452  1  0.72691000  0.39693000  0.10555000  1.0 -0.0571592462
C  C453  1  0.14445000  0.85307000  0.52309000  1.0 -0.0571592462
C  C454  1  0.39693000  0.10555000  0.72691000  1.0 -0.0571592462
C  C455  1  0.47939000  0.14445000  0.52309000  1.0 -0.0571592462
C  C456  1  0.14445000  0.52309000  0.47939000  1.0 -0.0571592462
C  C457  1  0.22691000  0.27061000  0.60555000  1.0 -0.0571592462
C  C458  1  0.02309000  0.97939000  0.35307000  1.0 -0.0571592462
C  C459  1  0.97939000  0.35307000  0.02309000  1.0 -0.0571592462
C  C460  1  0.35307000  0.02309000  0.97939000  1.0 -0.0571592462
C  C461  1  0.97939000  0.64445000  0.35307000  1.0 -0.0571592462
C  C462  1  0.27061000  0.89693000  0.60555000  1.0 -0.0571592462
C  C463  1  0.64445000  0.02309000  0.35307000  1.0 -0.0571592462
C  C464  1  0.89693000  0.22691000  0.60555000  1.0 -0.0571592462
C  C465  1  0.64445000  0.35307000  0.97939000  1.0 -0.0571592462
C  C466  1  0.89693000  0.60555000  0.27061000  1.0 -0.0571592462
C  C467  1  0.27061000  0.22691000  0.89693000  1.0 -0.0571592462
C  C468  1  0.97939000  0.02309000  0.64445000  1.0 -0.0571592462
C  C469  1  0.64445000  0.97939000  0.02309000  1.0 -0.0571592462
C  C470  1  0.89693000  0.27061000  0.22691000  1.0 -0.0571592462
C  C471  1  0.02309000  0.64445000  0.97939000  1.0 -0.0571592462
C  C472  1  0.22691000  0.89693000  0.27061000  1.0 -0.0571592462
C  C473  1  0.22691000  0.60555000  0.89693000  1.0 -0.0571592462
C  C474  1  0.60555000  0.27061000  0.89693000  1.0 -0.0571592462
C  C475  1  0.35307000  0.97939000  0.64445000  1.0 -0.0571592462
C  C476  1  0.02309000  0.35307000  0.64445000  1.0 -0.0571592462
C  C477  1  0.60555000  0.89693000  0.22691000  1.0 -0.0571592462
C  C478  1  0.35307000  0.64445000  0.02309000  1.0 -0.0571592462
C  C479  1  0.27061000  0.60555000  0.22691000  1.0 -0.0571592462
C  C480  1  0.60555000  0.22691000  0.27061000  1.0 -0.0571592462
C  C481  1  0.55204000  0.48004000  0.11164000  1.0 -0.0264575644
C  C482  1  0.69796000  0.76996000  0.39372000  1.0 -0.0264575644
C  C483  1  0.76996000  0.39372000  0.69796000  1.0 -0.0264575644
C  C484  1  0.39372000  0.69796000  0.76996000  1.0 -0.0264575644
C  C485  1  0.76996000  0.13836000  0.39372000  1.0 -0.0264575644
C  C486  1  0.48004000  0.85628000  0.11164000  1.0 -0.0264575644
C  C487  1  0.13836000  0.69796000  0.39372000  1.0 -0.0264575644
C  C488  1  0.85628000  0.55204000  0.11164000  1.0 -0.0264575644
C  C489  1  0.13836000  0.39372000  0.76996000  1.0 -0.0264575644
C  C490  1  0.85628000  0.11164000  0.48004000  1.0 -0.0264575644
C  C491  1  0.48004000  0.55204000  0.85628000  1.0 -0.0264575644
C  C492  1  0.76996000  0.69796000  0.13836000  1.0 -0.0264575644
C  C493  1  0.13836000  0.76996000  0.69796000  1.0 -0.0264575644
C  C494  1  0.85628000  0.48004000  0.55204000  1.0 -0.0264575644
C  C495  1  0.69796000  0.13836000  0.76996000  1.0 -0.0264575644
C  C496  1  0.55204000  0.85628000  0.48004000  1.0 -0.0264575644
C  C497  1  0.55204000  0.11164000  0.85628000  1.0 -0.0264575644
C  C498  1  0.11164000  0.48004000  0.85628000  1.0 -0.0264575644
C  C499  1  0.39372000  0.76996000  0.13836000  1.0 -0.0264575644
C  C500  1  0.69796000  0.39372000  0.13836000  1.0 -0.0264575644
C  C501  1  0.11164000  0.85628000  0.55204000  1.0 -0.0264575644
C  C502  1  0.39372000  0.13836000  0.69796000  1.0 -0.0264575644
C  C503  1  0.48004000  0.11164000  0.55204000  1.0 -0.0264575644
C  C504  1  0.11164000  0.55204000  0.48004000  1.0 -0.0264575644
C  C505  1  0.19796000  0.26996000  0.63836000  1.0 -0.0264575644
C  C506  1  0.05204000  0.98004000  0.35628000  1.0 -0.0264575644
C  C507  1  0.98004000  0.35628000  0.05204000  1.0 -0.0264575644
C  C508  1  0.35628000  0.05204000  0.98004000  1.0 -0.0264575644
C  C509  1  0.98004000  0.61164000  0.35628000  1.0 -0.0264575644
C  C510  1  0.26996000  0.89372000  0.63836000  1.0 -0.0264575644
C  C511  1  0.61164000  0.05204000  0.35628000  1.0 -0.0264575644
C  C512  1  0.89372000  0.19796000  0.63836000  1.0 -0.0264575644
C  C513  1  0.61164000  0.35628000  0.98004000  1.0 -0.0264575644
C  C514  1  0.89372000  0.63836000  0.26996000  1.0 -0.0264575644
C  C515  1  0.26996000  0.19796000  0.89372000  1.0 -0.0264575644
C  C516  1  0.98004000  0.05204000  0.61164000  1.0 -0.0264575644
C  C517  1  0.61164000  0.98004000  0.05204000  1.0 -0.0264575644
C  C518  1  0.89372000  0.26996000  0.19796000  1.0 -0.0264575644
C  C519  1  0.05204000  0.61164000  0.98004000  1.0 -0.0264575644
C  C520  1  0.19796000  0.89372000  0.26996000  1.0 -0.0264575644
C  C521  1  0.19796000  0.63836000  0.89372000  1.0 -0.0264575644
C  C522  1  0.63836000  0.26996000  0.89372000  1.0 -0.0264575644
C  C523  1  0.35628000  0.98004000  0.61164000  1.0 -0.0264575644
C  C524  1  0.05204000  0.35628000  0.61164000  1.0 -0.0264575644
C  C525  1  0.63836000  0.89372000  0.19796000  1.0 -0.0264575644
C  C526  1  0.35628000  0.61164000  0.05204000  1.0 -0.0264575644
C  C527  1  0.26996000  0.63836000  0.19796000  1.0 -0.0264575644
C  C528  1  0.63836000  0.19796000  0.26996000  1.0 -0.0264575644
C  C529  1  0.58033000  0.44793000  0.10885000  1.0 0.0601749058
C  C530  1  0.66967000  0.80207000  0.38711000  1.0 0.0601749058
C  C531  1  0.80207000  0.38711000  0.66967000  1.0 0.0601749058
C  C532  1  0.38711000  0.66967000  0.80207000  1.0 0.0601749058
C  C533  1  0.80207000  0.14115000  0.38711000  1.0 0.0601749058
C  C534  1  0.44793000  0.86289000  0.10885000  1.0 0.0601749058
C  C535  1  0.14115000  0.66967000  0.38711000  1.0 0.0601749058
C  C536  1  0.86289000  0.58033000  0.10885000  1.0 0.0601749058
C  C537  1  0.14115000  0.38711000  0.80207000  1.0 0.0601749058
C  C538  1  0.86289000  0.10885000  0.44793000  1.0 0.0601749058
C  C539  1  0.44793000  0.58033000  0.86289000  1.0 0.0601749058
C  C540  1  0.80207000  0.66967000  0.14115000  1.0 0.0601749058
C  C541  1  0.14115000  0.80207000  0.66967000  1.0 0.0601749058
C  C542  1  0.86289000  0.44793000  0.58033000  1.0 0.0601749058
C  C543  1  0.66967000  0.14115000  0.80207000  1.0 0.0601749058
C  C544  1  0.58033000  0.86289000  0.44793000  1.0 0.0601749058
C  C545  1  0.58033000  0.10885000  0.86289000  1.0 0.0601749058
C  C546  1  0.10885000  0.44793000  0.86289000  1.0 0.0601749058
C  C547  1  0.38711000  0.80207000  0.14115000  1.0 0.0601749058
C  C548  1  0.66967000  0.38711000  0.14115000  1.0 0.0601749058
C  C549  1  0.10885000  0.86289000  0.58033000  1.0 0.0601749058
C  C550  1  0.38711000  0.14115000  0.66967000  1.0 0.0601749058
C  C551  1  0.44793000  0.10885000  0.58033000  1.0 0.0601749058
C  C552  1  0.10885000  0.58033000  0.44793000  1.0 0.0601749058
C  C553  1  0.16967000  0.30207000  0.64115000  1.0 0.0601749058
C  C554  1  0.08033000  0.94793000  0.36289000  1.0 0.0601749058
C  C555  1  0.94793000  0.36289000  0.08033000  1.0 0.0601749058
C  C556  1  0.36289000  0.08033000  0.94793000  1.0 0.0601749058
C  C557  1  0.94793000  0.60885000  0.36289000  1.0 0.0601749058
C  C558  1  0.30207000  0.88711000  0.64115000  1.0 0.0601749058
C  C559  1  0.60885000  0.08033000  0.36289000  1.0 0.0601749058
C  C560  1  0.88711000  0.16967000  0.64115000  1.0 0.0601749058
C  C561  1  0.60885000  0.36289000  0.94793000  1.0 0.0601749058
C  C562  1  0.88711000  0.64115000  0.30207000  1.0 0.0601749058
C  C563  1  0.30207000  0.16967000  0.88711000  1.0 0.0601749058
C  C564  1  0.94793000  0.08033000  0.60885000  1.0 0.0601749058
C  C565  1  0.60885000  0.94793000  0.08033000  1.0 0.0601749058
C  C566  1  0.88711000  0.30207000  0.16967000  1.0 0.0601749058
C  C567  1  0.08033000  0.60885000  0.94793000  1.0 0.0601749058
C  C568  1  0.16967000  0.88711000  0.30207000  1.0 0.0601749058
C  C569  1  0.16967000  0.64115000  0.88711000  1.0 0.0601749058
C  C570  1  0.64115000  0.30207000  0.88711000  1.0 0.0601749058
C  C571  1  0.36289000  0.94793000  0.60885000  1.0 0.0601749058
C  C572  1  0.08033000  0.36289000  0.60885000  1.0 0.0601749058
C  C573  1  0.64115000  0.88711000  0.16967000  1.0 0.0601749058
C  C574  1  0.36289000  0.60885000  0.08033000  1.0 0.0601749058
C  C575  1  0.30207000  0.64115000  0.16967000  1.0 0.0601749058
C  C576  1  0.64115000  0.16967000  0.30207000  1.0 0.0601749058
C  C577  1  0.55188000  0.51368000  0.07976000  1.0 0.3710148981
C  C578  1  0.69812000  0.73632000  0.39532000  1.0 0.3710148981
C  C579  1  0.73632000  0.39532000  0.69812000  1.0 0.3710148981
C  C580  1  0.39532000  0.69812000  0.73632000  1.0 0.3710148981
C  C581  1  0.73632000  0.17024000  0.39532000  1.0 0.3710148981
C  C582  1  0.51368000  0.85468000  0.07976000  1.0 0.3710148981
C  C583  1  0.17024000  0.69812000  0.39532000  1.0 0.3710148981
C  C584  1  0.85468000  0.55188000  0.07976000  1.0 0.3710148981
C  C585  1  0.17024000  0.39532000  0.73632000  1.0 0.3710148981
C  C586  1  0.85468000  0.07976000  0.51368000  1.0 0.3710148981
C  C587  1  0.51368000  0.55188000  0.85468000  1.0 0.3710148981
C  C588  1  0.73632000  0.69812000  0.17024000  1.0 0.3710148981
C  C589  1  0.17024000  0.73632000  0.69812000  1.0 0.3710148981
C  C590  1  0.85468000  0.51368000  0.55188000  1.0 0.3710148981
C  C591  1  0.69812000  0.17024000  0.73632000  1.0 0.3710148981
C  C592  1  0.55188000  0.85468000  0.51368000  1.0 0.3710148981
C  C593  1  0.55188000  0.07976000  0.85468000  1.0 0.3710148981
C  C594  1  0.07976000  0.51368000  0.85468000  1.0 0.3710148981
C  C595  1  0.39532000  0.73632000  0.17024000  1.0 0.3710148981
C  C596  1  0.69812000  0.39532000  0.17024000  1.0 0.3710148981
C  C597  1  0.07976000  0.85468000  0.55188000  1.0 0.3710148981
C  C598  1  0.39532000  0.17024000  0.69812000  1.0 0.3710148981
C  C599  1  0.51368000  0.07976000  0.55188000  1.0 0.3710148981
C  C600  1  0.07976000  0.55188000  0.51368000  1.0 0.3710148981
C  C601  1  0.19812000  0.23632000  0.67024000  1.0 0.3710148981
C  C602  1  0.05188000  0.01368000  0.35468000  1.0 0.3710148981
C  C603  1  0.01368000  0.35468000  0.05188000  1.0 0.3710148981
C  C604  1  0.35468000  0.05188000  0.01368000  1.0 0.3710148981
C  C605  1  0.01368000  0.57976000  0.35468000  1.0 0.3710148981
C  C606  1  0.23632000  0.89532000  0.67024000  1.0 0.3710148981
C  C607  1  0.57976000  0.05188000  0.35468000  1.0 0.3710148981
C  C608  1  0.89532000  0.19812000  0.67024000  1.0 0.3710148981
C  C609  1  0.57976000  0.35468000  0.01368000  1.0 0.3710148981
C  C610  1  0.89532000  0.67024000  0.23632000  1.0 0.3710148981
C  C611  1  0.23632000  0.19812000  0.89532000  1.0 0.3710148981
C  C612  1  0.01368000  0.05188000  0.57976000  1.0 0.3710148981
C  C613  1  0.57976000  0.01368000  0.05188000  1.0 0.3710148981
C  C614  1  0.89532000  0.23632000  0.19812000  1.0 0.3710148981
C  C615  1  0.05188000  0.57976000  0.01368000  1.0 0.3710148981
C  C616  1  0.19812000  0.89532000  0.23632000  1.0 0.3710148981
C  C617  1  0.19812000  0.67024000  0.89532000  1.0 0.3710148981
C  C618  1  0.67024000  0.23632000  0.89532000  1.0 0.3710148981
C  C619  1  0.35468000  0.01368000  0.57976000  1.0 0.3710148981
C  C620  1  0.05188000  0.35468000  0.57976000  1.0 0.3710148981
C  C621  1  0.67024000  0.89532000  0.19812000  1.0 0.3710148981
C  C622  1  0.35468000  0.57976000  0.05188000  1.0 0.3710148981
C  C623  1  0.23632000  0.67024000  0.19812000  1.0 0.3710148981
C  C624  1  0.67024000  0.19812000  0.23632000  1.0 0.3710148981
C  C625  1  0.52683000  0.57363000  0.05367000  1.0 0.3710148981
C  C626  1  0.72317000  0.67637000  0.40413000  1.0 0.3710148981
C  C627  1  0.67637000  0.40413000  0.72317000  1.0 0.3710148981
C  C628  1  0.40413000  0.72317000  0.67637000  1.0 0.3710148981
C  C629  1  0.67637000  0.19633000  0.40413000  1.0 0.3710148981
C  C630  1  0.57363000  0.84587000  0.05367000  1.0 0.3710148981
C  C631  1  0.19633000  0.72317000  0.40413000  1.0 0.3710148981
C  C632  1  0.84587000  0.52683000  0.05367000  1.0 0.3710148981
C  C633  1  0.19633000  0.40413000  0.67637000  1.0 0.3710148981
C  C634  1  0.84587000  0.05367000  0.57363000  1.0 0.3710148981
C  C635  1  0.57363000  0.52683000  0.84587000  1.0 0.3710148981
C  C636  1  0.67637000  0.72317000  0.19633000  1.0 0.3710148981
C  C637  1  0.19633000  0.67637000  0.72317000  1.0 0.3710148981
C  C638  1  0.84587000  0.57363000  0.52683000  1.0 0.3710148981
C  C639  1  0.72317000  0.19633000  0.67637000  1.0 0.3710148981
C  C640  1  0.52683000  0.84587000  0.57363000  1.0 0.3710148981
C  C641  1  0.52683000  0.05367000  0.84587000  1.0 0.3710148981
C  C642  1  0.05367000  0.57363000  0.84587000  1.0 0.3710148981
C  C643  1  0.40413000  0.67637000  0.19633000  1.0 0.3710148981
C  C644  1  0.72317000  0.40413000  0.19633000  1.0 0.3710148981
C  C645  1  0.05367000  0.84587000  0.52683000  1.0 0.3710148981
C  C646  1  0.40413000  0.19633000  0.72317000  1.0 0.3710148981
C  C647  1  0.57363000  0.05367000  0.52683000  1.0 0.3710148981
C  C648  1  0.05367000  0.52683000  0.57363000  1.0 0.3710148981
C  C649  1  0.22317000  0.17637000  0.69633000  1.0 0.3710148981
C  C650  1  0.02683000  0.07363000  0.34587000  1.0 0.3710148981
C  C651  1  0.07363000  0.34587000  0.02683000  1.0 0.3710148981
C  C652  1  0.34587000  0.02683000  0.07363000  1.0 0.3710148981
C  C653  1  0.07363000  0.55367000  0.34587000  1.0 0.3710148981
C  C654  1  0.17637000  0.90413000  0.69633000  1.0 0.3710148981
C  C655  1  0.55367000  0.02683000  0.34587000  1.0 0.3710148981
C  C656  1  0.90413000  0.22317000  0.69633000  1.0 0.3710148981
C  C657  1  0.55367000  0.34587000  0.07363000  1.0 0.3710148981
C  C658  1  0.90413000  0.69633000  0.17637000  1.0 0.3710148981
C  C659  1  0.17637000  0.22317000  0.90413000  1.0 0.3710148981
C  C660  1  0.07363000  0.02683000  0.55367000  1.0 0.3710148981
C  C661  1  0.55367000  0.07363000  0.02683000  1.0 0.3710148981
C  C662  1  0.90413000  0.17637000  0.22317000  1.0 0.3710148981
C  C663  1  0.02683000  0.55367000  0.07363000  1.0 0.3710148981
C  C664  1  0.22317000  0.90413000  0.17637000  1.0 0.3710148981
C  C665  1  0.22317000  0.69633000  0.90413000  1.0 0.3710148981
C  C666  1  0.69633000  0.17637000  0.90413000  1.0 0.3710148981
C  C667  1  0.34587000  0.07363000  0.55367000  1.0 0.3710148981
C  C668  1  0.02683000  0.34587000  0.55367000  1.0 0.3710148981
C  C669  1  0.69633000  0.90413000  0.22317000  1.0 0.3710148981
C  C670  1  0.34587000  0.55367000  0.02683000  1.0 0.3710148981
C  C671  1  0.17637000  0.69633000  0.22317000  1.0 0.3710148981
C  C672  1  0.69633000  0.22317000  0.17637000  1.0 0.3710148981
C  C673  1  0.57744000  0.54108000  0.02004000  1.0 0.360707077
C  C674  1  0.67256000  0.70892000  0.38856000  1.0 0.360707077
C  C675  1  0.70892000  0.38856000  0.67256000  1.0 0.360707077
C  C676  1  0.38856000  0.67256000  0.70892000  1.0 0.360707077
C  C677  1  0.70892000  0.22996000  0.38856000  1.0 0.360707077
C  C678  1  0.54108000  0.86144000  0.02004000  1.0 0.360707077
C  C679  1  0.22996000  0.67256000  0.38856000  1.0 0.360707077
C  C680  1  0.86144000  0.57744000  0.02004000  1.0 0.360707077
C  C681  1  0.22996000  0.38856000  0.70892000  1.0 0.360707077
C  C682  1  0.86144000  0.02004000  0.54108000  1.0 0.360707077
C  C683  1  0.54108000  0.57744000  0.86144000  1.0 0.360707077
C  C684  1  0.70892000  0.67256000  0.22996000  1.0 0.360707077
C  C685  1  0.22996000  0.70892000  0.67256000  1.0 0.360707077
C  C686  1  0.86144000  0.54108000  0.57744000  1.0 0.360707077
C  C687  1  0.67256000  0.22996000  0.70892000  1.0 0.360707077
C  C688  1  0.57744000  0.86144000  0.54108000  1.0 0.360707077
C  C689  1  0.57744000  0.02004000  0.86144000  1.0 0.360707077
C  C690  1  0.02004000  0.54108000  0.86144000  1.0 0.360707077
C  C691  1  0.38856000  0.70892000  0.22996000  1.0 0.360707077
C  C692  1  0.67256000  0.38856000  0.22996000  1.0 0.360707077
C  C693  1  0.02004000  0.86144000  0.57744000  1.0 0.360707077
C  C694  1  0.38856000  0.22996000  0.67256000  1.0 0.360707077
C  C695  1  0.54108000  0.02004000  0.57744000  1.0 0.360707077
C  C696  1  0.02004000  0.57744000  0.54108000  1.0 0.360707077
C  C697  1  0.17256000  0.20892000  0.72996000  1.0 0.360707077
C  C698  1  0.07744000  0.04108000  0.36144000  1.0 0.360707077
C  C699  1  0.04108000  0.36144000  0.07744000  1.0 0.360707077
C  C700  1  0.36144000  0.07744000  0.04108000  1.0 0.360707077
C  C701  1  0.04108000  0.52004000  0.36144000  1.0 0.360707077
C  C702  1  0.20892000  0.88856000  0.72996000  1.0 0.360707077
C  C703  1  0.52004000  0.07744000  0.36144000  1.0 0.360707077
C  C704  1  0.88856000  0.17256000  0.72996000  1.0 0.360707077
C  C705  1  0.52004000  0.36144000  0.04108000  1.0 0.360707077
C  C706  1  0.88856000  0.72996000  0.20892000  1.0 0.360707077
C  C707  1  0.20892000  0.17256000  0.88856000  1.0 0.360707077
C  C708  1  0.04108000  0.07744000  0.52004000  1.0 0.360707077
C  C709  1  0.52004000  0.04108000  0.07744000  1.0 0.360707077
C  C710  1  0.88856000  0.20892000  0.17256000  1.0 0.360707077
C  C711  1  0.07744000  0.52004000  0.04108000  1.0 0.360707077
C  C712  1  0.17256000  0.88856000  0.20892000  1.0 0.360707077
C  C713  1  0.17256000  0.72996000  0.88856000  1.0 0.360707077
C  C714  1  0.72996000  0.20892000  0.88856000  1.0 0.360707077
C  C715  1  0.36144000  0.04108000  0.52004000  1.0 0.360707077
C  C716  1  0.07744000  0.36144000  0.52004000  1.0 0.360707077
C  C717  1  0.72996000  0.88856000  0.17256000  1.0 0.360707077
C  C718  1  0.36144000  0.52004000  0.07744000  1.0 0.360707077
C  C719  1  0.20892000  0.72996000  0.17256000  1.0 0.360707077
C  C720  1  0.72996000  0.17256000  0.20892000  1.0 0.360707077
C  C721  1  0.60277000  0.57019000  0.95401000  1.0 0.0601749058
C  C722  1  0.64723000  0.67981000  0.37697000  1.0 0.0601749058
C  C723  1  0.67981000  0.37697000  0.64723000  1.0 0.0601749058
C  C724  1  0.37697000  0.64723000  0.67981000  1.0 0.0601749058
C  C725  1  0.67981000  0.29599000  0.37697000  1.0 0.0601749058
C  C726  1  0.57019000  0.87303000  0.95401000  1.0 0.0601749058
C  C727  1  0.29599000  0.64723000  0.37697000  1.0 0.0601749058
C  C728  1  0.87303000  0.60277000  0.95401000  1.0 0.0601749058
C  C729  1  0.29599000  0.37697000  0.67981000  1.0 0.0601749058
C  C730  1  0.87303000  0.95401000  0.57019000  1.0 0.0601749058
C  C731  1  0.57019000  0.60277000  0.87303000  1.0 0.0601749058
C  C732  1  0.67981000  0.64723000  0.29599000  1.0 0.0601749058
C  C733  1  0.29599000  0.67981000  0.64723000  1.0 0.0601749058
C  C734  1  0.87303000  0.57019000  0.60277000  1.0 0.0601749058
C  C735  1  0.64723000  0.29599000  0.67981000  1.0 0.0601749058
C  C736  1  0.60277000  0.87303000  0.57019000  1.0 0.0601749058
C  C737  1  0.60277000  0.95401000  0.87303000  1.0 0.0601749058
C  C738  1  0.95401000  0.57019000  0.87303000  1.0 0.0601749058
C  C739  1  0.37697000  0.67981000  0.29599000  1.0 0.0601749058
C  C740  1  0.64723000  0.37697000  0.29599000  1.0 0.0601749058
C  C741  1  0.95401000  0.87303000  0.60277000  1.0 0.0601749058
C  C742  1  0.37697000  0.29599000  0.64723000  1.0 0.0601749058
C  C743  1  0.57019000  0.95401000  0.60277000  1.0 0.0601749058
C  C744  1  0.95401000  0.60277000  0.57019000  1.0 0.0601749058
C  C745  1  0.14723000  0.17981000  0.79599000  1.0 0.0601749058
C  C746  1  0.10277000  0.07019000  0.37303000  1.0 0.0601749058
C  C747  1  0.07019000  0.37303000  0.10277000  1.0 0.0601749058
C  C748  1  0.37303000  0.10277000  0.07019000  1.0 0.0601749058
C  C749  1  0.07019000  0.45401000  0.37303000  1.0 0.0601749058
C  C750  1  0.17981000  0.87697000  0.79599000  1.0 0.0601749058
C  C751  1  0.45401000  0.10277000  0.37303000  1.0 0.0601749058
C  C752  1  0.87697000  0.14723000  0.79599000  1.0 0.0601749058
C  C753  1  0.45401000  0.37303000  0.07019000  1.0 0.0601749058
C  C754  1  0.87697000  0.79599000  0.17981000  1.0 0.0601749058
C  C755  1  0.17981000  0.14723000  0.87697000  1.0 0.0601749058
C  C756  1  0.07019000  0.10277000  0.45401000  1.0 0.0601749058
C  C757  1  0.45401000  0.07019000  0.10277000  1.0 0.0601749058
C  C758  1  0.87697000  0.17981000  0.14723000  1.0 0.0601749058
C  C759  1  0.10277000  0.45401000  0.07019000  1.0 0.0601749058
C  C760  1  0.14723000  0.87697000  0.17981000  1.0 0.0601749058
C  C761  1  0.14723000  0.79599000  0.87697000  1.0 0.0601749058
C  C762  1  0.79599000  0.17981000  0.87697000  1.0 0.0601749058
C  C763  1  0.37303000  0.07019000  0.45401000  1.0 0.0601749058
C  C764  1  0.10277000  0.37303000  0.45401000  1.0 0.0601749058
C  C765  1  0.79599000  0.87697000  0.14723000  1.0 0.0601749058
C  C766  1  0.37303000  0.45401000  0.10277000  1.0 0.0601749058
C  C767  1  0.17981000  0.79599000  0.14723000  1.0 0.0601749058
C  C768  1  0.79599000  0.14723000  0.17981000  1.0 0.0601749058
C  C769  1  0.60481000  0.53917000  0.98459000  1.0 -0.0232677735
C  C770  1  0.64519000  0.71083000  0.37857000  1.0 -0.0232677735
C  C771  1  0.71083000  0.37857000  0.64519000  1.0 -0.0232677735
C  C772  1  0.37857000  0.64519000  0.71083000  1.0 -0.0232677735
C  C773  1  0.71083000  0.26541000  0.37857000  1.0 -0.0232677735
C  C774  1  0.53917000  0.87143000  0.98459000  1.0 -0.0232677735
C  C775  1  0.26541000  0.64519000  0.37857000  1.0 -0.0232677735
C  C776  1  0.87143000  0.60481000  0.98459000  1.0 -0.0232677735
C  C777  1  0.26541000  0.37857000  0.71083000  1.0 -0.0232677735
C  C778  1  0.87143000  0.98459000  0.53917000  1.0 -0.0232677735
C  C779  1  0.53917000  0.60481000  0.87143000  1.0 -0.0232677735
C  C780  1  0.71083000  0.64519000  0.26541000  1.0 -0.0232677735
C  C781  1  0.26541000  0.71083000  0.64519000  1.0 -0.0232677735
C  C782  1  0.87143000  0.53917000  0.60481000  1.0 -0.0232677735
C  C783  1  0.64519000  0.26541000  0.71083000  1.0 -0.0232677735
C  C784  1  0.60481000  0.87143000  0.53917000  1.0 -0.0232677735
C  C785  1  0.60481000  0.98459000  0.87143000  1.0 -0.0232677735
C  C786  1  0.98459000  0.53917000  0.87143000  1.0 -0.0232677735
C  C787  1  0.37857000  0.71083000  0.26541000  1.0 -0.0232677735
C  C788  1  0.64519000  0.37857000  0.26541000  1.0 -0.0232677735
C  C789  1  0.98459000  0.87143000  0.60481000  1.0 -0.0232677735
C  C790  1  0.37857000  0.26541000  0.64519000  1.0 -0.0232677735
C  C791  1  0.53917000  0.98459000  0.60481000  1.0 -0.0232677735
C  C792  1  0.98459000  0.60481000  0.53917000  1.0 -0.0232677735
C  C793  1  0.14519000  0.21083000  0.76541000  1.0 -0.0232677735
C  C794  1  0.10481000  0.03917000  0.37143000  1.0 -0.0232677735
C  C795  1  0.03917000  0.37143000  0.10481000  1.0 -0.0232677735
C  C796  1  0.37143000  0.10481000  0.03917000  1.0 -0.0232677735
C  C797  1  0.03917000  0.48459000  0.37143000  1.0 -0.0232677735
C  C798  1  0.21083000  0.87857000  0.76541000  1.0 -0.0232677735
C  C799  1  0.48459000  0.10481000  0.37143000  1.0 -0.0232677735
C  C800  1  0.87857000  0.14519000  0.76541000  1.0 -0.0232677735
C  C801  1  0.48459000  0.37143000  0.03917000  1.0 -0.0232677735
C  C802  1  0.87857000  0.76541000  0.21083000  1.0 -0.0232677735
C  C803  1  0.21083000  0.14519000  0.87857000  1.0 -0.0232677735
C  C804  1  0.03917000  0.10481000  0.48459000  1.0 -0.0232677735
C  C805  1  0.48459000  0.03917000  0.10481000  1.0 -0.0232677735
C  C806  1  0.87857000  0.21083000  0.14519000  1.0 -0.0232677735
C  C807  1  0.10481000  0.48459000  0.03917000  1.0 -0.0232677735
C  C808  1  0.14519000  0.87857000  0.21083000  1.0 -0.0232677735
C  C809  1  0.14519000  0.76541000  0.87857000  1.0 -0.0232677735
C  C810  1  0.76541000  0.21083000  0.87857000  1.0 -0.0232677735
C  C811  1  0.37143000  0.03917000  0.48459000  1.0 -0.0232677735
C  C812  1  0.10481000  0.37143000  0.48459000  1.0 -0.0232677735
C  C813  1  0.76541000  0.87857000  0.14519000  1.0 -0.0232677735
C  C814  1  0.37143000  0.48459000  0.10481000  1.0 -0.0232677735
C  C815  1  0.21083000  0.76541000  0.14519000  1.0 -0.0232677735
C  C816  1  0.76541000  0.14519000  0.21083000  1.0 -0.0232677735
C  C817  1  0.63285000  0.50723000  0.98015000  1.0 -0.053223551
C  C818  1  0.61715000  0.74277000  0.37023000  1.0 -0.053223551
C  C819  1  0.74277000  0.37023000  0.61715000  1.0 -0.053223551
C  C820  1  0.37023000  0.61715000  0.74277000  1.0 -0.053223551
C  C821  1  0.74277000  0.26985000  0.37023000  1.0 -0.053223551
C  C822  1  0.50723000  0.87977000  0.98015000  1.0 -0.053223551
C  C823  1  0.26985000  0.61715000  0.37023000  1.0 -0.053223551
C  C824  1  0.87977000  0.63285000  0.98015000  1.0 -0.053223551
C  C825  1  0.26985000  0.37023000  0.74277000  1.0 -0.053223551
C  C826  1  0.87977000  0.98015000  0.50723000  1.0 -0.053223551
C  C827  1  0.50723000  0.63285000  0.87977000  1.0 -0.053223551
C  C828  1  0.74277000  0.61715000  0.26985000  1.0 -0.053223551
C  C829  1  0.26985000  0.74277000  0.61715000  1.0 -0.053223551
C  C830  1  0.87977000  0.50723000  0.63285000  1.0 -0.053223551
C  C831  1  0.61715000  0.26985000  0.74277000  1.0 -0.053223551
C  C832  1  0.63285000  0.87977000  0.50723000  1.0 -0.053223551
C  C833  1  0.63285000  0.98015000  0.87977000  1.0 -0.053223551
C  C834  1  0.98015000  0.50723000  0.87977000  1.0 -0.053223551
C  C835  1  0.37023000  0.74277000  0.26985000  1.0 -0.053223551
C  C836  1  0.61715000  0.37023000  0.26985000  1.0 -0.053223551
C  C837  1  0.98015000  0.87977000  0.63285000  1.0 -0.053223551
C  C838  1  0.37023000  0.26985000  0.61715000  1.0 -0.053223551
C  C839  1  0.50723000  0.98015000  0.63285000  1.0 -0.053223551
C  C840  1  0.98015000  0.63285000  0.50723000  1.0 -0.053223551
C  C841  1  0.11715000  0.24277000  0.76985000  1.0 -0.053223551
C  C842  1  0.13285000  0.00723000  0.37977000  1.0 -0.053223551
C  C843  1  0.00723000  0.37977000  0.13285000  1.0 -0.053223551
C  C844  1  0.37977000  0.13285000  0.00723000  1.0 -0.053223551
C  C845  1  0.00723000  0.48015000  0.37977000  1.0 -0.053223551
C  C846  1  0.24277000  0.87023000  0.76985000  1.0 -0.053223551
C  C847  1  0.48015000  0.13285000  0.37977000  1.0 -0.053223551
C  C848  1  0.87023000  0.11715000  0.76985000  1.0 -0.053223551
C  C849  1  0.48015000  0.37977000  0.00723000  1.0 -0.053223551
C  C850  1  0.87023000  0.76985000  0.24277000  1.0 -0.053223551
C  C851  1  0.24277000  0.11715000  0.87023000  1.0 -0.053223551
C  C852  1  0.00723000  0.13285000  0.48015000  1.0 -0.053223551
C  C853  1  0.48015000  0.00723000  0.13285000  1.0 -0.053223551
C  C854  1  0.87023000  0.24277000  0.11715000  1.0 -0.053223551
C  C855  1  0.13285000  0.48015000  0.00723000  1.0 -0.053223551
C  C856  1  0.11715000  0.87023000  0.24277000  1.0 -0.053223551
C  C857  1  0.11715000  0.76985000  0.87023000  1.0 -0.053223551
C  C858  1  0.76985000  0.24277000  0.87023000  1.0 -0.053223551
C  C859  1  0.37977000  0.00723000  0.48015000  1.0 -0.053223551
C  C860  1  0.13285000  0.37977000  0.48015000  1.0 -0.053223551
C  C861  1  0.76985000  0.87023000  0.11715000  1.0 -0.053223551
C  C862  1  0.37977000  0.48015000  0.13285000  1.0 -0.053223551
C  C863  1  0.24277000  0.76985000  0.11715000  1.0 -0.053223551
C  C864  1  0.76985000  0.11715000  0.24277000  1.0 -0.053223551
C  C865  1  0.65746000  0.50802000  0.94564000  1.0 -0.1290551781
C  C866  1  0.59254000  0.74198000  0.36112000  1.0 -0.1290551781
C  C867  1  0.74198000  0.36112000  0.59254000  1.0 -0.1290551781
C  C868  1  0.36112000  0.59254000  0.74198000  1.0 -0.1290551781
C  C869  1  0.74198000  0.30436000  0.36112000  1.0 -0.1290551781
C  C870  1  0.50802000  0.88888000  0.94564000  1.0 -0.1290551781
C  C871  1  0.30436000  0.59254000  0.36112000  1.0 -0.1290551781
C  C872  1  0.88888000  0.65746000  0.94564000  1.0 -0.1290551781
C  C873  1  0.30436000  0.36112000  0.74198000  1.0 -0.1290551781
C  C874  1  0.88888000  0.94564000  0.50802000  1.0 -0.1290551781
C  C875  1  0.50802000  0.65746000  0.88888000  1.0 -0.1290551781
C  C876  1  0.74198000  0.59254000  0.30436000  1.0 -0.1290551781
C  C877  1  0.30436000  0.74198000  0.59254000  1.0 -0.1290551781
C  C878  1  0.88888000  0.50802000  0.65746000  1.0 -0.1290551781
C  C879  1  0.59254000  0.30436000  0.74198000  1.0 -0.1290551781
C  C880  1  0.65746000  0.88888000  0.50802000  1.0 -0.1290551781
C  C881  1  0.65746000  0.94564000  0.88888000  1.0 -0.1290551781
C  C882  1  0.94564000  0.50802000  0.88888000  1.0 -0.1290551781
C  C883  1  0.36112000  0.74198000  0.30436000  1.0 -0.1290551781
C  C884  1  0.59254000  0.36112000  0.30436000  1.0 -0.1290551781
C  C885  1  0.94564000  0.88888000  0.65746000  1.0 -0.1290551781
C  C886  1  0.36112000  0.30436000  0.59254000  1.0 -0.1290551781
C  C887  1  0.50802000  0.94564000  0.65746000  1.0 -0.1290551781
C  C888  1  0.94564000  0.65746000  0.50802000  1.0 -0.1290551781
C  C889  1  0.09254000  0.24198000  0.80436000  1.0 -0.1290551781
C  C890  1  0.15746000  0.00802000  0.38888000  1.0 -0.1290551781
C  C891  1  0.00802000  0.38888000  0.15746000  1.0 -0.1290551781
C  C892  1  0.38888000  0.15746000  0.00802000  1.0 -0.1290551781
C  C893  1  0.00802000  0.44564000  0.38888000  1.0 -0.1290551781
C  C894  1  0.24198000  0.86112000  0.80436000  1.0 -0.1290551781
C  C895  1  0.44564000  0.15746000  0.38888000  1.0 -0.1290551781
C  C896  1  0.86112000  0.09254000  0.80436000  1.0 -0.1290551781
C  C897  1  0.44564000  0.38888000  0.00802000  1.0 -0.1290551781
C  C898  1  0.86112000  0.80436000  0.24198000  1.0 -0.1290551781
C  C899  1  0.24198000  0.09254000  0.86112000  1.0 -0.1290551781
C  C900  1  0.00802000  0.15746000  0.44564000  1.0 -0.1290551781
C  C901  1  0.44564000  0.00802000  0.15746000  1.0 -0.1290551781
C  C902  1  0.86112000  0.24198000  0.09254000  1.0 -0.1290551781
C  C903  1  0.15746000  0.44564000  0.00802000  1.0 -0.1290551781
C  C904  1  0.09254000  0.86112000  0.24198000  1.0 -0.1290551781
C  C905  1  0.09254000  0.80436000  0.86112000  1.0 -0.1290551781
C  C906  1  0.80436000  0.24198000  0.86112000  1.0 -0.1290551781
C  C907  1  0.38888000  0.00802000  0.44564000  1.0 -0.1290551781
C  C908  1  0.15746000  0.38888000  0.44564000  1.0 -0.1290551781
C  C909  1  0.80436000  0.86112000  0.09254000  1.0 -0.1290551781
C  C910  1  0.38888000  0.44564000  0.15746000  1.0 -0.1290551781
C  C911  1  0.24198000  0.80436000  0.09254000  1.0 -0.1290551781
C  C912  1  0.80436000  0.09254000  0.24198000  1.0 -0.1290551781
C  C913  1  0.65375000  0.54039000  0.91705000  1.0 0.0784256325
C  C914  1  0.59625000  0.70961000  0.36119000  1.0 0.0784256325
C  C915  1  0.70961000  0.36119000  0.59625000  1.0 0.0784256325
C  C916  1  0.36119000  0.59625000  0.70961000  1.0 0.0784256325
C  C917  1  0.70961000  0.33295000  0.36119000  1.0 0.0784256325
C  C918  1  0.54039000  0.88881000  0.91705000  1.0 0.0784256325
C  C919  1  0.33295000  0.59625000  0.36119000  1.0 0.0784256325
C  C920  1  0.88881000  0.65375000  0.91705000  1.0 0.0784256325
C  C921  1  0.33295000  0.36119000  0.70961000  1.0 0.0784256325
C  C922  1  0.88881000  0.91705000  0.54039000  1.0 0.0784256325
C  C923  1  0.54039000  0.65375000  0.88881000  1.0 0.0784256325
C  C924  1  0.70961000  0.59625000  0.33295000  1.0 0.0784256325
C  C925  1  0.33295000  0.70961000  0.59625000  1.0 0.0784256325
C  C926  1  0.88881000  0.54039000  0.65375000  1.0 0.0784256325
C  C927  1  0.59625000  0.33295000  0.70961000  1.0 0.0784256325
C  C928  1  0.65375000  0.88881000  0.54039000  1.0 0.0784256325
C  C929  1  0.65375000  0.91705000  0.88881000  1.0 0.0784256325
C  C930  1  0.91705000  0.54039000  0.88881000  1.0 0.0784256325
C  C931  1  0.36119000  0.70961000  0.33295000  1.0 0.0784256325
C  C932  1  0.59625000  0.36119000  0.33295000  1.0 0.0784256325
C  C933  1  0.91705000  0.88881000  0.65375000  1.0 0.0784256325
C  C934  1  0.36119000  0.33295000  0.59625000  1.0 0.0784256325
C  C935  1  0.54039000  0.91705000  0.65375000  1.0 0.0784256325
C  C936  1  0.91705000  0.65375000  0.54039000  1.0 0.0784256325
C  C937  1  0.09625000  0.20961000  0.83295000  1.0 0.0784256325
C  C938  1  0.15375000  0.04039000  0.38881000  1.0 0.0784256325
C  C939  1  0.04039000  0.38881000  0.15375000  1.0 0.0784256325
C  C940  1  0.38881000  0.15375000  0.04039000  1.0 0.0784256325
C  C941  1  0.04039000  0.41705000  0.38881000  1.0 0.0784256325
C  C942  1  0.20961000  0.86119000  0.83295000  1.0 0.0784256325
C  C943  1  0.41705000  0.15375000  0.38881000  1.0 0.0784256325
C  C944  1  0.86119000  0.09625000  0.83295000  1.0 0.0784256325
C  C945  1  0.41705000  0.38881000  0.04039000  1.0 0.0784256325
C  C946  1  0.86119000  0.83295000  0.20961000  1.0 0.0784256325
C  C947  1  0.20961000  0.09625000  0.86119000  1.0 0.0784256325
C  C948  1  0.04039000  0.15375000  0.41705000  1.0 0.0784256325
C  C949  1  0.41705000  0.04039000  0.15375000  1.0 0.0784256325
C  C950  1  0.86119000  0.20961000  0.09625000  1.0 0.0784256325
C  C951  1  0.15375000  0.41705000  0.04039000  1.0 0.0784256325
C  C952  1  0.09625000  0.86119000  0.20961000  1.0 0.0784256325
C  C953  1  0.09625000  0.83295000  0.86119000  1.0 0.0784256325
C  C954  1  0.83295000  0.20961000  0.86119000  1.0 0.0784256325
C  C955  1  0.38881000  0.04039000  0.41705000  1.0 0.0784256325
C  C956  1  0.15375000  0.38881000  0.41705000  1.0 0.0784256325
C  C957  1  0.83295000  0.86119000  0.09625000  1.0 0.0784256325
C  C958  1  0.38881000  0.41705000  0.15375000  1.0 0.0784256325
C  C959  1  0.20961000  0.83295000  0.09625000  1.0 0.0784256325
C  C960  1  0.83295000  0.09625000  0.20961000  1.0 0.0784256325
C  C961  1  0.61305000  0.67091000  0.80249000  1.0 0.0784256325
C  C962  1  0.63695000  0.57909000  0.33645000  1.0 0.0784256325
C  C963  1  0.57909000  0.33645000  0.63695000  1.0 0.0784256325
C  C964  1  0.33645000  0.63695000  0.57909000  1.0 0.0784256325
C  C965  1  0.57909000  0.44751000  0.33645000  1.0 0.0784256325
C  C966  1  0.67091000  0.91355000  0.80249000  1.0 0.0784256325
C  C967  1  0.44751000  0.63695000  0.33645000  1.0 0.0784256325
C  C968  1  0.91355000  0.61305000  0.80249000  1.0 0.0784256325
C  C969  1  0.44751000  0.33645000  0.57909000  1.0 0.0784256325
C  C970  1  0.91355000  0.80249000  0.67091000  1.0 0.0784256325
C  C971  1  0.67091000  0.61305000  0.91355000  1.0 0.0784256325
C  C972  1  0.57909000  0.63695000  0.44751000  1.0 0.0784256325
C  C973  1  0.44751000  0.57909000  0.63695000  1.0 0.0784256325
C  C974  1  0.91355000  0.67091000  0.61305000  1.0 0.0784256325
C  C975  1  0.63695000  0.44751000  0.57909000  1.0 0.0784256325
C  C976  1  0.61305000  0.91355000  0.67091000  1.0 0.0784256325
C  C977  1  0.61305000  0.80249000  0.91355000  1.0 0.0784256325
C  C978  1  0.80249000  0.67091000  0.91355000  1.0 0.0784256325
C  C979  1  0.33645000  0.57909000  0.44751000  1.0 0.0784256325
C  C980  1  0.63695000  0.33645000  0.44751000  1.0 0.0784256325
C  C981  1  0.80249000  0.91355000  0.61305000  1.0 0.0784256325
C  C982  1  0.33645000  0.44751000  0.63695000  1.0 0.0784256325
C  C983  1  0.67091000  0.80249000  0.61305000  1.0 0.0784256325
C  C984  1  0.80249000  0.61305000  0.67091000  1.0 0.0784256325
C  C985  1  0.13695000  0.07909000  0.94751000  1.0 0.0784256325
C  C986  1  0.11305000  0.17091000  0.41355000  1.0 0.0784256325
C  C987  1  0.17091000  0.41355000  0.11305000  1.0 0.0784256325
C  C988  1  0.41355000  0.11305000  0.17091000  1.0 0.0784256325
C  C989  1  0.17091000  0.30249000  0.41355000  1.0 0.0784256325
C  C990  1  0.07909000  0.83645000  0.94751000  1.0 0.0784256325
C  C991  1  0.30249000  0.11305000  0.41355000  1.0 0.0784256325
C  C992  1  0.83645000  0.13695000  0.94751000  1.0 0.0784256325
C  C993  1  0.30249000  0.41355000  0.17091000  1.0 0.0784256325
C  C994  1  0.83645000  0.94751000  0.07909000  1.0 0.0784256325
C  C995  1  0.07909000  0.13695000  0.83645000  1.0 0.0784256325
C  C996  1  0.17091000  0.11305000  0.30249000  1.0 0.0784256325
C  C997  1  0.30249000  0.17091000  0.11305000  1.0 0.0784256325
C  C998  1  0.83645000  0.07909000  0.13695000  1.0 0.0784256325
C  C999  1  0.11305000  0.30249000  0.17091000  1.0 0.0784256325
C  C1000  1  0.13695000  0.83645000  0.07909000  1.0 0.0784256325
C  C1001  1  0.13695000  0.94751000  0.83645000  1.0 0.0784256325
C  C1002  1  0.94751000  0.07909000  0.83645000  1.0 0.0784256325
C  C1003  1  0.41355000  0.17091000  0.30249000  1.0 0.0784256325
C  C1004  1  0.11305000  0.41355000  0.30249000  1.0 0.0784256325
C  C1005  1  0.94751000  0.83645000  0.13695000  1.0 0.0784256325
C  C1006  1  0.41355000  0.30249000  0.11305000  1.0 0.0784256325
C  C1007  1  0.07909000  0.94751000  0.13695000  1.0 0.0784256325
C  C1008  1  0.94751000  0.13695000  0.07909000  1.0 0.0784256325
C  C1009  1  0.60635000  0.70137000  0.77335000  1.0 -0.1290551781
C  C1010  1  0.64365000  0.54863000  0.33107000  1.0 -0.1290551781
C  C1011  1  0.54863000  0.33107000  0.64365000  1.0 -0.1290551781
C  C1012  1  0.33107000  0.64365000  0.54863000  1.0 -0.1290551781
C  C1013  1  0.54863000  0.47665000  0.33107000  1.0 -0.1290551781
C  C1014  1  0.70137000  0.91893000  0.77335000  1.0 -0.1290551781
C  C1015  1  0.47665000  0.64365000  0.33107000  1.0 -0.1290551781
C  C1016  1  0.91893000  0.60635000  0.77335000  1.0 -0.1290551781
C  C1017  1  0.47665000  0.33107000  0.54863000  1.0 -0.1290551781
C  C1018  1  0.91893000  0.77335000  0.70137000  1.0 -0.1290551781
C  C1019  1  0.70137000  0.60635000  0.91893000  1.0 -0.1290551781
C  C1020  1  0.54863000  0.64365000  0.47665000  1.0 -0.1290551781
C  C1021  1  0.47665000  0.54863000  0.64365000  1.0 -0.1290551781
C  C1022  1  0.91893000  0.70137000  0.60635000  1.0 -0.1290551781
C  C1023  1  0.64365000  0.47665000  0.54863000  1.0 -0.1290551781
C  C1024  1  0.60635000  0.91893000  0.70137000  1.0 -0.1290551781
C  C1025  1  0.60635000  0.77335000  0.91893000  1.0 -0.1290551781
C  C1026  1  0.77335000  0.70137000  0.91893000  1.0 -0.1290551781
C  C1027  1  0.33107000  0.54863000  0.47665000  1.0 -0.1290551781
C  C1028  1  0.64365000  0.33107000  0.47665000  1.0 -0.1290551781
C  C1029  1  0.77335000  0.91893000  0.60635000  1.0 -0.1290551781
C  C1030  1  0.33107000  0.47665000  0.64365000  1.0 -0.1290551781
C  C1031  1  0.70137000  0.77335000  0.60635000  1.0 -0.1290551781
C  C1032  1  0.77335000  0.60635000  0.70137000  1.0 -0.1290551781
C  C1033  1  0.14365000  0.04863000  0.97665000  1.0 -0.1290551781
C  C1034  1  0.10635000  0.20137000  0.41893000  1.0 -0.1290551781
C  C1035  1  0.20137000  0.41893000  0.10635000  1.0 -0.1290551781
C  C1036  1  0.41893000  0.10635000  0.20137000  1.0 -0.1290551781
C  C1037  1  0.20137000  0.27335000  0.41893000  1.0 -0.1290551781
C  C1038  1  0.04863000  0.83107000  0.97665000  1.0 -0.1290551781
C  C1039  1  0.27335000  0.10635000  0.41893000  1.0 -0.1290551781
C  C1040  1  0.83107000  0.14365000  0.97665000  1.0 -0.1290551781
C  C1041  1  0.27335000  0.41893000  0.20137000  1.0 -0.1290551781
C  C1042  1  0.83107000  0.97665000  0.04863000  1.0 -0.1290551781
C  C1043  1  0.04863000  0.14365000  0.83107000  1.0 -0.1290551781
C  C1044  1  0.20137000  0.10635000  0.27335000  1.0 -0.1290551781
C  C1045  1  0.27335000  0.20137000  0.10635000  1.0 -0.1290551781
C  C1046  1  0.83107000  0.04863000  0.14365000  1.0 -0.1290551781
C  C1047  1  0.10635000  0.27335000  0.20137000  1.0 -0.1290551781
C  C1048  1  0.14365000  0.83107000  0.04863000  1.0 -0.1290551781
C  C1049  1  0.14365000  0.97665000  0.83107000  1.0 -0.1290551781
C  C1050  1  0.97665000  0.04863000  0.83107000  1.0 -0.1290551781
C  C1051  1  0.41893000  0.20137000  0.27335000  1.0 -0.1290551781
C  C1052  1  0.10635000  0.41893000  0.27335000  1.0 -0.1290551781
C  C1053  1  0.97665000  0.83107000  0.14365000  1.0 -0.1290551781
C  C1054  1  0.41893000  0.27335000  0.10635000  1.0 -0.1290551781
C  C1055  1  0.04863000  0.97665000  0.14365000  1.0 -0.1290551781
C  C1056  1  0.97665000  0.14365000  0.04863000  1.0 -0.1290551781
C  C1057  1  0.60546000  0.73364000  0.77074000  1.0 -0.053223551
C  C1058  1  0.64454000  0.51636000  0.35984000  1.0 -0.053223551
C  C1059  1  0.51636000  0.35984000  0.64454000  1.0 -0.053223551
C  C1060  1  0.35984000  0.64454000  0.51636000  1.0 -0.053223551
C  C1061  1  0.51636000  0.47926000  0.35984000  1.0 -0.053223551
C  C1062  1  0.73364000  0.89016000  0.77074000  1.0 -0.053223551
C  C1063  1  0.47926000  0.64454000  0.35984000  1.0 -0.053223551
C  C1064  1  0.89016000  0.60546000  0.77074000  1.0 -0.053223551
C  C1065  1  0.47926000  0.35984000  0.51636000  1.0 -0.053223551
C  C1066  1  0.89016000  0.77074000  0.73364000  1.0 -0.053223551
C  C1067  1  0.73364000  0.60546000  0.89016000  1.0 -0.053223551
C  C1068  1  0.51636000  0.64454000  0.47926000  1.0 -0.053223551
C  C1069  1  0.47926000  0.51636000  0.64454000  1.0 -0.053223551
C  C1070  1  0.89016000  0.73364000  0.60546000  1.0 -0.053223551
C  C1071  1  0.64454000  0.47926000  0.51636000  1.0 -0.053223551
C  C1072  1  0.60546000  0.89016000  0.73364000  1.0 -0.053223551
C  C1073  1  0.60546000  0.77074000  0.89016000  1.0 -0.053223551
C  C1074  1  0.77074000  0.73364000  0.89016000  1.0 -0.053223551
C  C1075  1  0.35984000  0.51636000  0.47926000  1.0 -0.053223551
C  C1076  1  0.64454000  0.35984000  0.47926000  1.0 -0.053223551
C  C1077  1  0.77074000  0.89016000  0.60546000  1.0 -0.053223551
C  C1078  1  0.35984000  0.47926000  0.64454000  1.0 -0.053223551
C  C1079  1  0.73364000  0.77074000  0.60546000  1.0 -0.053223551
C  C1080  1  0.77074000  0.60546000  0.73364000  1.0 -0.053223551
C  C1081  1  0.14454000  0.01636000  0.97926000  1.0 -0.053223551
C  C1082  1  0.10546000  0.23364000  0.39016000  1.0 -0.053223551
C  C1083  1  0.23364000  0.39016000  0.10546000  1.0 -0.053223551
C  C1084  1  0.39016000  0.10546000  0.23364000  1.0 -0.053223551
C  C1085  1  0.23364000  0.27074000  0.39016000  1.0 -0.053223551
C  C1086  1  0.01636000  0.85984000  0.97926000  1.0 -0.053223551
C  C1087  1  0.27074000  0.10546000  0.39016000  1.0 -0.053223551
C  C1088  1  0.85984000  0.14454000  0.97926000  1.0 -0.053223551
C  C1089  1  0.27074000  0.39016000  0.23364000  1.0 -0.053223551
C  C1090  1  0.85984000  0.97926000  0.01636000  1.0 -0.053223551
C  C1091  1  0.01636000  0.14454000  0.85984000  1.0 -0.053223551
C  C1092  1  0.23364000  0.10546000  0.27074000  1.0 -0.053223551
C  C1093  1  0.27074000  0.23364000  0.10546000  1.0 -0.053223551
C  C1094  1  0.85984000  0.01636000  0.14454000  1.0 -0.053223551
C  C1095  1  0.10546000  0.27074000  0.23364000  1.0 -0.053223551
C  C1096  1  0.14454000  0.85984000  0.01636000  1.0 -0.053223551
C  C1097  1  0.14454000  0.97926000  0.85984000  1.0 -0.053223551
C  C1098  1  0.97926000  0.01636000  0.85984000  1.0 -0.053223551
C  C1099  1  0.39016000  0.23364000  0.27074000  1.0 -0.053223551
C  C1100  1  0.10546000  0.39016000  0.27074000  1.0 -0.053223551
C  C1101  1  0.97926000  0.85984000  0.14454000  1.0 -0.053223551
C  C1102  1  0.39016000  0.27074000  0.10546000  1.0 -0.053223551
C  C1103  1  0.01636000  0.97926000  0.14454000  1.0 -0.053223551
C  C1104  1  0.97926000  0.14454000  0.01636000  1.0 -0.053223551
C  C1105  1  0.61147000  0.73385000  0.79821000  1.0 -0.0232677735
C  C1106  1  0.63853000  0.51615000  0.39353000  1.0 -0.0232677735
C  C1107  1  0.51615000  0.39353000  0.63853000  1.0 -0.0232677735
C  C1108  1  0.39353000  0.63853000  0.51615000  1.0 -0.0232677735
C  C1109  1  0.51615000  0.45179000  0.39353000  1.0 -0.0232677735
C  C1110  1  0.73385000  0.85647000  0.79821000  1.0 -0.0232677735
C  C1111  1  0.45179000  0.63853000  0.39353000  1.0 -0.0232677735
C  C1112  1  0.85647000  0.61147000  0.79821000  1.0 -0.0232677735
C  C1113  1  0.45179000  0.39353000  0.51615000  1.0 -0.0232677735
C  C1114  1  0.85647000  0.79821000  0.73385000  1.0 -0.0232677735
C  C1115  1  0.73385000  0.61147000  0.85647000  1.0 -0.0232677735
C  C1116  1  0.51615000  0.63853000  0.45179000  1.0 -0.0232677735
C  C1117  1  0.45179000  0.51615000  0.63853000  1.0 -0.0232677735
C  C1118  1  0.85647000  0.73385000  0.61147000  1.0 -0.0232677735
C  C1119  1  0.63853000  0.45179000  0.51615000  1.0 -0.0232677735
C  C1120  1  0.61147000  0.85647000  0.73385000  1.0 -0.0232677735
C  C1121  1  0.61147000  0.79821000  0.85647000  1.0 -0.0232677735
C  C1122  1  0.79821000  0.73385000  0.85647000  1.0 -0.0232677735
C  C1123  1  0.39353000  0.51615000  0.45179000  1.0 -0.0232677735
C  C1124  1  0.63853000  0.39353000  0.45179000  1.0 -0.0232677735
C  C1125  1  0.79821000  0.85647000  0.61147000  1.0 -0.0232677735
C  C1126  1  0.39353000  0.45179000  0.63853000  1.0 -0.0232677735
C  C1127  1  0.73385000  0.79821000  0.61147000  1.0 -0.0232677735
C  C1128  1  0.79821000  0.61147000  0.73385000  1.0 -0.0232677735
C  C1129  1  0.13853000  0.01615000  0.95179000  1.0 -0.0232677735
C  C1130  1  0.11147000  0.23385000  0.35647000  1.0 -0.0232677735
C  C1131  1  0.23385000  0.35647000  0.11147000  1.0 -0.0232677735
C  C1132  1  0.35647000  0.11147000  0.23385000  1.0 -0.0232677735
C  C1133  1  0.23385000  0.29821000  0.35647000  1.0 -0.0232677735
C  C1134  1  0.01615000  0.89353000  0.95179000  1.0 -0.0232677735
C  C1135  1  0.29821000  0.11147000  0.35647000  1.0 -0.0232677735
C  C1136  1  0.89353000  0.13853000  0.95179000  1.0 -0.0232677735
C  C1137  1  0.29821000  0.35647000  0.23385000  1.0 -0.0232677735
C  C1138  1  0.89353000  0.95179000  0.01615000  1.0 -0.0232677735
C  C1139  1  0.01615000  0.13853000  0.89353000  1.0 -0.0232677735
C  C1140  1  0.23385000  0.11147000  0.29821000  1.0 -0.0232677735
C  C1141  1  0.29821000  0.23385000  0.11147000  1.0 -0.0232677735
C  C1142  1  0.89353000  0.01615000  0.13853000  1.0 -0.0232677735
C  C1143  1  0.11147000  0.29821000  0.23385000  1.0 -0.0232677735
C  C1144  1  0.13853000  0.89353000  0.01615000  1.0 -0.0232677735
C  C1145  1  0.13853000  0.95179000  0.89353000  1.0 -0.0232677735
C  C1146  1  0.95179000  0.01615000  0.89353000  1.0 -0.0232677735
C  C1147  1  0.35647000  0.23385000  0.29821000  1.0 -0.0232677735
C  C1148  1  0.11147000  0.35647000  0.29821000  1.0 -0.0232677735
C  C1149  1  0.95179000  0.89353000  0.13853000  1.0 -0.0232677735
C  C1150  1  0.35647000  0.29821000  0.11147000  1.0 -0.0232677735
C  C1151  1  0.01615000  0.95179000  0.13853000  1.0 -0.0232677735
C  C1152  1  0.95179000  0.13853000  0.01615000  1.0 -0.0232677735
C  C1153  1  0.61732000  0.70216000  0.82702000  1.0 0.0601749058
C  C1154  1  0.63268000  0.54784000  0.39650000  1.0 0.0601749058
C  C1155  1  0.54784000  0.39650000  0.63268000  1.0 0.0601749058
C  C1156  1  0.39650000  0.63268000  0.54784000  1.0 0.0601749058
C  C1157  1  0.54784000  0.42298000  0.39650000  1.0 0.0601749058
C  C1158  1  0.70216000  0.85350000  0.82702000  1.0 0.0601749058
C  C1159  1  0.42298000  0.63268000  0.39650000  1.0 0.0601749058
C  C1160  1  0.85350000  0.61732000  0.82702000  1.0 0.0601749058
C  C1161  1  0.42298000  0.39650000  0.54784000  1.0 0.0601749058
C  C1162  1  0.85350000  0.82702000  0.70216000  1.0 0.0601749058
C  C1163  1  0.70216000  0.61732000  0.85350000  1.0 0.0601749058
C  C1164  1  0.54784000  0.63268000  0.42298000  1.0 0.0601749058
C  C1165  1  0.42298000  0.54784000  0.63268000  1.0 0.0601749058
C  C1166  1  0.85350000  0.70216000  0.61732000  1.0 0.0601749058
C  C1167  1  0.63268000  0.42298000  0.54784000  1.0 0.0601749058
C  C1168  1  0.61732000  0.85350000  0.70216000  1.0 0.0601749058
C  C1169  1  0.61732000  0.82702000  0.85350000  1.0 0.0601749058
C  C1170  1  0.82702000  0.70216000  0.85350000  1.0 0.0601749058
C  C1171  1  0.39650000  0.54784000  0.42298000  1.0 0.0601749058
C  C1172  1  0.63268000  0.39650000  0.42298000  1.0 0.0601749058
C  C1173  1  0.82702000  0.85350000  0.61732000  1.0 0.0601749058
C  C1174  1  0.39650000  0.42298000  0.63268000  1.0 0.0601749058
C  C1175  1  0.70216000  0.82702000  0.61732000  1.0 0.0601749058
C  C1176  1  0.82702000  0.61732000  0.70216000  1.0 0.0601749058
C  C1177  1  0.13268000  0.04784000  0.92298000  1.0 0.0601749058
C  C1178  1  0.11732000  0.20216000  0.35350000  1.0 0.0601749058
C  C1179  1  0.20216000  0.35350000  0.11732000  1.0 0.0601749058
C  C1180  1  0.35350000  0.11732000  0.20216000  1.0 0.0601749058
C  C1181  1  0.20216000  0.32702000  0.35350000  1.0 0.0601749058
C  C1182  1  0.04784000  0.89650000  0.92298000  1.0 0.0601749058
C  C1183  1  0.32702000  0.11732000  0.35350000  1.0 0.0601749058
C  C1184  1  0.89650000  0.13268000  0.92298000  1.0 0.0601749058
C  C1185  1  0.32702000  0.35350000  0.20216000  1.0 0.0601749058
C  C1186  1  0.89650000  0.92298000  0.04784000  1.0 0.0601749058
C  C1187  1  0.04784000  0.13268000  0.89650000  1.0 0.0601749058
C  C1188  1  0.20216000  0.11732000  0.32702000  1.0 0.0601749058
C  C1189  1  0.32702000  0.20216000  0.11732000  1.0 0.0601749058
C  C1190  1  0.89650000  0.04784000  0.13268000  1.0 0.0601749058
C  C1191  1  0.11732000  0.32702000  0.20216000  1.0 0.0601749058
C  C1192  1  0.13268000  0.89650000  0.04784000  1.0 0.0601749058
C  C1193  1  0.13268000  0.92298000  0.89650000  1.0 0.0601749058
C  C1194  1  0.92298000  0.04784000  0.89650000  1.0 0.0601749058
C  C1195  1  0.35350000  0.20216000  0.32702000  1.0 0.0601749058
C  C1196  1  0.11732000  0.35350000  0.32702000  1.0 0.0601749058
C  C1197  1  0.92298000  0.89650000  0.13268000  1.0 0.0601749058
C  C1198  1  0.35350000  0.32702000  0.11732000  1.0 0.0601749058
C  C1199  1  0.04784000  0.92298000  0.13268000  1.0 0.0601749058
C  C1200  1  0.92298000  0.13268000  0.04784000  1.0 0.0601749058
C  C1201  1  0.61048000  0.76742000  0.79730000  1.0 0.360707077
C  C1202  1  0.63952000  0.48258000  0.42520000  1.0 0.360707077
C  C1203  1  0.48258000  0.42520000  0.63952000  1.0 0.360707077
C  C1204  1  0.42520000  0.63952000  0.48258000  1.0 0.360707077
C  C1205  1  0.48258000  0.45270000  0.42520000  1.0 0.360707077
C  C1206  1  0.76742000  0.82480000  0.79730000  1.0 0.360707077
C  C1207  1  0.45270000  0.63952000  0.42520000  1.0 0.360707077
C  C1208  1  0.82480000  0.61048000  0.79730000  1.0 0.360707077
C  C1209  1  0.45270000  0.42520000  0.48258000  1.0 0.360707077
C  C1210  1  0.82480000  0.79730000  0.76742000  1.0 0.360707077
C  C1211  1  0.76742000  0.61048000  0.82480000  1.0 0.360707077
C  C1212  1  0.48258000  0.63952000  0.45270000  1.0 0.360707077
C  C1213  1  0.45270000  0.48258000  0.63952000  1.0 0.360707077
C  C1214  1  0.82480000  0.76742000  0.61048000  1.0 0.360707077
C  C1215  1  0.63952000  0.45270000  0.48258000  1.0 0.360707077
C  C1216  1  0.61048000  0.82480000  0.76742000  1.0 0.360707077
C  C1217  1  0.61048000  0.79730000  0.82480000  1.0 0.360707077
C  C1218  1  0.79730000  0.76742000  0.82480000  1.0 0.360707077
C  C1219  1  0.42520000  0.48258000  0.45270000  1.0 0.360707077
C  C1220  1  0.63952000  0.42520000  0.45270000  1.0 0.360707077
C  C1221  1  0.79730000  0.82480000  0.61048000  1.0 0.360707077
C  C1222  1  0.42520000  0.45270000  0.63952000  1.0 0.360707077
C  C1223  1  0.76742000  0.79730000  0.61048000  1.0 0.360707077
C  C1224  1  0.79730000  0.61048000  0.76742000  1.0 0.360707077
C  C1225  1  0.13952000  0.98258000  0.95270000  1.0 0.360707077
C  C1226  1  0.11048000  0.26742000  0.32480000  1.0 0.360707077
C  C1227  1  0.26742000  0.32480000  0.11048000  1.0 0.360707077
C  C1228  1  0.32480000  0.11048000  0.26742000  1.0 0.360707077
C  C1229  1  0.26742000  0.29730000  0.32480000  1.0 0.360707077
C  C1230  1  0.98258000  0.92520000  0.95270000  1.0 0.360707077
C  C1231  1  0.29730000  0.11048000  0.32480000  1.0 0.360707077
C  C1232  1  0.92520000  0.13952000  0.95270000  1.0 0.360707077
C  C1233  1  0.29730000  0.32480000  0.26742000  1.0 0.360707077
C  C1234  1  0.92520000  0.95270000  0.98258000  1.0 0.360707077
C  C1235  1  0.98258000  0.13952000  0.92520000  1.0 0.360707077
C  C1236  1  0.26742000  0.11048000  0.29730000  1.0 0.360707077
C  C1237  1  0.29730000  0.26742000  0.11048000  1.0 0.360707077
C  C1238  1  0.92520000  0.98258000  0.13952000  1.0 0.360707077
C  C1239  1  0.11048000  0.29730000  0.26742000  1.0 0.360707077
C  C1240  1  0.13952000  0.92520000  0.98258000  1.0 0.360707077
C  C1241  1  0.13952000  0.95270000  0.92520000  1.0 0.360707077
C  C1242  1  0.95270000  0.98258000  0.92520000  1.0 0.360707077
C  C1243  1  0.32480000  0.26742000  0.29730000  1.0 0.360707077
C  C1244  1  0.11048000  0.32480000  0.29730000  1.0 0.360707077
C  C1245  1  0.95270000  0.92520000  0.13952000  1.0 0.360707077
C  C1246  1  0.32480000  0.29730000  0.11048000  1.0 0.360707077
C  C1247  1  0.98258000  0.95270000  0.13952000  1.0 0.360707077
C  C1248  1  0.95270000  0.13952000  0.98258000  1.0 0.360707077
S  S1  1  0.66737000  0.40993000  0.99495000  1.0 -0.4018358501
S  S2  1  0.58263000  0.84007000  0.32225000  1.0 -0.3923486022
S  S3  1  0.84007000  0.32225000  0.58263000  1.0 -0.3923486022
S  S4  1  0.32225000  0.58263000  0.84007000  1.0 -0.3923486022
S  S5  1  0.84007000  0.25505000  0.32225000  1.0 -0.4018358501
S  S6  1  0.40993000  0.92775000  0.99495000  1.0 -0.3923486022
S  S7  1  0.25505000  0.58263000  0.32225000  1.0 -0.3923486022
S  S8  1  0.92775000  0.66737000  0.99495000  1.0 -0.3923486022
S  S9  1  0.25505000  0.32225000  0.84007000  1.0 -0.3923486022
S  S10  1  0.92775000  0.99495000  0.40993000  1.0 -0.3923486022
S  S11  1  0.40993000  0.66737000  0.92775000  1.0 -0.3923486022
S  S12  1  0.84007000  0.58263000  0.25505000  1.0 -0.3923486022
S  S13  1  0.25505000  0.84007000  0.58263000  1.0 -0.3923486022
S  S14  1  0.92775000  0.40993000  0.66737000  1.0 -0.3923486022
S  S15  1  0.58263000  0.25505000  0.84007000  1.0 -0.3923486022
S  S16  1  0.66737000  0.92775000  0.40993000  1.0 -0.3923486022
S  S17  1  0.66737000  0.99495000  0.92775000  1.0 -0.3923486022
S  S18  1  0.99495000  0.40993000  0.92775000  1.0 -0.3923486022
S  S19  1  0.32225000  0.84007000  0.25505000  1.0 -0.3923486022
S  S20  1  0.58263000  0.32225000  0.25505000  1.0 -0.3923486022
S  S21  1  0.99495000  0.92775000  0.66737000  1.0 -0.3923486022
S  S22  1  0.32225000  0.25505000  0.58263000  1.0 -0.3923486022
S  S23  1  0.40993000  0.99495000  0.66737000  1.0 -0.3923486022
S  S24  1  0.99495000  0.66737000  0.40993000  1.0 -0.3923486022
S  S25  1  0.08263000  0.34007000  0.75505000  1.0 -0.3923486022
S  S26  1  0.16737000  0.90993000  0.42775000  1.0 -0.3923486022
S  S27  1  0.90993000  0.42775000  0.16737000  1.0 -0.3923486022
S  S28  1  0.42775000  0.16737000  0.90993000  1.0 -0.4018358501
S  S29  1  0.90993000  0.49495000  0.42775000  1.0 -0.3923486022
S  S30  1  0.34007000  0.82225000  0.75505000  1.0 -0.3923486022
S  S31  1  0.49495000  0.16737000  0.42775000  1.0 -0.3923486022
S  S32  1  0.82225000  0.08263000  0.75505000  1.0 -0.3923486022
S  S33  1  0.49495000  0.42775000  0.90993000  1.0 -0.3923486022
S  S34  1  0.82225000  0.75505000  0.34007000  1.0 -0.3923486022
S  S35  1  0.34007000  0.08263000  0.82225000  1.0 -0.3923486022
S  S36  1  0.90993000  0.16737000  0.49495000  1.0 -0.3923486022
S  S37  1  0.49495000  0.90993000  0.16737000  1.0 -0.4018358501
S  S38  1  0.82225000  0.34007000  0.08263000  1.0 -0.3923486022
S  S39  1  0.16737000  0.49495000  0.90993000  1.0 -0.4018358501
S  S40  1  0.08263000  0.82225000  0.34007000  1.0 -0.3923486022
S  S41  1  0.08263000  0.75505000  0.82225000  1.0 -0.3923486022
S  S42  1  0.75505000  0.34007000  0.82225000  1.0 -0.3923486022
S  S43  1  0.42775000  0.90993000  0.49495000  1.0 -0.4018358501
S  S44  1  0.16737000  0.42775000  0.49495000  1.0 -0.3923486022
S  S45  1  0.75505000  0.82225000  0.08263000  1.0 -0.3923486022
S  S46  1  0.42775000  0.49495000  0.16737000  1.0 -0.3923486022
S  S47  1  0.34007000  0.75505000  0.08263000  1.0 -0.3923486022
S  S48  1  0.75505000  0.08263000  0.34007000  1.0 -0.3923486022
S  S49  1  0.69885000  0.55945000  0.78927000  1.0 -0.4075438413
S  S50  1  0.55115000  0.69055000  0.29757000  1.0 -0.4075438413
S  S51  1  0.69055000  0.29757000  0.55115000  1.0 -0.4075438413
S  S52  1  0.29757000  0.55115000  0.69055000  1.0 -0.4075438413
S  S53  1  0.69055000  0.46073000  0.29757000  1.0 -0.4075438413
S  S54  1  0.55945000  0.95243000  0.78927000  1.0 -0.4075438413
S  S55  1  0.46073000  0.55115000  0.29757000  1.0 -0.4075438413
S  S56  1  0.95243000  0.69885000  0.78927000  1.0 -0.4075438413
S  S57  1  0.46073000  0.29757000  0.69055000  1.0 -0.4075438413
S  S58  1  0.95243000  0.78927000  0.55945000  1.0 -0.4075438413
S  S59  1  0.55945000  0.69885000  0.95243000  1.0 -0.4075438413
S  S60  1  0.69055000  0.55115000  0.46073000  1.0 -0.4075438413
S  S61  1  0.46073000  0.69055000  0.55115000  1.0 -0.4075438413
S  S62  1  0.95243000  0.55945000  0.69885000  1.0 -0.4075438413
S  S63  1  0.55115000  0.46073000  0.69055000  1.0 -0.4075438413
S  S64  1  0.69885000  0.95243000  0.55945000  1.0 -0.4075438413
S  S65  1  0.69885000  0.78927000  0.95243000  1.0 -0.4075438413
S  S66  1  0.78927000  0.55945000  0.95243000  1.0 -0.4075438413
S  S67  1  0.29757000  0.69055000  0.46073000  1.0 -0.4075438413
S  S68  1  0.55115000  0.29757000  0.46073000  1.0 -0.4075438413
S  S69  1  0.78927000  0.95243000  0.69885000  1.0 -0.4075438413
S  S70  1  0.29757000  0.46073000  0.55115000  1.0 -0.4075438413
S  S71  1  0.55945000  0.78927000  0.69885000  1.0 -0.4075438413
S  S72  1  0.78927000  0.69885000  0.55945000  1.0 -0.4075438413
S  S73  1  0.05115000  0.19055000  0.96073000  1.0 -0.4075438413
S  S74  1  0.19885000  0.05945000  0.45243000  1.0 -0.4075438413
S  S75  1  0.05945000  0.45243000  0.19885000  1.0 -0.4075438413
S  S76  1  0.45243000  0.19885000  0.05945000  1.0 -0.4075438413
S  S77  1  0.05945000  0.28927000  0.45243000  1.0 -0.4075438413
S  S78  1  0.19055000  0.79757000  0.96073000  1.0 -0.4075438413
S  S79  1  0.28927000  0.19885000  0.45243000  1.0 -0.4075438413
S  S80  1  0.79757000  0.05115000  0.96073000  1.0 -0.4075438413
S  S81  1  0.28927000  0.45243000  0.05945000  1.0 -0.4075438413
S  S82  1  0.79757000  0.96073000  0.19055000  1.0 -0.4075438413
S  S83  1  0.19055000  0.05115000  0.79757000  1.0 -0.4075438413
S  S84  1  0.05945000  0.19885000  0.28927000  1.0 -0.4075438413
S  S85  1  0.28927000  0.05945000  0.19885000  1.0 -0.4075438413
S  S86  1  0.79757000  0.19055000  0.05115000  1.0 -0.4075438413
S  S87  1  0.19885000  0.28927000  0.05945000  1.0 -0.4075438413
S  S88  1  0.05115000  0.79757000  0.19055000  1.0 -0.4075438413
S  S89  1  0.05115000  0.96073000  0.79757000  1.0 -0.4075438413
S  S90  1  0.96073000  0.19055000  0.79757000  1.0 -0.4075438413
S  S91  1  0.45243000  0.05945000  0.28927000  1.0 -0.4075438413
S  S92  1  0.19885000  0.45243000  0.28927000  1.0 -0.4075438413
S  S93  1  0.96073000  0.79757000  0.05115000  1.0 -0.4075438413
S  S94  1  0.45243000  0.28927000  0.19885000  1.0 -0.4075438413
S  S95  1  0.19055000  0.96073000  0.05115000  1.0 -0.4075438413
S  S96  1  0.96073000  0.05115000  0.19055000  1.0 -0.4075438413
N  N1  1  0.63194000  0.39192000  0.06970000  1.0 -0.4775770381
N  N2  1  0.61806000  0.85808000  0.34356000  1.0 -0.4775770381
N  N3  1  0.85808000  0.34356000  0.61806000  1.0 -0.4775770381
N  N4  1  0.34356000  0.61806000  0.85808000  1.0 -0.4775770381
N  N5  1  0.85808000  0.18030000  0.34356000  1.0 -0.4775770381
N  N6  1  0.39192000  0.90644000  0.06970000  1.0 -0.4775770381
N  N7  1  0.18030000  0.61806000  0.34356000  1.0 -0.4775770381
N  N8  1  0.90644000  0.63194000  0.06970000  1.0 -0.4775770381
N  N9  1  0.18030000  0.34356000  0.85808000  1.0 -0.4775770381
N  N10  1  0.90644000  0.06970000  0.39192000  1.0 -0.4775770381
N  N11  1  0.39192000  0.63194000  0.90644000  1.0 -0.4775770381
N  N12  1  0.85808000  0.61806000  0.18030000  1.0 -0.4775770381
N  N13  1  0.18030000  0.85808000  0.61806000  1.0 -0.4775770381
N  N14  1  0.90644000  0.39192000  0.63194000  1.0 -0.4775770381
N  N15  1  0.61806000  0.18030000  0.85808000  1.0 -0.4775770381
N  N16  1  0.63194000  0.90644000  0.39192000  1.0 -0.4775770381
N  N17  1  0.63194000  0.06970000  0.90644000  1.0 -0.4775770381
N  N18  1  0.06970000  0.39192000  0.90644000  1.0 -0.4775770381
N  N19  1  0.34356000  0.85808000  0.18030000  1.0 -0.4775770381
N  N20  1  0.61806000  0.34356000  0.18030000  1.0 -0.4775770381
N  N21  1  0.06970000  0.90644000  0.63194000  1.0 -0.4775770381
N  N22  1  0.34356000  0.18030000  0.61806000  1.0 -0.4775770381
N  N23  1  0.39192000  0.06970000  0.63194000  1.0 -0.4775770381
N  N24  1  0.06970000  0.63194000  0.39192000  1.0 -0.4775770381
N  N25  1  0.11806000  0.35808000  0.68030000  1.0 -0.4775770381
N  N26  1  0.13194000  0.89192000  0.40644000  1.0 -0.4775770381
N  N27  1  0.89192000  0.40644000  0.13194000  1.0 -0.4775770381
N  N28  1  0.40644000  0.13194000  0.89192000  1.0 -0.4775770381
N  N29  1  0.89192000  0.56970000  0.40644000  1.0 -0.4775770381
N  N30  1  0.35808000  0.84356000  0.68030000  1.0 -0.4775770381
N  N31  1  0.56970000  0.13194000  0.40644000  1.0 -0.4775770381
N  N32  1  0.84356000  0.11806000  0.68030000  1.0 -0.4775770381
N  N33  1  0.56970000  0.40644000  0.89192000  1.0 -0.4775770381
N  N34  1  0.84356000  0.68030000  0.35808000  1.0 -0.4775770381
N  N35  1  0.35808000  0.11806000  0.84356000  1.0 -0.4775770381
N  N36  1  0.89192000  0.13194000  0.56970000  1.0 -0.4775770381
N  N37  1  0.56970000  0.89192000  0.13194000  1.0 -0.4775770381
N  N38  1  0.84356000  0.35808000  0.11806000  1.0 -0.4775770381
N  N39  1  0.13194000  0.56970000  0.89192000  1.0 -0.4775770381
N  N40  1  0.11806000  0.84356000  0.35808000  1.0 -0.4775770381
N  N41  1  0.11806000  0.68030000  0.84356000  1.0 -0.4775770381
N  N42  1  0.68030000  0.35808000  0.84356000  1.0 -0.4775770381
N  N43  1  0.40644000  0.89192000  0.56970000  1.0 -0.4775770381
N  N44  1  0.13194000  0.40644000  0.56970000  1.0 -0.4775770381
N  N45  1  0.68030000  0.84356000  0.11806000  1.0 -0.4775770381
N  N46  1  0.40644000  0.56970000  0.13194000  1.0 -0.4775770381
N  N47  1  0.35808000  0.68030000  0.11806000  1.0 -0.4775770381
N  N48  1  0.68030000  0.11806000  0.35808000  1.0 -0.4775770381
N  N49  1  0.65408000  0.59382000  0.84114000  1.0 -0.4775770381
N  N50  1  0.59592000  0.65618000  0.33904000  1.0 -0.4746181441
N  N51  1  0.65618000  0.33904000  0.59592000  1.0 -0.4746181441
N  N52  1  0.33904000  0.59592000  0.65618000  1.0 -0.4775770381
N  N53  1  0.65618000  0.40886000  0.33904000  1.0 -0.4746181441
N  N54  1  0.59382000  0.91096000  0.84114000  1.0 -0.4775770381
N  N55  1  0.40886000  0.59592000  0.33904000  1.0 -0.4746181441
N  N56  1  0.91096000  0.65408000  0.84114000  1.0 -0.4746181441
N  N57  1  0.40886000  0.33904000  0.65618000  1.0 -0.4746181441
N  N58  1  0.91096000  0.84114000  0.59382000  1.0 -0.4775770381
N  N59  1  0.59382000  0.65408000  0.91096000  1.0 -0.4775770381
N  N60  1  0.65618000  0.59592000  0.40886000  1.0 -0.4775770381
N  N61  1  0.40886000  0.65618000  0.59592000  1.0 -0.4775770381
N  N62  1  0.91096000  0.59382000  0.65408000  1.0 -0.4775770381
N  N63  1  0.59592000  0.40886000  0.65618000  1.0 -0.4775770381
N  N64  1  0.65408000  0.91096000  0.59382000  1.0 -0.4775770381
N  N65  1  0.65408000  0.84114000  0.91096000  1.0 -0.4775770381
N  N66  1  0.84114000  0.59382000  0.91096000  1.0 -0.4775770381
N  N67  1  0.33904000  0.65618000  0.40886000  1.0 -0.4746181441
N  N68  1  0.59592000  0.33904000  0.40886000  1.0 -0.4746181441
N  N69  1  0.84114000  0.91096000  0.65408000  1.0 -0.4775770381
N  N70  1  0.33904000  0.40886000  0.59592000  1.0 -0.4746181441
N  N71  1  0.59382000  0.84114000  0.65408000  1.0 -0.4775770381
N  N72  1  0.84114000  0.65408000  0.59382000  1.0 -0.4746181441
N  N73  1  0.09592000  0.15618000  0.90886000  1.0 -0.4746181441
N  N74  1  0.15408000  0.09382000  0.41096000  1.0 -0.4746181441
N  N75  1  0.09382000  0.41096000  0.15408000  1.0 -0.4746181441
N  N76  1  0.41096000  0.15408000  0.09382000  1.0 -0.4746181441
N  N77  1  0.09382000  0.34114000  0.41096000  1.0 -0.4746181441
N  N78  1  0.15618000  0.83904000  0.90886000  1.0 -0.4775770381
N  N79  1  0.34114000  0.15408000  0.41096000  1.0 -0.4746181441
N  N80  1  0.83904000  0.09592000  0.90886000  1.0 -0.4775770381
N  N81  1  0.34114000  0.41096000  0.09382000  1.0 -0.4746181441
N  N82  1  0.83904000  0.90886000  0.15618000  1.0 -0.4775770381
N  N83  1  0.15618000  0.09592000  0.83904000  1.0 -0.4746181441
N  N84  1  0.09382000  0.15408000  0.34114000  1.0 -0.4746181441
N  N85  1  0.34114000  0.09382000  0.15408000  1.0 -0.4746181441
N  N86  1  0.83904000  0.15618000  0.09592000  1.0 -0.4746181441
N  N87  1  0.15408000  0.34114000  0.09382000  1.0 -0.4746181441
N  N88  1  0.09592000  0.83904000  0.15618000  1.0 -0.4746181441
N  N89  1  0.09592000  0.90886000  0.83904000  1.0 -0.4775770381
N  N90  1  0.90886000  0.15618000  0.83904000  1.0 -0.4775770381
N  N91  1  0.41096000  0.09382000  0.34114000  1.0 -0.4746181441
N  N92  1  0.15408000  0.41096000  0.34114000  1.0 -0.4746181441
N  N93  1  0.90886000  0.83904000  0.09592000  1.0 -0.4746181441
N  N94  1  0.41096000  0.34114000  0.15408000  1.0 -0.4746181441
N  N95  1  0.15618000  0.90886000  0.09592000  1.0 -0.4746181441
N  N96  1  0.90886000  0.09592000  0.15618000  1.0 -0.4746181441
N  N97  1  0.43353000  0.63595000  0.08437000  1.0 -0.2070934463
N  N98  1  0.81647000  0.61405000  0.40385000  1.0 -0.2070934463
N  N99  1  0.61405000  0.40385000  0.81647000  1.0 -0.2070934463
N  N100  1  0.40385000  0.81647000  0.61405000  1.0 -0.2070934463
N  N101  1  0.61405000  0.16563000  0.40385000  1.0 -0.2070934463
N  N102  1  0.63595000  0.84615000  0.08437000  1.0 -0.2070934463
N  N103  1  0.16563000  0.81647000  0.40385000  1.0 -0.2070934463
N  N104  1  0.84615000  0.43353000  0.08437000  1.0 -0.2070934463
N  N105  1  0.16563000  0.40385000  0.61405000  1.0 -0.2070934463
N  N106  1  0.84615000  0.08437000  0.63595000  1.0 -0.2070934463
N  N107  1  0.63595000  0.43353000  0.84615000  1.0 -0.2070934463
N  N108  1  0.61405000  0.81647000  0.16563000  1.0 -0.2070934463
N  N109  1  0.16563000  0.61405000  0.81647000  1.0 -0.2070934463
N  N110  1  0.84615000  0.63595000  0.43353000  1.0 -0.2070934463
N  N111  1  0.81647000  0.16563000  0.61405000  1.0 -0.2070934463
N  N112  1  0.43353000  0.84615000  0.63595000  1.0 -0.2070934463
N  N113  1  0.43353000  0.08437000  0.84615000  1.0 -0.2070934463
N  N114  1  0.08437000  0.63595000  0.84615000  1.0 -0.2070934463
N  N115  1  0.40385000  0.61405000  0.16563000  1.0 -0.2070934463
N  N116  1  0.81647000  0.40385000  0.16563000  1.0 -0.2070934463
N  N117  1  0.08437000  0.84615000  0.43353000  1.0 -0.2070934463
N  N118  1  0.40385000  0.16563000  0.81647000  1.0 -0.2070934463
N  N119  1  0.63595000  0.08437000  0.43353000  1.0 -0.2070934463
N  N120  1  0.08437000  0.43353000  0.63595000  1.0 -0.2070934463
N  N121  1  0.31647000  0.11405000  0.66563000  1.0 -0.2070934463
N  N122  1  0.93353000  0.13595000  0.34615000  1.0 -0.2070934463
N  N123  1  0.13595000  0.34615000  0.93353000  1.0 -0.2070934463
N  N124  1  0.34615000  0.93353000  0.13595000  1.0 -0.2070934463
N  N125  1  0.13595000  0.58437000  0.34615000  1.0 -0.2070934463
N  N126  1  0.11405000  0.90385000  0.66563000  1.0 -0.2070934463
N  N127  1  0.58437000  0.93353000  0.34615000  1.0 -0.2070934463
N  N128  1  0.90385000  0.31647000  0.66563000  1.0 -0.2070934463
N  N129  1  0.58437000  0.34615000  0.13595000  1.0 -0.2070934463
N  N130  1  0.90385000  0.66563000  0.11405000  1.0 -0.2070934463
N  N131  1  0.11405000  0.31647000  0.90385000  1.0 -0.2070934463
N  N132  1  0.13595000  0.93353000  0.58437000  1.0 -0.2070934463
N  N133  1  0.58437000  0.13595000  0.93353000  1.0 -0.2070934463
N  N134  1  0.90385000  0.11405000  0.31647000  1.0 -0.2070934463
N  N135  1  0.93353000  0.58437000  0.13595000  1.0 -0.2070934463
N  N136  1  0.31647000  0.90385000  0.11405000  1.0 -0.2070934463
N  N137  1  0.31647000  0.66563000  0.90385000  1.0 -0.2070934463
N  N138  1  0.66563000  0.11405000  0.90385000  1.0 -0.2070934463
N  N139  1  0.34615000  0.13595000  0.58437000  1.0 -0.2070934463
N  N140  1  0.93353000  0.34615000  0.58437000  1.0 -0.2070934463
N  N141  1  0.66563000  0.90385000  0.31647000  1.0 -0.2070934463
N  N142  1  0.34615000  0.58437000  0.93353000  1.0 -0.2070934463
N  N143  1  0.11405000  0.66563000  0.31647000  1.0 -0.2070934463
N  N144  1  0.66563000  0.31647000  0.11405000  1.0 -0.2070934463
N  N145  1  0.58183000  0.41599000  0.13615000  1.0 -0.2070934463
N  N146  1  0.66817000  0.83401000  0.38397000  1.0 -0.2070934463
N  N147  1  0.83401000  0.38397000  0.66817000  1.0 -0.2070934463
N  N148  1  0.38397000  0.66817000  0.83401000  1.0 -0.2070934463
N  N149  1  0.83401000  0.11385000  0.38397000  1.0 -0.2070934463
N  N150  1  0.41599000  0.86603000  0.13615000  1.0 -0.2070934463
N  N151  1  0.11385000  0.66817000  0.38397000  1.0 -0.2070934463
N  N152  1  0.86603000  0.58183000  0.13615000  1.0 -0.2070934463
N  N153  1  0.11385000  0.38397000  0.83401000  1.0 -0.2070934463
N  N154  1  0.86603000  0.13615000  0.41599000  1.0 -0.2070934463
N  N155  1  0.41599000  0.58183000  0.86603000  1.0 -0.2070934463
N  N156  1  0.83401000  0.66817000  0.11385000  1.0 -0.2070934463
N  N157  1  0.11385000  0.83401000  0.66817000  1.0 -0.2070934463
N  N158  1  0.86603000  0.41599000  0.58183000  1.0 -0.2070934463
N  N159  1  0.66817000  0.11385000  0.83401000  1.0 -0.2070934463
N  N160  1  0.58183000  0.86603000  0.41599000  1.0 -0.2070934463
N  N161  1  0.58183000  0.13615000  0.86603000  1.0 -0.2070934463
N  N162  1  0.13615000  0.41599000  0.86603000  1.0 -0.2070934463
N  N163  1  0.38397000  0.83401000  0.11385000  1.0 -0.2070934463
N  N164  1  0.66817000  0.38397000  0.11385000  1.0 -0.2070934463
N  N165  1  0.13615000  0.86603000  0.58183000  1.0 -0.2070934463
N  N166  1  0.38397000  0.11385000  0.66817000  1.0 -0.2070934463
N  N167  1  0.41599000  0.13615000  0.58183000  1.0 -0.2070934463
N  N168  1  0.13615000  0.58183000  0.41599000  1.0 -0.2070934463
N  N169  1  0.16817000  0.33401000  0.61385000  1.0 -0.2070934463
N  N170  1  0.08183000  0.91599000  0.36603000  1.0 -0.2070934463
N  N171  1  0.91599000  0.36603000  0.08183000  1.0 -0.2070934463
N  N172  1  0.36603000  0.08183000  0.91599000  1.0 -0.2070934463
N  N173  1  0.91599000  0.63615000  0.36603000  1.0 -0.2070934463
N  N174  1  0.33401000  0.88397000  0.61385000  1.0 -0.2070934463
N  N175  1  0.63615000  0.08183000  0.36603000  1.0 -0.2070934463
N  N176  1  0.88397000  0.16817000  0.61385000  1.0 -0.2070934463
N  N177  1  0.63615000  0.36603000  0.91599000  1.0 -0.2070934463
N  N178  1  0.88397000  0.61385000  0.33401000  1.0 -0.2070934463
N  N179  1  0.33401000  0.16817000  0.88397000  1.0 -0.2070934463
N  N180  1  0.91599000  0.08183000  0.63615000  1.0 -0.2070934463
N  N181  1  0.63615000  0.91599000  0.08183000  1.0 -0.2070934463
N  N182  1  0.88397000  0.33401000  0.16817000  1.0 -0.2070934463
N  N183  1  0.08183000  0.63615000  0.91599000  1.0 -0.2070934463
N  N184  1  0.16817000  0.88397000  0.33401000  1.0 -0.2070934463
N  N185  1  0.16817000  0.61385000  0.88397000  1.0 -0.2070934463
N  N186  1  0.61385000  0.33401000  0.88397000  1.0 -0.2070934463
N  N187  1  0.36603000  0.91599000  0.63615000  1.0 -0.2070934463
N  N188  1  0.08183000  0.36603000  0.63615000  1.0 -0.2070934463
N  N189  1  0.61385000  0.88397000  0.16817000  1.0 -0.2070934463
N  N190  1  0.36603000  0.63615000  0.08183000  1.0 -0.2070934463
N  N191  1  0.33401000  0.61385000  0.16817000  1.0 -0.2070934463
N  N192  1  0.61385000  0.16817000  0.33401000  1.0 -0.2070934463
N  N193  1  0.52529000  0.54449000  0.08389000  1.0 -0.4018358501
N  N194  1  0.72471000  0.70551000  0.40367000  1.0 -0.4018358501
N  N195  1  0.70551000  0.40367000  0.72471000  1.0 -0.4018358501
N  N196  1  0.40367000  0.72471000  0.70551000  1.0 -0.4018358501
N  N197  1  0.70551000  0.16611000  0.40367000  1.0 -0.4018358501
N  N198  1  0.54449000  0.84633000  0.08389000  1.0 -0.4018358501
N  N199  1  0.16611000  0.72471000  0.40367000  1.0 -0.4018358501
N  N200  1  0.84633000  0.52529000  0.08389000  1.0 -0.4018358501
N  N201  1  0.16611000  0.40367000  0.70551000  1.0 -0.4018358501
N  N202  1  0.84633000  0.08389000  0.54449000  1.0 -0.4018358501
N  N203  1  0.54449000  0.52529000  0.84633000  1.0 -0.4018358501
N  N204  1  0.70551000  0.72471000  0.16611000  1.0 -0.4018358501
N  N205  1  0.16611000  0.70551000  0.72471000  1.0 -0.4018358501
N  N206  1  0.84633000  0.54449000  0.52529000  1.0 -0.4018358501
N  N207  1  0.72471000  0.16611000  0.70551000  1.0 -0.4018358501
N  N208  1  0.52529000  0.84633000  0.54449000  1.0 -0.4018358501
N  N209  1  0.52529000  0.08389000  0.84633000  1.0 -0.4018358501
N  N210  1  0.08389000  0.54449000  0.84633000  1.0 -0.4018358501
N  N211  1  0.40367000  0.70551000  0.16611000  1.0 -0.4018358501
N  N212  1  0.72471000  0.40367000  0.16611000  1.0 -0.4018358501
N  N213  1  0.08389000  0.84633000  0.52529000  1.0 -0.4075438413
N  N214  1  0.40367000  0.16611000  0.72471000  1.0 -0.4018358501
N  N215  1  0.54449000  0.08389000  0.52529000  1.0 -0.4018358501
N  N216  1  0.08389000  0.52529000  0.54449000  1.0 -0.4018358501
N  N217  1  0.22471000  0.20551000  0.66611000  1.0 -0.4018358501
N  N218  1  0.02529000  0.04449000  0.34633000  1.0 -0.4018358501
N  N219  1  0.04449000  0.34633000  0.02529000  1.0 -0.4018358501
N  N220  1  0.34633000  0.02529000  0.04449000  1.0 -0.4075438413
N  N221  1  0.04449000  0.58389000  0.34633000  1.0 -0.4018358501
N  N222  1  0.20551000  0.90367000  0.66611000  1.0 -0.4018358501
N  N223  1  0.58389000  0.02529000  0.34633000  1.0 -0.4018358501
N  N224  1  0.90367000  0.22471000  0.66611000  1.0 -0.4018358501
N  N225  1  0.58389000  0.34633000  0.04449000  1.0 -0.4018358501
N  N226  1  0.90367000  0.66611000  0.20551000  1.0 -0.4018358501
N  N227  1  0.20551000  0.22471000  0.90367000  1.0 -0.4018358501
N  N228  1  0.04449000  0.02529000  0.58389000  1.0 -0.4018358501
N  N229  1  0.58389000  0.04449000  0.02529000  1.0 -0.4018358501
N  N230  1  0.90367000  0.20551000  0.22471000  1.0 -0.4018358501
N  N231  1  0.02529000  0.58389000  0.04449000  1.0 -0.4018358501
N  N232  1  0.22471000  0.90367000  0.20551000  1.0 -0.4018358501
N  N233  1  0.22471000  0.66611000  0.90367000  1.0 -0.4018358501
N  N234  1  0.66611000  0.20551000  0.90367000  1.0 -0.4018358501
N  N235  1  0.34633000  0.04449000  0.58389000  1.0 -0.4018358501
N  N236  1  0.02529000  0.34633000  0.58389000  1.0 -0.4018358501
N  N237  1  0.66611000  0.90367000  0.22471000  1.0 -0.4018358501
N  N238  1  0.34633000  0.58389000  0.02529000  1.0 -0.4018358501
N  N239  1  0.20551000  0.66611000  0.22471000  1.0 -0.4018358501
N  N240  1  0.66611000  0.22471000  0.20551000  1.0 -0.4018358501
N  N241  1  0.57842000  0.51010000  0.04830000  1.0 -0.4075438413
N  N242  1  0.67158000  0.73990000  0.38682000  1.0 -0.4075438413
N  N243  1  0.73990000  0.38682000  0.67158000  1.0 -0.4075438413
N  N244  1  0.38682000  0.67158000  0.73990000  1.0 -0.4075438413
N  N245  1  0.73990000  0.20170000  0.38682000  1.0 -0.4075438413
N  N246  1  0.51010000  0.86318000  0.04830000  1.0 -0.4075438413
N  N247  1  0.20170000  0.67158000  0.38682000  1.0 -0.4075438413
N  N248  1  0.86318000  0.57842000  0.04830000  1.0 -0.4075438413
N  N249  1  0.20170000  0.38682000  0.73990000  1.0 -0.4075438413
N  N250  1  0.86318000  0.04830000  0.51010000  1.0 -0.4075438413
N  N251  1  0.51010000  0.57842000  0.86318000  1.0 -0.4075438413
N  N252  1  0.73990000  0.67158000  0.20170000  1.0 -0.4075438413
N  N253  1  0.20170000  0.73990000  0.67158000  1.0 -0.4075438413
N  N254  1  0.86318000  0.51010000  0.57842000  1.0 -0.4075438413
N  N255  1  0.67158000  0.20170000  0.73990000  1.0 -0.4075438413
N  N256  1  0.57842000  0.86318000  0.51010000  1.0 -0.4075438413
N  N257  1  0.57842000  0.04830000  0.86318000  1.0 -0.4075438413
N  N258  1  0.04830000  0.51010000  0.86318000  1.0 -0.4075438413
N  N259  1  0.38682000  0.73990000  0.20170000  1.0 -0.4075438413
N  N260  1  0.67158000  0.38682000  0.20170000  1.0 -0.4075438413
N  N261  1  0.04830000  0.86318000  0.57842000  1.0 -0.4075438413
N  N262  1  0.38682000  0.20170000  0.67158000  1.0 -0.4075438413
N  N263  1  0.51010000  0.04830000  0.57842000  1.0 -0.4075438413
N  N264  1  0.04830000  0.57842000  0.51010000  1.0 -0.4075438413
N  N265  1  0.17158000  0.23990000  0.70170000  1.0 -0.4075438413
N  N266  1  0.07842000  0.01010000  0.36318000  1.0 -0.4075438413
N  N267  1  0.01010000  0.36318000  0.07842000  1.0 -0.4075438413
N  N268  1  0.36318000  0.07842000  0.01010000  1.0 -0.4075438413
N  N269  1  0.01010000  0.54830000  0.36318000  1.0 -0.4075438413
N  N270  1  0.23990000  0.88682000  0.70170000  1.0 -0.4075438413
N  N271  1  0.54830000  0.07842000  0.36318000  1.0 -0.4075438413
N  N272  1  0.88682000  0.17158000  0.70170000  1.0 -0.4075438413
N  N273  1  0.54830000  0.36318000  0.01010000  1.0 -0.4075438413
N  N274  1  0.88682000  0.70170000  0.23990000  1.0 -0.4075438413
N  N275  1  0.23990000  0.17158000  0.88682000  1.0 -0.4075438413
N  N276  1  0.01010000  0.07842000  0.54830000  1.0 -0.4075438413
N  N277  1  0.54830000  0.01010000  0.07842000  1.0 -0.4075438413
N  N278  1  0.88682000  0.23990000  0.17158000  1.0 -0.4075438413
N  N279  1  0.07842000  0.54830000  0.01010000  1.0 -0.4075438413
N  N280  1  0.17158000  0.88682000  0.23990000  1.0 -0.4075438413
N  N281  1  0.17158000  0.70170000  0.88682000  1.0 -0.4075438413
N  N282  1  0.70170000  0.23990000  0.88682000  1.0 -0.4075438413
N  N283  1  0.36318000  0.01010000  0.54830000  1.0 -0.4075438413
N  N284  1  0.07842000  0.36318000  0.54830000  1.0 -0.4075438413
N  N285  1  0.70170000  0.88682000  0.17158000  1.0 -0.4075438413
N  N286  1  0.36318000  0.54830000  0.07842000  1.0 -0.4075438413
N  N287  1  0.23990000  0.70170000  0.17158000  1.0 -0.4075438413
N  N288  1  0.70170000  0.17158000  0.23990000  1.0 -0.4075438413
N  N289  1  0.55244000  0.57370000  0.02144000  1.0 -0.4018358501
N  N290  1  0.69756000  0.67630000  0.39758000  1.0 -0.4018358501
N  N291  1  0.67630000  0.39758000  0.69756000  1.0 -0.4018358501
N  N292  1  0.39758000  0.69756000  0.67630000  1.0 -0.4018358501
N  N293  1  0.67630000  0.22856000  0.39758000  1.0 -0.4018358501
N  N294  1  0.57370000  0.85242000  0.02144000  1.0 -0.4018358501
N  N295  1  0.22856000  0.69756000  0.39758000  1.0 -0.4018358501
N  N296  1  0.85242000  0.55244000  0.02144000  1.0 -0.4018358501
N  N297  1  0.22856000  0.39758000  0.67630000  1.0 -0.4018358501
N  N298  1  0.85242000  0.02144000  0.57370000  1.0 -0.4018358501
N  N299  1  0.57370000  0.55244000  0.85242000  1.0 -0.4018358501
N  N300  1  0.67630000  0.69756000  0.22856000  1.0 -0.4018358501
N  N301  1  0.22856000  0.67630000  0.69756000  1.0 -0.4018358501
N  N302  1  0.85242000  0.57370000  0.55244000  1.0 -0.4018358501
N  N303  1  0.69756000  0.22856000  0.67630000  1.0 -0.4018358501
N  N304  1  0.55244000  0.85242000  0.57370000  1.0 -0.4018358501
N  N305  1  0.55244000  0.02144000  0.85242000  1.0 -0.4018358501
N  N306  1  0.02144000  0.57370000  0.85242000  1.0 -0.4018358501
N  N307  1  0.39758000  0.67630000  0.22856000  1.0 -0.4018358501
N  N308  1  0.69756000  0.39758000  0.22856000  1.0 -0.4018358501
N  N309  1  0.02144000  0.85242000  0.55244000  1.0 -0.4018358501
N  N310  1  0.39758000  0.22856000  0.69756000  1.0 -0.4018358501
N  N311  1  0.57370000  0.02144000  0.55244000  1.0 -0.4018358501
N  N312  1  0.02144000  0.55244000  0.57370000  1.0 -0.4018358501
N  N313  1  0.19756000  0.17630000  0.72856000  1.0 -0.4018358501
N  N314  1  0.05244000  0.07370000  0.35242000  1.0 -0.4018358501
N  N315  1  0.07370000  0.35242000  0.05244000  1.0 -0.4018358501
N  N316  1  0.35242000  0.05244000  0.07370000  1.0 -0.4018358501
N  N317  1  0.07370000  0.52144000  0.35242000  1.0 -0.4018358501
N  N318  1  0.17630000  0.89758000  0.72856000  1.0 -0.4018358501
N  N319  1  0.52144000  0.05244000  0.35242000  1.0 -0.4018358501
N  N320  1  0.89758000  0.19756000  0.72856000  1.0 -0.4018358501
N  N321  1  0.52144000  0.35242000  0.07370000  1.0 -0.4018358501
N  N322  1  0.89758000  0.72856000  0.17630000  1.0 -0.4018358501
N  N323  1  0.17630000  0.19756000  0.89758000  1.0 -0.4018358501
N  N324  1  0.07370000  0.05244000  0.52144000  1.0 -0.4018358501
N  N325  1  0.52144000  0.07370000  0.05244000  1.0 -0.4018358501
N  N326  1  0.89758000  0.17630000  0.19756000  1.0 -0.4018358501
N  N327  1  0.05244000  0.52144000  0.07370000  1.0 -0.4018358501
N  N328  1  0.19756000  0.89758000  0.17630000  1.0 -0.4018358501
N  N329  1  0.19756000  0.72856000  0.89758000  1.0 -0.4018358501
N  N330  1  0.72856000  0.17630000  0.89758000  1.0 -0.4018358501
N  N331  1  0.35242000  0.07370000  0.52144000  1.0 -0.4018358501
N  N332  1  0.05244000  0.35242000  0.52144000  1.0 -0.4018358501
N  N333  1  0.72856000  0.89758000  0.19756000  1.0 -0.4018358501
N  N334  1  0.35242000  0.52144000  0.05244000  1.0 -0.4018358501
N  N335  1  0.17630000  0.72856000  0.19756000  1.0 -0.4018358501
N  N336  1  0.72856000  0.19756000  0.17630000  1.0 -0.4018358501
N  N337  1  0.62651000  0.57111000  0.92087000  1.0 -0.2070934463
N  N338  1  0.62349000  0.67889000  0.36849000  1.0 -0.2070934463
N  N339  1  0.67889000  0.36849000  0.62349000  1.0 -0.2070934463
N  N340  1  0.36849000  0.62349000  0.67889000  1.0 -0.2070934463
N  N341  1  0.67889000  0.32913000  0.36849000  1.0 -0.2070934463
N  N342  1  0.57111000  0.88151000  0.92087000  1.0 -0.2070934463
N  N343  1  0.32913000  0.62349000  0.36849000  1.0 -0.2070934463
N  N344  1  0.88151000  0.62651000  0.92087000  1.0 -0.2070934463
N  N345  1  0.32913000  0.36849000  0.67889000  1.0 -0.2070934463
N  N346  1  0.88151000  0.92087000  0.57111000  1.0 -0.2070934463
N  N347  1  0.57111000  0.62651000  0.88151000  1.0 -0.2070934463
N  N348  1  0.67889000  0.62349000  0.32913000  1.0 -0.2070934463
N  N349  1  0.32913000  0.67889000  0.62349000  1.0 -0.2070934463
N  N350  1  0.88151000  0.57111000  0.62651000  1.0 -0.2070934463
N  N351  1  0.62349000  0.32913000  0.67889000  1.0 -0.2070934463
N  N352  1  0.62651000  0.88151000  0.57111000  1.0 -0.2070934463
N  N353  1  0.62651000  0.92087000  0.88151000  1.0 -0.2070934463
N  N354  1  0.92087000  0.57111000  0.88151000  1.0 -0.2070934463
N  N355  1  0.36849000  0.67889000  0.32913000  1.0 -0.2070934463
N  N356  1  0.62349000  0.36849000  0.32913000  1.0 -0.2070934463
N  N357  1  0.92087000  0.88151000  0.62651000  1.0 -0.2070934463
N  N358  1  0.36849000  0.32913000  0.62349000  1.0 -0.2070934463
N  N359  1  0.57111000  0.92087000  0.62651000  1.0 -0.2070934463
N  N360  1  0.92087000  0.62651000  0.57111000  1.0 -0.2070934463
N  N361  1  0.12349000  0.17889000  0.82913000  1.0 -0.2070934463
N  N362  1  0.12651000  0.07111000  0.38151000  1.0 -0.2070934463
N  N363  1  0.07111000  0.38151000  0.12651000  1.0 -0.2070934463
N  N364  1  0.38151000  0.12651000  0.07111000  1.0 -0.2070934463
N  N365  1  0.07111000  0.42087000  0.38151000  1.0 -0.2070934463
N  N366  1  0.17889000  0.86849000  0.82913000  1.0 -0.2070934463
N  N367  1  0.42087000  0.12651000  0.38151000  1.0 -0.2070934463
N  N368  1  0.86849000  0.12349000  0.82913000  1.0 -0.2070934463
N  N369  1  0.42087000  0.38151000  0.07111000  1.0 -0.2070934463
N  N370  1  0.86849000  0.82913000  0.17889000  1.0 -0.2070934463
N  N371  1  0.17889000  0.12349000  0.86849000  1.0 -0.2070934463
N  N372  1  0.07111000  0.12651000  0.42087000  1.0 -0.2070934463
N  N373  1  0.42087000  0.07111000  0.12651000  1.0 -0.2070934463
N  N374  1  0.86849000  0.17889000  0.12349000  1.0 -0.2070934463
N  N375  1  0.12651000  0.42087000  0.07111000  1.0 -0.2041962599
N  N376  1  0.12349000  0.86849000  0.17889000  1.0 -0.2070934463
N  N377  1  0.12349000  0.82913000  0.86849000  1.0 -0.2070934463
N  N378  1  0.82913000  0.17889000  0.86849000  1.0 -0.2070934463
N  N379  1  0.38151000  0.07111000  0.42087000  1.0 -0.2070934463
N  N380  1  0.12651000  0.38151000  0.42087000  1.0 -0.2070934463
N  N381  1  0.82913000  0.86849000  0.12349000  1.0 -0.2070934463
N  N382  1  0.38151000  0.42087000  0.12651000  1.0 -0.2070934463
N  N383  1  0.17889000  0.82913000  0.12349000  1.0 -0.2070934463
N  N384  1  0.82913000  0.12349000  0.17889000  1.0 -0.2070934463
N  N385  1  0.61845000  0.67077000  0.82943000  1.0 -0.2070934463
N  N386  1  0.63155000  0.57923000  0.36865000  1.0 -0.2070934463
N  N387  1  0.57923000  0.36865000  0.63155000  1.0 -0.2070934463
N  N388  1  0.36865000  0.63155000  0.57923000  1.0 -0.2070934463
N  N389  1  0.57923000  0.42057000  0.36865000  1.0 -0.2070934463
N  N390  1  0.67077000  0.88135000  0.82943000  1.0 -0.2070934463
N  N391  1  0.42057000  0.63155000  0.36865000  1.0 -0.2070934463
N  N392  1  0.88135000  0.61845000  0.82943000  1.0 -0.2070934463
N  N393  1  0.42057000  0.36865000  0.57923000  1.0 -0.2070934463
N  N394  1  0.88135000  0.82943000  0.67077000  1.0 -0.2070934463
N  N395  1  0.67077000  0.61845000  0.88135000  1.0 -0.2070934463
N  N396  1  0.57923000  0.63155000  0.42057000  1.0 -0.2070934463
N  N397  1  0.42057000  0.57923000  0.63155000  1.0 -0.2070934463
N  N398  1  0.88135000  0.67077000  0.61845000  1.0 -0.2070934463
N  N399  1  0.63155000  0.42057000  0.57923000  1.0 -0.2070934463
N  N400  1  0.61845000  0.88135000  0.67077000  1.0 -0.2070934463
N  N401  1  0.61845000  0.82943000  0.88135000  1.0 -0.2070934463
N  N402  1  0.82943000  0.67077000  0.88135000  1.0 -0.2070934463
N  N403  1  0.36865000  0.57923000  0.42057000  1.0 -0.2070934463
N  N404  1  0.63155000  0.36865000  0.42057000  1.0 -0.2070934463
N  N405  1  0.82943000  0.88135000  0.61845000  1.0 -0.2070934463
N  N406  1  0.36865000  0.42057000  0.63155000  1.0 -0.2070934463
N  N407  1  0.67077000  0.82943000  0.61845000  1.0 -0.2070934463
N  N408  1  0.82943000  0.61845000  0.67077000  1.0 -0.2070934463
N  N409  1  0.13155000  0.07923000  0.92057000  1.0 -0.2070934463
N  N410  1  0.11845000  0.17077000  0.38135000  1.0 -0.2070934463
N  N411  1  0.17077000  0.38135000  0.11845000  1.0 -0.2070934463
N  N412  1  0.38135000  0.11845000  0.17077000  1.0 -0.2070934463
N  N413  1  0.17077000  0.32943000  0.38135000  1.0 -0.2070934463
N  N414  1  0.07923000  0.86865000  0.92057000  1.0 -0.2070934463
N  N415  1  0.32943000  0.11845000  0.38135000  1.0 -0.2070934463
N  N416  1  0.86865000  0.13155000  0.92057000  1.0 -0.2070934463
N  N417  1  0.32943000  0.38135000  0.17077000  1.0 -0.2070934463
N  N418  1  0.86865000  0.92057000  0.07923000  1.0 -0.2070934463
N  N419  1  0.07923000  0.13155000  0.86865000  1.0 -0.2070934463
N  N420  1  0.17077000  0.11845000  0.32943000  1.0 -0.2070934463
N  N421  1  0.32943000  0.17077000  0.11845000  1.0 -0.2070934463
N  N422  1  0.86865000  0.07923000  0.13155000  1.0 -0.2070934463
N  N423  1  0.11845000  0.32943000  0.17077000  1.0 -0.2070934463
N  N424  1  0.13155000  0.86865000  0.07923000  1.0 -0.2070934463
N  N425  1  0.13155000  0.92057000  0.86865000  1.0 -0.2070934463
N  N426  1  0.92057000  0.07923000  0.86865000  1.0 -0.2070934463
N  N427  1  0.38135000  0.17077000  0.32943000  1.0 -0.2070934463
N  N428  1  0.11845000  0.38135000  0.32943000  1.0 -0.2070934463
N  N429  1  0.92057000  0.86865000  0.13155000  1.0 -0.2070934463
N  N430  1  0.38135000  0.32943000  0.11845000  1.0 -0.2070934463
N  N431  1  0.07923000  0.92057000  0.13155000  1.0 -0.2070934463
N  N432  1  0.92057000  0.13155000  0.07923000  1.0 -0.2070934463
N  N433  1  0.61077000  0.76665000  0.82709000  1.0 -0.4018358501
N  N434  1  0.63923000  0.48335000  0.45451000  1.0 -0.4018358501
N  N435  1  0.48335000  0.45451000  0.63923000  1.0 -0.4018358501
N  N436  1  0.45451000  0.63923000  0.48335000  1.0 -0.4018358501
N  N437  1  0.48335000  0.42291000  0.45451000  1.0 -0.4018358501
N  N438  1  0.76665000  0.79549000  0.82709000  1.0 -0.4018358501
N  N439  1  0.42291000  0.63923000  0.45451000  1.0 -0.4018358501
N  N440  1  0.79549000  0.61077000  0.82709000  1.0 -0.4018358501
N  N441  1  0.42291000  0.45451000  0.48335000  1.0 -0.4018358501
N  N442  1  0.79549000  0.82709000  0.76665000  1.0 -0.4018358501
N  N443  1  0.76665000  0.61077000  0.79549000  1.0 -0.4018358501
N  N444  1  0.48335000  0.63923000  0.42291000  1.0 -0.4018358501
N  N445  1  0.42291000  0.48335000  0.63923000  1.0 -0.4018358501
N  N446  1  0.79549000  0.76665000  0.61077000  1.0 -0.4018358501
N  N447  1  0.63923000  0.42291000  0.48335000  1.0 -0.4018358501
N  N448  1  0.61077000  0.79549000  0.76665000  1.0 -0.4018358501
N  N449  1  0.61077000  0.82709000  0.79549000  1.0 -0.4018358501
N  N450  1  0.82709000  0.76665000  0.79549000  1.0 -0.4018358501
N  N451  1  0.45451000  0.48335000  0.42291000  1.0 -0.4018358501
N  N452  1  0.63923000  0.45451000  0.42291000  1.0 -0.4018358501
N  N453  1  0.82709000  0.79549000  0.61077000  1.0 -0.4018358501
N  N454  1  0.45451000  0.42291000  0.63923000  1.0 -0.4018358501
N  N455  1  0.76665000  0.82709000  0.61077000  1.0 -0.4018358501
N  N456  1  0.82709000  0.61077000  0.76665000  1.0 -0.4018358501
N  N457  1  0.13923000  0.98335000  0.92291000  1.0 -0.4018358501
N  N458  1  0.11077000  0.26665000  0.29549000  1.0 -0.4018358501
N  N459  1  0.26665000  0.29549000  0.11077000  1.0 -0.4018358501
N  N460  1  0.29549000  0.11077000  0.26665000  1.0 -0.4018358501
N  N461  1  0.26665000  0.32709000  0.29549000  1.0 -0.4018358501
N  N462  1  0.98335000  0.95451000  0.92291000  1.0 -0.4018358501
N  N463  1  0.32709000  0.11077000  0.29549000  1.0 -0.4018358501
N  N464  1  0.95451000  0.13923000  0.92291000  1.0 -0.4018358501
N  N465  1  0.32709000  0.29549000  0.26665000  1.0 -0.4018358501
N  N466  1  0.95451000  0.92291000  0.98335000  1.0 -0.4018358501
N  N467  1  0.98335000  0.13923000  0.95451000  1.0 -0.4018358501
N  N468  1  0.26665000  0.11077000  0.32709000  1.0 -0.4018358501
N  N469  1  0.32709000  0.26665000  0.11077000  1.0 -0.4018358501
N  N470  1  0.95451000  0.98335000  0.13923000  1.0 -0.4018358501
N  N471  1  0.11077000  0.32709000  0.26665000  1.0 -0.4018358501
N  N472  1  0.13923000  0.95451000  0.98335000  1.0 -0.4018358501
N  N473  1  0.13923000  0.92291000  0.95451000  1.0 -0.4018358501
N  N474  1  0.92291000  0.98335000  0.95451000  1.0 -0.4018358501
N  N475  1  0.29549000  0.26665000  0.32709000  1.0 -0.4018358501
N  N476  1  0.11077000  0.29549000  0.32709000  1.0 -0.4018358501
N  N477  1  0.92291000  0.95451000  0.13923000  1.0 -0.4018358501
N  N478  1  0.29549000  0.32709000  0.11077000  1.0 -0.4018358501
N  N479  1  0.98335000  0.92291000  0.13923000  1.0 -0.4018358501
N  N480  1  0.92291000  0.13923000  0.98335000  1.0 -0.4018358501
