# DDEC6 charges by PACMAN v1.1 (https://github.com/mtap-research/PACMAN-charge/)
data_LAFQOA_FSR_pacman
_symmetry_space_group_name_H-M   'P 1'
_cell_length_a   44.99180000
_cell_length_b   44.99180000
_cell_length_c   44.99180000
_cell_angle_alpha   60.00000000
_cell_angle_beta   60.00000000
_cell_angle_gamma   60.00000000
_symmetry_Int_Tables_number   1
_chemical_formula_structural   CoH16C26(SN5)2
_chemical_formula_sum   'Co48 H768 C1248 S96 N480'
_cell_volume   64399.88732962
_cell_formula_units_Z   48
loop_
 _symmetry_equiv_pos_site_id
 _symmetry_equiv_pos_as_xyz
  1  'x, y, z'
loop_
 _atom_site_type_symbol
 _atom_site_label
 _atom_site_symmetry_multiplicity
 _atom_site_fract_x
 _atom_site_fract_y
 _atom_site_fract_z
 _atom_site_occupancy
 _atom_site_charge
Co  Co1  1  0.38218000  0.86782000  0.62500000  1.0 0.6702977958
Co  Co2  1  0.86782000  0.38218000  0.12500000  1.0 0.6762830445
Co  Co3  1  0.38218000  0.12500000  0.86782000  1.0 0.6702977958
Co  Co4  1  0.12500000  0.86782000  0.38218000  1.0 0.6762830445
Co  Co5  1  0.38218000  0.62500000  0.12500000  1.0 0.6762830445
Co  Co6  1  0.86782000  0.12500000  0.62500000  1.0 0.6762830445
Co  Co7  1  0.62500000  0.86782000  0.12500000  1.0 0.6762830445
Co  Co8  1  0.12500000  0.38218000  0.62500000  1.0 0.6702977958
Co  Co9  1  0.62500000  0.12500000  0.38218000  1.0 0.6702977958
Co  Co10  1  0.12500000  0.62500000  0.86782000  1.0 0.6762830445
Co  Co11  1  0.62500000  0.38218000  0.86782000  1.0 0.6702977958
Co  Co12  1  0.86782000  0.62500000  0.38218000  1.0 0.6762830445
Co  Co13  1  0.36782000  0.88218000  0.12500000  1.0 0.6762830445
Co  Co14  1  0.88218000  0.36782000  0.62500000  1.0 0.6762830445
Co  Co15  1  0.36782000  0.62500000  0.88218000  1.0 0.6702977958
Co  Co16  1  0.62500000  0.88218000  0.36782000  1.0 0.6762830445
Co  Co17  1  0.36782000  0.12500000  0.62500000  1.0 0.6762830445
Co  Co18  1  0.88218000  0.62500000  0.12500000  1.0 0.6762830445
Co  Co19  1  0.12500000  0.88218000  0.62500000  1.0 0.6702977958
Co  Co20  1  0.62500000  0.36782000  0.12500000  1.0 0.6762830445
Co  Co21  1  0.12500000  0.62500000  0.36782000  1.0 0.6702977958
Co  Co22  1  0.62500000  0.12500000  0.88218000  1.0 0.6702977958
Co  Co23  1  0.12500000  0.36782000  0.88218000  1.0 0.6702977958
Co  Co24  1  0.88218000  0.12500000  0.36782000  1.0 0.6702977958
Co  Co25  1  0.37739000  0.12261000  0.37739000  1.0 0.6640571952
Co  Co26  1  0.87261000  0.12739000  0.12739000  1.0 0.6640571952
Co  Co27  1  0.12739000  0.12739000  0.87261000  1.0 0.6640571952
Co  Co28  1  0.12739000  0.87261000  0.12739000  1.0 0.6640571952
Co  Co29  1  0.12261000  0.12261000  0.37739000  1.0 0.6640571952
Co  Co30  1  0.87261000  0.87261000  0.12739000  1.0 0.6640571952
Co  Co31  1  0.12261000  0.37739000  0.37739000  1.0 0.6640571952
Co  Co32  1  0.12261000  0.37739000  0.12261000  1.0 0.6702977958
Co  Co33  1  0.12739000  0.87261000  0.87261000  1.0 0.6640571952
Co  Co34  1  0.87261000  0.12739000  0.87261000  1.0 0.6702977958
Co  Co35  1  0.37739000  0.12261000  0.12261000  1.0 0.6640571952
Co  Co36  1  0.37739000  0.37739000  0.12261000  1.0 0.6640571952
Co  Co37  1  0.37261000  0.62739000  0.37261000  1.0 0.6702977958
Co  Co38  1  0.87739000  0.62261000  0.62261000  1.0 0.6702977958
Co  Co39  1  0.62261000  0.62261000  0.87739000  1.0 0.6702977958
Co  Co40  1  0.62261000  0.87739000  0.62261000  1.0 0.6640571952
Co  Co41  1  0.62739000  0.62739000  0.37261000  1.0 0.6640571952
Co  Co42  1  0.87739000  0.87739000  0.62261000  1.0 0.6640571952
Co  Co43  1  0.62739000  0.37261000  0.37261000  1.0 0.6702977958
Co  Co44  1  0.62739000  0.37261000  0.62739000  1.0 0.6702977958
Co  Co45  1  0.62261000  0.87739000  0.87739000  1.0 0.6640571952
Co  Co46  1  0.87739000  0.62261000  0.87739000  1.0 0.6702977958
Co  Co47  1  0.37261000  0.62739000  0.62739000  1.0 0.6702977958
Co  Co48  1  0.37261000  0.37261000  0.62739000  1.0 0.6702977958
H  H1  1  0.35200000  0.08480000  0.60120000  1.0 0.106500066
H  H2  1  0.89800000  0.16520000  0.28800000  1.0 0.106500066
H  H3  1  0.16520000  0.28800000  0.89800000  1.0 0.106500066
H  H4  1  0.28800000  0.89800000  0.16520000  1.0 0.106500066
H  H5  1  0.16520000  0.64880000  0.28800000  1.0 0.106500066
H  H6  1  0.08480000  0.96200000  0.60120000  1.0 0.106500066
H  H7  1  0.64880000  0.89800000  0.28800000  1.0 0.106500066
H  H8  1  0.96200000  0.35200000  0.60120000  1.0 0.106500066
H  H9  1  0.64880000  0.28800000  0.16520000  1.0 0.106500066
H  H10  1  0.96200000  0.60120000  0.08480000  1.0 0.106500066
H  H11  1  0.08480000  0.35200000  0.96200000  1.0 0.106500066
H  H12  1  0.16520000  0.89800000  0.64880000  1.0 0.106500066
H  H13  1  0.64880000  0.16520000  0.89800000  1.0 0.106500066
H  H14  1  0.96200000  0.08480000  0.35200000  1.0 0.106500066
H  H15  1  0.89800000  0.64880000  0.16520000  1.0 0.106500066
H  H16  1  0.35200000  0.96200000  0.08480000  1.0 0.106500066
H  H17  1  0.35200000  0.60120000  0.96200000  1.0 0.106500066
H  H18  1  0.60120000  0.08480000  0.96200000  1.0 0.106500066
H  H19  1  0.28800000  0.16520000  0.64880000  1.0 0.106500066
H  H20  1  0.89800000  0.28800000  0.64880000  1.0 0.106500066
H  H21  1  0.60120000  0.96200000  0.35200000  1.0 0.106500066
H  H22  1  0.28800000  0.64880000  0.89800000  1.0 0.106500066
H  H23  1  0.08480000  0.60120000  0.35200000  1.0 0.106500066
H  H24  1  0.60120000  0.35200000  0.08480000  1.0 0.106500066
H  H25  1  0.39800000  0.66520000  0.14880000  1.0 0.106500066
H  H26  1  0.85200000  0.58480000  0.46200000  1.0 0.106500066
H  H27  1  0.58480000  0.46200000  0.85200000  1.0 0.106500066
H  H28  1  0.46200000  0.85200000  0.58480000  1.0 0.106500066
H  H29  1  0.58480000  0.10120000  0.46200000  1.0 0.106500066
H  H30  1  0.66520000  0.78800000  0.14880000  1.0 0.106500066
H  H31  1  0.10120000  0.85200000  0.46200000  1.0 0.106500066
H  H32  1  0.78800000  0.39800000  0.14880000  1.0 0.106500066
H  H33  1  0.10120000  0.46200000  0.58480000  1.0 0.106500066
H  H34  1  0.78800000  0.14880000  0.66520000  1.0 0.106500066
H  H35  1  0.66520000  0.39800000  0.78800000  1.0 0.106500066
H  H36  1  0.58480000  0.85200000  0.10120000  1.0 0.106500066
H  H37  1  0.10120000  0.58480000  0.85200000  1.0 0.106500066
H  H38  1  0.78800000  0.66520000  0.39800000  1.0 0.106500066
H  H39  1  0.85200000  0.10120000  0.58480000  1.0 0.106500066
H  H40  1  0.39800000  0.78800000  0.66520000  1.0 0.106500066
H  H41  1  0.39800000  0.14880000  0.78800000  1.0 0.106500066
H  H42  1  0.14880000  0.66520000  0.78800000  1.0 0.106500066
H  H43  1  0.46200000  0.58480000  0.10120000  1.0 0.106500066
H  H44  1  0.85200000  0.46200000  0.10120000  1.0 0.106500066
H  H45  1  0.14880000  0.78800000  0.39800000  1.0 0.106500066
H  H46  1  0.46200000  0.10120000  0.85200000  1.0 0.106500066
H  H47  1  0.66520000  0.14880000  0.39800000  1.0 0.106500066
H  H48  1  0.14880000  0.39800000  0.66520000  1.0 0.106500066
H  H49  1  0.31960000  0.14440000  0.51320000  1.0 0.1206047292
H  H50  1  0.93040000  0.10560000  0.22720000  1.0 0.1206047292
H  H51  1  0.10560000  0.22720000  0.93040000  1.0 0.1206047292
H  H52  1  0.22720000  0.93040000  0.10560000  1.0 0.1206047292
H  H53  1  0.10560000  0.73680000  0.22720000  1.0 0.1206047292
H  H54  1  0.14440000  0.02280000  0.51320000  1.0 0.1206047292
H  H55  1  0.73680000  0.93040000  0.22720000  1.0 0.1206047292
H  H56  1  0.02280000  0.31960000  0.51320000  1.0 0.1206047292
H  H57  1  0.73680000  0.22720000  0.10560000  1.0 0.1206047292
H  H58  1  0.02280000  0.51320000  0.14440000  1.0 0.1206047292
H  H59  1  0.14440000  0.31960000  0.02280000  1.0 0.1206047292
H  H60  1  0.10560000  0.93040000  0.73680000  1.0 0.1206047292
H  H61  1  0.73680000  0.10560000  0.93040000  1.0 0.1206047292
H  H62  1  0.02280000  0.14440000  0.31960000  1.0 0.1206047292
H  H63  1  0.93040000  0.73680000  0.10560000  1.0 0.1206047292
H  H64  1  0.31960000  0.02280000  0.14440000  1.0 0.1206047292
H  H65  1  0.31960000  0.51320000  0.02280000  1.0 0.1206047292
H  H66  1  0.51320000  0.14440000  0.02280000  1.0 0.1206047292
H  H67  1  0.22720000  0.10560000  0.73680000  1.0 0.1206047292
H  H68  1  0.93040000  0.22720000  0.73680000  1.0 0.1206047292
H  H69  1  0.51320000  0.02280000  0.31960000  1.0 0.1206047292
H  H70  1  0.22720000  0.73680000  0.93040000  1.0 0.1206047292
H  H71  1  0.14440000  0.51320000  0.31960000  1.0 0.1206047292
H  H72  1  0.51320000  0.31960000  0.14440000  1.0 0.1206047292
H  H73  1  0.43040000  0.60560000  0.23680000  1.0 0.1206047292
H  H74  1  0.81960000  0.64440000  0.52280000  1.0 0.1206047292
H  H75  1  0.64440000  0.52280000  0.81960000  1.0 0.1206047292
H  H76  1  0.52280000  0.81960000  0.64440000  1.0 0.1206047292
H  H77  1  0.64440000  0.01320000  0.52280000  1.0 0.1206047292
H  H78  1  0.60560000  0.72720000  0.23680000  1.0 0.1206047292
H  H79  1  0.01320000  0.81960000  0.52280000  1.0 0.1206047292
H  H80  1  0.72720000  0.43040000  0.23680000  1.0 0.1206047292
H  H81  1  0.01320000  0.52280000  0.64440000  1.0 0.1206047292
H  H82  1  0.72720000  0.23680000  0.60560000  1.0 0.1206047292
H  H83  1  0.60560000  0.43040000  0.72720000  1.0 0.1206047292
H  H84  1  0.64440000  0.81960000  0.01320000  1.0 0.1206047292
H  H85  1  0.01320000  0.64440000  0.81960000  1.0 0.1206047292
H  H86  1  0.72720000  0.60560000  0.43040000  1.0 0.1206047292
H  H87  1  0.81960000  0.01320000  0.64440000  1.0 0.1206047292
H  H88  1  0.43040000  0.72720000  0.60560000  1.0 0.1206047292
H  H89  1  0.43040000  0.23680000  0.72720000  1.0 0.1206047292
H  H90  1  0.23680000  0.60560000  0.72720000  1.0 0.1206047292
H  H91  1  0.52280000  0.64440000  0.01320000  1.0 0.1206047292
H  H92  1  0.81960000  0.52280000  0.01320000  1.0 0.1206047292
H  H93  1  0.23680000  0.72720000  0.43040000  1.0 0.1206047292
H  H94  1  0.52280000  0.01320000  0.81960000  1.0 0.1206047292
H  H95  1  0.60560000  0.23680000  0.43040000  1.0 0.1206047292
H  H96  1  0.23680000  0.43040000  0.60560000  1.0 0.1206047292
H  H97  1  0.31580000  0.19680000  0.51760000  1.0 0.1377090186
H  H98  1  0.93420000  0.05320000  0.28020000  1.0 0.1377090186
H  H99  1  0.05320000  0.28020000  0.93420000  1.0 0.1377090186
H  H100  1  0.28020000  0.93420000  0.05320000  1.0 0.1377090186
H  H101  1  0.05320000  0.73240000  0.28020000  1.0 0.1377090186
H  H102  1  0.19680000  0.96980000  0.51760000  1.0 0.1377090186
H  H103  1  0.73240000  0.93420000  0.28020000  1.0 0.1377090186
H  H104  1  0.96980000  0.31580000  0.51760000  1.0 0.1377090186
H  H105  1  0.73240000  0.28020000  0.05320000  1.0 0.1377090186
H  H106  1  0.96980000  0.51760000  0.19680000  1.0 0.1377090186
H  H107  1  0.19680000  0.31580000  0.96980000  1.0 0.1377090186
H  H108  1  0.05320000  0.93420000  0.73240000  1.0 0.1377090186
H  H109  1  0.73240000  0.05320000  0.93420000  1.0 0.1377090186
H  H110  1  0.96980000  0.19680000  0.31580000  1.0 0.1377090186
H  H111  1  0.93420000  0.73240000  0.05320000  1.0 0.1377090186
H  H112  1  0.31580000  0.96980000  0.19680000  1.0 0.1377090186
H  H113  1  0.31580000  0.51760000  0.96980000  1.0 0.1377090186
H  H114  1  0.51760000  0.19680000  0.96980000  1.0 0.1377090186
H  H115  1  0.28020000  0.05320000  0.73240000  1.0 0.1377090186
H  H116  1  0.93420000  0.28020000  0.73240000  1.0 0.1377090186
H  H117  1  0.51760000  0.96980000  0.31580000  1.0 0.1377090186
H  H118  1  0.28020000  0.73240000  0.93420000  1.0 0.1377090186
H  H119  1  0.19680000  0.51760000  0.31580000  1.0 0.1377090186
H  H120  1  0.51760000  0.31580000  0.19680000  1.0 0.1377090186
H  H121  1  0.43420000  0.55320000  0.23240000  1.0 0.1377090186
H  H122  1  0.81580000  0.69680000  0.46980000  1.0 0.1377090186
H  H123  1  0.69680000  0.46980000  0.81580000  1.0 0.1377090186
H  H124  1  0.46980000  0.81580000  0.69680000  1.0 0.1377090186
H  H125  1  0.69680000  0.01760000  0.46980000  1.0 0.1377090186
H  H126  1  0.55320000  0.78020000  0.23240000  1.0 0.1377090186
H  H127  1  0.01760000  0.81580000  0.46980000  1.0 0.1377090186
H  H128  1  0.78020000  0.43420000  0.23240000  1.0 0.1377090186
H  H129  1  0.01760000  0.46980000  0.69680000  1.0 0.1377090186
H  H130  1  0.78020000  0.23240000  0.55320000  1.0 0.1377090186
H  H131  1  0.55320000  0.43420000  0.78020000  1.0 0.1377090186
H  H132  1  0.69680000  0.81580000  0.01760000  1.0 0.1377090186
H  H133  1  0.01760000  0.69680000  0.81580000  1.0 0.1377090186
H  H134  1  0.78020000  0.55320000  0.43420000  1.0 0.1377090186
H  H135  1  0.81580000  0.01760000  0.69680000  1.0 0.1377090186
H  H136  1  0.43420000  0.78020000  0.55320000  1.0 0.1377090186
H  H137  1  0.43420000  0.23240000  0.78020000  1.0 0.1377090186
H  H138  1  0.23240000  0.55320000  0.78020000  1.0 0.1377090186
H  H139  1  0.46980000  0.69680000  0.01760000  1.0 0.1377090186
H  H140  1  0.81580000  0.46980000  0.01760000  1.0 0.1377090186
H  H141  1  0.23240000  0.78020000  0.43420000  1.0 0.1377090186
H  H142  1  0.46980000  0.01760000  0.81580000  1.0 0.1377090186
H  H143  1  0.55320000  0.23240000  0.43420000  1.0 0.1377090186
H  H144  1  0.23240000  0.43420000  0.55320000  1.0 0.1377090186
H  H145  1  0.33570000  0.18930000  0.56030000  1.0 0.0944503438
H  H146  1  0.91430000  0.06070000  0.33530000  1.0 0.0944503438
H  H147  1  0.06070000  0.33530000  0.91430000  1.0 0.0944503438
H  H148  1  0.33530000  0.91430000  0.06070000  1.0 0.0944503438
H  H149  1  0.06070000  0.68970000  0.33530000  1.0 0.0944503438
H  H150  1  0.18930000  0.91470000  0.56030000  1.0 0.0944503438
H  H151  1  0.68970000  0.91430000  0.33530000  1.0 0.0944503438
H  H152  1  0.91470000  0.33570000  0.56030000  1.0 0.0944503438
H  H153  1  0.68970000  0.33530000  0.06070000  1.0 0.0944503438
H  H154  1  0.91470000  0.56030000  0.18930000  1.0 0.0944503438
H  H155  1  0.18930000  0.33570000  0.91470000  1.0 0.0944503438
H  H156  1  0.06070000  0.91430000  0.68970000  1.0 0.0944503438
H  H157  1  0.68970000  0.06070000  0.91430000  1.0 0.0944503438
H  H158  1  0.91470000  0.18930000  0.33570000  1.0 0.0944503438
H  H159  1  0.91430000  0.68970000  0.06070000  1.0 0.0944503438
H  H160  1  0.33570000  0.91470000  0.18930000  1.0 0.0944503438
H  H161  1  0.33570000  0.56030000  0.91470000  1.0 0.0944503438
H  H162  1  0.56030000  0.18930000  0.91470000  1.0 0.0944503438
H  H163  1  0.33530000  0.06070000  0.68970000  1.0 0.0944503438
H  H164  1  0.91430000  0.33530000  0.68970000  1.0 0.0944503438
H  H165  1  0.56030000  0.91470000  0.33570000  1.0 0.0944503438
H  H166  1  0.33530000  0.68970000  0.91430000  1.0 0.0944503438
H  H167  1  0.18930000  0.56030000  0.33570000  1.0 0.0944503438
H  H168  1  0.56030000  0.33570000  0.18930000  1.0 0.0944503438
H  H169  1  0.41430000  0.56070000  0.18970000  1.0 0.0944503438
H  H170  1  0.83570000  0.68930000  0.41470000  1.0 0.0944503438
H  H171  1  0.68930000  0.41470000  0.83570000  1.0 0.0944503438
H  H172  1  0.41470000  0.83570000  0.68930000  1.0 0.0944503438
H  H173  1  0.68930000  0.06030000  0.41470000  1.0 0.0944503438
H  H174  1  0.56070000  0.83530000  0.18970000  1.0 0.0944503438
H  H175  1  0.06030000  0.83570000  0.41470000  1.0 0.0944503438
H  H176  1  0.83530000  0.41430000  0.18970000  1.0 0.0944503438
H  H177  1  0.06030000  0.41470000  0.68930000  1.0 0.0944503438
H  H178  1  0.83530000  0.18970000  0.56070000  1.0 0.0944503438
H  H179  1  0.56070000  0.41430000  0.83530000  1.0 0.0944503438
H  H180  1  0.68930000  0.83570000  0.06030000  1.0 0.0944503438
H  H181  1  0.06030000  0.68930000  0.83570000  1.0 0.0944503438
H  H182  1  0.83530000  0.56070000  0.41430000  1.0 0.0944503438
H  H183  1  0.83570000  0.06030000  0.68930000  1.0 0.0944503438
H  H184  1  0.41430000  0.83530000  0.56070000  1.0 0.0944503438
H  H185  1  0.41430000  0.18970000  0.83530000  1.0 0.0944503438
H  H186  1  0.18970000  0.56070000  0.83530000  1.0 0.0944503438
H  H187  1  0.41470000  0.68930000  0.06030000  1.0 0.0944503438
H  H188  1  0.83570000  0.41470000  0.06030000  1.0 0.0944503438
H  H189  1  0.18970000  0.83530000  0.41430000  1.0 0.0944503438
H  H190  1  0.41470000  0.06030000  0.83570000  1.0 0.0944503438
H  H191  1  0.56070000  0.18970000  0.41430000  1.0 0.0944503438
H  H192  1  0.18970000  0.41430000  0.56070000  1.0 0.0944503438
H  H193  1  0.36310000  0.89410000  0.68830000  1.0 0.1012746816
H  H194  1  0.88690000  0.35590000  0.19550000  1.0 0.1012746816
H  H195  1  0.35590000  0.19550000  0.88690000  1.0 0.1012746816
H  H196  1  0.19550000  0.88690000  0.35590000  1.0 0.1012746816
H  H197  1  0.35590000  0.56170000  0.19550000  1.0 0.1012746816
H  H198  1  0.89410000  0.05450000  0.68830000  1.0 0.1012746816
H  H199  1  0.56170000  0.88690000  0.19550000  1.0 0.1012746816
H  H200  1  0.05450000  0.36310000  0.68830000  1.0 0.1012746816
H  H201  1  0.56170000  0.19550000  0.35590000  1.0 0.1012746816
H  H202  1  0.05450000  0.68830000  0.89410000  1.0 0.1012746816
H  H203  1  0.89410000  0.36310000  0.05450000  1.0 0.1012746816
H  H204  1  0.35590000  0.88690000  0.56170000  1.0 0.1012746816
H  H205  1  0.56170000  0.35590000  0.88690000  1.0 0.1012746816
H  H206  1  0.05450000  0.89410000  0.36310000  1.0 0.1012746816
H  H207  1  0.88690000  0.56170000  0.35590000  1.0 0.1012746816
H  H208  1  0.36310000  0.05450000  0.89410000  1.0 0.1012746816
H  H209  1  0.36310000  0.68830000  0.05450000  1.0 0.1012746816
H  H210  1  0.68830000  0.89410000  0.05450000  1.0 0.1012746816
H  H211  1  0.19550000  0.35590000  0.56170000  1.0 0.1012746816
H  H212  1  0.88690000  0.19550000  0.56170000  1.0 0.1012746816
H  H213  1  0.68830000  0.05450000  0.36310000  1.0 0.1012746816
H  H214  1  0.19550000  0.56170000  0.88690000  1.0 0.1012746816
H  H215  1  0.89410000  0.68830000  0.36310000  1.0 0.1012746816
H  H216  1  0.68830000  0.36310000  0.89410000  1.0 0.1012746816
H  H217  1  0.38690000  0.85590000  0.06170000  1.0 0.1012746816
H  H218  1  0.86310000  0.39410000  0.55450000  1.0 0.1012746816
H  H219  1  0.39410000  0.55450000  0.86310000  1.0 0.1012746816
H  H220  1  0.55450000  0.86310000  0.39410000  1.0 0.1012746816
H  H221  1  0.39410000  0.18830000  0.55450000  1.0 0.1012746816
H  H222  1  0.85590000  0.69550000  0.06170000  1.0 0.1012746816
H  H223  1  0.18830000  0.86310000  0.55450000  1.0 0.1012746816
H  H224  1  0.69550000  0.38690000  0.06170000  1.0 0.1012746816
H  H225  1  0.18830000  0.55450000  0.39410000  1.0 0.1012746816
H  H226  1  0.69550000  0.06170000  0.85590000  1.0 0.1012746816
H  H227  1  0.85590000  0.38690000  0.69550000  1.0 0.1012746816
H  H228  1  0.39410000  0.86310000  0.18830000  1.0 0.1012746816
H  H229  1  0.18830000  0.39410000  0.86310000  1.0 0.1012746816
H  H230  1  0.69550000  0.85590000  0.38690000  1.0 0.1012746816
H  H231  1  0.86310000  0.18830000  0.39410000  1.0 0.1012746816
H  H232  1  0.38690000  0.69550000  0.85590000  1.0 0.1012746816
H  H233  1  0.38690000  0.06170000  0.69550000  1.0 0.1012746816
H  H234  1  0.06170000  0.85590000  0.69550000  1.0 0.1012746816
H  H235  1  0.55450000  0.39410000  0.18830000  1.0 0.1012746816
H  H236  1  0.86310000  0.55450000  0.18830000  1.0 0.1012746816
H  H237  1  0.06170000  0.69550000  0.38690000  1.0 0.1012746816
H  H238  1  0.55450000  0.18830000  0.86310000  1.0 0.1012746816
H  H239  1  0.85590000  0.06170000  0.38690000  1.0 0.1012746816
H  H240  1  0.06170000  0.38690000  0.85590000  1.0 0.1012746816
H  H241  1  0.35170000  0.94610000  0.69670000  1.0 0.1377090186
H  H242  1  0.89830000  0.30390000  0.24450000  1.0 0.1377090186
H  H243  1  0.30390000  0.24450000  0.89830000  1.0 0.1377090186
H  H244  1  0.24450000  0.89830000  0.30390000  1.0 0.1377090186
H  H245  1  0.30390000  0.55330000  0.24450000  1.0 0.1377090186
H  H246  1  0.94610000  0.00550000  0.69670000  1.0 0.1377090186
H  H247  1  0.55330000  0.89830000  0.24450000  1.0 0.1377090186
H  H248  1  0.00550000  0.35170000  0.69670000  1.0 0.1377090186
H  H249  1  0.55330000  0.24450000  0.30390000  1.0 0.1377090186
H  H250  1  0.00550000  0.69670000  0.94610000  1.0 0.1377090186
H  H251  1  0.94610000  0.35170000  0.00550000  1.0 0.1377090186
H  H252  1  0.30390000  0.89830000  0.55330000  1.0 0.1377090186
H  H253  1  0.55330000  0.30390000  0.89830000  1.0 0.1377090186
H  H254  1  0.00550000  0.94610000  0.35170000  1.0 0.1377090186
H  H255  1  0.89830000  0.55330000  0.30390000  1.0 0.1377090186
H  H256  1  0.35170000  0.00550000  0.94610000  1.0 0.1377090186
H  H257  1  0.35170000  0.69670000  0.00550000  1.0 0.1377090186
H  H258  1  0.69670000  0.94610000  0.00550000  1.0 0.1377090186
H  H259  1  0.24450000  0.30390000  0.55330000  1.0 0.1377090186
H  H260  1  0.89830000  0.24450000  0.55330000  1.0 0.1377090186
H  H261  1  0.69670000  0.00550000  0.35170000  1.0 0.1377090186
H  H262  1  0.24450000  0.55330000  0.89830000  1.0 0.1377090186
H  H263  1  0.94610000  0.69670000  0.35170000  1.0 0.1377090186
H  H264  1  0.69670000  0.35170000  0.94610000  1.0 0.1377090186
H  H265  1  0.39830000  0.80390000  0.05330000  1.0 0.1377090186
H  H266  1  0.85170000  0.44610000  0.50550000  1.0 0.1377090186
H  H267  1  0.44610000  0.50550000  0.85170000  1.0 0.1377090186
H  H268  1  0.50550000  0.85170000  0.44610000  1.0 0.1377090186
H  H269  1  0.44610000  0.19670000  0.50550000  1.0 0.1377090186
H  H270  1  0.80390000  0.74450000  0.05330000  1.0 0.1377090186
H  H271  1  0.19670000  0.85170000  0.50550000  1.0 0.1377090186
H  H272  1  0.74450000  0.39830000  0.05330000  1.0 0.1377090186
H  H273  1  0.19670000  0.50550000  0.44610000  1.0 0.1377090186
H  H274  1  0.74450000  0.05330000  0.80390000  1.0 0.1377090186
H  H275  1  0.80390000  0.39830000  0.74450000  1.0 0.1377090186
H  H276  1  0.44610000  0.85170000  0.19670000  1.0 0.1377090186
H  H277  1  0.19670000  0.44610000  0.85170000  1.0 0.1377090186
H  H278  1  0.74450000  0.80390000  0.39830000  1.0 0.1377090186
H  H279  1  0.85170000  0.19670000  0.44610000  1.0 0.1377090186
H  H280  1  0.39830000  0.74450000  0.80390000  1.0 0.1377090186
H  H281  1  0.39830000  0.05330000  0.74450000  1.0 0.1377090186
H  H282  1  0.05330000  0.80390000  0.74450000  1.0 0.1377090186
H  H283  1  0.50550000  0.44610000  0.19670000  1.0 0.1377090186
H  H284  1  0.85170000  0.50550000  0.19670000  1.0 0.1377090186
H  H285  1  0.05330000  0.74450000  0.39830000  1.0 0.1377090186
H  H286  1  0.50550000  0.19670000  0.85170000  1.0 0.1377090186
H  H287  1  0.80390000  0.05330000  0.39830000  1.0 0.1377090186
H  H288  1  0.05330000  0.39830000  0.80390000  1.0 0.1377090186
H  H289  1  0.34590000  0.00150000  0.64890000  1.0 0.1206047292
H  H290  1  0.90410000  0.24850000  0.24630000  1.0 0.1206047292
H  H291  1  0.24850000  0.24630000  0.90410000  1.0 0.1206047292
H  H292  1  0.24630000  0.90410000  0.24850000  1.0 0.1206047292
H  H293  1  0.24850000  0.60110000  0.24630000  1.0 0.1206047292
H  H294  1  0.00150000  0.00370000  0.64890000  1.0 0.1206047292
H  H295  1  0.60110000  0.90410000  0.24630000  1.0 0.1206047292
H  H296  1  0.00370000  0.34590000  0.64890000  1.0 0.1206047292
H  H297  1  0.60110000  0.24630000  0.24850000  1.0 0.1206047292
H  H298  1  0.00370000  0.64890000  0.00150000  1.0 0.1206047292
H  H299  1  0.00150000  0.34590000  0.00370000  1.0 0.1206047292
H  H300  1  0.24850000  0.90410000  0.60110000  1.0 0.1206047292
H  H301  1  0.60110000  0.24850000  0.90410000  1.0 0.1206047292
H  H302  1  0.00370000  0.00150000  0.34590000  1.0 0.1206047292
H  H303  1  0.90410000  0.60110000  0.24850000  1.0 0.1206047292
H  H304  1  0.34590000  0.00370000  0.00150000  1.0 0.1206047292
H  H305  1  0.34590000  0.64890000  0.00370000  1.0 0.1206047292
H  H306  1  0.64890000  0.00150000  0.00370000  1.0 0.1206047292
H  H307  1  0.24630000  0.24850000  0.60110000  1.0 0.1206047292
H  H308  1  0.90410000  0.24630000  0.60110000  1.0 0.1206047292
H  H309  1  0.64890000  0.00370000  0.34590000  1.0 0.1206047292
H  H310  1  0.24630000  0.60110000  0.90410000  1.0 0.1206047292
H  H311  1  0.00150000  0.64890000  0.34590000  1.0 0.1206047292
H  H312  1  0.64890000  0.34590000  0.00150000  1.0 0.1206047292
H  H313  1  0.40410000  0.74850000  0.10110000  1.0 0.1206047292
H  H314  1  0.84590000  0.50150000  0.50370000  1.0 0.1206047292
H  H315  1  0.50150000  0.50370000  0.84590000  1.0 0.1206047292
H  H316  1  0.50370000  0.84590000  0.50150000  1.0 0.1206047292
H  H317  1  0.50150000  0.14890000  0.50370000  1.0 0.1206047292
H  H318  1  0.74850000  0.74630000  0.10110000  1.0 0.1206047292
H  H319  1  0.14890000  0.84590000  0.50370000  1.0 0.1206047292
H  H320  1  0.74630000  0.40410000  0.10110000  1.0 0.1206047292
H  H321  1  0.14890000  0.50370000  0.50150000  1.0 0.1206047292
H  H322  1  0.74630000  0.10110000  0.74850000  1.0 0.1206047292
H  H323  1  0.74850000  0.40410000  0.74630000  1.0 0.1206047292
H  H324  1  0.50150000  0.84590000  0.14890000  1.0 0.1206047292
H  H325  1  0.14890000  0.50150000  0.84590000  1.0 0.1206047292
H  H326  1  0.74630000  0.74850000  0.40410000  1.0 0.1206047292
H  H327  1  0.84590000  0.14890000  0.50150000  1.0 0.1206047292
H  H328  1  0.40410000  0.74630000  0.74850000  1.0 0.1206047292
H  H329  1  0.40410000  0.10110000  0.74630000  1.0 0.1206047292
H  H330  1  0.10110000  0.74850000  0.74630000  1.0 0.1206047292
H  H331  1  0.50370000  0.50150000  0.14890000  1.0 0.1206047292
H  H332  1  0.84590000  0.50370000  0.14890000  1.0 0.1206047292
H  H333  1  0.10110000  0.74630000  0.40410000  1.0 0.1206047292
H  H334  1  0.50370000  0.14890000  0.84590000  1.0 0.1206047292
H  H335  1  0.74850000  0.10110000  0.40410000  1.0 0.1206047292
H  H336  1  0.10110000  0.40410000  0.74850000  1.0 0.1206047292
H  H337  1  0.36020000  0.95000000  0.58840000  1.0 0.106500066
H  H338  1  0.88980000  0.30000000  0.14860000  1.0 0.106500066
H  H339  1  0.30000000  0.14860000  0.88980000  1.0 0.106500066
H  H340  1  0.14860000  0.88980000  0.30000000  1.0 0.106500066
H  H341  1  0.30000000  0.66160000  0.14860000  1.0 0.106500066
H  H342  1  0.95000000  0.10140000  0.58840000  1.0 0.106500066
H  H343  1  0.66160000  0.88980000  0.14860000  1.0 0.106500066
H  H344  1  0.10140000  0.36020000  0.58840000  1.0 0.106500066
H  H345  1  0.66160000  0.14860000  0.30000000  1.0 0.106500066
H  H346  1  0.10140000  0.58840000  0.95000000  1.0 0.106500066
H  H347  1  0.95000000  0.36020000  0.10140000  1.0 0.106500066
H  H348  1  0.30000000  0.88980000  0.66160000  1.0 0.106500066
H  H349  1  0.66160000  0.30000000  0.88980000  1.0 0.106500066
H  H350  1  0.10140000  0.95000000  0.36020000  1.0 0.106500066
H  H351  1  0.88980000  0.66160000  0.30000000  1.0 0.106500066
H  H352  1  0.36020000  0.10140000  0.95000000  1.0 0.106500066
H  H353  1  0.36020000  0.58840000  0.10140000  1.0 0.106500066
H  H354  1  0.58840000  0.95000000  0.10140000  1.0 0.106500066
H  H355  1  0.14860000  0.30000000  0.66160000  1.0 0.106500066
H  H356  1  0.88980000  0.14860000  0.66160000  1.0 0.106500066
H  H357  1  0.58840000  0.10140000  0.36020000  1.0 0.106500066
H  H358  1  0.14860000  0.66160000  0.88980000  1.0 0.106500066
H  H359  1  0.95000000  0.58840000  0.36020000  1.0 0.106500066
H  H360  1  0.58840000  0.36020000  0.95000000  1.0 0.106500066
H  H361  1  0.38980000  0.80000000  0.16160000  1.0 0.106500066
H  H362  1  0.86020000  0.45000000  0.60140000  1.0 0.106500066
H  H363  1  0.45000000  0.60140000  0.86020000  1.0 0.106500066
H  H364  1  0.60140000  0.86020000  0.45000000  1.0 0.106500066
H  H365  1  0.45000000  0.08840000  0.60140000  1.0 0.106500066
H  H366  1  0.80000000  0.64860000  0.16160000  1.0 0.106500066
H  H367  1  0.08840000  0.86020000  0.60140000  1.0 0.106500066
H  H368  1  0.64860000  0.38980000  0.16160000  1.0 0.106500066
H  H369  1  0.08840000  0.60140000  0.45000000  1.0 0.106500066
H  H370  1  0.64860000  0.16160000  0.80000000  1.0 0.106500066
H  H371  1  0.80000000  0.38980000  0.64860000  1.0 0.106500066
H  H372  1  0.45000000  0.86020000  0.08840000  1.0 0.106500066
H  H373  1  0.08840000  0.45000000  0.86020000  1.0 0.106500066
H  H374  1  0.64860000  0.80000000  0.38980000  1.0 0.106500066
H  H375  1  0.86020000  0.08840000  0.45000000  1.0 0.106500066
H  H376  1  0.38980000  0.64860000  0.80000000  1.0 0.106500066
H  H377  1  0.38980000  0.16160000  0.64860000  1.0 0.106500066
H  H378  1  0.16160000  0.80000000  0.64860000  1.0 0.106500066
H  H379  1  0.60140000  0.45000000  0.08840000  1.0 0.106500066
H  H380  1  0.86020000  0.60140000  0.08840000  1.0 0.106500066
H  H381  1  0.16160000  0.64860000  0.38980000  1.0 0.106500066
H  H382  1  0.60140000  0.08840000  0.86020000  1.0 0.106500066
H  H383  1  0.80000000  0.16160000  0.38980000  1.0 0.106500066
H  H384  1  0.16160000  0.38980000  0.80000000  1.0 0.106500066
H  H385  1  0.36530000  0.09270000  0.45850000  1.0 0.1012746816
H  H386  1  0.88470000  0.15730000  0.16650000  1.0 0.1012746816
H  H387  1  0.15730000  0.16650000  0.88470000  1.0 0.1012746816
H  H388  1  0.16650000  0.88470000  0.15730000  1.0 0.1012746816
H  H389  1  0.15730000  0.79150000  0.16650000  1.0 0.1012746816
H  H390  1  0.09270000  0.08350000  0.45850000  1.0 0.1012746816
H  H391  1  0.79150000  0.88470000  0.16650000  1.0 0.1012746816
H  H392  1  0.08350000  0.36530000  0.45850000  1.0 0.1012746816
H  H393  1  0.79150000  0.16650000  0.15730000  1.0 0.1012746816
H  H394  1  0.08350000  0.45850000  0.09270000  1.0 0.1012746816
H  H395  1  0.09270000  0.36530000  0.08350000  1.0 0.1012746816
H  H396  1  0.15730000  0.88470000  0.79150000  1.0 0.1012746816
H  H397  1  0.79150000  0.15730000  0.88470000  1.0 0.1012746816
H  H398  1  0.08350000  0.09270000  0.36530000  1.0 0.1012746816
H  H399  1  0.88470000  0.79150000  0.15730000  1.0 0.1012746816
H  H400  1  0.36530000  0.08350000  0.09270000  1.0 0.1012746816
H  H401  1  0.36530000  0.45850000  0.08350000  1.0 0.1012746816
H  H402  1  0.45850000  0.09270000  0.08350000  1.0 0.1012746816
H  H403  1  0.16650000  0.15730000  0.79150000  1.0 0.1012746816
H  H404  1  0.88470000  0.16650000  0.79150000  1.0 0.1012746816
H  H405  1  0.45850000  0.08350000  0.36530000  1.0 0.1012746816
H  H406  1  0.16650000  0.79150000  0.88470000  1.0 0.1012746816
H  H407  1  0.09270000  0.45850000  0.36530000  1.0 0.1012746816
H  H408  1  0.45850000  0.36530000  0.09270000  1.0 0.1012746816
H  H409  1  0.38470000  0.65730000  0.29150000  1.0 0.1012746816
H  H410  1  0.86530000  0.59270000  0.58350000  1.0 0.1012746816
H  H411  1  0.59270000  0.58350000  0.86530000  1.0 0.1012746816
H  H412  1  0.58350000  0.86530000  0.59270000  1.0 0.1012746816
H  H413  1  0.59270000  0.95850000  0.58350000  1.0 0.1012746816
H  H414  1  0.65730000  0.66650000  0.29150000  1.0 0.1012746816
H  H415  1  0.95850000  0.86530000  0.58350000  1.0 0.1012746816
H  H416  1  0.66650000  0.38470000  0.29150000  1.0 0.1012746816
H  H417  1  0.95850000  0.58350000  0.59270000  1.0 0.1012746816
H  H418  1  0.66650000  0.29150000  0.65730000  1.0 0.1012746816
H  H419  1  0.65730000  0.38470000  0.66650000  1.0 0.1012746816
H  H420  1  0.59270000  0.86530000  0.95850000  1.0 0.1012746816
H  H421  1  0.95850000  0.59270000  0.86530000  1.0 0.1012746816
H  H422  1  0.66650000  0.65730000  0.38470000  1.0 0.1012746816
H  H423  1  0.86530000  0.95850000  0.59270000  1.0 0.1012746816
H  H424  1  0.38470000  0.66650000  0.65730000  1.0 0.1012746816
H  H425  1  0.38470000  0.29150000  0.66650000  1.0 0.1012746816
H  H426  1  0.29150000  0.65730000  0.66650000  1.0 0.1012746816
H  H427  1  0.58350000  0.59270000  0.95850000  1.0 0.1012746816
H  H428  1  0.86530000  0.58350000  0.95850000  1.0 0.1012746816
H  H429  1  0.29150000  0.66650000  0.38470000  1.0 0.1012746816
H  H430  1  0.58350000  0.95850000  0.86530000  1.0 0.1012746816
H  H431  1  0.65730000  0.29150000  0.38470000  1.0 0.1012746816
H  H432  1  0.29150000  0.38470000  0.65730000  1.0 0.1012746816
H  H433  1  0.37810000  0.98570000  0.50210000  1.0 0.1206047292
H  H434  1  0.87190000  0.26430000  0.11590000  1.0 0.1206047292
H  H435  1  0.26430000  0.11590000  0.87190000  1.0 0.1206047292
H  H436  1  0.11590000  0.87190000  0.26430000  1.0 0.1206047292
H  H437  1  0.26430000  0.74790000  0.11590000  1.0 0.1206047292
H  H438  1  0.98570000  0.13410000  0.50210000  1.0 0.1206047292
H  H439  1  0.74790000  0.87190000  0.11590000  1.0 0.1206047292
H  H440  1  0.13410000  0.37810000  0.50210000  1.0 0.1206047292
H  H441  1  0.74790000  0.11590000  0.26430000  1.0 0.1206047292
H  H442  1  0.13410000  0.50210000  0.98570000  1.0 0.1206047292
H  H443  1  0.98570000  0.37810000  0.13410000  1.0 0.1206047292
H  H444  1  0.26430000  0.87190000  0.74790000  1.0 0.1206047292
H  H445  1  0.74790000  0.26430000  0.87190000  1.0 0.1206047292
H  H446  1  0.13410000  0.98570000  0.37810000  1.0 0.1206047292
H  H447  1  0.87190000  0.74790000  0.26430000  1.0 0.1206047292
H  H448  1  0.37810000  0.13410000  0.98570000  1.0 0.1206047292
H  H449  1  0.37810000  0.50210000  0.13410000  1.0 0.1206047292
H  H450  1  0.50210000  0.98570000  0.13410000  1.0 0.1206047292
H  H451  1  0.11590000  0.26430000  0.74790000  1.0 0.1206047292
H  H452  1  0.87190000  0.11590000  0.74790000  1.0 0.1206047292
H  H453  1  0.50210000  0.13410000  0.37810000  1.0 0.1206047292
H  H454  1  0.11590000  0.74790000  0.87190000  1.0 0.1206047292
H  H455  1  0.98570000  0.50210000  0.37810000  1.0 0.1206047292
H  H456  1  0.50210000  0.37810000  0.98570000  1.0 0.1206047292
H  H457  1  0.37190000  0.76430000  0.24790000  1.0 0.1206047292
H  H458  1  0.87810000  0.48570000  0.63410000  1.0 0.1206047292
H  H459  1  0.48570000  0.63410000  0.87810000  1.0 0.1206047292
H  H460  1  0.63410000  0.87810000  0.48570000  1.0 0.1206047292
H  H461  1  0.48570000  0.00210000  0.63410000  1.0 0.1206047292
H  H462  1  0.76430000  0.61590000  0.24790000  1.0 0.1206047292
H  H463  1  0.00210000  0.87810000  0.63410000  1.0 0.1206047292
H  H464  1  0.61590000  0.37190000  0.24790000  1.0 0.1206047292
H  H465  1  0.00210000  0.63410000  0.48570000  1.0 0.1206047292
H  H466  1  0.61590000  0.24790000  0.76430000  1.0 0.1206047292
H  H467  1  0.76430000  0.37190000  0.61590000  1.0 0.1206047292
H  H468  1  0.48570000  0.87810000  0.00210000  1.0 0.1206047292
H  H469  1  0.00210000  0.48570000  0.87810000  1.0 0.1206047292
H  H470  1  0.61590000  0.76430000  0.37190000  1.0 0.1206047292
H  H471  1  0.87810000  0.00210000  0.48570000  1.0 0.1206047292
H  H472  1  0.37190000  0.61590000  0.76430000  1.0 0.1206047292
H  H473  1  0.37190000  0.24790000  0.61590000  1.0 0.1206047292
H  H474  1  0.24790000  0.76430000  0.61590000  1.0 0.1206047292
H  H475  1  0.63410000  0.48570000  0.00210000  1.0 0.1206047292
H  H476  1  0.87810000  0.63410000  0.00210000  1.0 0.1206047292
H  H477  1  0.24790000  0.61590000  0.37190000  1.0 0.1206047292
H  H478  1  0.63410000  0.00210000  0.87810000  1.0 0.1206047292
H  H479  1  0.76430000  0.24790000  0.37190000  1.0 0.1206047292
H  H480  1  0.24790000  0.37190000  0.76430000  1.0 0.1206047292
H  H481  1  0.39360000  0.98640000  0.44400000  1.0 0.1344387538
H  H482  1  0.85640000  0.26360000  0.07400000  1.0 0.1344387538
H  H483  1  0.26360000  0.07400000  0.85640000  1.0 0.1344387538
H  H484  1  0.07400000  0.85640000  0.26360000  1.0 0.1344387538
H  H485  1  0.26360000  0.80600000  0.07400000  1.0 0.1344387538
H  H486  1  0.98640000  0.17600000  0.44400000  1.0 0.1344387538
H  H487  1  0.80600000  0.85640000  0.07400000  1.0 0.1344387538
H  H488  1  0.17600000  0.39360000  0.44400000  1.0 0.1344387538
H  H489  1  0.80600000  0.07400000  0.26360000  1.0 0.1344387538
H  H490  1  0.17600000  0.44400000  0.98640000  1.0 0.1344387538
H  H491  1  0.98640000  0.39360000  0.17600000  1.0 0.1344387538
H  H492  1  0.26360000  0.85640000  0.80600000  1.0 0.1344387538
H  H493  1  0.80600000  0.26360000  0.85640000  1.0 0.1344387538
H  H494  1  0.17600000  0.98640000  0.39360000  1.0 0.1344387538
H  H495  1  0.85640000  0.80600000  0.26360000  1.0 0.1344387538
H  H496  1  0.39360000  0.17600000  0.98640000  1.0 0.1344387538
H  H497  1  0.39360000  0.44400000  0.17600000  1.0 0.1344387538
H  H498  1  0.44400000  0.98640000  0.17600000  1.0 0.1344387538
H  H499  1  0.07400000  0.26360000  0.80600000  1.0 0.1344387538
H  H500  1  0.85640000  0.07400000  0.80600000  1.0 0.1344387538
H  H501  1  0.44400000  0.17600000  0.39360000  1.0 0.1344387538
H  H502  1  0.07400000  0.80600000  0.85640000  1.0 0.1344387538
H  H503  1  0.98640000  0.44400000  0.39360000  1.0 0.1344387538
H  H504  1  0.44400000  0.39360000  0.98640000  1.0 0.1344387538
H  H505  1  0.35640000  0.76360000  0.30600000  1.0 0.1344387538
H  H506  1  0.89360000  0.48640000  0.67600000  1.0 0.1344387538
H  H507  1  0.48640000  0.67600000  0.89360000  1.0 0.1344387538
H  H508  1  0.67600000  0.89360000  0.48640000  1.0 0.1344387538
H  H509  1  0.48640000  0.94400000  0.67600000  1.0 0.1344387538
H  H510  1  0.76360000  0.57400000  0.30600000  1.0 0.1344387538
H  H511  1  0.94400000  0.89360000  0.67600000  1.0 0.1344387538
H  H512  1  0.57400000  0.35640000  0.30600000  1.0 0.1344387538
H  H513  1  0.94400000  0.67600000  0.48640000  1.0 0.1344387538
H  H514  1  0.57400000  0.30600000  0.76360000  1.0 0.1344387538
H  H515  1  0.76360000  0.35640000  0.57400000  1.0 0.1344387538
H  H516  1  0.48640000  0.89360000  0.94400000  1.0 0.1344387538
H  H517  1  0.94400000  0.48640000  0.89360000  1.0 0.1344387538
H  H518  1  0.57400000  0.76360000  0.35640000  1.0 0.1344387538
H  H519  1  0.89360000  0.94400000  0.48640000  1.0 0.1344387538
H  H520  1  0.35640000  0.57400000  0.76360000  1.0 0.1344387538
H  H521  1  0.35640000  0.30600000  0.57400000  1.0 0.1344387538
H  H522  1  0.30600000  0.76360000  0.57400000  1.0 0.1344387538
H  H523  1  0.67600000  0.48640000  0.94400000  1.0 0.1344387538
H  H524  1  0.89360000  0.67600000  0.94400000  1.0 0.1344387538
H  H525  1  0.30600000  0.57400000  0.35640000  1.0 0.1344387538
H  H526  1  0.67600000  0.94400000  0.89360000  1.0 0.1344387538
H  H527  1  0.76360000  0.30600000  0.35640000  1.0 0.1344387538
H  H528  1  0.30600000  0.35640000  0.76360000  1.0 0.1344387538
H  H529  1  0.39660000  0.04000000  0.39420000  1.0 0.1012746816
H  H530  1  0.85340000  0.21000000  0.08080000  1.0 0.1012746816
H  H531  1  0.21000000  0.08080000  0.85340000  1.0 0.1012746816
H  H532  1  0.08080000  0.85340000  0.21000000  1.0 0.1012746816
H  H533  1  0.21000000  0.85580000  0.08080000  1.0 0.1012746816
H  H534  1  0.04000000  0.16920000  0.39420000  1.0 0.1012746816
H  H535  1  0.85580000  0.85340000  0.08080000  1.0 0.1012746816
H  H536  1  0.16920000  0.39660000  0.39420000  1.0 0.1012746816
H  H537  1  0.85580000  0.08080000  0.21000000  1.0 0.1012746816
H  H538  1  0.16920000  0.39420000  0.04000000  1.0 0.1012746816
H  H539  1  0.04000000  0.39660000  0.16920000  1.0 0.1012746816
H  H540  1  0.21000000  0.85340000  0.85580000  1.0 0.1012746816
H  H541  1  0.85580000  0.21000000  0.85340000  1.0 0.1012746816
H  H542  1  0.16920000  0.04000000  0.39660000  1.0 0.1012746816
H  H543  1  0.85340000  0.85580000  0.21000000  1.0 0.1012746816
H  H544  1  0.39660000  0.16920000  0.04000000  1.0 0.1012746816
H  H545  1  0.39660000  0.39420000  0.16920000  1.0 0.1012746816
H  H546  1  0.39420000  0.04000000  0.16920000  1.0 0.1012746816
H  H547  1  0.08080000  0.21000000  0.85580000  1.0 0.1012746816
H  H548  1  0.85340000  0.08080000  0.85580000  1.0 0.1012746816
H  H549  1  0.39420000  0.16920000  0.39660000  1.0 0.1012746816
H  H550  1  0.08080000  0.85580000  0.85340000  1.0 0.1012746816
H  H551  1  0.04000000  0.39420000  0.39660000  1.0 0.1012746816
H  H552  1  0.39420000  0.39660000  0.04000000  1.0 0.1012746816
H  H553  1  0.35340000  0.71000000  0.35580000  1.0 0.1012746816
H  H554  1  0.89660000  0.54000000  0.66920000  1.0 0.1012746816
H  H555  1  0.54000000  0.66920000  0.89660000  1.0 0.1012746816
H  H556  1  0.66920000  0.89660000  0.54000000  1.0 0.1012746816
H  H557  1  0.54000000  0.89420000  0.66920000  1.0 0.1012746816
H  H558  1  0.71000000  0.58080000  0.35580000  1.0 0.1012746816
H  H559  1  0.89420000  0.89660000  0.66920000  1.0 0.1012746816
H  H560  1  0.58080000  0.35340000  0.35580000  1.0 0.1012746816
H  H561  1  0.89420000  0.66920000  0.54000000  1.0 0.1012746816
H  H562  1  0.58080000  0.35580000  0.71000000  1.0 0.1012746816
H  H563  1  0.71000000  0.35340000  0.58080000  1.0 0.1012746816
H  H564  1  0.54000000  0.89660000  0.89420000  1.0 0.1012746816
H  H565  1  0.89420000  0.54000000  0.89660000  1.0 0.1012746816
H  H566  1  0.58080000  0.71000000  0.35340000  1.0 0.1012746816
H  H567  1  0.89660000  0.89420000  0.54000000  1.0 0.1012746816
H  H568  1  0.35340000  0.58080000  0.71000000  1.0 0.1012746816
H  H569  1  0.35340000  0.35580000  0.58080000  1.0 0.1012746816
H  H570  1  0.35580000  0.71000000  0.58080000  1.0 0.1012746816
H  H571  1  0.66920000  0.54000000  0.89420000  1.0 0.1012746816
H  H572  1  0.89660000  0.66920000  0.89420000  1.0 0.1012746816
H  H573  1  0.35580000  0.58080000  0.35340000  1.0 0.1012746816
H  H574  1  0.66920000  0.89420000  0.89660000  1.0 0.1012746816
H  H575  1  0.71000000  0.35580000  0.35340000  1.0 0.1012746816
H  H576  1  0.35580000  0.35340000  0.71000000  1.0 0.1012746816
H  H577  1  0.30320000  0.11460000  0.43360000  1.0 0.1012746816
H  H578  1  0.94680000  0.13540000  0.10140000  1.0 0.1012746816
H  H579  1  0.13540000  0.10140000  0.94680000  1.0 0.1012746816
H  H580  1  0.10140000  0.94680000  0.13540000  1.0 0.1012746816
H  H581  1  0.13540000  0.81640000  0.10140000  1.0 0.1012746816
H  H582  1  0.11460000  0.14860000  0.43360000  1.0 0.1012746816
H  H583  1  0.81640000  0.94680000  0.10140000  1.0 0.1012746816
H  H584  1  0.14860000  0.30320000  0.43360000  1.0 0.1012746816
H  H585  1  0.81640000  0.10140000  0.13540000  1.0 0.1012746816
H  H586  1  0.14860000  0.43360000  0.11460000  1.0 0.1012746816
H  H587  1  0.11460000  0.30320000  0.14860000  1.0 0.1012746816
H  H588  1  0.13540000  0.94680000  0.81640000  1.0 0.1012746816
H  H589  1  0.81640000  0.13540000  0.94680000  1.0 0.1012746816
H  H590  1  0.14860000  0.11460000  0.30320000  1.0 0.1012746816
H  H591  1  0.94680000  0.81640000  0.13540000  1.0 0.1012746816
H  H592  1  0.30320000  0.14860000  0.11460000  1.0 0.1012746816
H  H593  1  0.30320000  0.43360000  0.14860000  1.0 0.1012746816
H  H594  1  0.43360000  0.11460000  0.14860000  1.0 0.1012746816
H  H595  1  0.10140000  0.13540000  0.81640000  1.0 0.1012746816
H  H596  1  0.94680000  0.10140000  0.81640000  1.0 0.1012746816
H  H597  1  0.43360000  0.14860000  0.30320000  1.0 0.1012746816
H  H598  1  0.10140000  0.81640000  0.94680000  1.0 0.1012746816
H  H599  1  0.11460000  0.43360000  0.30320000  1.0 0.1012746816
H  H600  1  0.43360000  0.30320000  0.11460000  1.0 0.1012746816
H  H601  1  0.44680000  0.63540000  0.31640000  1.0 0.1012746816
H  H602  1  0.80320000  0.61460000  0.64860000  1.0 0.1012746816
H  H603  1  0.61460000  0.64860000  0.80320000  1.0 0.1012746816
H  H604  1  0.64860000  0.80320000  0.61460000  1.0 0.1012746816
H  H605  1  0.61460000  0.93360000  0.64860000  1.0 0.1012746816
H  H606  1  0.63540000  0.60140000  0.31640000  1.0 0.1012746816
H  H607  1  0.93360000  0.80320000  0.64860000  1.0 0.1012746816
H  H608  1  0.60140000  0.44680000  0.31640000  1.0 0.1012746816
H  H609  1  0.93360000  0.64860000  0.61460000  1.0 0.1012746816
H  H610  1  0.60140000  0.31640000  0.63540000  1.0 0.1012746816
H  H611  1  0.63540000  0.44680000  0.60140000  1.0 0.1012746816
H  H612  1  0.61460000  0.80320000  0.93360000  1.0 0.1012746816
H  H613  1  0.93360000  0.61460000  0.80320000  1.0 0.1012746816
H  H614  1  0.60140000  0.63540000  0.44680000  1.0 0.1012746816
H  H615  1  0.80320000  0.93360000  0.61460000  1.0 0.1012746816
H  H616  1  0.44680000  0.60140000  0.63540000  1.0 0.1012746816
H  H617  1  0.44680000  0.31640000  0.60140000  1.0 0.1012746816
H  H618  1  0.31640000  0.63540000  0.60140000  1.0 0.1012746816
H  H619  1  0.64860000  0.61460000  0.93360000  1.0 0.1012746816
H  H620  1  0.80320000  0.64860000  0.93360000  1.0 0.1012746816
H  H621  1  0.31640000  0.60140000  0.44680000  1.0 0.1012746816
H  H622  1  0.64860000  0.93360000  0.80320000  1.0 0.1012746816
H  H623  1  0.63540000  0.31640000  0.44680000  1.0 0.1012746816
H  H624  1  0.31640000  0.44680000  0.63540000  1.0 0.1012746816
H  H625  1  0.25290000  0.10690000  0.44110000  1.0 0.1377090186
H  H626  1  0.99710000  0.14310000  0.05090000  1.0 0.1377090186
H  H627  1  0.14310000  0.05090000  0.99710000  1.0 0.1377090186
H  H628  1  0.05090000  0.99710000  0.14310000  1.0 0.1377090186
H  H629  1  0.14310000  0.80890000  0.05090000  1.0 0.1377090186
H  H630  1  0.10690000  0.19910000  0.44110000  1.0 0.1377090186
H  H631  1  0.80890000  0.99710000  0.05090000  1.0 0.1377090186
H  H632  1  0.19910000  0.25290000  0.44110000  1.0 0.1377090186
H  H633  1  0.80890000  0.05090000  0.14310000  1.0 0.1377090186
H  H634  1  0.19910000  0.44110000  0.10690000  1.0 0.1377090186
H  H635  1  0.10690000  0.25290000  0.19910000  1.0 0.1377090186
H  H636  1  0.14310000  0.99710000  0.80890000  1.0 0.1377090186
H  H637  1  0.80890000  0.14310000  0.99710000  1.0 0.1377090186
H  H638  1  0.19910000  0.10690000  0.25290000  1.0 0.1377090186
H  H639  1  0.99710000  0.80890000  0.14310000  1.0 0.1377090186
H  H640  1  0.25290000  0.19910000  0.10690000  1.0 0.1377090186
H  H641  1  0.25290000  0.44110000  0.19910000  1.0 0.1377090186
H  H642  1  0.44110000  0.10690000  0.19910000  1.0 0.1377090186
H  H643  1  0.05090000  0.14310000  0.80890000  1.0 0.1377090186
H  H644  1  0.99710000  0.05090000  0.80890000  1.0 0.1377090186
H  H645  1  0.44110000  0.19910000  0.25290000  1.0 0.1377090186
H  H646  1  0.05090000  0.80890000  0.99710000  1.0 0.1377090186
H  H647  1  0.10690000  0.44110000  0.25290000  1.0 0.1377090186
H  H648  1  0.44110000  0.25290000  0.10690000  1.0 0.1377090186
H  H649  1  0.49710000  0.64310000  0.30890000  1.0 0.1377090186
H  H650  1  0.75290000  0.60690000  0.69910000  1.0 0.1377090186
H  H651  1  0.60690000  0.69910000  0.75290000  1.0 0.1377090186
H  H652  1  0.69910000  0.75290000  0.60690000  1.0 0.1377090186
H  H653  1  0.60690000  0.94110000  0.69910000  1.0 0.1377090186
H  H654  1  0.64310000  0.55090000  0.30890000  1.0 0.1377090186
H  H655  1  0.94110000  0.75290000  0.69910000  1.0 0.1377090186
H  H656  1  0.55090000  0.49710000  0.30890000  1.0 0.1377090186
H  H657  1  0.94110000  0.69910000  0.60690000  1.0 0.1377090186
H  H658  1  0.55090000  0.30890000  0.64310000  1.0 0.1377090186
H  H659  1  0.64310000  0.49710000  0.55090000  1.0 0.1377090186
H  H660  1  0.60690000  0.75290000  0.94110000  1.0 0.1377090186
H  H661  1  0.94110000  0.60690000  0.75290000  1.0 0.1377090186
H  H662  1  0.55090000  0.64310000  0.49710000  1.0 0.1377090186
H  H663  1  0.75290000  0.94110000  0.60690000  1.0 0.1377090186
H  H664  1  0.49710000  0.55090000  0.64310000  1.0 0.1377090186
H  H665  1  0.49710000  0.30890000  0.55090000  1.0 0.1377090186
H  H666  1  0.30890000  0.64310000  0.55090000  1.0 0.1377090186
H  H667  1  0.69910000  0.60690000  0.94110000  1.0 0.1377090186
H  H668  1  0.75290000  0.69910000  0.94110000  1.0 0.1377090186
H  H669  1  0.30890000  0.55090000  0.49710000  1.0 0.1377090186
H  H670  1  0.69910000  0.94110000  0.75290000  1.0 0.1377090186
H  H671  1  0.64310000  0.30890000  0.49710000  1.0 0.1377090186
H  H672  1  0.30890000  0.49710000  0.64310000  1.0 0.1377090186
H  H673  1  0.24990000  0.10310000  0.39250000  1.0 0.1206047292
H  H674  1  0.00010000  0.14690000  0.99550000  1.0 0.1206047292
H  H675  1  0.14690000  0.99550000  0.00010000  1.0 0.1206047292
H  H676  1  0.99550000  0.00010000  0.14690000  1.0 0.1206047292
H  H677  1  0.14690000  0.85750000  0.99550000  1.0 0.1206047292
H  H678  1  0.10310000  0.25450000  0.39250000  1.0 0.1206047292
H  H679  1  0.85750000  0.00010000  0.99550000  1.0 0.1206047292
H  H680  1  0.25450000  0.24990000  0.39250000  1.0 0.1206047292
H  H681  1  0.85750000  0.99550000  0.14690000  1.0 0.1206047292
H  H682  1  0.25450000  0.39250000  0.10310000  1.0 0.1206047292
H  H683  1  0.10310000  0.24990000  0.25450000  1.0 0.1206047292
H  H684  1  0.14690000  0.00010000  0.85750000  1.0 0.1206047292
H  H685  1  0.85750000  0.14690000  0.00010000  1.0 0.1206047292
H  H686  1  0.25450000  0.10310000  0.24990000  1.0 0.1206047292
H  H687  1  0.00010000  0.85750000  0.14690000  1.0 0.1206047292
H  H688  1  0.24990000  0.25450000  0.10310000  1.0 0.1206047292
H  H689  1  0.24990000  0.39250000  0.25450000  1.0 0.1206047292
H  H690  1  0.39250000  0.10310000  0.25450000  1.0 0.1206047292
H  H691  1  0.99550000  0.14690000  0.85750000  1.0 0.1206047292
H  H692  1  0.00010000  0.99550000  0.85750000  1.0 0.1206047292
H  H693  1  0.39250000  0.25450000  0.24990000  1.0 0.1206047292
H  H694  1  0.99550000  0.85750000  0.00010000  1.0 0.1206047292
H  H695  1  0.10310000  0.39250000  0.24990000  1.0 0.1206047292
H  H696  1  0.39250000  0.24990000  0.10310000  1.0 0.1206047292
H  H697  1  0.50010000  0.64690000  0.35750000  1.0 0.1206047292
H  H698  1  0.74990000  0.60310000  0.75450000  1.0 0.1206047292
H  H699  1  0.60310000  0.75450000  0.74990000  1.0 0.1206047292
H  H700  1  0.75450000  0.74990000  0.60310000  1.0 0.1206047292
H  H701  1  0.60310000  0.89250000  0.75450000  1.0 0.1206047292
H  H702  1  0.64690000  0.49550000  0.35750000  1.0 0.1206047292
H  H703  1  0.89250000  0.74990000  0.75450000  1.0 0.1206047292
H  H704  1  0.49550000  0.50010000  0.35750000  1.0 0.1206047292
H  H705  1  0.89250000  0.75450000  0.60310000  1.0 0.1206047292
H  H706  1  0.49550000  0.35750000  0.64690000  1.0 0.1206047292
H  H707  1  0.64690000  0.50010000  0.49550000  1.0 0.1206047292
H  H708  1  0.60310000  0.74990000  0.89250000  1.0 0.1206047292
H  H709  1  0.89250000  0.60310000  0.74990000  1.0 0.1206047292
H  H710  1  0.49550000  0.64690000  0.50010000  1.0 0.1206047292
H  H711  1  0.74990000  0.89250000  0.60310000  1.0 0.1206047292
H  H712  1  0.50010000  0.49550000  0.64690000  1.0 0.1206047292
H  H713  1  0.50010000  0.35750000  0.49550000  1.0 0.1206047292
H  H714  1  0.35750000  0.64690000  0.49550000  1.0 0.1206047292
H  H715  1  0.75450000  0.60310000  0.89250000  1.0 0.1206047292
H  H716  1  0.74990000  0.75450000  0.89250000  1.0 0.1206047292
H  H717  1  0.35750000  0.49550000  0.50010000  1.0 0.1206047292
H  H718  1  0.75450000  0.89250000  0.74990000  1.0 0.1206047292
H  H719  1  0.64690000  0.35750000  0.50010000  1.0 0.1206047292
H  H720  1  0.35750000  0.50010000  0.64690000  1.0 0.1206047292
H  H721  1  0.34580000  0.12080000  0.33100000  1.0 0.106500066
H  H722  1  0.90420000  0.12920000  0.04760000  1.0 0.106500066
H  H723  1  0.12920000  0.04760000  0.90420000  1.0 0.106500066
H  H724  1  0.04760000  0.90420000  0.12920000  1.0 0.106500066
H  H725  1  0.12920000  0.91900000  0.04760000  1.0 0.106500066
H  H726  1  0.12080000  0.20240000  0.33100000  1.0 0.106500066
H  H727  1  0.91900000  0.90420000  0.04760000  1.0 0.106500066
H  H728  1  0.20240000  0.34580000  0.33100000  1.0 0.106500066
H  H729  1  0.91900000  0.04760000  0.12920000  1.0 0.106500066
H  H730  1  0.20240000  0.33100000  0.12080000  1.0 0.106500066
H  H731  1  0.12080000  0.34580000  0.20240000  1.0 0.106500066
H  H732  1  0.12920000  0.90420000  0.91900000  1.0 0.106500066
H  H733  1  0.91900000  0.12920000  0.90420000  1.0 0.106500066
H  H734  1  0.20240000  0.12080000  0.34580000  1.0 0.106500066
H  H735  1  0.90420000  0.91900000  0.12920000  1.0 0.106500066
H  H736  1  0.34580000  0.20240000  0.12080000  1.0 0.106500066
H  H737  1  0.34580000  0.33100000  0.20240000  1.0 0.106500066
H  H738  1  0.33100000  0.12080000  0.20240000  1.0 0.106500066
H  H739  1  0.04760000  0.12920000  0.91900000  1.0 0.106500066
H  H740  1  0.90420000  0.04760000  0.91900000  1.0 0.106500066
H  H741  1  0.33100000  0.20240000  0.34580000  1.0 0.106500066
H  H742  1  0.04760000  0.91900000  0.90420000  1.0 0.106500066
H  H743  1  0.12080000  0.33100000  0.34580000  1.0 0.106500066
H  H744  1  0.33100000  0.34580000  0.12080000  1.0 0.106500066
H  H745  1  0.40420000  0.62920000  0.41900000  1.0 0.106500066
H  H746  1  0.84580000  0.62080000  0.70240000  1.0 0.106500066
H  H747  1  0.62080000  0.70240000  0.84580000  1.0 0.106500066
H  H748  1  0.70240000  0.84580000  0.62080000  1.0 0.106500066
H  H749  1  0.62080000  0.83100000  0.70240000  1.0 0.106500066
H  H750  1  0.62920000  0.54760000  0.41900000  1.0 0.106500066
H  H751  1  0.83100000  0.84580000  0.70240000  1.0 0.106500066
H  H752  1  0.54760000  0.40420000  0.41900000  1.0 0.106500066
H  H753  1  0.83100000  0.70240000  0.62080000  1.0 0.106500066
H  H754  1  0.54760000  0.41900000  0.62920000  1.0 0.106500066
H  H755  1  0.62920000  0.40420000  0.54760000  1.0 0.106500066
H  H756  1  0.62080000  0.84580000  0.83100000  1.0 0.106500066
H  H757  1  0.83100000  0.62080000  0.84580000  1.0 0.106500066
H  H758  1  0.54760000  0.62920000  0.40420000  1.0 0.106500066
H  H759  1  0.84580000  0.83100000  0.62080000  1.0 0.106500066
H  H760  1  0.40420000  0.54760000  0.62920000  1.0 0.106500066
H  H761  1  0.40420000  0.41900000  0.54760000  1.0 0.106500066
H  H762  1  0.41900000  0.62920000  0.54760000  1.0 0.106500066
H  H763  1  0.70240000  0.62080000  0.83100000  1.0 0.106500066
H  H764  1  0.84580000  0.70240000  0.83100000  1.0 0.106500066
H  H765  1  0.41900000  0.54760000  0.40420000  1.0 0.106500066
H  H766  1  0.70240000  0.83100000  0.84580000  1.0 0.106500066
H  H767  1  0.62920000  0.41900000  0.40420000  1.0 0.106500066
H  H768  1  0.41900000  0.40420000  0.62920000  1.0 0.106500066
C  C1  1  0.34891000  0.83473000  0.71109000  1.0 0.2461164424
C  C2  1  0.90109000  0.41527000  0.14473000  1.0 0.2461164424
C  C3  1  0.41527000  0.14473000  0.90109000  1.0 0.2461164424
C  C4  1  0.14473000  0.90109000  0.41527000  1.0 0.2443537244
C  C5  1  0.41527000  0.53891000  0.14473000  1.0 0.2443537244
C  C6  1  0.83473000  0.10527000  0.71109000  1.0 0.2461164424
C  C7  1  0.53891000  0.90109000  0.14473000  1.0 0.2443537244
C  C8  1  0.10527000  0.34891000  0.71109000  1.0 0.2461164424
C  C9  1  0.53891000  0.14473000  0.41527000  1.0 0.2461164424
C  C10  1  0.10527000  0.71109000  0.83473000  1.0 0.2461164424
C  C11  1  0.83473000  0.34891000  0.10527000  1.0 0.2461164424
C  C12  1  0.41527000  0.90109000  0.53891000  1.0 0.2443537244
C  C13  1  0.53891000  0.41527000  0.90109000  1.0 0.2461164424
C  C14  1  0.10527000  0.83473000  0.34891000  1.0 0.2443537244
C  C15  1  0.90109000  0.53891000  0.41527000  1.0 0.2461164424
C  C16  1  0.34891000  0.10527000  0.83473000  1.0 0.2461164424
C  C17  1  0.34891000  0.71109000  0.10527000  1.0 0.2443537244
C  C18  1  0.71109000  0.83473000  0.10527000  1.0 0.2443537244
C  C19  1  0.14473000  0.41527000  0.53891000  1.0 0.2443537244
C  C20  1  0.90109000  0.14473000  0.53891000  1.0 0.2461164424
C  C21  1  0.71109000  0.10527000  0.34891000  1.0 0.2461164424
C  C22  1  0.14473000  0.53891000  0.90109000  1.0 0.2461164424
C  C23  1  0.83473000  0.71109000  0.34891000  1.0 0.2443537244
C  C24  1  0.71109000  0.34891000  0.83473000  1.0 0.2443537244
C  C25  1  0.40109000  0.91527000  0.03891000  1.0 0.2443537244
C  C26  1  0.84891000  0.33473000  0.60527000  1.0 0.2443537244
C  C27  1  0.33473000  0.60527000  0.84891000  1.0 0.2461164424
C  C28  1  0.60527000  0.84891000  0.33473000  1.0 0.2461164424
C  C29  1  0.33473000  0.21109000  0.60527000  1.0 0.2461164424
C  C30  1  0.91527000  0.64473000  0.03891000  1.0 0.2461164424
C  C31  1  0.21109000  0.84891000  0.60527000  1.0 0.2461164424
C  C32  1  0.64473000  0.40109000  0.03891000  1.0 0.2461164424
C  C33  1  0.21109000  0.60527000  0.33473000  1.0 0.2443537244
C  C34  1  0.64473000  0.03891000  0.91527000  1.0 0.2461164424
C  C35  1  0.91527000  0.40109000  0.64473000  1.0 0.2461164424
C  C36  1  0.33473000  0.84891000  0.21109000  1.0 0.2461164424
C  C37  1  0.21109000  0.33473000  0.84891000  1.0 0.2461164424
C  C38  1  0.64473000  0.91527000  0.40109000  1.0 0.2461164424
C  C39  1  0.84891000  0.21109000  0.33473000  1.0 0.2461164424
C  C40  1  0.40109000  0.64473000  0.91527000  1.0 0.2443537244
C  C41  1  0.40109000  0.03891000  0.64473000  1.0 0.2461164424
C  C42  1  0.03891000  0.91527000  0.64473000  1.0 0.2443537244
C  C43  1  0.60527000  0.33473000  0.21109000  1.0 0.2461164424
C  C44  1  0.84891000  0.60527000  0.21109000  1.0 0.2443537244
C  C45  1  0.03891000  0.64473000  0.40109000  1.0 0.2443537244
C  C46  1  0.60527000  0.21109000  0.84891000  1.0 0.2461164424
C  C47  1  0.91527000  0.03891000  0.40109000  1.0 0.2461164424
C  C48  1  0.03891000  0.40109000  0.91527000  1.0 0.2461164424
C  C49  1  0.42740000  0.07932000  0.32028000  1.0 0.2461164424
C  C50  1  0.82260000  0.17068000  0.07700000  1.0 0.2461164424
C  C51  1  0.17068000  0.07700000  0.82260000  1.0 0.2461164424
C  C52  1  0.07700000  0.82260000  0.17068000  1.0 0.2461164424
C  C53  1  0.17068000  0.92972000  0.07700000  1.0 0.2461164424
C  C54  1  0.07932000  0.17300000  0.32028000  1.0 0.2461164424
C  C55  1  0.92972000  0.82260000  0.07700000  1.0 0.2461164424
C  C56  1  0.17300000  0.42740000  0.32028000  1.0 0.2461164424
C  C57  1  0.92972000  0.07700000  0.17068000  1.0 0.2461164424
C  C58  1  0.17300000  0.32028000  0.07932000  1.0 0.2461164424
C  C59  1  0.07932000  0.42740000  0.17300000  1.0 0.2461164424
C  C60  1  0.17068000  0.82260000  0.92972000  1.0 0.2461164424
C  C61  1  0.92972000  0.17068000  0.82260000  1.0 0.2461164424
C  C62  1  0.17300000  0.07932000  0.42740000  1.0 0.2461164424
C  C63  1  0.82260000  0.92972000  0.17068000  1.0 0.2461164424
C  C64  1  0.42740000  0.17300000  0.07932000  1.0 0.2461164424
C  C65  1  0.42740000  0.32028000  0.17300000  1.0 0.2461164424
C  C66  1  0.32028000  0.07932000  0.17300000  1.0 0.2461164424
C  C67  1  0.07700000  0.17068000  0.92972000  1.0 0.2461164424
C  C68  1  0.82260000  0.07700000  0.92972000  1.0 0.2461164424
C  C69  1  0.32028000  0.17300000  0.42740000  1.0 0.2461164424
C  C70  1  0.07700000  0.92972000  0.82260000  1.0 0.2461164424
C  C71  1  0.07932000  0.32028000  0.42740000  1.0 0.2461164424
C  C72  1  0.32028000  0.42740000  0.07932000  1.0 0.2461164424
C  C73  1  0.32260000  0.67068000  0.42972000  1.0 0.2461164424
C  C74  1  0.92740000  0.57932000  0.67300000  1.0 0.2461164424
C  C75  1  0.57932000  0.67300000  0.92740000  1.0 0.2461164424
C  C76  1  0.67300000  0.92740000  0.57932000  1.0 0.2461164424
C  C77  1  0.57932000  0.82028000  0.67300000  1.0 0.2461164424
C  C78  1  0.67068000  0.57700000  0.42972000  1.0 0.2461164424
C  C79  1  0.82028000  0.92740000  0.67300000  1.0 0.2461164424
C  C80  1  0.57700000  0.32260000  0.42972000  1.0 0.2461164424
C  C81  1  0.82028000  0.67300000  0.57932000  1.0 0.2461164424
C  C82  1  0.57700000  0.42972000  0.67068000  1.0 0.2461164424
C  C83  1  0.67068000  0.32260000  0.57700000  1.0 0.2461164424
C  C84  1  0.57932000  0.92740000  0.82028000  1.0 0.2461164424
C  C85  1  0.82028000  0.57932000  0.92740000  1.0 0.2461164424
C  C86  1  0.57700000  0.67068000  0.32260000  1.0 0.2461164424
C  C87  1  0.92740000  0.82028000  0.57932000  1.0 0.2461164424
C  C88  1  0.32260000  0.57700000  0.67068000  1.0 0.2461164424
C  C89  1  0.32260000  0.42972000  0.57700000  1.0 0.2461164424
C  C90  1  0.42972000  0.67068000  0.57700000  1.0 0.2461164424
C  C91  1  0.67300000  0.57932000  0.82028000  1.0 0.2461164424
C  C92  1  0.92740000  0.67300000  0.82028000  1.0 0.2461164424
C  C93  1  0.42972000  0.57700000  0.32260000  1.0 0.2461164424
C  C94  1  0.67300000  0.82028000  0.92740000  1.0 0.2461164424
C  C95  1  0.67068000  0.42972000  0.32260000  1.0 0.2461164424
C  C96  1  0.42972000  0.32260000  0.67068000  1.0 0.2461164424
C  C97  1  0.34587000  0.10759000  0.58317000  1.0 0.0525507975
C  C98  1  0.90413000  0.14241000  0.28663000  1.0 0.0525507975
C  C99  1  0.14241000  0.28663000  0.90413000  1.0 0.0525507975
C  C100  1  0.28663000  0.90413000  0.14241000  1.0 0.0525507975
C  C101  1  0.14241000  0.66683000  0.28663000  1.0 0.0525507975
C  C102  1  0.10759000  0.96337000  0.58317000  1.0 0.0525507975
C  C103  1  0.66683000  0.90413000  0.28663000  1.0 0.0525507975
C  C104  1  0.96337000  0.34587000  0.58317000  1.0 0.0525507975
C  C105  1  0.66683000  0.28663000  0.14241000  1.0 0.0525507975
C  C106  1  0.96337000  0.58317000  0.10759000  1.0 0.0525507975
C  C107  1  0.10759000  0.34587000  0.96337000  1.0 0.0525507975
C  C108  1  0.14241000  0.90413000  0.66683000  1.0 0.0525507975
C  C109  1  0.66683000  0.14241000  0.90413000  1.0 0.0525507975
C  C110  1  0.96337000  0.10759000  0.34587000  1.0 0.0525507975
C  C111  1  0.90413000  0.66683000  0.14241000  1.0 0.0525507975
C  C112  1  0.34587000  0.96337000  0.10759000  1.0 0.0525507975
C  C113  1  0.34587000  0.58317000  0.96337000  1.0 0.0525507975
C  C114  1  0.58317000  0.10759000  0.96337000  1.0 0.0525507975
C  C115  1  0.28663000  0.14241000  0.66683000  1.0 0.0525507975
C  C116  1  0.90413000  0.28663000  0.66683000  1.0 0.0525507975
C  C117  1  0.58317000  0.96337000  0.34587000  1.0 0.0525507975
C  C118  1  0.28663000  0.66683000  0.90413000  1.0 0.0525507975
C  C119  1  0.10759000  0.58317000  0.34587000  1.0 0.0525507975
C  C120  1  0.58317000  0.34587000  0.10759000  1.0 0.0525507975
C  C121  1  0.40413000  0.64241000  0.16683000  1.0 0.0525507975
C  C122  1  0.84587000  0.60759000  0.46337000  1.0 0.0525507975
C  C123  1  0.60759000  0.46337000  0.84587000  1.0 0.0525507975
C  C124  1  0.46337000  0.84587000  0.60759000  1.0 0.0525507975
C  C125  1  0.60759000  0.08317000  0.46337000  1.0 0.0525507975
C  C126  1  0.64241000  0.78663000  0.16683000  1.0 0.0525507975
C  C127  1  0.08317000  0.84587000  0.46337000  1.0 0.0525507975
C  C128  1  0.78663000  0.40413000  0.16683000  1.0 0.0525507975
C  C129  1  0.08317000  0.46337000  0.60759000  1.0 0.0525507975
C  C130  1  0.78663000  0.16683000  0.64241000  1.0 0.0525507975
C  C131  1  0.64241000  0.40413000  0.78663000  1.0 0.0525507975
C  C132  1  0.60759000  0.84587000  0.08317000  1.0 0.0525507975
C  C133  1  0.08317000  0.60759000  0.84587000  1.0 0.0525507975
C  C134  1  0.78663000  0.64241000  0.40413000  1.0 0.0525507975
C  C135  1  0.84587000  0.08317000  0.60759000  1.0 0.0525507975
C  C136  1  0.40413000  0.78663000  0.64241000  1.0 0.0525507975
C  C137  1  0.40413000  0.16683000  0.78663000  1.0 0.0525507975
C  C138  1  0.16683000  0.64241000  0.78663000  1.0 0.0525507975
C  C139  1  0.46337000  0.60759000  0.08317000  1.0 0.0525507975
C  C140  1  0.84587000  0.46337000  0.08317000  1.0 0.0525507975
C  C141  1  0.16683000  0.78663000  0.40413000  1.0 0.0525507975
C  C142  1  0.46337000  0.08317000  0.84587000  1.0 0.0525507975
C  C143  1  0.64241000  0.16683000  0.40413000  1.0 0.0525507975
C  C144  1  0.16683000  0.40413000  0.64241000  1.0 0.0525507975
C  C145  1  0.33701000  0.10905000  0.55733000  1.0 -0.028863239
C  C146  1  0.91299000  0.14095000  0.25339000  1.0 -0.028863239
C  C147  1  0.14095000  0.25339000  0.91299000  1.0 -0.028863239
C  C148  1  0.25339000  0.91299000  0.14095000  1.0 -0.028863239
C  C149  1  0.14095000  0.69267000  0.25339000  1.0 -0.028863239
C  C150  1  0.10905000  0.99661000  0.55733000  1.0 -0.028863239
C  C151  1  0.69267000  0.91299000  0.25339000  1.0 -0.028863239
C  C152  1  0.99661000  0.33701000  0.55733000  1.0 -0.028863239
C  C153  1  0.69267000  0.25339000  0.14095000  1.0 -0.028863239
C  C154  1  0.99661000  0.55733000  0.10905000  1.0 -0.028863239
C  C155  1  0.10905000  0.33701000  0.99661000  1.0 -0.028863239
C  C156  1  0.14095000  0.91299000  0.69267000  1.0 -0.028863239
C  C157  1  0.69267000  0.14095000  0.91299000  1.0 -0.028863239
C  C158  1  0.99661000  0.10905000  0.33701000  1.0 -0.028863239
C  C159  1  0.91299000  0.69267000  0.14095000  1.0 -0.028863239
C  C160  1  0.33701000  0.99661000  0.10905000  1.0 -0.028863239
C  C161  1  0.33701000  0.55733000  0.99661000  1.0 -0.028863239
C  C162  1  0.55733000  0.10905000  0.99661000  1.0 -0.028863239
C  C163  1  0.25339000  0.14095000  0.69267000  1.0 -0.028863239
C  C164  1  0.91299000  0.25339000  0.69267000  1.0 -0.028863239
C  C165  1  0.55733000  0.99661000  0.33701000  1.0 -0.028863239
C  C166  1  0.25339000  0.69267000  0.91299000  1.0 -0.028863239
C  C167  1  0.10905000  0.55733000  0.33701000  1.0 -0.028863239
C  C168  1  0.55733000  0.33701000  0.10905000  1.0 -0.028863239
C  C169  1  0.41299000  0.64095000  0.19267000  1.0 -0.028863239
C  C170  1  0.83701000  0.60905000  0.49661000  1.0 -0.028863239
C  C171  1  0.60905000  0.49661000  0.83701000  1.0 -0.028863239
C  C172  1  0.49661000  0.83701000  0.60905000  1.0 -0.028863239
C  C173  1  0.60905000  0.05733000  0.49661000  1.0 -0.028863239
C  C174  1  0.64095000  0.75339000  0.19267000  1.0 -0.028863239
C  C175  1  0.05733000  0.83701000  0.49661000  1.0 -0.028863239
C  C176  1  0.75339000  0.41299000  0.19267000  1.0 -0.028863239
C  C177  1  0.05733000  0.49661000  0.60905000  1.0 -0.028863239
C  C178  1  0.75339000  0.19267000  0.64095000  1.0 -0.028863239
C  C179  1  0.64095000  0.41299000  0.75339000  1.0 -0.028863239
C  C180  1  0.60905000  0.83701000  0.05733000  1.0 -0.028863239
C  C181  1  0.05733000  0.60905000  0.83701000  1.0 -0.028863239
C  C182  1  0.75339000  0.64095000  0.41299000  1.0 -0.028863239
C  C183  1  0.83701000  0.05733000  0.60905000  1.0 -0.028863239
C  C184  1  0.41299000  0.75339000  0.64095000  1.0 -0.028863239
C  C185  1  0.41299000  0.19267000  0.75339000  1.0 -0.028863239
C  C186  1  0.19267000  0.64095000  0.75339000  1.0 -0.028863239
C  C187  1  0.49661000  0.60905000  0.05733000  1.0 -0.028863239
C  C188  1  0.83701000  0.49661000  0.05733000  1.0 -0.028863239
C  C189  1  0.19267000  0.75339000  0.41299000  1.0 -0.028863239
C  C190  1  0.49661000  0.05733000  0.83701000  1.0 -0.028863239
C  C191  1  0.64095000  0.19267000  0.41299000  1.0 -0.028863239
C  C192  1  0.19267000  0.41299000  0.64095000  1.0 -0.028863239
C  C193  1  0.32592000  0.14250000  0.53152000  1.0 -0.0511895205
C  C194  1  0.92408000  0.10750000  0.24994000  1.0 -0.0511895205
C  C195  1  0.10750000  0.24994000  0.92408000  1.0 -0.0511895205
C  C196  1  0.24994000  0.92408000  0.10750000  1.0 -0.0511895205
C  C197  1  0.10750000  0.71848000  0.24994000  1.0 -0.0511895205
C  C198  1  0.14250000  0.00006000  0.53152000  1.0 -0.0511895205
C  C199  1  0.71848000  0.92408000  0.24994000  1.0 -0.0511895205
C  C200  1  0.00006000  0.32592000  0.53152000  1.0 -0.0511895205
C  C201  1  0.71848000  0.24994000  0.10750000  1.0 -0.0511895205
C  C202  1  0.00006000  0.53152000  0.14250000  1.0 -0.0511895205
C  C203  1  0.14250000  0.32592000  0.00006000  1.0 -0.0511895205
C  C204  1  0.10750000  0.92408000  0.71848000  1.0 -0.0511895205
C  C205  1  0.71848000  0.10750000  0.92408000  1.0 -0.0511895205
C  C206  1  0.00006000  0.14250000  0.32592000  1.0 -0.0511895205
C  C207  1  0.92408000  0.71848000  0.10750000  1.0 -0.0511895205
C  C208  1  0.32592000  0.00006000  0.14250000  1.0 -0.0511895205
C  C209  1  0.32592000  0.53152000  0.00006000  1.0 -0.0511895205
C  C210  1  0.53152000  0.14250000  0.00006000  1.0 -0.0511895205
C  C211  1  0.24994000  0.10750000  0.71848000  1.0 -0.0511895205
C  C212  1  0.92408000  0.24994000  0.71848000  1.0 -0.0511895205
C  C213  1  0.53152000  0.00006000  0.32592000  1.0 -0.0511895205
C  C214  1  0.24994000  0.71848000  0.92408000  1.0 -0.0511895205
C  C215  1  0.14250000  0.53152000  0.32592000  1.0 -0.0511895205
C  C216  1  0.53152000  0.32592000  0.14250000  1.0 -0.0511895205
C  C217  1  0.42408000  0.60750000  0.21848000  1.0 -0.0511895205
C  C218  1  0.82592000  0.64250000  0.50006000  1.0 -0.0511895205
C  C219  1  0.64250000  0.50006000  0.82592000  1.0 -0.0511895205
C  C220  1  0.50006000  0.82592000  0.64250000  1.0 -0.0511895205
C  C221  1  0.64250000  0.03152000  0.50006000  1.0 -0.0511895205
C  C222  1  0.60750000  0.74994000  0.21848000  1.0 -0.0511895205
C  C223  1  0.03152000  0.82592000  0.50006000  1.0 -0.0511895205
C  C224  1  0.74994000  0.42408000  0.21848000  1.0 -0.0511895205
C  C225  1  0.03152000  0.50006000  0.64250000  1.0 -0.0511895205
C  C226  1  0.74994000  0.21848000  0.60750000  1.0 -0.0511895205
C  C227  1  0.60750000  0.42408000  0.74994000  1.0 -0.0511895205
C  C228  1  0.64250000  0.82592000  0.03152000  1.0 -0.0511895205
C  C229  1  0.03152000  0.64250000  0.82592000  1.0 -0.0511895205
C  C230  1  0.74994000  0.60750000  0.42408000  1.0 -0.0511895205
C  C231  1  0.82592000  0.03152000  0.64250000  1.0 -0.0511895205
C  C232  1  0.42408000  0.74994000  0.60750000  1.0 -0.0511895205
C  C233  1  0.42408000  0.21848000  0.74994000  1.0 -0.0511895205
C  C234  1  0.21848000  0.60750000  0.74994000  1.0 -0.0511895205
C  C235  1  0.50006000  0.64250000  0.03152000  1.0 -0.0511895205
C  C236  1  0.82592000  0.50006000  0.03152000  1.0 -0.0511895205
C  C237  1  0.21848000  0.74994000  0.42408000  1.0 -0.0511895205
C  C238  1  0.50006000  0.03152000  0.82592000  1.0 -0.0511895205
C  C239  1  0.60750000  0.21848000  0.42408000  1.0 -0.0511895205
C  C240  1  0.21848000  0.42408000  0.60750000  1.0 -0.0511895205
C  C241  1  0.32436000  0.17312000  0.53370000  1.0 -0.1372536231
C  C242  1  0.92564000  0.07688000  0.28118000  1.0 -0.1372536231
C  C243  1  0.07688000  0.28118000  0.92564000  1.0 -0.1372536231
C  C244  1  0.28118000  0.92564000  0.07688000  1.0 -0.1372536231
C  C245  1  0.07688000  0.71630000  0.28118000  1.0 -0.1372536231
C  C246  1  0.17312000  0.96882000  0.53370000  1.0 -0.1372536231
C  C247  1  0.71630000  0.92564000  0.28118000  1.0 -0.1372536231
C  C248  1  0.96882000  0.32436000  0.53370000  1.0 -0.1372536231
C  C249  1  0.71630000  0.28118000  0.07688000  1.0 -0.1372536231
C  C250  1  0.96882000  0.53370000  0.17312000  1.0 -0.1372536231
C  C251  1  0.17312000  0.32436000  0.96882000  1.0 -0.1372536231
C  C252  1  0.07688000  0.92564000  0.71630000  1.0 -0.1372536231
C  C253  1  0.71630000  0.07688000  0.92564000  1.0 -0.1372536231
C  C254  1  0.96882000  0.17312000  0.32436000  1.0 -0.1372536231
C  C255  1  0.92564000  0.71630000  0.07688000  1.0 -0.1372536231
C  C256  1  0.32436000  0.96882000  0.17312000  1.0 -0.1372536231
C  C257  1  0.32436000  0.53370000  0.96882000  1.0 -0.1372536231
C  C258  1  0.53370000  0.17312000  0.96882000  1.0 -0.1372536231
C  C259  1  0.28118000  0.07688000  0.71630000  1.0 -0.1372536231
C  C260  1  0.92564000  0.28118000  0.71630000  1.0 -0.1372536231
C  C261  1  0.53370000  0.96882000  0.32436000  1.0 -0.1372536231
C  C262  1  0.28118000  0.71630000  0.92564000  1.0 -0.1372536231
C  C263  1  0.17312000  0.53370000  0.32436000  1.0 -0.1372536231
C  C264  1  0.53370000  0.32436000  0.17312000  1.0 -0.1372536231
C  C265  1  0.42564000  0.57688000  0.21630000  1.0 -0.1372536231
C  C266  1  0.82436000  0.67312000  0.46882000  1.0 -0.1372536231
C  C267  1  0.67312000  0.46882000  0.82436000  1.0 -0.1372536231
C  C268  1  0.46882000  0.82436000  0.67312000  1.0 -0.1372536231
C  C269  1  0.67312000  0.03370000  0.46882000  1.0 -0.1372536231
C  C270  1  0.57688000  0.78118000  0.21630000  1.0 -0.1372536231
C  C271  1  0.03370000  0.82436000  0.46882000  1.0 -0.1372536231
C  C272  1  0.78118000  0.42564000  0.21630000  1.0 -0.1372536231
C  C273  1  0.03370000  0.46882000  0.67312000  1.0 -0.1372536231
C  C274  1  0.78118000  0.21630000  0.57688000  1.0 -0.1372536231
C  C275  1  0.57688000  0.42564000  0.78118000  1.0 -0.1372536231
C  C276  1  0.67312000  0.82436000  0.03370000  1.0 -0.1372536231
C  C277  1  0.03370000  0.67312000  0.82436000  1.0 -0.1372536231
C  C278  1  0.78118000  0.57688000  0.42564000  1.0 -0.1372536231
C  C279  1  0.82436000  0.03370000  0.67312000  1.0 -0.1372536231
C  C280  1  0.42564000  0.78118000  0.57688000  1.0 -0.1372536231
C  C281  1  0.42564000  0.21630000  0.78118000  1.0 -0.1372536231
C  C282  1  0.21630000  0.57688000  0.78118000  1.0 -0.1372536231
C  C283  1  0.46882000  0.67312000  0.03370000  1.0 -0.1372536231
C  C284  1  0.82436000  0.46882000  0.03370000  1.0 -0.1372536231
C  C285  1  0.21630000  0.78118000  0.42564000  1.0 -0.1372536231
C  C286  1  0.46882000  0.03370000  0.82436000  1.0 -0.1372536231
C  C287  1  0.57688000  0.21630000  0.42564000  1.0 -0.1372536231
C  C288  1  0.21630000  0.42564000  0.57688000  1.0 -0.1372536231
C  C289  1  0.33565000  0.16831000  0.55995000  1.0 0.0785241944
C  C290  1  0.91435000  0.08169000  0.31391000  1.0 0.0785241944
C  C291  1  0.08169000  0.31391000  0.91435000  1.0 0.0785241944
C  C292  1  0.31391000  0.91435000  0.08169000  1.0 0.0785241944
C  C293  1  0.08169000  0.69005000  0.31391000  1.0 0.0785241944
C  C294  1  0.16831000  0.93609000  0.55995000  1.0 0.0785241944
C  C295  1  0.69005000  0.91435000  0.31391000  1.0 0.0785241944
C  C296  1  0.93609000  0.33565000  0.55995000  1.0 0.0785241944
C  C297  1  0.69005000  0.31391000  0.08169000  1.0 0.0785241944
C  C298  1  0.93609000  0.55995000  0.16831000  1.0 0.0785241944
C  C299  1  0.16831000  0.33565000  0.93609000  1.0 0.0785241944
C  C300  1  0.08169000  0.91435000  0.69005000  1.0 0.0785241944
C  C301  1  0.69005000  0.08169000  0.91435000  1.0 0.0785241944
C  C302  1  0.93609000  0.16831000  0.33565000  1.0 0.0785241944
C  C303  1  0.91435000  0.69005000  0.08169000  1.0 0.0785241944
C  C304  1  0.33565000  0.93609000  0.16831000  1.0 0.0785241944
C  C305  1  0.33565000  0.55995000  0.93609000  1.0 0.0785241944
C  C306  1  0.55995000  0.16831000  0.93609000  1.0 0.0785241944
C  C307  1  0.31391000  0.08169000  0.69005000  1.0 0.0785241944
C  C308  1  0.91435000  0.31391000  0.69005000  1.0 0.0785241944
C  C309  1  0.55995000  0.93609000  0.33565000  1.0 0.0785241944
C  C310  1  0.31391000  0.69005000  0.91435000  1.0 0.0785241944
C  C311  1  0.16831000  0.55995000  0.33565000  1.0 0.0785241944
C  C312  1  0.55995000  0.33565000  0.16831000  1.0 0.0785241944
C  C313  1  0.41435000  0.58169000  0.19005000  1.0 0.0785241944
C  C314  1  0.83565000  0.66831000  0.43609000  1.0 0.0785241944
C  C315  1  0.66831000  0.43609000  0.83565000  1.0 0.0785241944
C  C316  1  0.43609000  0.83565000  0.66831000  1.0 0.0785241944
C  C317  1  0.66831000  0.05995000  0.43609000  1.0 0.0785241944
C  C318  1  0.58169000  0.81391000  0.19005000  1.0 0.0785241944
C  C319  1  0.05995000  0.83565000  0.43609000  1.0 0.0785241944
C  C320  1  0.81391000  0.41435000  0.19005000  1.0 0.0785241944
C  C321  1  0.05995000  0.43609000  0.66831000  1.0 0.0785241944
C  C322  1  0.81391000  0.19005000  0.58169000  1.0 0.0785241944
C  C323  1  0.58169000  0.41435000  0.81391000  1.0 0.0785241944
C  C324  1  0.66831000  0.83565000  0.05995000  1.0 0.0785241944
C  C325  1  0.05995000  0.66831000  0.83565000  1.0 0.0785241944
C  C326  1  0.81391000  0.58169000  0.41435000  1.0 0.0785241944
C  C327  1  0.83565000  0.05995000  0.66831000  1.0 0.0785241944
C  C328  1  0.41435000  0.81391000  0.58169000  1.0 0.0785241944
C  C329  1  0.41435000  0.19005000  0.81391000  1.0 0.0785241944
C  C330  1  0.19005000  0.58169000  0.81391000  1.0 0.0785241944
C  C331  1  0.43609000  0.66831000  0.05995000  1.0 0.0785241944
C  C332  1  0.83565000  0.43609000  0.05995000  1.0 0.0785241944
C  C333  1  0.19005000  0.81391000  0.41435000  1.0 0.0785241944
C  C334  1  0.43609000  0.05995000  0.83565000  1.0 0.0785241944
C  C335  1  0.58169000  0.19005000  0.41435000  1.0 0.0785241944
C  C336  1  0.19005000  0.41435000  0.58169000  1.0 0.0785241944
C  C337  1  0.36038000  0.91656000  0.66888000  1.0 0.0730803115
C  C338  1  0.88962000  0.33344000  0.19582000  1.0 0.0730803115
C  C339  1  0.33344000  0.19582000  0.88962000  1.0 0.0730803115
C  C340  1  0.19582000  0.88962000  0.33344000  1.0 0.0730803115
C  C341  1  0.33344000  0.58112000  0.19582000  1.0 0.0730803115
C  C342  1  0.91656000  0.05418000  0.66888000  1.0 0.0730803115
C  C343  1  0.58112000  0.88962000  0.19582000  1.0 0.0730803115
C  C344  1  0.05418000  0.36038000  0.66888000  1.0 0.0730803115
C  C345  1  0.58112000  0.19582000  0.33344000  1.0 0.0730803115
C  C346  1  0.05418000  0.66888000  0.91656000  1.0 0.0730803115
C  C347  1  0.91656000  0.36038000  0.05418000  1.0 0.0730803115
C  C348  1  0.33344000  0.88962000  0.58112000  1.0 0.0730803115
C  C349  1  0.58112000  0.33344000  0.88962000  1.0 0.0730803115
C  C350  1  0.05418000  0.91656000  0.36038000  1.0 0.0730803115
C  C351  1  0.88962000  0.58112000  0.33344000  1.0 0.0730803115
C  C352  1  0.36038000  0.05418000  0.91656000  1.0 0.0730803115
C  C353  1  0.36038000  0.66888000  0.05418000  1.0 0.0730803115
C  C354  1  0.66888000  0.91656000  0.05418000  1.0 0.0730803115
C  C355  1  0.19582000  0.33344000  0.58112000  1.0 0.0730803115
C  C356  1  0.88962000  0.19582000  0.58112000  1.0 0.0730803115
C  C357  1  0.66888000  0.05418000  0.36038000  1.0 0.0730803115
C  C358  1  0.19582000  0.58112000  0.88962000  1.0 0.0730803115
C  C359  1  0.91656000  0.66888000  0.36038000  1.0 0.0730803115
C  C360  1  0.66888000  0.36038000  0.91656000  1.0 0.0730803115
C  C361  1  0.38962000  0.83344000  0.08112000  1.0 0.0730803115
C  C362  1  0.86038000  0.41656000  0.55418000  1.0 0.0730803115
C  C363  1  0.41656000  0.55418000  0.86038000  1.0 0.0730803115
C  C364  1  0.55418000  0.86038000  0.41656000  1.0 0.0730803115
C  C365  1  0.41656000  0.16888000  0.55418000  1.0 0.0730803115
C  C366  1  0.83344000  0.69582000  0.08112000  1.0 0.0730803115
C  C367  1  0.16888000  0.86038000  0.55418000  1.0 0.0730803115
C  C368  1  0.69582000  0.38962000  0.08112000  1.0 0.0730803115
C  C369  1  0.16888000  0.55418000  0.41656000  1.0 0.0730803115
C  C370  1  0.69582000  0.08112000  0.83344000  1.0 0.0730803115
C  C371  1  0.83344000  0.38962000  0.69582000  1.0 0.0730803115
C  C372  1  0.41656000  0.86038000  0.16888000  1.0 0.0730803115
C  C373  1  0.16888000  0.41656000  0.86038000  1.0 0.0730803115
C  C374  1  0.69582000  0.83344000  0.38962000  1.0 0.0730803115
C  C375  1  0.86038000  0.16888000  0.41656000  1.0 0.0730803115
C  C376  1  0.38962000  0.69582000  0.83344000  1.0 0.0730803115
C  C377  1  0.38962000  0.08112000  0.69582000  1.0 0.0730803115
C  C378  1  0.08112000  0.83344000  0.69582000  1.0 0.0730803115
C  C379  1  0.55418000  0.41656000  0.16888000  1.0 0.0730803115
C  C380  1  0.86038000  0.55418000  0.16888000  1.0 0.0730803115
C  C381  1  0.08112000  0.69582000  0.38962000  1.0 0.0730803115
C  C382  1  0.55418000  0.16888000  0.86038000  1.0 0.0730803115
C  C383  1  0.83344000  0.08112000  0.38962000  1.0 0.0730803115
C  C384  1  0.08112000  0.38962000  0.83344000  1.0 0.0730803115
C  C385  1  0.35369000  0.94741000  0.67409000  1.0 -0.1296806222
C  C386  1  0.89631000  0.30259000  0.22519000  1.0 -0.1296806222
C  C387  1  0.30259000  0.22519000  0.89631000  1.0 -0.1296806222
C  C388  1  0.22519000  0.89631000  0.30259000  1.0 -0.1296806222
C  C389  1  0.30259000  0.57591000  0.22519000  1.0 -0.1296806222
C  C390  1  0.94741000  0.02481000  0.67409000  1.0 -0.1296806222
C  C391  1  0.57591000  0.89631000  0.22519000  1.0 -0.1296806222
C  C392  1  0.02481000  0.35369000  0.67409000  1.0 -0.1296806222
C  C393  1  0.57591000  0.22519000  0.30259000  1.0 -0.1296806222
C  C394  1  0.02481000  0.67409000  0.94741000  1.0 -0.1296806222
C  C395  1  0.94741000  0.35369000  0.02481000  1.0 -0.1296806222
C  C396  1  0.30259000  0.89631000  0.57591000  1.0 -0.1296806222
C  C397  1  0.57591000  0.30259000  0.89631000  1.0 -0.1296806222
C  C398  1  0.02481000  0.94741000  0.35369000  1.0 -0.1296806222
C  C399  1  0.89631000  0.57591000  0.30259000  1.0 -0.1296806222
C  C400  1  0.35369000  0.02481000  0.94741000  1.0 -0.1296806222
C  C401  1  0.35369000  0.67409000  0.02481000  1.0 -0.1296806222
C  C402  1  0.67409000  0.94741000  0.02481000  1.0 -0.1296806222
C  C403  1  0.22519000  0.30259000  0.57591000  1.0 -0.1296806222
C  C404  1  0.89631000  0.22519000  0.57591000  1.0 -0.1296806222
C  C405  1  0.67409000  0.02481000  0.35369000  1.0 -0.1296806222
C  C406  1  0.22519000  0.57591000  0.89631000  1.0 -0.1296806222
C  C407  1  0.94741000  0.67409000  0.35369000  1.0 -0.1296806222
C  C408  1  0.67409000  0.35369000  0.94741000  1.0 -0.1296806222
C  C409  1  0.39631000  0.80259000  0.07591000  1.0 -0.1296806222
C  C410  1  0.85369000  0.44741000  0.52481000  1.0 -0.1296806222
C  C411  1  0.44741000  0.52481000  0.85369000  1.0 -0.1296806222
C  C412  1  0.52481000  0.85369000  0.44741000  1.0 -0.1296806222
C  C413  1  0.44741000  0.17409000  0.52481000  1.0 -0.1296806222
C  C414  1  0.80259000  0.72519000  0.07591000  1.0 -0.1296806222
C  C415  1  0.17409000  0.85369000  0.52481000  1.0 -0.1296806222
C  C416  1  0.72519000  0.39631000  0.07591000  1.0 -0.1296806222
C  C417  1  0.17409000  0.52481000  0.44741000  1.0 -0.1296806222
C  C418  1  0.72519000  0.07591000  0.80259000  1.0 -0.1296806222
C  C419  1  0.80259000  0.39631000  0.72519000  1.0 -0.1296806222
C  C420  1  0.44741000  0.85369000  0.17409000  1.0 -0.1296806222
C  C421  1  0.17409000  0.44741000  0.85369000  1.0 -0.1296806222
C  C422  1  0.72519000  0.80259000  0.39631000  1.0 -0.1296806222
C  C423  1  0.85369000  0.17409000  0.44741000  1.0 -0.1296806222
C  C424  1  0.39631000  0.72519000  0.80259000  1.0 -0.1296806222
C  C425  1  0.39631000  0.07591000  0.72519000  1.0 -0.1296806222
C  C426  1  0.07591000  0.80259000  0.72519000  1.0 -0.1296806222
C  C427  1  0.52481000  0.44741000  0.17409000  1.0 -0.1296806222
C  C428  1  0.85369000  0.52481000  0.17409000  1.0 -0.1296806222
C  C429  1  0.07591000  0.72519000  0.39631000  1.0 -0.1296806222
C  C430  1  0.52481000  0.17409000  0.85369000  1.0 -0.1296806222
C  C431  1  0.80259000  0.07591000  0.39631000  1.0 -0.1296806222
C  C432  1  0.07591000  0.39631000  0.80259000  1.0 -0.1296806222
C  C433  1  0.35008000  0.97996000  0.64606000  1.0 -0.055950511
C  C434  1  0.89992000  0.27004000  0.22610000  1.0 -0.055950511
C  C435  1  0.27004000  0.22610000  0.89992000  1.0 -0.055950511
C  C436  1  0.22610000  0.89992000  0.27004000  1.0 -0.055950511
C  C437  1  0.27004000  0.60394000  0.22610000  1.0 -0.055950511
C  C438  1  0.97996000  0.02390000  0.64606000  1.0 -0.055950511
C  C439  1  0.60394000  0.89992000  0.22610000  1.0 -0.055950511
C  C440  1  0.02390000  0.35008000  0.64606000  1.0 -0.055950511
C  C441  1  0.60394000  0.22610000  0.27004000  1.0 -0.055950511
C  C442  1  0.02390000  0.64606000  0.97996000  1.0 -0.055950511
C  C443  1  0.97996000  0.35008000  0.02390000  1.0 -0.055950511
C  C444  1  0.27004000  0.89992000  0.60394000  1.0 -0.055950511
C  C445  1  0.60394000  0.27004000  0.89992000  1.0 -0.055950511
C  C446  1  0.02390000  0.97996000  0.35008000  1.0 -0.055950511
C  C447  1  0.89992000  0.60394000  0.27004000  1.0 -0.055950511
C  C448  1  0.35008000  0.02390000  0.97996000  1.0 -0.055950511
C  C449  1  0.35008000  0.64606000  0.02390000  1.0 -0.055950511
C  C450  1  0.64606000  0.97996000  0.02390000  1.0 -0.055950511
C  C451  1  0.22610000  0.27004000  0.60394000  1.0 -0.055950511
C  C452  1  0.89992000  0.22610000  0.60394000  1.0 -0.055950511
C  C453  1  0.64606000  0.02390000  0.35008000  1.0 -0.055950511
C  C454  1  0.22610000  0.60394000  0.89992000  1.0 -0.055950511
C  C455  1  0.97996000  0.64606000  0.35008000  1.0 -0.055950511
C  C456  1  0.64606000  0.35008000  0.97996000  1.0 -0.055950511
C  C457  1  0.39992000  0.77004000  0.10394000  1.0 -0.055950511
C  C458  1  0.85008000  0.47996000  0.52390000  1.0 -0.055950511
C  C459  1  0.47996000  0.52390000  0.85008000  1.0 -0.055950511
C  C460  1  0.52390000  0.85008000  0.47996000  1.0 -0.055950511
C  C461  1  0.47996000  0.14606000  0.52390000  1.0 -0.055950511
C  C462  1  0.77004000  0.72610000  0.10394000  1.0 -0.055950511
C  C463  1  0.14606000  0.85008000  0.52390000  1.0 -0.055950511
C  C464  1  0.72610000  0.39992000  0.10394000  1.0 -0.055950511
C  C465  1  0.14606000  0.52390000  0.47996000  1.0 -0.055950511
C  C466  1  0.72610000  0.10394000  0.77004000  1.0 -0.055950511
C  C467  1  0.77004000  0.39992000  0.72610000  1.0 -0.055950511
C  C468  1  0.47996000  0.85008000  0.14606000  1.0 -0.055950511
C  C469  1  0.14606000  0.47996000  0.85008000  1.0 -0.055950511
C  C470  1  0.72610000  0.77004000  0.39992000  1.0 -0.055950511
C  C471  1  0.85008000  0.14606000  0.47996000  1.0 -0.055950511
C  C472  1  0.39992000  0.72610000  0.77004000  1.0 -0.055950511
C  C473  1  0.39992000  0.10394000  0.72610000  1.0 -0.055950511
C  C474  1  0.10394000  0.77004000  0.72610000  1.0 -0.055950511
C  C475  1  0.52390000  0.47996000  0.14606000  1.0 -0.055950511
C  C476  1  0.85008000  0.52390000  0.14606000  1.0 -0.055950511
C  C477  1  0.10394000  0.72610000  0.39992000  1.0 -0.055950511
C  C478  1  0.52390000  0.14606000  0.85008000  1.0 -0.055950511
C  C479  1  0.77004000  0.10394000  0.39992000  1.0 -0.055950511
C  C480  1  0.10394000  0.39992000  0.77004000  1.0 -0.055950511
C  C481  1  0.35270000  0.98108000  0.61350000  1.0 -0.028863239
C  C482  1  0.89730000  0.26892000  0.19728000  1.0 -0.028863239
C  C483  1  0.26892000  0.19728000  0.89730000  1.0 -0.028863239
C  C484  1  0.19728000  0.89730000  0.26892000  1.0 -0.028863239
C  C485  1  0.26892000  0.63650000  0.19728000  1.0 -0.028863239
C  C486  1  0.98108000  0.05272000  0.61350000  1.0 -0.028863239
C  C487  1  0.63650000  0.89730000  0.19728000  1.0 -0.028863239
C  C488  1  0.05272000  0.35270000  0.61350000  1.0 -0.028863239
C  C489  1  0.63650000  0.19728000  0.26892000  1.0 -0.028863239
C  C490  1  0.05272000  0.61350000  0.98108000  1.0 -0.028863239
C  C491  1  0.98108000  0.35270000  0.05272000  1.0 -0.028863239
C  C492  1  0.26892000  0.89730000  0.63650000  1.0 -0.028863239
C  C493  1  0.63650000  0.26892000  0.89730000  1.0 -0.028863239
C  C494  1  0.05272000  0.98108000  0.35270000  1.0 -0.028863239
C  C495  1  0.89730000  0.63650000  0.26892000  1.0 -0.028863239
C  C496  1  0.35270000  0.05272000  0.98108000  1.0 -0.028863239
C  C497  1  0.35270000  0.61350000  0.05272000  1.0 -0.028863239
C  C498  1  0.61350000  0.98108000  0.05272000  1.0 -0.028863239
C  C499  1  0.19728000  0.26892000  0.63650000  1.0 -0.028863239
C  C500  1  0.89730000  0.19728000  0.63650000  1.0 -0.028863239
C  C501  1  0.61350000  0.05272000  0.35270000  1.0 -0.028863239
C  C502  1  0.19728000  0.63650000  0.89730000  1.0 -0.028863239
C  C503  1  0.98108000  0.61350000  0.35270000  1.0 -0.028863239
C  C504  1  0.61350000  0.35270000  0.98108000  1.0 -0.028863239
C  C505  1  0.39730000  0.76892000  0.13650000  1.0 -0.028863239
C  C506  1  0.85270000  0.48108000  0.55272000  1.0 -0.028863239
C  C507  1  0.48108000  0.55272000  0.85270000  1.0 -0.028863239
C  C508  1  0.55272000  0.85270000  0.48108000  1.0 -0.028863239
C  C509  1  0.48108000  0.11350000  0.55272000  1.0 -0.028863239
C  C510  1  0.76892000  0.69728000  0.13650000  1.0 -0.028863239
C  C511  1  0.11350000  0.85270000  0.55272000  1.0 -0.028863239
C  C512  1  0.69728000  0.39730000  0.13650000  1.0 -0.028863239
C  C513  1  0.11350000  0.55272000  0.48108000  1.0 -0.028863239
C  C514  1  0.69728000  0.13650000  0.76892000  1.0 -0.028863239
C  C515  1  0.76892000  0.39730000  0.69728000  1.0 -0.028863239
C  C516  1  0.48108000  0.85270000  0.11350000  1.0 -0.028863239
C  C517  1  0.11350000  0.48108000  0.85270000  1.0 -0.028863239
C  C518  1  0.69728000  0.76892000  0.39730000  1.0 -0.028863239
C  C519  1  0.85270000  0.11350000  0.48108000  1.0 -0.028863239
C  C520  1  0.39730000  0.69728000  0.76892000  1.0 -0.028863239
C  C521  1  0.39730000  0.13650000  0.69728000  1.0 -0.028863239
C  C522  1  0.13650000  0.76892000  0.69728000  1.0 -0.028863239
C  C523  1  0.55272000  0.48108000  0.11350000  1.0 -0.028863239
C  C524  1  0.85270000  0.55272000  0.11350000  1.0 -0.028863239
C  C525  1  0.13650000  0.69728000  0.39730000  1.0 -0.028863239
C  C526  1  0.55272000  0.11350000  0.85270000  1.0 -0.028863239
C  C527  1  0.76892000  0.13650000  0.39730000  1.0 -0.028863239
C  C528  1  0.13650000  0.39730000  0.76892000  1.0 -0.028863239
C  C529  1  0.35895000  0.94905000  0.61049000  1.0 0.062146919
C  C530  1  0.89105000  0.30095000  0.16849000  1.0 0.062146919
C  C531  1  0.30095000  0.16849000  0.89105000  1.0 0.062146919
C  C532  1  0.16849000  0.89105000  0.30095000  1.0 0.062146919
C  C533  1  0.30095000  0.63951000  0.16849000  1.0 0.062146919
C  C534  1  0.94905000  0.08151000  0.61049000  1.0 0.062146919
C  C535  1  0.63951000  0.89105000  0.16849000  1.0 0.062146919
C  C536  1  0.08151000  0.35895000  0.61049000  1.0 0.062146919
C  C537  1  0.63951000  0.16849000  0.30095000  1.0 0.062146919
C  C538  1  0.08151000  0.61049000  0.94905000  1.0 0.062146919
C  C539  1  0.94905000  0.35895000  0.08151000  1.0 0.062146919
C  C540  1  0.30095000  0.89105000  0.63951000  1.0 0.062146919
C  C541  1  0.63951000  0.30095000  0.89105000  1.0 0.062146919
C  C542  1  0.08151000  0.94905000  0.35895000  1.0 0.062146919
C  C543  1  0.89105000  0.63951000  0.30095000  1.0 0.062146919
C  C544  1  0.35895000  0.08151000  0.94905000  1.0 0.062146919
C  C545  1  0.35895000  0.61049000  0.08151000  1.0 0.062146919
C  C546  1  0.61049000  0.94905000  0.08151000  1.0 0.062146919
C  C547  1  0.16849000  0.30095000  0.63951000  1.0 0.062146919
C  C548  1  0.89105000  0.16849000  0.63951000  1.0 0.062146919
C  C549  1  0.61049000  0.08151000  0.35895000  1.0 0.062146919
C  C550  1  0.16849000  0.63951000  0.89105000  1.0 0.062146919
C  C551  1  0.94905000  0.61049000  0.35895000  1.0 0.062146919
C  C552  1  0.61049000  0.35895000  0.94905000  1.0 0.062146919
C  C553  1  0.39105000  0.80095000  0.13951000  1.0 0.062146919
C  C554  1  0.85895000  0.44905000  0.58151000  1.0 0.062146919
C  C555  1  0.44905000  0.58151000  0.85895000  1.0 0.062146919
C  C556  1  0.58151000  0.85895000  0.44905000  1.0 0.062146919
C  C557  1  0.44905000  0.11049000  0.58151000  1.0 0.062146919
C  C558  1  0.80095000  0.66849000  0.13951000  1.0 0.062146919
C  C559  1  0.11049000  0.85895000  0.58151000  1.0 0.062146919
C  C560  1  0.66849000  0.39105000  0.13951000  1.0 0.062146919
C  C561  1  0.11049000  0.58151000  0.44905000  1.0 0.062146919
C  C562  1  0.66849000  0.13951000  0.80095000  1.0 0.062146919
C  C563  1  0.80095000  0.39105000  0.66849000  1.0 0.062146919
C  C564  1  0.44905000  0.85895000  0.11049000  1.0 0.062146919
C  C565  1  0.11049000  0.44905000  0.85895000  1.0 0.062146919
C  C566  1  0.66849000  0.80095000  0.39105000  1.0 0.062146919
C  C567  1  0.85895000  0.11049000  0.44905000  1.0 0.062146919
C  C568  1  0.39105000  0.66849000  0.80095000  1.0 0.062146919
C  C569  1  0.39105000  0.13951000  0.66849000  1.0 0.062146919
C  C570  1  0.13951000  0.80095000  0.66849000  1.0 0.062146919
C  C571  1  0.58151000  0.44905000  0.11049000  1.0 0.062146919
C  C572  1  0.85895000  0.58151000  0.11049000  1.0 0.062146919
C  C573  1  0.13951000  0.66849000  0.39105000  1.0 0.062146919
C  C574  1  0.58151000  0.11049000  0.85895000  1.0 0.062146919
C  C575  1  0.80095000  0.13951000  0.39105000  1.0 0.062146919
C  C576  1  0.13951000  0.39105000  0.80095000  1.0 0.062146919
C  C577  1  0.35114000  0.01478000  0.58162000  1.0 0.3757208854
C  C578  1  0.89886000  0.23522000  0.19754000  1.0 0.3757208854
C  C579  1  0.23522000  0.19754000  0.89886000  1.0 0.3757208854
C  C580  1  0.19754000  0.89886000  0.23522000  1.0 0.3757208854
C  C581  1  0.23522000  0.66838000  0.19754000  1.0 0.3757208854
C  C582  1  0.01478000  0.05246000  0.58162000  1.0 0.3757208854
C  C583  1  0.66838000  0.89886000  0.19754000  1.0 0.3757208854
C  C584  1  0.05246000  0.35114000  0.58162000  1.0 0.3706206258
C  C585  1  0.66838000  0.19754000  0.23522000  1.0 0.3757208854
C  C586  1  0.05246000  0.58162000  0.01478000  1.0 0.3757208854
C  C587  1  0.01478000  0.35114000  0.05246000  1.0 0.3757208854
C  C588  1  0.23522000  0.89886000  0.66838000  1.0 0.3757208854
C  C589  1  0.66838000  0.23522000  0.89886000  1.0 0.3706206258
C  C590  1  0.05246000  0.01478000  0.35114000  1.0 0.3757208854
C  C591  1  0.89886000  0.66838000  0.23522000  1.0 0.3706206258
C  C592  1  0.35114000  0.05246000  0.01478000  1.0 0.3757208854
C  C593  1  0.35114000  0.58162000  0.05246000  1.0 0.3757208854
C  C594  1  0.58162000  0.01478000  0.05246000  1.0 0.3757208854
C  C595  1  0.19754000  0.23522000  0.66838000  1.0 0.3706206258
C  C596  1  0.89886000  0.19754000  0.66838000  1.0 0.3706206258
C  C597  1  0.58162000  0.05246000  0.35114000  1.0 0.3706206258
C  C598  1  0.19754000  0.66838000  0.89886000  1.0 0.3757208854
C  C599  1  0.01478000  0.58162000  0.35114000  1.0 0.3757208854
C  C600  1  0.58162000  0.35114000  0.01478000  1.0 0.3757208854
C  C601  1  0.39886000  0.73522000  0.16838000  1.0 0.3757208854
C  C602  1  0.85114000  0.51478000  0.55246000  1.0 0.3706206258
C  C603  1  0.51478000  0.55246000  0.85114000  1.0 0.3757208854
C  C604  1  0.55246000  0.85114000  0.51478000  1.0 0.3757208854
C  C605  1  0.51478000  0.08162000  0.55246000  1.0 0.3706206258
C  C606  1  0.73522000  0.69754000  0.16838000  1.0 0.3757208854
C  C607  1  0.08162000  0.85114000  0.55246000  1.0 0.3757208854
C  C608  1  0.69754000  0.39886000  0.16838000  1.0 0.3757208854
C  C609  1  0.08162000  0.55246000  0.51478000  1.0 0.3757208854
C  C610  1  0.69754000  0.16838000  0.73522000  1.0 0.3706206258
C  C611  1  0.73522000  0.39886000  0.69754000  1.0 0.3706206258
C  C612  1  0.51478000  0.85114000  0.08162000  1.0 0.3757208854
C  C613  1  0.08162000  0.51478000  0.85114000  1.0 0.3757208854
C  C614  1  0.69754000  0.73522000  0.39886000  1.0 0.3757208854
C  C615  1  0.85114000  0.08162000  0.51478000  1.0 0.3706206258
C  C616  1  0.39886000  0.69754000  0.73522000  1.0 0.3706206258
C  C617  1  0.39886000  0.16838000  0.69754000  1.0 0.3706206258
C  C618  1  0.16838000  0.73522000  0.69754000  1.0 0.3757208854
C  C619  1  0.55246000  0.51478000  0.08162000  1.0 0.3757208854
C  C620  1  0.85114000  0.55246000  0.08162000  1.0 0.3757208854
C  C621  1  0.16838000  0.69754000  0.39886000  1.0 0.3757208854
C  C622  1  0.55246000  0.08162000  0.85114000  1.0 0.3706206258
C  C623  1  0.73522000  0.16838000  0.39886000  1.0 0.3757208854
C  C624  1  0.16838000  0.39886000  0.73522000  1.0 0.3757208854
C  C625  1  0.35767000  0.04215000  0.52181000  1.0 0.3706206258
C  C626  1  0.89233000  0.20785000  0.17163000  1.0 0.3706206258
C  C627  1  0.20785000  0.17163000  0.89233000  1.0 0.3706206258
C  C628  1  0.17163000  0.89233000  0.20785000  1.0 0.3706206258
C  C629  1  0.20785000  0.72819000  0.17163000  1.0 0.3706206258
C  C630  1  0.04215000  0.07837000  0.52181000  1.0 0.3706206258
C  C631  1  0.72819000  0.89233000  0.17163000  1.0 0.3706206258
C  C632  1  0.07837000  0.35767000  0.52181000  1.0 0.3706206258
C  C633  1  0.72819000  0.17163000  0.20785000  1.0 0.3706206258
C  C634  1  0.07837000  0.52181000  0.04215000  1.0 0.3706206258
C  C635  1  0.04215000  0.35767000  0.07837000  1.0 0.3706206258
C  C636  1  0.20785000  0.89233000  0.72819000  1.0 0.3706206258
C  C637  1  0.72819000  0.20785000  0.89233000  1.0 0.3706206258
C  C638  1  0.07837000  0.04215000  0.35767000  1.0 0.3706206258
C  C639  1  0.89233000  0.72819000  0.20785000  1.0 0.3706206258
C  C640  1  0.35767000  0.07837000  0.04215000  1.0 0.3706206258
C  C641  1  0.35767000  0.52181000  0.07837000  1.0 0.3706206258
C  C642  1  0.52181000  0.04215000  0.07837000  1.0 0.3706206258
C  C643  1  0.17163000  0.20785000  0.72819000  1.0 0.3706206258
C  C644  1  0.89233000  0.17163000  0.72819000  1.0 0.3706206258
C  C645  1  0.52181000  0.07837000  0.35767000  1.0 0.3706206258
C  C646  1  0.17163000  0.72819000  0.89233000  1.0 0.3706206258
C  C647  1  0.04215000  0.52181000  0.35767000  1.0 0.3706206258
C  C648  1  0.52181000  0.35767000  0.04215000  1.0 0.3706206258
C  C649  1  0.39233000  0.70785000  0.22819000  1.0 0.3706206258
C  C650  1  0.85767000  0.54215000  0.57837000  1.0 0.3706206258
C  C651  1  0.54215000  0.57837000  0.85767000  1.0 0.3706206258
C  C652  1  0.57837000  0.85767000  0.54215000  1.0 0.3706206258
C  C653  1  0.54215000  0.02181000  0.57837000  1.0 0.3706206258
C  C654  1  0.70785000  0.67163000  0.22819000  1.0 0.3706206258
C  C655  1  0.02181000  0.85767000  0.57837000  1.0 0.3706206258
C  C656  1  0.67163000  0.39233000  0.22819000  1.0 0.3706206258
C  C657  1  0.02181000  0.57837000  0.54215000  1.0 0.3706206258
C  C658  1  0.67163000  0.22819000  0.70785000  1.0 0.3706206258
C  C659  1  0.70785000  0.39233000  0.67163000  1.0 0.3706206258
C  C660  1  0.54215000  0.85767000  0.02181000  1.0 0.3706206258
C  C661  1  0.02181000  0.54215000  0.85767000  1.0 0.3706206258
C  C662  1  0.67163000  0.70785000  0.39233000  1.0 0.3706206258
C  C663  1  0.85767000  0.02181000  0.54215000  1.0 0.3706206258
C  C664  1  0.39233000  0.67163000  0.70785000  1.0 0.3706206258
C  C665  1  0.39233000  0.22819000  0.67163000  1.0 0.3706206258
C  C666  1  0.22819000  0.70785000  0.67163000  1.0 0.3706206258
C  C667  1  0.57837000  0.54215000  0.02181000  1.0 0.3706206258
C  C668  1  0.85767000  0.57837000  0.02181000  1.0 0.3706206258
C  C669  1  0.22819000  0.67163000  0.39233000  1.0 0.3706206258
C  C670  1  0.57837000  0.02181000  0.85767000  1.0 0.3706206258
C  C671  1  0.70785000  0.22819000  0.39233000  1.0 0.3706206258
C  C672  1  0.22819000  0.39233000  0.70785000  1.0 0.3706206258
C  C673  1  0.34239000  0.07489000  0.55555000  1.0 0.3706206258
C  C674  1  0.90761000  0.17511000  0.22283000  1.0 0.3706206258
C  C675  1  0.17511000  0.22283000  0.90761000  1.0 0.3706206258
C  C676  1  0.22283000  0.90761000  0.17511000  1.0 0.3706206258
C  C677  1  0.17511000  0.69445000  0.22283000  1.0 0.3706206258
C  C678  1  0.07489000  0.02717000  0.55555000  1.0 0.3706206258
C  C679  1  0.69445000  0.90761000  0.22283000  1.0 0.3706206258
C  C680  1  0.02717000  0.34239000  0.55555000  1.0 0.3706206258
C  C681  1  0.69445000  0.22283000  0.17511000  1.0 0.3706206258
C  C682  1  0.02717000  0.55555000  0.07489000  1.0 0.3706206258
C  C683  1  0.07489000  0.34239000  0.02717000  1.0 0.3706206258
C  C684  1  0.17511000  0.90761000  0.69445000  1.0 0.3706206258
C  C685  1  0.69445000  0.17511000  0.90761000  1.0 0.3706206258
C  C686  1  0.02717000  0.07489000  0.34239000  1.0 0.3706206258
C  C687  1  0.90761000  0.69445000  0.17511000  1.0 0.3706206258
C  C688  1  0.34239000  0.02717000  0.07489000  1.0 0.3706206258
C  C689  1  0.34239000  0.55555000  0.02717000  1.0 0.3706206258
C  C690  1  0.55555000  0.07489000  0.02717000  1.0 0.3706206258
C  C691  1  0.22283000  0.17511000  0.69445000  1.0 0.3706206258
C  C692  1  0.90761000  0.22283000  0.69445000  1.0 0.3706206258
C  C693  1  0.55555000  0.02717000  0.34239000  1.0 0.3706206258
C  C694  1  0.22283000  0.69445000  0.90761000  1.0 0.3706206258
C  C695  1  0.07489000  0.55555000  0.34239000  1.0 0.3706206258
C  C696  1  0.55555000  0.34239000  0.07489000  1.0 0.3706206258
C  C697  1  0.40761000  0.67511000  0.19445000  1.0 0.3706206258
C  C698  1  0.84239000  0.57489000  0.52717000  1.0 0.3706206258
C  C699  1  0.57489000  0.52717000  0.84239000  1.0 0.3706206258
C  C700  1  0.52717000  0.84239000  0.57489000  1.0 0.3706206258
C  C701  1  0.57489000  0.05555000  0.52717000  1.0 0.3706206258
C  C702  1  0.67511000  0.72283000  0.19445000  1.0 0.3706206258
C  C703  1  0.05555000  0.84239000  0.52717000  1.0 0.3706206258
C  C704  1  0.72283000  0.40761000  0.19445000  1.0 0.3706206258
C  C705  1  0.05555000  0.52717000  0.57489000  1.0 0.3706206258
C  C706  1  0.72283000  0.19445000  0.67511000  1.0 0.3706206258
C  C707  1  0.67511000  0.40761000  0.72283000  1.0 0.3706206258
C  C708  1  0.57489000  0.84239000  0.05555000  1.0 0.3706206258
C  C709  1  0.05555000  0.57489000  0.84239000  1.0 0.3706206258
C  C710  1  0.72283000  0.67511000  0.40761000  1.0 0.3706206258
C  C711  1  0.84239000  0.05555000  0.57489000  1.0 0.3706206258
C  C712  1  0.40761000  0.72283000  0.67511000  1.0 0.3706206258
C  C713  1  0.40761000  0.19445000  0.72283000  1.0 0.3706206258
C  C714  1  0.19445000  0.67511000  0.72283000  1.0 0.3706206258
C  C715  1  0.52717000  0.57489000  0.05555000  1.0 0.3706206258
C  C716  1  0.84239000  0.52717000  0.05555000  1.0 0.3706206258
C  C717  1  0.19445000  0.72283000  0.40761000  1.0 0.3706206258
C  C718  1  0.52717000  0.05555000  0.84239000  1.0 0.3706206258
C  C719  1  0.67511000  0.19445000  0.40761000  1.0 0.3706206258
C  C720  1  0.19445000  0.40761000  0.67511000  1.0 0.3706206258
C  C721  1  0.37064000  0.07092000  0.45550000  1.0 0.062146919
C  C722  1  0.87936000  0.17908000  0.14706000  1.0 0.062146919
C  C723  1  0.17908000  0.14706000  0.87936000  1.0 0.062146919
C  C724  1  0.14706000  0.87936000  0.17908000  1.0 0.062146919
C  C725  1  0.17908000  0.79450000  0.14706000  1.0 0.062146919
C  C726  1  0.07092000  0.10294000  0.45550000  1.0 0.062146919
C  C727  1  0.79450000  0.87936000  0.14706000  1.0 0.062146919
C  C728  1  0.10294000  0.37064000  0.45550000  1.0 0.062146919
C  C729  1  0.79450000  0.14706000  0.17908000  1.0 0.062146919
C  C730  1  0.10294000  0.45550000  0.07092000  1.0 0.062146919
C  C731  1  0.07092000  0.37064000  0.10294000  1.0 0.062146919
C  C732  1  0.17908000  0.87936000  0.79450000  1.0 0.062146919
C  C733  1  0.79450000  0.17908000  0.87936000  1.0 0.062146919
C  C734  1  0.10294000  0.07092000  0.37064000  1.0 0.062146919
C  C735  1  0.87936000  0.79450000  0.17908000  1.0 0.062146919
C  C736  1  0.37064000  0.10294000  0.07092000  1.0 0.062146919
C  C737  1  0.37064000  0.45550000  0.10294000  1.0 0.062146919
C  C738  1  0.45550000  0.07092000  0.10294000  1.0 0.062146919
C  C739  1  0.14706000  0.17908000  0.79450000  1.0 0.062146919
C  C740  1  0.87936000  0.14706000  0.79450000  1.0 0.062146919
C  C741  1  0.45550000  0.10294000  0.37064000  1.0 0.062146919
C  C742  1  0.14706000  0.79450000  0.87936000  1.0 0.062146919
C  C743  1  0.07092000  0.45550000  0.37064000  1.0 0.062146919
C  C744  1  0.45550000  0.37064000  0.07092000  1.0 0.062146919
C  C745  1  0.37936000  0.67908000  0.29450000  1.0 0.062146919
C  C746  1  0.87064000  0.57092000  0.60294000  1.0 0.062146919
C  C747  1  0.57092000  0.60294000  0.87064000  1.0 0.062146919
C  C748  1  0.60294000  0.87064000  0.57092000  1.0 0.062146919
C  C749  1  0.57092000  0.95550000  0.60294000  1.0 0.062146919
C  C750  1  0.67908000  0.64706000  0.29450000  1.0 0.062146919
C  C751  1  0.95550000  0.87064000  0.60294000  1.0 0.062146919
C  C752  1  0.64706000  0.37936000  0.29450000  1.0 0.062146919
C  C753  1  0.95550000  0.60294000  0.57092000  1.0 0.062146919
C  C754  1  0.64706000  0.29450000  0.67908000  1.0 0.062146919
C  C755  1  0.67908000  0.37936000  0.64706000  1.0 0.062146919
C  C756  1  0.57092000  0.87064000  0.95550000  1.0 0.062146919
C  C757  1  0.95550000  0.57092000  0.87064000  1.0 0.062146919
C  C758  1  0.64706000  0.67908000  0.37936000  1.0 0.062146919
C  C759  1  0.87064000  0.95550000  0.57092000  1.0 0.062146919
C  C760  1  0.37936000  0.64706000  0.67908000  1.0 0.062146919
C  C761  1  0.37936000  0.29450000  0.64706000  1.0 0.062146919
C  C762  1  0.29450000  0.67908000  0.64706000  1.0 0.062146919
C  C763  1  0.60294000  0.57092000  0.95550000  1.0 0.062146919
C  C764  1  0.87064000  0.60294000  0.95550000  1.0 0.062146919
C  C765  1  0.29450000  0.64706000  0.37936000  1.0 0.062146919
C  C766  1  0.60294000  0.95550000  0.87064000  1.0 0.062146919
C  C767  1  0.67908000  0.29450000  0.37936000  1.0 0.062146919
C  C768  1  0.29450000  0.37936000  0.67908000  1.0 0.062146919
C  C769  1  0.36812000  0.04018000  0.48632000  1.0 -0.028863239
C  C770  1  0.88188000  0.20982000  0.14462000  1.0 -0.028863239
C  C771  1  0.20982000  0.14462000  0.88188000  1.0 -0.028863239
C  C772  1  0.14462000  0.88188000  0.20982000  1.0 -0.028863239
C  C773  1  0.20982000  0.76368000  0.14462000  1.0 -0.028863239
C  C774  1  0.04018000  0.10538000  0.48632000  1.0 -0.028863239
C  C775  1  0.76368000  0.88188000  0.14462000  1.0 -0.028863239
C  C776  1  0.10538000  0.36812000  0.48632000  1.0 -0.028863239
C  C777  1  0.76368000  0.14462000  0.20982000  1.0 -0.028863239
C  C778  1  0.10538000  0.48632000  0.04018000  1.0 -0.028863239
C  C779  1  0.04018000  0.36812000  0.10538000  1.0 -0.028863239
C  C780  1  0.20982000  0.88188000  0.76368000  1.0 -0.028863239
C  C781  1  0.76368000  0.20982000  0.88188000  1.0 -0.028863239
C  C782  1  0.10538000  0.04018000  0.36812000  1.0 -0.028863239
C  C783  1  0.88188000  0.76368000  0.20982000  1.0 -0.028863239
C  C784  1  0.36812000  0.10538000  0.04018000  1.0 -0.028863239
C  C785  1  0.36812000  0.48632000  0.10538000  1.0 -0.028863239
C  C786  1  0.48632000  0.04018000  0.10538000  1.0 -0.028863239
C  C787  1  0.14462000  0.20982000  0.76368000  1.0 -0.028863239
C  C788  1  0.88188000  0.14462000  0.76368000  1.0 -0.028863239
C  C789  1  0.48632000  0.10538000  0.36812000  1.0 -0.028863239
C  C790  1  0.14462000  0.76368000  0.88188000  1.0 -0.028863239
C  C791  1  0.04018000  0.48632000  0.36812000  1.0 -0.028863239
C  C792  1  0.48632000  0.36812000  0.04018000  1.0 -0.028863239
C  C793  1  0.38188000  0.70982000  0.26368000  1.0 -0.028863239
C  C794  1  0.86812000  0.54018000  0.60538000  1.0 -0.028863239
C  C795  1  0.54018000  0.60538000  0.86812000  1.0 -0.028863239
C  C796  1  0.60538000  0.86812000  0.54018000  1.0 -0.028863239
C  C797  1  0.54018000  0.98632000  0.60538000  1.0 -0.028863239
C  C798  1  0.70982000  0.64462000  0.26368000  1.0 -0.028863239
C  C799  1  0.98632000  0.86812000  0.60538000  1.0 -0.028863239
C  C800  1  0.64462000  0.38188000  0.26368000  1.0 -0.028863239
C  C801  1  0.98632000  0.60538000  0.54018000  1.0 -0.028863239
C  C802  1  0.64462000  0.26368000  0.70982000  1.0 -0.028863239
C  C803  1  0.70982000  0.38188000  0.64462000  1.0 -0.028863239
C  C804  1  0.54018000  0.86812000  0.98632000  1.0 -0.028863239
C  C805  1  0.98632000  0.54018000  0.86812000  1.0 -0.028863239
C  C806  1  0.64462000  0.70982000  0.38188000  1.0 -0.028863239
C  C807  1  0.86812000  0.98632000  0.54018000  1.0 -0.028863239
C  C808  1  0.38188000  0.64462000  0.70982000  1.0 -0.028863239
C  C809  1  0.38188000  0.26368000  0.64462000  1.0 -0.028863239
C  C810  1  0.26368000  0.70982000  0.64462000  1.0 -0.028863239
C  C811  1  0.60538000  0.54018000  0.98632000  1.0 -0.028863239
C  C812  1  0.86812000  0.60538000  0.98632000  1.0 -0.028863239
C  C813  1  0.26368000  0.64462000  0.38188000  1.0 -0.028863239
C  C814  1  0.60538000  0.98632000  0.86812000  1.0 -0.028863239
C  C815  1  0.70982000  0.26368000  0.38188000  1.0 -0.028863239
C  C816  1  0.26368000  0.38188000  0.70982000  1.0 -0.028863239
C  C817  1  0.37801000  0.00767000  0.48189000  1.0 -0.0511895205
C  C818  1  0.87199000  0.24233000  0.11757000  1.0 -0.0511895205
C  C819  1  0.24233000  0.11757000  0.87199000  1.0 -0.0511895205
C  C820  1  0.11757000  0.87199000  0.24233000  1.0 -0.055950511
C  C821  1  0.24233000  0.76811000  0.11757000  1.0 -0.055950511
C  C822  1  0.00767000  0.13243000  0.48189000  1.0 -0.055950511
C  C823  1  0.76811000  0.87199000  0.11757000  1.0 -0.0511895205
C  C824  1  0.13243000  0.37801000  0.48189000  1.0 -0.0511895205
C  C825  1  0.76811000  0.11757000  0.24233000  1.0 -0.0511895205
C  C826  1  0.13243000  0.48189000  0.00767000  1.0 -0.055950511
C  C827  1  0.00767000  0.37801000  0.13243000  1.0 -0.055950511
C  C828  1  0.24233000  0.87199000  0.76811000  1.0 -0.0511895205
C  C829  1  0.76811000  0.24233000  0.87199000  1.0 -0.0511895205
C  C830  1  0.13243000  0.00767000  0.37801000  1.0 -0.055950511
C  C831  1  0.87199000  0.76811000  0.24233000  1.0 -0.0511895205
C  C832  1  0.37801000  0.13243000  0.00767000  1.0 -0.0511895205
C  C833  1  0.37801000  0.48189000  0.13243000  1.0 -0.0511895205
C  C834  1  0.48189000  0.00767000  0.13243000  1.0 -0.0511895205
C  C835  1  0.11757000  0.24233000  0.76811000  1.0 -0.055950511
C  C836  1  0.87199000  0.11757000  0.76811000  1.0 -0.0511895205
C  C837  1  0.48189000  0.13243000  0.37801000  1.0 -0.0511895205
C  C838  1  0.11757000  0.76811000  0.87199000  1.0 -0.055950511
C  C839  1  0.00767000  0.48189000  0.37801000  1.0 -0.055950511
C  C840  1  0.48189000  0.37801000  0.00767000  1.0 -0.0511895205
C  C841  1  0.37199000  0.74233000  0.26811000  1.0 -0.0511895205
C  C842  1  0.87801000  0.50767000  0.63243000  1.0 -0.0511895205
C  C843  1  0.50767000  0.63243000  0.87801000  1.0 -0.055950511
C  C844  1  0.63243000  0.87801000  0.50767000  1.0 -0.0511895205
C  C845  1  0.50767000  0.98189000  0.63243000  1.0 -0.055950511
C  C846  1  0.74233000  0.61757000  0.26811000  1.0 -0.0511895205
C  C847  1  0.98189000  0.87801000  0.63243000  1.0 -0.0511895205
C  C848  1  0.61757000  0.37199000  0.26811000  1.0 -0.055950511
C  C849  1  0.98189000  0.63243000  0.50767000  1.0 -0.055950511
C  C850  1  0.61757000  0.26811000  0.74233000  1.0 -0.0511895205
C  C851  1  0.74233000  0.37199000  0.61757000  1.0 -0.0511895205
C  C852  1  0.50767000  0.87801000  0.98189000  1.0 -0.055950511
C  C853  1  0.98189000  0.50767000  0.87801000  1.0 -0.055950511
C  C854  1  0.61757000  0.74233000  0.37199000  1.0 -0.0511895205
C  C855  1  0.87801000  0.98189000  0.50767000  1.0 -0.0511895205
C  C856  1  0.37199000  0.61757000  0.74233000  1.0 -0.055950511
C  C857  1  0.37199000  0.26811000  0.61757000  1.0 -0.055950511
C  C858  1  0.26811000  0.74233000  0.61757000  1.0 -0.0511895205
C  C859  1  0.63243000  0.50767000  0.98189000  1.0 -0.055950511
C  C860  1  0.87801000  0.63243000  0.98189000  1.0 -0.0511895205
C  C861  1  0.26811000  0.61757000  0.37199000  1.0 -0.055950511
C  C862  1  0.63243000  0.98189000  0.87801000  1.0 -0.0511895205
C  C863  1  0.74233000  0.26811000  0.37199000  1.0 -0.0511895205
C  C864  1  0.26811000  0.37199000  0.74233000  1.0 -0.055950511
C  C865  1  0.38776000  0.00800000  0.44766000  1.0 -0.1200825351
C  C866  1  0.86224000  0.24200000  0.09342000  1.0 -0.1200825351
C  C867  1  0.24200000  0.09342000  0.86224000  1.0 -0.1200825351
C  C868  1  0.09342000  0.86224000  0.24200000  1.0 -0.1200825351
C  C869  1  0.24200000  0.80234000  0.09342000  1.0 -0.1200825351
C  C870  1  0.00800000  0.15658000  0.44766000  1.0 -0.1200825351
C  C871  1  0.80234000  0.86224000  0.09342000  1.0 -0.1200825351
C  C872  1  0.15658000  0.38776000  0.44766000  1.0 -0.1200825351
C  C873  1  0.80234000  0.09342000  0.24200000  1.0 -0.1200825351
C  C874  1  0.15658000  0.44766000  0.00800000  1.0 -0.1200825351
C  C875  1  0.00800000  0.38776000  0.15658000  1.0 -0.1200825351
C  C876  1  0.24200000  0.86224000  0.80234000  1.0 -0.1200825351
C  C877  1  0.80234000  0.24200000  0.86224000  1.0 -0.1200825351
C  C878  1  0.15658000  0.00800000  0.38776000  1.0 -0.1200825351
C  C879  1  0.86224000  0.80234000  0.24200000  1.0 -0.1200825351
C  C880  1  0.38776000  0.15658000  0.00800000  1.0 -0.1200825351
C  C881  1  0.38776000  0.44766000  0.15658000  1.0 -0.1200825351
C  C882  1  0.44766000  0.00800000  0.15658000  1.0 -0.1200825351
C  C883  1  0.09342000  0.24200000  0.80234000  1.0 -0.1200825351
C  C884  1  0.86224000  0.09342000  0.80234000  1.0 -0.1200825351
C  C885  1  0.44766000  0.15658000  0.38776000  1.0 -0.1200825351
C  C886  1  0.09342000  0.80234000  0.86224000  1.0 -0.1200825351
C  C887  1  0.00800000  0.44766000  0.38776000  1.0 -0.1200825351
C  C888  1  0.44766000  0.38776000  0.00800000  1.0 -0.1200825351
C  C889  1  0.36224000  0.74200000  0.30234000  1.0 -0.1200825351
C  C890  1  0.88776000  0.50800000  0.65658000  1.0 -0.1200825351
C  C891  1  0.50800000  0.65658000  0.88776000  1.0 -0.1200825351
C  C892  1  0.65658000  0.88776000  0.50800000  1.0 -0.1200825351
C  C893  1  0.50800000  0.94766000  0.65658000  1.0 -0.1200825351
C  C894  1  0.74200000  0.59342000  0.30234000  1.0 -0.1200825351
C  C895  1  0.94766000  0.88776000  0.65658000  1.0 -0.1200825351
C  C896  1  0.59342000  0.36224000  0.30234000  1.0 -0.1200825351
C  C897  1  0.94766000  0.65658000  0.50800000  1.0 -0.1200825351
C  C898  1  0.59342000  0.30234000  0.74200000  1.0 -0.1200825351
C  C899  1  0.74200000  0.36224000  0.59342000  1.0 -0.1200825351
C  C900  1  0.50800000  0.88776000  0.94766000  1.0 -0.1200825351
C  C901  1  0.94766000  0.50800000  0.88776000  1.0 -0.1200825351
C  C902  1  0.59342000  0.74200000  0.36224000  1.0 -0.1200825351
C  C903  1  0.88776000  0.94766000  0.50800000  1.0 -0.1200825351
C  C904  1  0.36224000  0.59342000  0.74200000  1.0 -0.1200825351
C  C905  1  0.36224000  0.30234000  0.59342000  1.0 -0.1200825351
C  C906  1  0.30234000  0.74200000  0.59342000  1.0 -0.1200825351
C  C907  1  0.65658000  0.50800000  0.94766000  1.0 -0.1200825351
C  C908  1  0.88776000  0.65658000  0.94766000  1.0 -0.1200825351
C  C909  1  0.30234000  0.59342000  0.36224000  1.0 -0.1200825351
C  C910  1  0.65658000  0.94766000  0.88776000  1.0 -0.1200825351
C  C911  1  0.74200000  0.30234000  0.36224000  1.0 -0.1200825351
C  C912  1  0.30234000  0.36224000  0.74200000  1.0 -0.1200825351
C  C913  1  0.38907000  0.04027000  0.41797000  1.0 0.0785241944
C  C914  1  0.86093000  0.20973000  0.09731000  1.0 0.0785241944
C  C915  1  0.20973000  0.09731000  0.86093000  1.0 0.0785241944
C  C916  1  0.09731000  0.86093000  0.20973000  1.0 0.0785241944
C  C917  1  0.20973000  0.83203000  0.09731000  1.0 0.0785241944
C  C918  1  0.04027000  0.15269000  0.41797000  1.0 0.0785241944
C  C919  1  0.83203000  0.86093000  0.09731000  1.0 0.0785241944
C  C920  1  0.15269000  0.38907000  0.41797000  1.0 0.0785241944
C  C921  1  0.83203000  0.09731000  0.20973000  1.0 0.0785241944
C  C922  1  0.15269000  0.41797000  0.04027000  1.0 0.0785241944
C  C923  1  0.04027000  0.38907000  0.15269000  1.0 0.0785241944
C  C924  1  0.20973000  0.86093000  0.83203000  1.0 0.0785241944
C  C925  1  0.83203000  0.20973000  0.86093000  1.0 0.0785241944
C  C926  1  0.15269000  0.04027000  0.38907000  1.0 0.0785241944
C  C927  1  0.86093000  0.83203000  0.20973000  1.0 0.0785241944
C  C928  1  0.38907000  0.15269000  0.04027000  1.0 0.0785241944
C  C929  1  0.38907000  0.41797000  0.15269000  1.0 0.0785241944
C  C930  1  0.41797000  0.04027000  0.15269000  1.0 0.0785241944
C  C931  1  0.09731000  0.20973000  0.83203000  1.0 0.0785241944
C  C932  1  0.86093000  0.09731000  0.83203000  1.0 0.0785241944
C  C933  1  0.41797000  0.15269000  0.38907000  1.0 0.0785241944
C  C934  1  0.09731000  0.83203000  0.86093000  1.0 0.0785241944
C  C935  1  0.04027000  0.41797000  0.38907000  1.0 0.0785241944
C  C936  1  0.41797000  0.38907000  0.04027000  1.0 0.0785241944
C  C937  1  0.36093000  0.70973000  0.33203000  1.0 0.0785241944
C  C938  1  0.88907000  0.54027000  0.65269000  1.0 0.0785241944
C  C939  1  0.54027000  0.65269000  0.88907000  1.0 0.0785241944
C  C940  1  0.65269000  0.88907000  0.54027000  1.0 0.0785241944
C  C941  1  0.54027000  0.91797000  0.65269000  1.0 0.0785241944
C  C942  1  0.70973000  0.59731000  0.33203000  1.0 0.0785241944
C  C943  1  0.91797000  0.88907000  0.65269000  1.0 0.0785241944
C  C944  1  0.59731000  0.36093000  0.33203000  1.0 0.0785241944
C  C945  1  0.91797000  0.65269000  0.54027000  1.0 0.0785241944
C  C946  1  0.59731000  0.33203000  0.70973000  1.0 0.0785241944
C  C947  1  0.70973000  0.36093000  0.59731000  1.0 0.0785241944
C  C948  1  0.54027000  0.88907000  0.91797000  1.0 0.0785241944
C  C949  1  0.91797000  0.54027000  0.88907000  1.0 0.0785241944
C  C950  1  0.59731000  0.70973000  0.36093000  1.0 0.0785241944
C  C951  1  0.88907000  0.91797000  0.54027000  1.0 0.0785241944
C  C952  1  0.36093000  0.59731000  0.70973000  1.0 0.0785241944
C  C953  1  0.36093000  0.33203000  0.59731000  1.0 0.0785241944
C  C954  1  0.33203000  0.70973000  0.59731000  1.0 0.0785241944
C  C955  1  0.65269000  0.54027000  0.91797000  1.0 0.0785241944
C  C956  1  0.88907000  0.65269000  0.91797000  1.0 0.0785241944
C  C957  1  0.33203000  0.59731000  0.36093000  1.0 0.0785241944
C  C958  1  0.65269000  0.91797000  0.88907000  1.0 0.0785241944
C  C959  1  0.70973000  0.33203000  0.36093000  1.0 0.0785241944
C  C960  1  0.33203000  0.36093000  0.70973000  1.0 0.0785241944
C  C961  1  0.30170000  0.11438000  0.41332000  1.0 0.0730803115
C  C962  1  0.94830000  0.13562000  0.07940000  1.0 0.0730803115
C  C963  1  0.13562000  0.07940000  0.94830000  1.0 0.0730803115
C  C964  1  0.07940000  0.94830000  0.13562000  1.0 0.0730803115
C  C965  1  0.13562000  0.83668000  0.07940000  1.0 0.0730803115
C  C966  1  0.11438000  0.17060000  0.41332000  1.0 0.0730803115
C  C967  1  0.83668000  0.94830000  0.07940000  1.0 0.0730803115
C  C968  1  0.17060000  0.30170000  0.41332000  1.0 0.0730803115
C  C969  1  0.83668000  0.07940000  0.13562000  1.0 0.0730803115
C  C970  1  0.17060000  0.41332000  0.11438000  1.0 0.0730803115
C  C971  1  0.11438000  0.30170000  0.17060000  1.0 0.0730803115
C  C972  1  0.13562000  0.94830000  0.83668000  1.0 0.0730803115
C  C973  1  0.83668000  0.13562000  0.94830000  1.0 0.0730803115
C  C974  1  0.17060000  0.11438000  0.30170000  1.0 0.0730803115
C  C975  1  0.94830000  0.83668000  0.13562000  1.0 0.0730803115
C  C976  1  0.30170000  0.17060000  0.11438000  1.0 0.0730803115
C  C977  1  0.30170000  0.41332000  0.17060000  1.0 0.0730803115
C  C978  1  0.41332000  0.11438000  0.17060000  1.0 0.0730803115
C  C979  1  0.07940000  0.13562000  0.83668000  1.0 0.0730803115
C  C980  1  0.94830000  0.07940000  0.83668000  1.0 0.0730803115
C  C981  1  0.41332000  0.17060000  0.30170000  1.0 0.0730803115
C  C982  1  0.07940000  0.83668000  0.94830000  1.0 0.0730803115
C  C983  1  0.11438000  0.41332000  0.30170000  1.0 0.0730803115
C  C984  1  0.41332000  0.30170000  0.11438000  1.0 0.0730803115
C  C985  1  0.44830000  0.63562000  0.33668000  1.0 0.0730803115
C  C986  1  0.80170000  0.61438000  0.67060000  1.0 0.0730803115
C  C987  1  0.61438000  0.67060000  0.80170000  1.0 0.0730803115
C  C988  1  0.67060000  0.80170000  0.61438000  1.0 0.0730803115
C  C989  1  0.61438000  0.91332000  0.67060000  1.0 0.0730803115
C  C990  1  0.63562000  0.57940000  0.33668000  1.0 0.0730803115
C  C991  1  0.91332000  0.80170000  0.67060000  1.0 0.0730803115
C  C992  1  0.57940000  0.44830000  0.33668000  1.0 0.0730803115
C  C993  1  0.91332000  0.67060000  0.61438000  1.0 0.0730803115
C  C994  1  0.57940000  0.33668000  0.63562000  1.0 0.0730803115
C  C995  1  0.63562000  0.44830000  0.57940000  1.0 0.0730803115
C  C996  1  0.61438000  0.80170000  0.91332000  1.0 0.0730803115
C  C997  1  0.91332000  0.61438000  0.80170000  1.0 0.0730803115
C  C998  1  0.57940000  0.63562000  0.44830000  1.0 0.0730803115
C  C999  1  0.80170000  0.91332000  0.61438000  1.0 0.0730803115
C  C1000  1  0.44830000  0.57940000  0.63562000  1.0 0.0730803115
C  C1001  1  0.44830000  0.33668000  0.57940000  1.0 0.0730803115
C  C1002  1  0.33668000  0.63562000  0.57940000  1.0 0.0730803115
C  C1003  1  0.67060000  0.61438000  0.91332000  1.0 0.0730803115
C  C1004  1  0.80170000  0.67060000  0.91332000  1.0 0.0730803115
C  C1005  1  0.33668000  0.57940000  0.44830000  1.0 0.0730803115
C  C1006  1  0.67060000  0.91332000  0.80170000  1.0 0.0730803115
C  C1007  1  0.63562000  0.33668000  0.44830000  1.0 0.0730803115
C  C1008  1  0.33668000  0.44830000  0.63562000  1.0 0.0730803115
C  C1009  1  0.27190000  0.10930000  0.41828000  1.0 -0.1296806222
C  C1010  1  0.97810000  0.14070000  0.04948000  1.0 -0.1296806222
C  C1011  1  0.14070000  0.04948000  0.97810000  1.0 -0.1296806222
C  C1012  1  0.04948000  0.97810000  0.14070000  1.0 -0.1296806222
C  C1013  1  0.14070000  0.83172000  0.04948000  1.0 -0.1296806222
C  C1014  1  0.10930000  0.20052000  0.41828000  1.0 -0.1296806222
C  C1015  1  0.83172000  0.97810000  0.04948000  1.0 -0.1296806222
C  C1016  1  0.20052000  0.27190000  0.41828000  1.0 -0.1296806222
C  C1017  1  0.83172000  0.04948000  0.14070000  1.0 -0.1296806222
C  C1018  1  0.20052000  0.41828000  0.10930000  1.0 -0.1296806222
C  C1019  1  0.10930000  0.27190000  0.20052000  1.0 -0.1296806222
C  C1020  1  0.14070000  0.97810000  0.83172000  1.0 -0.1296806222
C  C1021  1  0.83172000  0.14070000  0.97810000  1.0 -0.1296806222
C  C1022  1  0.20052000  0.10930000  0.27190000  1.0 -0.1296806222
C  C1023  1  0.97810000  0.83172000  0.14070000  1.0 -0.1296806222
C  C1024  1  0.27190000  0.20052000  0.10930000  1.0 -0.1296806222
C  C1025  1  0.27190000  0.41828000  0.20052000  1.0 -0.1296806222
C  C1026  1  0.41828000  0.10930000  0.20052000  1.0 -0.1296806222
C  C1027  1  0.04948000  0.14070000  0.83172000  1.0 -0.1296806222
C  C1028  1  0.97810000  0.04948000  0.83172000  1.0 -0.1296806222
C  C1029  1  0.41828000  0.20052000  0.27190000  1.0 -0.1296806222
C  C1030  1  0.04948000  0.83172000  0.97810000  1.0 -0.1296806222
C  C1031  1  0.10930000  0.41828000  0.27190000  1.0 -0.1296806222
C  C1032  1  0.41828000  0.27190000  0.10930000  1.0 -0.1296806222
C  C1033  1  0.47810000  0.64070000  0.33172000  1.0 -0.1296806222
C  C1034  1  0.77190000  0.60930000  0.70052000  1.0 -0.1296806222
C  C1035  1  0.60930000  0.70052000  0.77190000  1.0 -0.1296806222
C  C1036  1  0.70052000  0.77190000  0.60930000  1.0 -0.1296806222
C  C1037  1  0.60930000  0.91828000  0.70052000  1.0 -0.1296806222
C  C1038  1  0.64070000  0.54948000  0.33172000  1.0 -0.1296806222
C  C1039  1  0.91828000  0.77190000  0.70052000  1.0 -0.1296806222
C  C1040  1  0.54948000  0.47810000  0.33172000  1.0 -0.1296806222
C  C1041  1  0.91828000  0.70052000  0.60930000  1.0 -0.1296806222
C  C1042  1  0.54948000  0.33172000  0.64070000  1.0 -0.1296806222
C  C1043  1  0.64070000  0.47810000  0.54948000  1.0 -0.1296806222
C  C1044  1  0.60930000  0.77190000  0.91828000  1.0 -0.1296806222
C  C1045  1  0.91828000  0.60930000  0.77190000  1.0 -0.1296806222
C  C1046  1  0.54948000  0.64070000  0.47810000  1.0 -0.1296806222
C  C1047  1  0.77190000  0.91828000  0.60930000  1.0 -0.1296806222
C  C1048  1  0.47810000  0.54948000  0.64070000  1.0 -0.1296806222
C  C1049  1  0.47810000  0.33172000  0.54948000  1.0 -0.1296806222
C  C1050  1  0.33172000  0.64070000  0.54948000  1.0 -0.1296806222
C  C1051  1  0.70052000  0.60930000  0.91828000  1.0 -0.1296806222
C  C1052  1  0.77190000  0.70052000  0.91828000  1.0 -0.1296806222
C  C1053  1  0.33172000  0.54948000  0.47810000  1.0 -0.1296806222
C  C1054  1  0.70052000  0.91828000  0.77190000  1.0 -0.1296806222
C  C1055  1  0.64070000  0.33172000  0.47810000  1.0 -0.1296806222
C  C1056  1  0.33172000  0.47810000  0.64070000  1.0 -0.1296806222
C  C1057  1  0.26994000  0.10754000  0.38958000  1.0 -0.0511895205
C  C1058  1  0.98006000  0.14246000  0.01706000  1.0 -0.0511895205
C  C1059  1  0.14246000  0.01706000  0.98006000  1.0 -0.0511895205
C  C1060  1  0.01706000  0.98006000  0.14246000  1.0 -0.0511895205
C  C1061  1  0.14246000  0.86042000  0.01706000  1.0 -0.0511895205
C  C1062  1  0.10754000  0.23294000  0.38958000  1.0 -0.0511895205
C  C1063  1  0.86042000  0.98006000  0.01706000  1.0 -0.0511895205
C  C1064  1  0.23294000  0.26994000  0.38958000  1.0 -0.0511895205
C  C1065  1  0.86042000  0.01706000  0.14246000  1.0 -0.0511895205
C  C1066  1  0.23294000  0.38958000  0.10754000  1.0 -0.0511895205
C  C1067  1  0.10754000  0.26994000  0.23294000  1.0 -0.0511895205
C  C1068  1  0.14246000  0.98006000  0.86042000  1.0 -0.0511895205
C  C1069  1  0.86042000  0.14246000  0.98006000  1.0 -0.0511895205
C  C1070  1  0.23294000  0.10754000  0.26994000  1.0 -0.0511895205
C  C1071  1  0.98006000  0.86042000  0.14246000  1.0 -0.0511895205
C  C1072  1  0.26994000  0.23294000  0.10754000  1.0 -0.0511895205
C  C1073  1  0.26994000  0.38958000  0.23294000  1.0 -0.0511895205
C  C1074  1  0.38958000  0.10754000  0.23294000  1.0 -0.0511895205
C  C1075  1  0.01706000  0.14246000  0.86042000  1.0 -0.0511895205
C  C1076  1  0.98006000  0.01706000  0.86042000  1.0 -0.0511895205
C  C1077  1  0.38958000  0.23294000  0.26994000  1.0 -0.0511895205
C  C1078  1  0.01706000  0.86042000  0.98006000  1.0 -0.0511895205
C  C1079  1  0.10754000  0.38958000  0.26994000  1.0 -0.0511895205
C  C1080  1  0.38958000  0.26994000  0.10754000  1.0 -0.0511895205
C  C1081  1  0.48006000  0.64246000  0.36042000  1.0 -0.0511895205
C  C1082  1  0.76994000  0.60754000  0.73294000  1.0 -0.0511895205
C  C1083  1  0.60754000  0.73294000  0.76994000  1.0 -0.0511895205
C  C1084  1  0.73294000  0.76994000  0.60754000  1.0 -0.0511895205
C  C1085  1  0.60754000  0.88958000  0.73294000  1.0 -0.0511895205
C  C1086  1  0.64246000  0.51706000  0.36042000  1.0 -0.0511895205
C  C1087  1  0.88958000  0.76994000  0.73294000  1.0 -0.0511895205
C  C1088  1  0.51706000  0.48006000  0.36042000  1.0 -0.0511895205
C  C1089  1  0.88958000  0.73294000  0.60754000  1.0 -0.0511895205
C  C1090  1  0.51706000  0.36042000  0.64246000  1.0 -0.0511895205
C  C1091  1  0.64246000  0.48006000  0.51706000  1.0 -0.0511895205
C  C1092  1  0.60754000  0.76994000  0.88958000  1.0 -0.0511895205
C  C1093  1  0.88958000  0.60754000  0.76994000  1.0 -0.0511895205
C  C1094  1  0.51706000  0.64246000  0.48006000  1.0 -0.0511895205
C  C1095  1  0.76994000  0.88958000  0.60754000  1.0 -0.0511895205
C  C1096  1  0.48006000  0.51706000  0.64246000  1.0 -0.0511895205
C  C1097  1  0.48006000  0.36042000  0.51706000  1.0 -0.0511895205
C  C1098  1  0.36042000  0.64246000  0.51706000  1.0 -0.0511895205
C  C1099  1  0.73294000  0.60754000  0.88958000  1.0 -0.0511895205
C  C1100  1  0.76994000  0.73294000  0.88958000  1.0 -0.0511895205
C  C1101  1  0.36042000  0.51706000  0.48006000  1.0 -0.0511895205
C  C1102  1  0.73294000  0.88958000  0.76994000  1.0 -0.0511895205
C  C1103  1  0.64246000  0.36042000  0.48006000  1.0 -0.0511895205
C  C1104  1  0.36042000  0.48006000  0.64246000  1.0 -0.0511895205
C  C1105  1  0.29773000  0.11237000  0.35649000  1.0 -0.0227599452
C  C1106  1  0.95227000  0.13763000  0.01659000  1.0 -0.0227599452
C  C1107  1  0.13763000  0.01659000  0.95227000  1.0 -0.0227599452
C  C1108  1  0.01659000  0.95227000  0.13763000  1.0 -0.0227599452
C  C1109  1  0.13763000  0.89351000  0.01659000  1.0 -0.0227599452
C  C1110  1  0.11237000  0.23341000  0.35649000  1.0 -0.0227599452
C  C1111  1  0.89351000  0.95227000  0.01659000  1.0 -0.0227599452
C  C1112  1  0.23341000  0.29773000  0.35649000  1.0 -0.0227599452
C  C1113  1  0.89351000  0.01659000  0.13763000  1.0 -0.0227599452
C  C1114  1  0.23341000  0.35649000  0.11237000  1.0 -0.0227599452
C  C1115  1  0.11237000  0.29773000  0.23341000  1.0 -0.0227599452
C  C1116  1  0.13763000  0.95227000  0.89351000  1.0 -0.0227599452
C  C1117  1  0.89351000  0.13763000  0.95227000  1.0 -0.0227599452
C  C1118  1  0.23341000  0.11237000  0.29773000  1.0 -0.0227599452
C  C1119  1  0.95227000  0.89351000  0.13763000  1.0 -0.0227599452
C  C1120  1  0.29773000  0.23341000  0.11237000  1.0 -0.0227599452
C  C1121  1  0.29773000  0.35649000  0.23341000  1.0 -0.0227599452
C  C1122  1  0.35649000  0.11237000  0.23341000  1.0 -0.0227599452
C  C1123  1  0.01659000  0.13763000  0.89351000  1.0 -0.0227599452
C  C1124  1  0.95227000  0.01659000  0.89351000  1.0 -0.0227599452
C  C1125  1  0.35649000  0.23341000  0.29773000  1.0 -0.0227599452
C  C1126  1  0.01659000  0.89351000  0.95227000  1.0 -0.0227599452
C  C1127  1  0.11237000  0.35649000  0.29773000  1.0 -0.0227599452
C  C1128  1  0.35649000  0.29773000  0.11237000  1.0 -0.0227599452
C  C1129  1  0.45227000  0.63763000  0.39351000  1.0 -0.0227599452
C  C1130  1  0.79773000  0.61237000  0.73341000  1.0 -0.0227599452
C  C1131  1  0.61237000  0.73341000  0.79773000  1.0 -0.0227599452
C  C1132  1  0.73341000  0.79773000  0.61237000  1.0 -0.0227599452
C  C1133  1  0.61237000  0.85649000  0.73341000  1.0 -0.0227599452
C  C1134  1  0.63763000  0.51659000  0.39351000  1.0 -0.0227599452
C  C1135  1  0.85649000  0.79773000  0.73341000  1.0 -0.0227599452
C  C1136  1  0.51659000  0.45227000  0.39351000  1.0 -0.0227599452
C  C1137  1  0.85649000  0.73341000  0.61237000  1.0 -0.0227599452
C  C1138  1  0.51659000  0.39351000  0.63763000  1.0 -0.0227599452
C  C1139  1  0.63763000  0.45227000  0.51659000  1.0 -0.0227599452
C  C1140  1  0.61237000  0.79773000  0.85649000  1.0 -0.0227599452
C  C1141  1  0.85649000  0.61237000  0.79773000  1.0 -0.0227599452
C  C1142  1  0.51659000  0.63763000  0.45227000  1.0 -0.0227599452
C  C1143  1  0.79773000  0.85649000  0.61237000  1.0 -0.0227599452
C  C1144  1  0.45227000  0.51659000  0.63763000  1.0 -0.0227599452
C  C1145  1  0.45227000  0.39351000  0.51659000  1.0 -0.0227599452
C  C1146  1  0.39351000  0.63763000  0.51659000  1.0 -0.0227599452
C  C1147  1  0.73341000  0.61237000  0.85649000  1.0 -0.0227599452
C  C1148  1  0.79773000  0.73341000  0.85649000  1.0 -0.0227599452
C  C1149  1  0.39351000  0.51659000  0.45227000  1.0 -0.0227599452
C  C1150  1  0.73341000  0.85649000  0.79773000  1.0 -0.0227599452
C  C1151  1  0.63763000  0.39351000  0.45227000  1.0 -0.0227599452
C  C1152  1  0.39351000  0.45227000  0.63763000  1.0 -0.0227599452
C  C1153  1  0.32670000  0.11780000  0.35372000  1.0 0.062146919
C  C1154  1  0.92330000  0.13220000  0.04822000  1.0 0.062146919
C  C1155  1  0.13220000  0.04822000  0.92330000  1.0 0.062146919
C  C1156  1  0.04822000  0.92330000  0.13220000  1.0 0.062146919
C  C1157  1  0.13220000  0.89628000  0.04822000  1.0 0.062146919
C  C1158  1  0.11780000  0.20178000  0.35372000  1.0 0.062146919
C  C1159  1  0.89628000  0.92330000  0.04822000  1.0 0.062146919
C  C1160  1  0.20178000  0.32670000  0.35372000  1.0 0.062146919
C  C1161  1  0.89628000  0.04822000  0.13220000  1.0 0.062146919
C  C1162  1  0.20178000  0.35372000  0.11780000  1.0 0.062146919
C  C1163  1  0.11780000  0.32670000  0.20178000  1.0 0.062146919
C  C1164  1  0.13220000  0.92330000  0.89628000  1.0 0.062146919
C  C1165  1  0.89628000  0.13220000  0.92330000  1.0 0.062146919
C  C1166  1  0.20178000  0.11780000  0.32670000  1.0 0.062146919
C  C1167  1  0.92330000  0.89628000  0.13220000  1.0 0.062146919
C  C1168  1  0.32670000  0.20178000  0.11780000  1.0 0.062146919
C  C1169  1  0.32670000  0.35372000  0.20178000  1.0 0.062146919
C  C1170  1  0.35372000  0.11780000  0.20178000  1.0 0.062146919
C  C1171  1  0.04822000  0.13220000  0.89628000  1.0 0.062146919
C  C1172  1  0.92330000  0.04822000  0.89628000  1.0 0.062146919
C  C1173  1  0.35372000  0.20178000  0.32670000  1.0 0.062146919
C  C1174  1  0.04822000  0.89628000  0.92330000  1.0 0.062146919
C  C1175  1  0.11780000  0.35372000  0.32670000  1.0 0.062146919
C  C1176  1  0.35372000  0.32670000  0.11780000  1.0 0.062146919
C  C1177  1  0.42330000  0.63220000  0.39628000  1.0 0.062146919
C  C1178  1  0.82670000  0.61780000  0.70178000  1.0 0.062146919
C  C1179  1  0.61780000  0.70178000  0.82670000  1.0 0.062146919
C  C1180  1  0.70178000  0.82670000  0.61780000  1.0 0.062146919
C  C1181  1  0.61780000  0.85372000  0.70178000  1.0 0.062146919
C  C1182  1  0.63220000  0.54822000  0.39628000  1.0 0.062146919
C  C1183  1  0.85372000  0.82670000  0.70178000  1.0 0.062146919
C  C1184  1  0.54822000  0.42330000  0.39628000  1.0 0.062146919
C  C1185  1  0.85372000  0.70178000  0.61780000  1.0 0.062146919
C  C1186  1  0.54822000  0.39628000  0.63220000  1.0 0.062146919
C  C1187  1  0.63220000  0.42330000  0.54822000  1.0 0.062146919
C  C1188  1  0.61780000  0.82670000  0.85372000  1.0 0.062146919
C  C1189  1  0.85372000  0.61780000  0.82670000  1.0 0.062146919
C  C1190  1  0.54822000  0.63220000  0.42330000  1.0 0.062146919
C  C1191  1  0.82670000  0.85372000  0.61780000  1.0 0.062146919
C  C1192  1  0.42330000  0.54822000  0.63220000  1.0 0.062146919
C  C1193  1  0.42330000  0.39628000  0.54822000  1.0 0.062146919
C  C1194  1  0.39628000  0.63220000  0.54822000  1.0 0.062146919
C  C1195  1  0.70178000  0.61780000  0.85372000  1.0 0.062146919
C  C1196  1  0.82670000  0.70178000  0.85372000  1.0 0.062146919
C  C1197  1  0.39628000  0.54822000  0.42330000  1.0 0.062146919
C  C1198  1  0.70178000  0.85372000  0.82670000  1.0 0.062146919
C  C1199  1  0.63220000  0.39628000  0.42330000  1.0 0.062146919
C  C1200  1  0.39628000  0.42330000  0.63220000  1.0 0.062146919
C  C1201  1  0.29678000  0.11170000  0.32462000  1.0 0.3706206258
C  C1202  1  0.95322000  0.13830000  0.98310000  1.0 0.3706206258
C  C1203  1  0.13830000  0.98310000  0.95322000  1.0 0.3706206258
C  C1204  1  0.98310000  0.95322000  0.13830000  1.0 0.3706206258
C  C1205  1  0.13830000  0.92538000  0.98310000  1.0 0.3706206258
C  C1206  1  0.11170000  0.26690000  0.32462000  1.0 0.3706206258
C  C1207  1  0.92538000  0.95322000  0.98310000  1.0 0.3706206258
C  C1208  1  0.26690000  0.29678000  0.32462000  1.0 0.3706206258
C  C1209  1  0.92538000  0.98310000  0.13830000  1.0 0.3706206258
C  C1210  1  0.26690000  0.32462000  0.11170000  1.0 0.3706206258
C  C1211  1  0.11170000  0.29678000  0.26690000  1.0 0.3706206258
C  C1212  1  0.13830000  0.95322000  0.92538000  1.0 0.3706206258
C  C1213  1  0.92538000  0.13830000  0.95322000  1.0 0.3706206258
C  C1214  1  0.26690000  0.11170000  0.29678000  1.0 0.3706206258
C  C1215  1  0.95322000  0.92538000  0.13830000  1.0 0.3706206258
C  C1216  1  0.29678000  0.26690000  0.11170000  1.0 0.3706206258
C  C1217  1  0.29678000  0.32462000  0.26690000  1.0 0.3706206258
C  C1218  1  0.32462000  0.11170000  0.26690000  1.0 0.3706206258
C  C1219  1  0.98310000  0.13830000  0.92538000  1.0 0.3706206258
C  C1220  1  0.95322000  0.98310000  0.92538000  1.0 0.3706206258
C  C1221  1  0.32462000  0.26690000  0.29678000  1.0 0.3706206258
C  C1222  1  0.98310000  0.92538000  0.95322000  1.0 0.3706206258
C  C1223  1  0.11170000  0.32462000  0.29678000  1.0 0.3706206258
C  C1224  1  0.32462000  0.29678000  0.11170000  1.0 0.3706206258
C  C1225  1  0.45322000  0.63830000  0.42538000  1.0 0.3706206258
C  C1226  1  0.79678000  0.61170000  0.76690000  1.0 0.3706206258
C  C1227  1  0.61170000  0.76690000  0.79678000  1.0 0.3706206258
C  C1228  1  0.76690000  0.79678000  0.61170000  1.0 0.3706206258
C  C1229  1  0.61170000  0.82462000  0.76690000  1.0 0.3706206258
C  C1230  1  0.63830000  0.48310000  0.42538000  1.0 0.3706206258
C  C1231  1  0.82462000  0.79678000  0.76690000  1.0 0.3706206258
C  C1232  1  0.48310000  0.45322000  0.42538000  1.0 0.3706206258
C  C1233  1  0.82462000  0.76690000  0.61170000  1.0 0.3706206258
C  C1234  1  0.48310000  0.42538000  0.63830000  1.0 0.3706206258
C  C1235  1  0.63830000  0.45322000  0.48310000  1.0 0.3706206258
C  C1236  1  0.61170000  0.79678000  0.82462000  1.0 0.3706206258
C  C1237  1  0.82462000  0.61170000  0.79678000  1.0 0.3706206258
C  C1238  1  0.48310000  0.63830000  0.45322000  1.0 0.3706206258
C  C1239  1  0.79678000  0.82462000  0.61170000  1.0 0.3706206258
C  C1240  1  0.45322000  0.48310000  0.63830000  1.0 0.3706206258
C  C1241  1  0.45322000  0.42538000  0.48310000  1.0 0.3706206258
C  C1242  1  0.42538000  0.63830000  0.48310000  1.0 0.3706206258
C  C1243  1  0.76690000  0.61170000  0.82462000  1.0 0.3706206258
C  C1244  1  0.79678000  0.76690000  0.82462000  1.0 0.3706206258
C  C1245  1  0.42538000  0.48310000  0.45322000  1.0 0.3706206258
C  C1246  1  0.76690000  0.82462000  0.79678000  1.0 0.3706206258
C  C1247  1  0.63830000  0.42538000  0.45322000  1.0 0.3706206258
C  C1248  1  0.42538000  0.45322000  0.63830000  1.0 0.3706206258
S  S1  1  0.34000000  0.82136000  0.75464000  1.0 -0.3939872256
S  S2  1  0.91000000  0.42864000  0.16600000  1.0 -0.4022767785
S  S3  1  0.42864000  0.16600000  0.91000000  1.0 -0.4022767785
S  S4  1  0.16600000  0.91000000  0.42864000  1.0 -0.4022767785
S  S5  1  0.42864000  0.49536000  0.16600000  1.0 -0.4022767785
S  S6  1  0.82136000  0.08400000  0.75464000  1.0 -0.3939872256
S  S7  1  0.49536000  0.91000000  0.16600000  1.0 -0.4022767785
S  S8  1  0.08400000  0.34000000  0.75464000  1.0 -0.3939872256
S  S9  1  0.49536000  0.16600000  0.42864000  1.0 -0.4022767785
S  S10  1  0.08400000  0.75464000  0.82136000  1.0 -0.4022767785
S  S11  1  0.82136000  0.34000000  0.08400000  1.0 -0.4022767785
S  S12  1  0.42864000  0.91000000  0.49536000  1.0 -0.4022767785
S  S13  1  0.49536000  0.42864000  0.91000000  1.0 -0.4022767785
S  S14  1  0.08400000  0.82136000  0.34000000  1.0 -0.4022767785
S  S15  1  0.91000000  0.49536000  0.42864000  1.0 -0.4022767785
S  S16  1  0.34000000  0.08400000  0.82136000  1.0 -0.3939872256
S  S17  1  0.34000000  0.75464000  0.08400000  1.0 -0.4022767785
S  S18  1  0.75464000  0.82136000  0.08400000  1.0 -0.4022767785
S  S19  1  0.16600000  0.42864000  0.49536000  1.0 -0.4022767785
S  S20  1  0.91000000  0.16600000  0.49536000  1.0 -0.3939872256
S  S21  1  0.75464000  0.08400000  0.34000000  1.0 -0.4022767785
S  S22  1  0.16600000  0.49536000  0.91000000  1.0 -0.4022767785
S  S23  1  0.82136000  0.75464000  0.34000000  1.0 -0.3939872256
S  S24  1  0.75464000  0.34000000  0.82136000  1.0 -0.3939872256
S  S25  1  0.41000000  0.92864000  0.99536000  1.0 -0.4022767785
S  S26  1  0.84000000  0.32136000  0.58400000  1.0 -0.4022767785
S  S27  1  0.32136000  0.58400000  0.84000000  1.0 -0.4022767785
S  S28  1  0.58400000  0.84000000  0.32136000  1.0 -0.4022767785
S  S29  1  0.32136000  0.25464000  0.58400000  1.0 -0.4022767785
S  S30  1  0.92864000  0.66600000  0.99536000  1.0 -0.4022767785
S  S31  1  0.25464000  0.84000000  0.58400000  1.0 -0.4022767785
S  S32  1  0.66600000  0.41000000  0.99536000  1.0 -0.4022767785
S  S33  1  0.25464000  0.58400000  0.32136000  1.0 -0.4022767785
S  S34  1  0.66600000  0.99536000  0.92864000  1.0 -0.4022767785
S  S35  1  0.92864000  0.41000000  0.66600000  1.0 -0.4022767785
S  S36  1  0.32136000  0.84000000  0.25464000  1.0 -0.4022767785
S  S37  1  0.25464000  0.32136000  0.84000000  1.0 -0.4022767785
S  S38  1  0.66600000  0.92864000  0.41000000  1.0 -0.4022767785
S  S39  1  0.84000000  0.25464000  0.32136000  1.0 -0.4022767785
S  S40  1  0.41000000  0.66600000  0.92864000  1.0 -0.3939872256
S  S41  1  0.41000000  0.99536000  0.66600000  1.0 -0.3939872256
S  S42  1  0.99536000  0.92864000  0.66600000  1.0 -0.4022767785
S  S43  1  0.58400000  0.32136000  0.25464000  1.0 -0.4022767785
S  S44  1  0.84000000  0.58400000  0.25464000  1.0 -0.4022767785
S  S45  1  0.99536000  0.66600000  0.41000000  1.0 -0.4022767785
S  S46  1  0.58400000  0.25464000  0.84000000  1.0 -0.4022767785
S  S47  1  0.92864000  0.99536000  0.41000000  1.0 -0.4022767785
S  S48  1  0.99536000  0.41000000  0.92864000  1.0 -0.4022767785
S  S49  1  0.45195000  0.05955000  0.28941000  1.0 -0.4022767785
S  S50  1  0.79805000  0.19045000  0.05091000  1.0 -0.4022767785
S  S51  1  0.19045000  0.05091000  0.79805000  1.0 -0.4022767785
S  S52  1  0.05091000  0.79805000  0.19045000  1.0 -0.4091830235
S  S53  1  0.19045000  0.96059000  0.05091000  1.0 -0.4091830235
S  S54  1  0.05955000  0.19909000  0.28941000  1.0 -0.4022767785
S  S55  1  0.96059000  0.79805000  0.05091000  1.0 -0.4022767785
S  S56  1  0.19909000  0.45195000  0.28941000  1.0 -0.4091830235
S  S57  1  0.96059000  0.05091000  0.19045000  1.0 -0.4022767785
S  S58  1  0.19909000  0.28941000  0.05955000  1.0 -0.4091830235
S  S59  1  0.05955000  0.45195000  0.19909000  1.0 -0.4022767785
S  S60  1  0.19045000  0.79805000  0.96059000  1.0 -0.4022767785
S  S61  1  0.96059000  0.19045000  0.79805000  1.0 -0.4022767785
S  S62  1  0.19909000  0.05955000  0.45195000  1.0 -0.4022767785
S  S63  1  0.79805000  0.96059000  0.19045000  1.0 -0.4022767785
S  S64  1  0.45195000  0.19909000  0.05955000  1.0 -0.4091830235
S  S65  1  0.45195000  0.28941000  0.19909000  1.0 -0.4022767785
S  S66  1  0.28941000  0.05955000  0.19909000  1.0 -0.4022767785
S  S67  1  0.05091000  0.19045000  0.96059000  1.0 -0.4091830235
S  S68  1  0.79805000  0.05091000  0.96059000  1.0 -0.4022767785
S  S69  1  0.28941000  0.19909000  0.45195000  1.0 -0.4022767785
S  S70  1  0.05091000  0.96059000  0.79805000  1.0 -0.4091830235
S  S71  1  0.05955000  0.28941000  0.45195000  1.0 -0.4022767785
S  S72  1  0.28941000  0.45195000  0.05955000  1.0 -0.4091830235
S  S73  1  0.29805000  0.69045000  0.46059000  1.0 -0.4091830235
S  S74  1  0.95195000  0.55955000  0.69909000  1.0 -0.4022767785
S  S75  1  0.55955000  0.69909000  0.95195000  1.0 -0.4022767785
S  S76  1  0.69909000  0.95195000  0.55955000  1.0 -0.4091830235
S  S77  1  0.55955000  0.78941000  0.69909000  1.0 -0.4091830235
S  S78  1  0.69045000  0.55091000  0.46059000  1.0 -0.4091830235
S  S79  1  0.78941000  0.95195000  0.69909000  1.0 -0.4091830235
S  S80  1  0.55091000  0.29805000  0.46059000  1.0 -0.4091830235
S  S81  1  0.78941000  0.69909000  0.55955000  1.0 -0.4091830235
S  S82  1  0.55091000  0.46059000  0.69045000  1.0 -0.4022767785
S  S83  1  0.69045000  0.29805000  0.55091000  1.0 -0.4091830235
S  S84  1  0.55955000  0.95195000  0.78941000  1.0 -0.4022767785
S  S85  1  0.78941000  0.55955000  0.95195000  1.0 -0.4091830235
S  S86  1  0.55091000  0.69045000  0.29805000  1.0 -0.4022767785
S  S87  1  0.95195000  0.78941000  0.55955000  1.0 -0.4091830235
S  S88  1  0.29805000  0.55091000  0.69045000  1.0 -0.4022767785
S  S89  1  0.29805000  0.46059000  0.55091000  1.0 -0.4091830235
S  S90  1  0.46059000  0.69045000  0.55091000  1.0 -0.4091830235
S  S91  1  0.69909000  0.55955000  0.78941000  1.0 -0.4091830235
S  S92  1  0.95195000  0.69909000  0.78941000  1.0 -0.4022767785
S  S93  1  0.46059000  0.55091000  0.29805000  1.0 -0.4022767785
S  S94  1  0.69909000  0.78941000  0.95195000  1.0 -0.4091830235
S  S95  1  0.69045000  0.46059000  0.29805000  1.0 -0.4022767785
S  S96  1  0.46059000  0.29805000  0.69045000  1.0 -0.4091830235
N  N1  1  0.35636000  0.84410000  0.67980000  1.0 -0.4772262353
N  N2  1  0.89364000  0.40590000  0.13026000  1.0 -0.4772262353
N  N3  1  0.40590000  0.13026000  0.89364000  1.0 -0.4772262353
N  N4  1  0.13026000  0.89364000  0.40590000  1.0 -0.4772262353
N  N5  1  0.40590000  0.57020000  0.13026000  1.0 -0.4772262353
N  N6  1  0.84410000  0.11974000  0.67980000  1.0 -0.4772262353
N  N7  1  0.57020000  0.89364000  0.13026000  1.0 -0.4772262353
N  N8  1  0.11974000  0.35636000  0.67980000  1.0 -0.4772262353
N  N9  1  0.57020000  0.13026000  0.40590000  1.0 -0.4772262353
N  N10  1  0.11974000  0.67980000  0.84410000  1.0 -0.4772262353
N  N11  1  0.84410000  0.35636000  0.11974000  1.0 -0.4772262353
N  N12  1  0.40590000  0.89364000  0.57020000  1.0 -0.4772262353
N  N13  1  0.57020000  0.40590000  0.89364000  1.0 -0.4772262353
N  N14  1  0.11974000  0.84410000  0.35636000  1.0 -0.4772262353
N  N15  1  0.89364000  0.57020000  0.40590000  1.0 -0.4772262353
N  N16  1  0.35636000  0.11974000  0.84410000  1.0 -0.4772262353
N  N17  1  0.35636000  0.67980000  0.11974000  1.0 -0.4772262353
N  N18  1  0.67980000  0.84410000  0.11974000  1.0 -0.4772262353
N  N19  1  0.13026000  0.40590000  0.57020000  1.0 -0.4772262353
N  N20  1  0.89364000  0.13026000  0.57020000  1.0 -0.4772262353
N  N21  1  0.67980000  0.11974000  0.35636000  1.0 -0.4772262353
N  N22  1  0.13026000  0.57020000  0.89364000  1.0 -0.4772262353
N  N23  1  0.84410000  0.67980000  0.35636000  1.0 -0.4772262353
N  N24  1  0.67980000  0.35636000  0.84410000  1.0 -0.4772262353
N  N25  1  0.39364000  0.90590000  0.07020000  1.0 -0.4772262353
N  N26  1  0.85636000  0.34410000  0.61974000  1.0 -0.4772262353
N  N27  1  0.34410000  0.61974000  0.85636000  1.0 -0.4772262353
N  N28  1  0.61974000  0.85636000  0.34410000  1.0 -0.4772262353
N  N29  1  0.34410000  0.17980000  0.61974000  1.0 -0.4772262353
N  N30  1  0.90590000  0.63026000  0.07020000  1.0 -0.4772262353
N  N31  1  0.17980000  0.85636000  0.61974000  1.0 -0.4772262353
N  N32  1  0.63026000  0.39364000  0.07020000  1.0 -0.4772262353
N  N33  1  0.17980000  0.61974000  0.34410000  1.0 -0.4772262353
N  N34  1  0.63026000  0.07020000  0.90590000  1.0 -0.4772262353
N  N35  1  0.90590000  0.39364000  0.63026000  1.0 -0.4772262353
N  N36  1  0.34410000  0.85636000  0.17980000  1.0 -0.4772262353
N  N37  1  0.17980000  0.34410000  0.85636000  1.0 -0.4772262353
N  N38  1  0.63026000  0.90590000  0.39364000  1.0 -0.4772262353
N  N39  1  0.85636000  0.17980000  0.34410000  1.0 -0.4772262353
N  N40  1  0.39364000  0.63026000  0.90590000  1.0 -0.4772262353
N  N41  1  0.39364000  0.07020000  0.63026000  1.0 -0.4772262353
N  N42  1  0.07020000  0.90590000  0.63026000  1.0 -0.4772262353
N  N43  1  0.61974000  0.34410000  0.17980000  1.0 -0.4772262353
N  N44  1  0.85636000  0.61974000  0.17980000  1.0 -0.4772262353
N  N45  1  0.07020000  0.63026000  0.39364000  1.0 -0.4772262353
N  N46  1  0.61974000  0.17980000  0.85636000  1.0 -0.4772262353
N  N47  1  0.90590000  0.07020000  0.39364000  1.0 -0.4772262353
N  N48  1  0.07020000  0.39364000  0.90590000  1.0 -0.4772262353
N  N49  1  0.41082000  0.09332000  0.34160000  1.0 -0.4646846763
N  N50  1  0.83918000  0.15668000  0.09574000  1.0 -0.4646846763
N  N51  1  0.15668000  0.09574000  0.83918000  1.0 -0.4673727304
N  N52  1  0.09574000  0.83918000  0.15668000  1.0 -0.4646846763
N  N53  1  0.15668000  0.90840000  0.09574000  1.0 -0.4646846763
N  N54  1  0.09332000  0.15426000  0.34160000  1.0 -0.4646846763
N  N55  1  0.90840000  0.83918000  0.09574000  1.0 -0.4646846763
N  N56  1  0.15426000  0.41082000  0.34160000  1.0 -0.4673727304
N  N57  1  0.90840000  0.09574000  0.15668000  1.0 -0.4646846763
N  N58  1  0.15426000  0.34160000  0.09332000  1.0 -0.4646846763
N  N59  1  0.09332000  0.41082000  0.15426000  1.0 -0.4673727304
N  N60  1  0.15668000  0.83918000  0.90840000  1.0 -0.4673727304
N  N61  1  0.90840000  0.15668000  0.83918000  1.0 -0.4673727304
N  N62  1  0.15426000  0.09332000  0.41082000  1.0 -0.4646846763
N  N63  1  0.83918000  0.90840000  0.15668000  1.0 -0.4646846763
N  N64  1  0.41082000  0.15426000  0.09332000  1.0 -0.4673727304
N  N65  1  0.41082000  0.34160000  0.15426000  1.0 -0.4673727304
N  N66  1  0.34160000  0.09332000  0.15426000  1.0 -0.4673727304
N  N67  1  0.09574000  0.15668000  0.90840000  1.0 -0.4673727304
N  N68  1  0.83918000  0.09574000  0.90840000  1.0 -0.4673727304
N  N69  1  0.34160000  0.15426000  0.41082000  1.0 -0.4673727304
N  N70  1  0.09574000  0.90840000  0.83918000  1.0 -0.4673727304
N  N71  1  0.09332000  0.34160000  0.41082000  1.0 -0.4646846763
N  N72  1  0.34160000  0.41082000  0.09332000  1.0 -0.4646846763
N  N73  1  0.33918000  0.65668000  0.40840000  1.0 -0.4646846763
N  N74  1  0.91082000  0.59332000  0.65426000  1.0 -0.4673727304
N  N75  1  0.59332000  0.65426000  0.91082000  1.0 -0.4673727304
N  N76  1  0.65426000  0.91082000  0.59332000  1.0 -0.4646846763
N  N77  1  0.59332000  0.84160000  0.65426000  1.0 -0.4646846763
N  N78  1  0.65668000  0.59574000  0.40840000  1.0 -0.4646846763
N  N79  1  0.84160000  0.91082000  0.65426000  1.0 -0.4673727304
N  N80  1  0.59574000  0.33918000  0.40840000  1.0 -0.4646846763
N  N81  1  0.84160000  0.65426000  0.59332000  1.0 -0.4673727304
N  N82  1  0.59574000  0.40840000  0.65668000  1.0 -0.4673727304
N  N83  1  0.65668000  0.33918000  0.59574000  1.0 -0.4673727304
N  N84  1  0.59332000  0.91082000  0.84160000  1.0 -0.4673727304
N  N85  1  0.84160000  0.59332000  0.91082000  1.0 -0.4646846763
N  N86  1  0.59574000  0.65668000  0.33918000  1.0 -0.4673727304
N  N87  1  0.91082000  0.84160000  0.59332000  1.0 -0.4646846763
N  N88  1  0.33918000  0.59574000  0.65668000  1.0 -0.4673727304
N  N89  1  0.33918000  0.40840000  0.59574000  1.0 -0.4673727304
N  N90  1  0.40840000  0.65668000  0.59574000  1.0 -0.4673727304
N  N91  1  0.65426000  0.59332000  0.84160000  1.0 -0.4673727304
N  N92  1  0.91082000  0.65426000  0.84160000  1.0 -0.4673727304
N  N93  1  0.40840000  0.59574000  0.33918000  1.0 -0.4673727304
N  N94  1  0.65426000  0.84160000  0.91082000  1.0 -0.4673727304
N  N95  1  0.65668000  0.40840000  0.33918000  1.0 -0.4646846763
N  N96  1  0.40840000  0.33918000  0.65668000  1.0 -0.4673727304
N  N97  1  0.34641000  0.13635000  0.58461000  1.0 -0.2097549152
N  N98  1  0.90359000  0.11365000  0.31737000  1.0 -0.2097549152
N  N99  1  0.11365000  0.31737000  0.90359000  1.0 -0.2097549152
N  N100  1  0.31737000  0.90359000  0.11365000  1.0 -0.2097549152
N  N101  1  0.11365000  0.66539000  0.31737000  1.0 -0.2097549152
N  N102  1  0.13635000  0.93263000  0.58461000  1.0 -0.2097549152
N  N103  1  0.66539000  0.90359000  0.31737000  1.0 -0.2097549152
N  N104  1  0.93263000  0.34641000  0.58461000  1.0 -0.2097549152
N  N105  1  0.66539000  0.31737000  0.11365000  1.0 -0.2097549152
N  N106  1  0.93263000  0.58461000  0.13635000  1.0 -0.2097549152
N  N107  1  0.13635000  0.34641000  0.93263000  1.0 -0.2097549152
N  N108  1  0.11365000  0.90359000  0.66539000  1.0 -0.2097549152
N  N109  1  0.66539000  0.11365000  0.90359000  1.0 -0.2097549152
N  N110  1  0.93263000  0.13635000  0.34641000  1.0 -0.2097549152
N  N111  1  0.90359000  0.66539000  0.11365000  1.0 -0.2097549152
N  N112  1  0.34641000  0.93263000  0.13635000  1.0 -0.2097549152
N  N113  1  0.34641000  0.58461000  0.93263000  1.0 -0.2097549152
N  N114  1  0.58461000  0.13635000  0.93263000  1.0 -0.2097549152
N  N115  1  0.31737000  0.11365000  0.66539000  1.0 -0.2097549152
N  N116  1  0.90359000  0.31737000  0.66539000  1.0 -0.2097549152
N  N117  1  0.58461000  0.93263000  0.34641000  1.0 -0.2097549152
N  N118  1  0.31737000  0.66539000  0.90359000  1.0 -0.2097549152
N  N119  1  0.13635000  0.58461000  0.34641000  1.0 -0.2097549152
N  N120  1  0.58461000  0.34641000  0.13635000  1.0 -0.2097549152
N  N121  1  0.40359000  0.61365000  0.16539000  1.0 -0.2097549152
N  N122  1  0.84641000  0.63635000  0.43263000  1.0 -0.2097549152
N  N123  1  0.63635000  0.43263000  0.84641000  1.0 -0.2097549152
N  N124  1  0.43263000  0.84641000  0.63635000  1.0 -0.2097549152
N  N125  1  0.63635000  0.08461000  0.43263000  1.0 -0.2097549152
N  N126  1  0.61365000  0.81737000  0.16539000  1.0 -0.2097549152
N  N127  1  0.08461000  0.84641000  0.43263000  1.0 -0.2097549152
N  N128  1  0.81737000  0.40359000  0.16539000  1.0 -0.2097549152
N  N129  1  0.08461000  0.43263000  0.63635000  1.0 -0.2097549152
N  N130  1  0.81737000  0.16539000  0.61365000  1.0 -0.2097549152
N  N131  1  0.61365000  0.40359000  0.81737000  1.0 -0.2097549152
N  N132  1  0.63635000  0.84641000  0.08461000  1.0 -0.2097549152
N  N133  1  0.08461000  0.63635000  0.84641000  1.0 -0.2097549152
N  N134  1  0.81737000  0.61365000  0.40359000  1.0 -0.2097549152
N  N135  1  0.84641000  0.08461000  0.63635000  1.0 -0.2097549152
N  N136  1  0.40359000  0.81737000  0.61365000  1.0 -0.2097549152
N  N137  1  0.40359000  0.16539000  0.81737000  1.0 -0.2097549152
N  N138  1  0.16539000  0.61365000  0.81737000  1.0 -0.2097549152
N  N139  1  0.43263000  0.63635000  0.08461000  1.0 -0.2097549152
N  N140  1  0.84641000  0.43263000  0.08461000  1.0 -0.2097549152
N  N141  1  0.16539000  0.81737000  0.40359000  1.0 -0.2097549152
N  N142  1  0.43263000  0.08461000  0.84641000  1.0 -0.2097549152
N  N143  1  0.61365000  0.16539000  0.40359000  1.0 -0.2097549152
N  N144  1  0.16539000  0.40359000  0.61365000  1.0 -0.2097549152
N  N145  1  0.36336000  0.91684000  0.63740000  1.0 -0.2097549152
N  N146  1  0.88664000  0.33316000  0.16760000  1.0 -0.2097549152
N  N147  1  0.33316000  0.16760000  0.88664000  1.0 -0.2097549152
N  N148  1  0.16760000  0.88664000  0.33316000  1.0 -0.2097549152
N  N149  1  0.33316000  0.61260000  0.16760000  1.0 -0.2097549152
N  N150  1  0.91684000  0.08240000  0.63740000  1.0 -0.2097549152
N  N151  1  0.61260000  0.88664000  0.16760000  1.0 -0.2097549152
N  N152  1  0.08240000  0.36336000  0.63740000  1.0 -0.2097549152
N  N153  1  0.61260000  0.16760000  0.33316000  1.0 -0.2097549152
N  N154  1  0.08240000  0.63740000  0.91684000  1.0 -0.2097549152
N  N155  1  0.91684000  0.36336000  0.08240000  1.0 -0.2097549152
N  N156  1  0.33316000  0.88664000  0.61260000  1.0 -0.2097549152
N  N157  1  0.61260000  0.33316000  0.88664000  1.0 -0.2097549152
N  N158  1  0.08240000  0.91684000  0.36336000  1.0 -0.2097549152
N  N159  1  0.88664000  0.61260000  0.33316000  1.0 -0.2097549152
N  N160  1  0.36336000  0.08240000  0.91684000  1.0 -0.2097549152
N  N161  1  0.36336000  0.63740000  0.08240000  1.0 -0.2097549152
N  N162  1  0.63740000  0.91684000  0.08240000  1.0 -0.2097549152
N  N163  1  0.16760000  0.33316000  0.61260000  1.0 -0.2097549152
N  N164  1  0.88664000  0.16760000  0.61260000  1.0 -0.2097549152
N  N165  1  0.63740000  0.08240000  0.36336000  1.0 -0.2097549152
N  N166  1  0.16760000  0.61260000  0.88664000  1.0 -0.2097549152
N  N167  1  0.91684000  0.63740000  0.36336000  1.0 -0.2097549152
N  N168  1  0.63740000  0.36336000  0.91684000  1.0 -0.2097549152
N  N169  1  0.38664000  0.83316000  0.11260000  1.0 -0.2097549152
N  N170  1  0.86336000  0.41684000  0.58240000  1.0 -0.2097549152
N  N171  1  0.41684000  0.58240000  0.86336000  1.0 -0.2097549152
N  N172  1  0.58240000  0.86336000  0.41684000  1.0 -0.2097549152
N  N173  1  0.41684000  0.13740000  0.58240000  1.0 -0.2097549152
N  N174  1  0.83316000  0.66760000  0.11260000  1.0 -0.2097549152
N  N175  1  0.13740000  0.86336000  0.58240000  1.0 -0.2097549152
N  N176  1  0.66760000  0.38664000  0.11260000  1.0 -0.2097549152
N  N177  1  0.13740000  0.58240000  0.41684000  1.0 -0.2097549152
N  N178  1  0.66760000  0.11260000  0.83316000  1.0 -0.2097549152
N  N179  1  0.83316000  0.38664000  0.66760000  1.0 -0.2097549152
N  N180  1  0.41684000  0.86336000  0.13740000  1.0 -0.2097549152
N  N181  1  0.13740000  0.41684000  0.86336000  1.0 -0.2097549152
N  N182  1  0.66760000  0.83316000  0.38664000  1.0 -0.2097549152
N  N183  1  0.86336000  0.13740000  0.41684000  1.0 -0.2097549152
N  N184  1  0.38664000  0.66760000  0.83316000  1.0 -0.2097549152
N  N185  1  0.38664000  0.11260000  0.66760000  1.0 -0.2097549152
N  N186  1  0.11260000  0.83316000  0.66760000  1.0 -0.2097549152
N  N187  1  0.58240000  0.41684000  0.13740000  1.0 -0.2097549152
N  N188  1  0.86336000  0.58240000  0.13740000  1.0 -0.2097549152
N  N189  1  0.11260000  0.66760000  0.38664000  1.0 -0.2097549152
N  N190  1  0.58240000  0.13740000  0.86336000  1.0 -0.2097549152
N  N191  1  0.83316000  0.11260000  0.38664000  1.0 -0.2097549152
N  N192  1  0.11260000  0.38664000  0.83316000  1.0 -0.2097549152
N  N193  1  0.35881000  0.01167000  0.55011000  1.0 -0.4022767785
N  N194  1  0.89119000  0.23833000  0.17059000  1.0 -0.4022767785
N  N195  1  0.23833000  0.17059000  0.89119000  1.0 -0.4022767785
N  N196  1  0.17059000  0.89119000  0.23833000  1.0 -0.4022767785
N  N197  1  0.23833000  0.69989000  0.17059000  1.0 -0.4022767785
N  N198  1  0.01167000  0.07941000  0.55011000  1.0 -0.4022767785
N  N199  1  0.69989000  0.89119000  0.17059000  1.0 -0.4022767785
N  N200  1  0.07941000  0.35881000  0.55011000  1.0 -0.4022767785
N  N201  1  0.69989000  0.17059000  0.23833000  1.0 -0.4022767785
N  N202  1  0.07941000  0.55011000  0.01167000  1.0 -0.4091830235
N  N203  1  0.01167000  0.35881000  0.07941000  1.0 -0.4091830235
N  N204  1  0.23833000  0.89119000  0.69989000  1.0 -0.4022767785
N  N205  1  0.69989000  0.23833000  0.89119000  1.0 -0.4022767785
N  N206  1  0.07941000  0.01167000  0.35881000  1.0 -0.4022767785
N  N207  1  0.89119000  0.69989000  0.23833000  1.0 -0.4091830235
N  N208  1  0.35881000  0.07941000  0.01167000  1.0 -0.4022767785
N  N209  1  0.35881000  0.55011000  0.07941000  1.0 -0.4022767785
N  N210  1  0.55011000  0.01167000  0.07941000  1.0 -0.4022767785
N  N211  1  0.17059000  0.23833000  0.69989000  1.0 -0.4022767785
N  N212  1  0.89119000  0.17059000  0.69989000  1.0 -0.4022767785
N  N213  1  0.55011000  0.07941000  0.35881000  1.0 -0.4022767785
N  N214  1  0.17059000  0.69989000  0.89119000  1.0 -0.4022767785
N  N215  1  0.01167000  0.55011000  0.35881000  1.0 -0.4022767785
N  N216  1  0.55011000  0.35881000  0.01167000  1.0 -0.4091830235
N  N217  1  0.39119000  0.73833000  0.19989000  1.0 -0.4022767785
N  N218  1  0.85881000  0.51167000  0.57941000  1.0 -0.4022767785
N  N219  1  0.51167000  0.57941000  0.85881000  1.0 -0.4022767785
N  N220  1  0.57941000  0.85881000  0.51167000  1.0 -0.4022767785
N  N221  1  0.51167000  0.05011000  0.57941000  1.0 -0.4022767785
N  N222  1  0.73833000  0.67059000  0.19989000  1.0 -0.4022767785
N  N223  1  0.05011000  0.85881000  0.57941000  1.0 -0.4091830235
N  N224  1  0.67059000  0.39119000  0.19989000  1.0 -0.4091830235
N  N225  1  0.05011000  0.57941000  0.51167000  1.0 -0.4022767785
N  N226  1  0.67059000  0.19989000  0.73833000  1.0 -0.4022767785
N  N227  1  0.73833000  0.39119000  0.67059000  1.0 -0.4022767785
N  N228  1  0.51167000  0.85881000  0.05011000  1.0 -0.4022767785
N  N229  1  0.05011000  0.51167000  0.85881000  1.0 -0.4022767785
N  N230  1  0.67059000  0.73833000  0.39119000  1.0 -0.4091830235
N  N231  1  0.85881000  0.05011000  0.51167000  1.0 -0.4022767785
N  N232  1  0.39119000  0.67059000  0.73833000  1.0 -0.4022767785
N  N233  1  0.39119000  0.19989000  0.67059000  1.0 -0.4022767785
N  N234  1  0.19989000  0.73833000  0.67059000  1.0 -0.4022767785
N  N235  1  0.57941000  0.51167000  0.05011000  1.0 -0.4091830235
N  N236  1  0.85881000  0.57941000  0.05011000  1.0 -0.4022767785
N  N237  1  0.19989000  0.67059000  0.39119000  1.0 -0.4091830235
N  N238  1  0.57941000  0.05011000  0.85881000  1.0 -0.4022767785
N  N239  1  0.73833000  0.19989000  0.39119000  1.0 -0.4091830235
N  N240  1  0.19989000  0.39119000  0.73833000  1.0 -0.4022767785
N  N241  1  0.34297000  0.04541000  0.58585000  1.0 -0.4022767785
N  N242  1  0.90703000  0.20459000  0.22423000  1.0 -0.4091830235
N  N243  1  0.20459000  0.22423000  0.90703000  1.0 -0.4022767785
N  N244  1  0.22423000  0.90703000  0.20459000  1.0 -0.4091830235
N  N245  1  0.20459000  0.66415000  0.22423000  1.0 -0.4022767785
N  N246  1  0.04541000  0.02577000  0.58585000  1.0 -0.4022767785
N  N247  1  0.66415000  0.90703000  0.22423000  1.0 -0.4022767785
N  N248  1  0.02577000  0.34297000  0.58585000  1.0 -0.4022767785
N  N249  1  0.66415000  0.22423000  0.20459000  1.0 -0.4022767785
N  N250  1  0.02577000  0.58585000  0.04541000  1.0 -0.4022767785
N  N251  1  0.04541000  0.34297000  0.02577000  1.0 -0.4091830235
N  N252  1  0.20459000  0.90703000  0.66415000  1.0 -0.4022767785
N  N253  1  0.66415000  0.20459000  0.90703000  1.0 -0.4022767785
N  N254  1  0.02577000  0.04541000  0.34297000  1.0 -0.4022767785
N  N255  1  0.90703000  0.66415000  0.20459000  1.0 -0.4022767785
N  N256  1  0.34297000  0.02577000  0.04541000  1.0 -0.4022767785
N  N257  1  0.34297000  0.58585000  0.02577000  1.0 -0.4022767785
N  N258  1  0.58585000  0.04541000  0.02577000  1.0 -0.4091830235
N  N259  1  0.22423000  0.20459000  0.66415000  1.0 -0.4022767785
N  N260  1  0.90703000  0.22423000  0.66415000  1.0 -0.4022767785
N  N261  1  0.58585000  0.02577000  0.34297000  1.0 -0.4022767785
N  N262  1  0.22423000  0.66415000  0.90703000  1.0 -0.4022767785
N  N263  1  0.04541000  0.58585000  0.34297000  1.0 -0.4022767785
N  N264  1  0.58585000  0.34297000  0.04541000  1.0 -0.4091830235
N  N265  1  0.40703000  0.70459000  0.16415000  1.0 -0.4022767785
N  N266  1  0.84297000  0.54541000  0.52577000  1.0 -0.4022767785
N  N267  1  0.54541000  0.52577000  0.84297000  1.0 -0.4022767785
N  N268  1  0.52577000  0.84297000  0.54541000  1.0 -0.4022767785
N  N269  1  0.54541000  0.08585000  0.52577000  1.0 -0.4022767785
N  N270  1  0.70459000  0.72423000  0.16415000  1.0 -0.4091830235
N  N271  1  0.08585000  0.84297000  0.52577000  1.0 -0.4022767785
N  N272  1  0.72423000  0.40703000  0.16415000  1.0 -0.4091830235
N  N273  1  0.08585000  0.52577000  0.54541000  1.0 -0.4022767785
N  N274  1  0.72423000  0.16415000  0.70459000  1.0 -0.4022767785
N  N275  1  0.70459000  0.40703000  0.72423000  1.0 -0.4022767785
N  N276  1  0.54541000  0.84297000  0.08585000  1.0 -0.4091830235
N  N277  1  0.08585000  0.54541000  0.84297000  1.0 -0.4022767785
N  N278  1  0.72423000  0.70459000  0.40703000  1.0 -0.4022767785
N  N279  1  0.84297000  0.08585000  0.54541000  1.0 -0.4022767785
N  N280  1  0.40703000  0.72423000  0.70459000  1.0 -0.4022767785
N  N281  1  0.40703000  0.16415000  0.72423000  1.0 -0.4022767785
N  N282  1  0.16415000  0.70459000  0.72423000  1.0 -0.4022767785
N  N283  1  0.52577000  0.54541000  0.08585000  1.0 -0.4091830235
N  N284  1  0.84297000  0.52577000  0.08585000  1.0 -0.4022767785
N  N285  1  0.16415000  0.72423000  0.40703000  1.0 -0.4091830235
N  N286  1  0.52577000  0.08585000  0.84297000  1.0 -0.4022767785
N  N287  1  0.70459000  0.16415000  0.40703000  1.0 -0.4022767785
N  N288  1  0.16415000  0.40703000  0.70459000  1.0 -0.4091830235
N  N289  1  0.34811000  0.07535000  0.52309000  1.0 -0.4091830235
N  N290  1  0.90189000  0.17465000  0.19655000  1.0 -0.4091830235
N  N291  1  0.17465000  0.19655000  0.90189000  1.0 -0.4091830235
N  N292  1  0.19655000  0.90189000  0.17465000  1.0 -0.4091830235
N  N293  1  0.17465000  0.72691000  0.19655000  1.0 -0.4091830235
N  N294  1  0.07535000  0.05345000  0.52309000  1.0 -0.4091830235
N  N295  1  0.72691000  0.90189000  0.19655000  1.0 -0.4091830235
N  N296  1  0.05345000  0.34811000  0.52309000  1.0 -0.4091830235
N  N297  1  0.72691000  0.19655000  0.17465000  1.0 -0.4091830235
N  N298  1  0.05345000  0.52309000  0.07535000  1.0 -0.4091830235
N  N299  1  0.07535000  0.34811000  0.05345000  1.0 -0.4091830235
N  N300  1  0.17465000  0.90189000  0.72691000  1.0 -0.4091830235
N  N301  1  0.72691000  0.17465000  0.90189000  1.0 -0.4091830235
N  N302  1  0.05345000  0.07535000  0.34811000  1.0 -0.4091830235
N  N303  1  0.90189000  0.72691000  0.17465000  1.0 -0.4091830235
N  N304  1  0.34811000  0.05345000  0.07535000  1.0 -0.4091830235
N  N305  1  0.34811000  0.52309000  0.05345000  1.0 -0.4091830235
N  N306  1  0.52309000  0.07535000  0.05345000  1.0 -0.4091830235
N  N307  1  0.19655000  0.17465000  0.72691000  1.0 -0.4091830235
N  N308  1  0.90189000  0.19655000  0.72691000  1.0 -0.4091830235
N  N309  1  0.52309000  0.05345000  0.34811000  1.0 -0.4091830235
N  N310  1  0.19655000  0.72691000  0.90189000  1.0 -0.4091830235
N  N311  1  0.07535000  0.52309000  0.34811000  1.0 -0.4091830235
N  N312  1  0.52309000  0.34811000  0.07535000  1.0 -0.4091830235
N  N313  1  0.40189000  0.67465000  0.22691000  1.0 -0.4091830235
N  N314  1  0.84811000  0.57535000  0.55345000  1.0 -0.4091830235
N  N315  1  0.57535000  0.55345000  0.84811000  1.0 -0.4091830235
N  N316  1  0.55345000  0.84811000  0.57535000  1.0 -0.4091830235
N  N317  1  0.57535000  0.02309000  0.55345000  1.0 -0.4091830235
N  N318  1  0.67465000  0.69655000  0.22691000  1.0 -0.4091830235
N  N319  1  0.02309000  0.84811000  0.55345000  1.0 -0.4091830235
N  N320  1  0.69655000  0.40189000  0.22691000  1.0 -0.4091830235
N  N321  1  0.02309000  0.55345000  0.57535000  1.0 -0.4091830235
N  N322  1  0.69655000  0.22691000  0.67465000  1.0 -0.4091830235
N  N323  1  0.67465000  0.40189000  0.69655000  1.0 -0.4091830235
N  N324  1  0.57535000  0.84811000  0.02309000  1.0 -0.4091830235
N  N325  1  0.02309000  0.57535000  0.84811000  1.0 -0.4091830235
N  N326  1  0.69655000  0.67465000  0.40189000  1.0 -0.4091830235
N  N327  1  0.84811000  0.02309000  0.57535000  1.0 -0.4091830235
N  N328  1  0.40189000  0.69655000  0.67465000  1.0 -0.4091830235
N  N329  1  0.40189000  0.22691000  0.69655000  1.0 -0.4091830235
N  N330  1  0.22691000  0.67465000  0.69655000  1.0 -0.4091830235
N  N331  1  0.55345000  0.57535000  0.02309000  1.0 -0.4091830235
N  N332  1  0.84811000  0.55345000  0.02309000  1.0 -0.4091830235
N  N333  1  0.22691000  0.69655000  0.40189000  1.0 -0.4091830235
N  N334  1  0.55345000  0.02309000  0.84811000  1.0 -0.4091830235
N  N335  1  0.67465000  0.22691000  0.40189000  1.0 -0.4091830235
N  N336  1  0.22691000  0.40189000  0.67465000  1.0 -0.4091830235
N  N337  1  0.37999000  0.07161000  0.42229000  1.0 -0.2097549152
N  N338  1  0.87001000  0.17839000  0.12389000  1.0 -0.2097549152
N  N339  1  0.17839000  0.12389000  0.87001000  1.0 -0.2097549152
N  N340  1  0.12389000  0.87001000  0.17839000  1.0 -0.2097549152
N  N341  1  0.17839000  0.82771000  0.12389000  1.0 -0.2097549152
N  N342  1  0.07161000  0.12611000  0.42229000  1.0 -0.2097549152
N  N343  1  0.82771000  0.87001000  0.12389000  1.0 -0.2097549152
N  N344  1  0.12611000  0.37999000  0.42229000  1.0 -0.2097549152
N  N345  1  0.82771000  0.12389000  0.17839000  1.0 -0.2097549152
N  N346  1  0.12611000  0.42229000  0.07161000  1.0 -0.2097549152
N  N347  1  0.07161000  0.37999000  0.12611000  1.0 -0.2097549152
N  N348  1  0.17839000  0.87001000  0.82771000  1.0 -0.2097549152
N  N349  1  0.82771000  0.17839000  0.87001000  1.0 -0.2097549152
N  N350  1  0.12611000  0.07161000  0.37999000  1.0 -0.2097549152
N  N351  1  0.87001000  0.82771000  0.17839000  1.0 -0.2097549152
N  N352  1  0.37999000  0.12611000  0.07161000  1.0 -0.2097549152
N  N353  1  0.37999000  0.42229000  0.12611000  1.0 -0.2097549152
N  N354  1  0.42229000  0.07161000  0.12611000  1.0 -0.2097549152
N  N355  1  0.12389000  0.17839000  0.82771000  1.0 -0.2097549152
N  N356  1  0.87001000  0.12389000  0.82771000  1.0 -0.2097549152
N  N357  1  0.42229000  0.12611000  0.37999000  1.0 -0.2097549152
N  N358  1  0.12389000  0.82771000  0.87001000  1.0 -0.2097549152
N  N359  1  0.07161000  0.42229000  0.37999000  1.0 -0.2097549152
N  N360  1  0.42229000  0.37999000  0.07161000  1.0 -0.2097549152
N  N361  1  0.37001000  0.67839000  0.32771000  1.0 -0.2097549152
N  N362  1  0.87999000  0.57161000  0.62611000  1.0 -0.2097549152
N  N363  1  0.57161000  0.62611000  0.87999000  1.0 -0.2097549152
N  N364  1  0.62611000  0.87999000  0.57161000  1.0 -0.2097549152
N  N365  1  0.57161000  0.92229000  0.62611000  1.0 -0.2097549152
N  N366  1  0.67839000  0.62389000  0.32771000  1.0 -0.2097549152
N  N367  1  0.92229000  0.87999000  0.62611000  1.0 -0.2097549152
N  N368  1  0.62389000  0.37001000  0.32771000  1.0 -0.2097549152
N  N369  1  0.92229000  0.62611000  0.57161000  1.0 -0.2097549152
N  N370  1  0.62389000  0.32771000  0.67839000  1.0 -0.2097549152
N  N371  1  0.67839000  0.37001000  0.62389000  1.0 -0.2097549152
N  N372  1  0.57161000  0.87999000  0.92229000  1.0 -0.2097549152
N  N373  1  0.92229000  0.57161000  0.87999000  1.0 -0.2097549152
N  N374  1  0.62389000  0.67839000  0.37001000  1.0 -0.2097549152
N  N375  1  0.87999000  0.92229000  0.57161000  1.0 -0.2097549152
N  N376  1  0.37001000  0.62389000  0.67839000  1.0 -0.2097549152
N  N377  1  0.37001000  0.32771000  0.62389000  1.0 -0.2097549152
N  N378  1  0.32771000  0.67839000  0.62389000  1.0 -0.2097549152
N  N379  1  0.62611000  0.57161000  0.92229000  1.0 -0.2097549152
N  N380  1  0.87999000  0.62611000  0.92229000  1.0 -0.2097549152
N  N381  1  0.32771000  0.62389000  0.37001000  1.0 -0.2097549152
N  N382  1  0.62611000  0.92229000  0.87999000  1.0 -0.2097549152
N  N383  1  0.67839000  0.32771000  0.37001000  1.0 -0.2097549152
N  N384  1  0.32771000  0.37001000  0.67839000  1.0 -0.2097549152
N  N385  1  0.32909000  0.11907000  0.38139000  1.0 -0.2013857199
N  N386  1  0.92091000  0.13093000  0.07955000  1.0 -0.2013857199
N  N387  1  0.13093000  0.07955000  0.92091000  1.0 -0.2013857199
N  N388  1  0.07955000  0.92091000  0.13093000  1.0 -0.2013857199
N  N389  1  0.13093000  0.86861000  0.07955000  1.0 -0.2013857199
N  N390  1  0.11907000  0.17045000  0.38139000  1.0 -0.2013857199
N  N391  1  0.86861000  0.92091000  0.07955000  1.0 -0.2013857199
N  N392  1  0.17045000  0.32909000  0.38139000  1.0 -0.2013857199
N  N393  1  0.86861000  0.07955000  0.13093000  1.0 -0.2013857199
N  N394  1  0.17045000  0.38139000  0.11907000  1.0 -0.2013857199
N  N395  1  0.11907000  0.32909000  0.17045000  1.0 -0.2013857199
N  N396  1  0.13093000  0.92091000  0.86861000  1.0 -0.2013857199
N  N397  1  0.86861000  0.13093000  0.92091000  1.0 -0.2013857199
N  N398  1  0.17045000  0.11907000  0.32909000  1.0 -0.2013857199
N  N399  1  0.92091000  0.86861000  0.13093000  1.0 -0.2013857199
N  N400  1  0.32909000  0.17045000  0.11907000  1.0 -0.2013857199
N  N401  1  0.32909000  0.38139000  0.17045000  1.0 -0.2013857199
N  N402  1  0.38139000  0.11907000  0.17045000  1.0 -0.2013857199
N  N403  1  0.07955000  0.13093000  0.86861000  1.0 -0.2013857199
N  N404  1  0.92091000  0.07955000  0.86861000  1.0 -0.2013857199
N  N405  1  0.38139000  0.17045000  0.32909000  1.0 -0.2013857199
N  N406  1  0.07955000  0.86861000  0.92091000  1.0 -0.2013857199
N  N407  1  0.11907000  0.38139000  0.32909000  1.0 -0.2013857199
N  N408  1  0.38139000  0.32909000  0.11907000  1.0 -0.2013857199
N  N409  1  0.42091000  0.63093000  0.36861000  1.0 -0.2013857199
N  N410  1  0.82909000  0.61907000  0.67045000  1.0 -0.2013857199
N  N411  1  0.61907000  0.67045000  0.82909000  1.0 -0.2013857199
N  N412  1  0.67045000  0.82909000  0.61907000  1.0 -0.2013857199
N  N413  1  0.61907000  0.88139000  0.67045000  1.0 -0.2013857199
N  N414  1  0.63093000  0.57955000  0.36861000  1.0 -0.2013857199
N  N415  1  0.88139000  0.82909000  0.67045000  1.0 -0.2013857199
N  N416  1  0.57955000  0.42091000  0.36861000  1.0 -0.2013857199
N  N417  1  0.88139000  0.67045000  0.61907000  1.0 -0.2013857199
N  N418  1  0.57955000  0.36861000  0.63093000  1.0 -0.2013857199
N  N419  1  0.63093000  0.42091000  0.57955000  1.0 -0.2013857199
N  N420  1  0.61907000  0.82909000  0.88139000  1.0 -0.2013857199
N  N421  1  0.88139000  0.61907000  0.82909000  1.0 -0.2013857199
N  N422  1  0.57955000  0.63093000  0.42091000  1.0 -0.2013857199
N  N423  1  0.82909000  0.88139000  0.61907000  1.0 -0.2013857199
N  N424  1  0.42091000  0.57955000  0.63093000  1.0 -0.2013857199
N  N425  1  0.42091000  0.36861000  0.57955000  1.0 -0.2013857199
N  N426  1  0.36861000  0.63093000  0.57955000  1.0 -0.2013857199
N  N427  1  0.67045000  0.61907000  0.88139000  1.0 -0.2013857199
N  N428  1  0.82909000  0.67045000  0.88139000  1.0 -0.2013857199
N  N429  1  0.36861000  0.57955000  0.42091000  1.0 -0.2013857199
N  N430  1  0.67045000  0.88139000  0.82909000  1.0 -0.2013857199
N  N431  1  0.63093000  0.36861000  0.42091000  1.0 -0.2013857199
N  N432  1  0.36861000  0.42091000  0.63093000  1.0 -0.2013857199
N  N433  1  0.26629000  0.11175000  0.32697000  1.0 -0.4022767785
N  N434  1  0.98371000  0.13825000  0.95501000  1.0 -0.4091830235
N  N435  1  0.13825000  0.95501000  0.98371000  1.0 -0.4022767785
N  N436  1  0.95501000  0.98371000  0.13825000  1.0 -0.4091830235
N  N437  1  0.13825000  0.92303000  0.95501000  1.0 -0.4022767785
N  N438  1  0.11175000  0.29499000  0.32697000  1.0 -0.4091830235
N  N439  1  0.92303000  0.98371000  0.95501000  1.0 -0.4022767785
N  N440  1  0.29499000  0.26629000  0.32697000  1.0 -0.4022767785
N  N441  1  0.92303000  0.95501000  0.13825000  1.0 -0.4091830235
N  N442  1  0.29499000  0.32697000  0.11175000  1.0 -0.4091830235
N  N443  1  0.11175000  0.26629000  0.29499000  1.0 -0.4091830235
N  N444  1  0.13825000  0.98371000  0.92303000  1.0 -0.4022767785
N  N445  1  0.92303000  0.13825000  0.98371000  1.0 -0.4091830235
N  N446  1  0.29499000  0.11175000  0.26629000  1.0 -0.4022767785
N  N447  1  0.98371000  0.92303000  0.13825000  1.0 -0.4091830235
N  N448  1  0.26629000  0.29499000  0.11175000  1.0 -0.4091830235
N  N449  1  0.26629000  0.32697000  0.29499000  1.0 -0.4022767785
N  N450  1  0.32697000  0.11175000  0.29499000  1.0 -0.4022767785
N  N451  1  0.95501000  0.13825000  0.92303000  1.0 -0.4091830235
N  N452  1  0.98371000  0.95501000  0.92303000  1.0 -0.4022767785
N  N453  1  0.32697000  0.29499000  0.26629000  1.0 -0.4022767785
N  N454  1  0.95501000  0.92303000  0.98371000  1.0 -0.4022767785
N  N455  1  0.11175000  0.32697000  0.26629000  1.0 -0.4091830235
N  N456  1  0.32697000  0.26629000  0.11175000  1.0 -0.4022767785
N  N457  1  0.48371000  0.63825000  0.42303000  1.0 -0.4022767785
N  N458  1  0.76629000  0.61175000  0.79499000  1.0 -0.4022767785
N  N459  1  0.61175000  0.79499000  0.76629000  1.0 -0.4022767785
N  N460  1  0.79499000  0.76629000  0.61175000  1.0 -0.4022767785
N  N461  1  0.61175000  0.82697000  0.79499000  1.0 -0.4022767785
N  N462  1  0.63825000  0.45501000  0.42303000  1.0 -0.4022767785
N  N463  1  0.82697000  0.76629000  0.79499000  1.0 -0.4022767785
N  N464  1  0.45501000  0.48371000  0.42303000  1.0 -0.4022767785
N  N465  1  0.82697000  0.79499000  0.61175000  1.0 -0.4022767785
N  N466  1  0.45501000  0.42303000  0.63825000  1.0 -0.4022767785
N  N467  1  0.63825000  0.48371000  0.45501000  1.0 -0.4022767785
N  N468  1  0.61175000  0.76629000  0.82697000  1.0 -0.4022767785
N  N469  1  0.82697000  0.61175000  0.76629000  1.0 -0.4091830235
N  N470  1  0.45501000  0.63825000  0.48371000  1.0 -0.4022767785
N  N471  1  0.76629000  0.82697000  0.61175000  1.0 -0.4022767785
N  N472  1  0.48371000  0.45501000  0.63825000  1.0 -0.4022767785
N  N473  1  0.48371000  0.42303000  0.45501000  1.0 -0.4022767785
N  N474  1  0.42303000  0.63825000  0.45501000  1.0 -0.4022767785
N  N475  1  0.79499000  0.61175000  0.82697000  1.0 -0.4022767785
N  N476  1  0.76629000  0.79499000  0.82697000  1.0 -0.4022767785
N  N477  1  0.42303000  0.45501000  0.48371000  1.0 -0.4022767785
N  N478  1  0.79499000  0.82697000  0.76629000  1.0 -0.4091830235
N  N479  1  0.63825000  0.42303000  0.48371000  1.0 -0.4022767785
N  N480  1  0.42303000  0.48371000  0.63825000  1.0 -0.4091830235
