# DDEC6 charges by PACMAN v1.1 (https://github.com/mtap-research/PACMAN-charge/)
data_LAFRIV_FSR_pacman
_symmetry_space_group_name_H-M   'P 1'
_cell_length_a   45.19830000
_cell_length_b   45.19830000
_cell_length_c   45.19830000
_cell_angle_alpha   60.00000000
_cell_angle_beta   60.00000000
_cell_angle_gamma   60.00000000
_symmetry_Int_Tables_number   1
_chemical_formula_structural   CoH16C26(SN5)2
_chemical_formula_sum   'Co48 H768 C1248 S96 N480'
_cell_volume   65290.69678340
_cell_formula_units_Z   48
loop_
 _symmetry_equiv_pos_site_id
 _symmetry_equiv_pos_as_xyz
  1  'x, y, z'
loop_
 _atom_site_type_symbol
 _atom_site_label
 _atom_site_symmetry_multiplicity
 _atom_site_fract_x
 _atom_site_fract_y
 _atom_site_fract_z
 _atom_site_occupancy
 _atom_site_charge
Co  Co1  1  0.12500000  0.62500000  0.38444000  1.0 0.6657883321
Co  Co2  1  0.62500000  0.38444000  0.12500000  1.0 0.6657883321
Co  Co3  1  0.38444000  0.12500000  0.62500000  1.0 0.6657883321
Co  Co4  1  0.62500000  0.86556000  0.38444000  1.0 0.6657883321
Co  Co5  1  0.86556000  0.12500000  0.38444000  1.0 0.6657883321
Co  Co6  1  0.86556000  0.38444000  0.62500000  1.0 0.6657883321
Co  Co7  1  0.62500000  0.12500000  0.86556000  1.0 0.6657883321
Co  Co8  1  0.86556000  0.62500000  0.12500000  1.0 0.6657883321
Co  Co9  1  0.12500000  0.86556000  0.62500000  1.0 0.6657883321
Co  Co10  1  0.12500000  0.38444000  0.86556000  1.0 0.6657883321
Co  Co11  1  0.38444000  0.62500000  0.86556000  1.0 0.6657883321
Co  Co12  1  0.38444000  0.86556000  0.12500000  1.0 0.6657883321
Co  Co13  1  0.62500000  0.12500000  0.36556000  1.0 0.6657883321
Co  Co14  1  0.12500000  0.36556000  0.62500000  1.0 0.6657883321
Co  Co15  1  0.36556000  0.62500000  0.12500000  1.0 0.6657883321
Co  Co16  1  0.12500000  0.88444000  0.36556000  1.0 0.6657883321
Co  Co17  1  0.88444000  0.62500000  0.36556000  1.0 0.6657883321
Co  Co18  1  0.88444000  0.36556000  0.12500000  1.0 0.6657883321
Co  Co19  1  0.12500000  0.62500000  0.88444000  1.0 0.6657883321
Co  Co20  1  0.88444000  0.12500000  0.62500000  1.0 0.6657883321
Co  Co21  1  0.62500000  0.88444000  0.12500000  1.0 0.6657883321
Co  Co22  1  0.62500000  0.36556000  0.88444000  1.0 0.6657883321
Co  Co23  1  0.36556000  0.12500000  0.88444000  1.0 0.6657883321
Co  Co24  1  0.36556000  0.88444000  0.62500000  1.0 0.6657883321
Co  Co25  1  0.37290000  0.62710000  0.37290000  1.0 0.6559700067
Co  Co26  1  0.87710000  0.62290000  0.62290000  1.0 0.6559700067
Co  Co27  1  0.62290000  0.62290000  0.87710000  1.0 0.6559700067
Co  Co28  1  0.62290000  0.87710000  0.62290000  1.0 0.6559700067
Co  Co29  1  0.62710000  0.62710000  0.37290000  1.0 0.6559700067
Co  Co30  1  0.87710000  0.87710000  0.62290000  1.0 0.6559700067
Co  Co31  1  0.62710000  0.37290000  0.37290000  1.0 0.6559700067
Co  Co32  1  0.62710000  0.37290000  0.62710000  1.0 0.6559700067
Co  Co33  1  0.62290000  0.87710000  0.87710000  1.0 0.6559700067
Co  Co34  1  0.87710000  0.62290000  0.87710000  1.0 0.6559700067
Co  Co35  1  0.37290000  0.62710000  0.62710000  1.0 0.6559700067
Co  Co36  1  0.37290000  0.37290000  0.62710000  1.0 0.6559700067
Co  Co37  1  0.37710000  0.12290000  0.37710000  1.0 0.6559700067
Co  Co38  1  0.87290000  0.12710000  0.12710000  1.0 0.6559700067
Co  Co39  1  0.12710000  0.12710000  0.87290000  1.0 0.6559700067
Co  Co40  1  0.12710000  0.87290000  0.12710000  1.0 0.6559700067
Co  Co41  1  0.12290000  0.12290000  0.37710000  1.0 0.6559700067
Co  Co42  1  0.87290000  0.87290000  0.12710000  1.0 0.6559700067
Co  Co43  1  0.12290000  0.37710000  0.37710000  1.0 0.6559700067
Co  Co44  1  0.12290000  0.37710000  0.12290000  1.0 0.6559700067
Co  Co45  1  0.12710000  0.87290000  0.87290000  1.0 0.6559700067
Co  Co46  1  0.87290000  0.12710000  0.87290000  1.0 0.6559700067
Co  Co47  1  0.37710000  0.12290000  0.12290000  1.0 0.6559700067
Co  Co48  1  0.37710000  0.37710000  0.12290000  1.0 0.6559700067
H  H1  1  0.18810000  0.56130000  0.41910000  1.0 0.0998157419
H  H2  1  0.06190000  0.68870000  0.41850000  1.0 0.0998157419
H  H3  1  0.68870000  0.41850000  0.06190000  1.0 0.0998157419
H  H4  1  0.41850000  0.06190000  0.68870000  1.0 0.0998157419
H  H5  1  0.68870000  0.83090000  0.41850000  1.0 0.0998157419
H  H6  1  0.56130000  0.83150000  0.41910000  1.0 0.0998157419
H  H7  1  0.83090000  0.06190000  0.41850000  1.0 0.0998157419
H  H8  1  0.83150000  0.18810000  0.41910000  1.0 0.0998157419
H  H9  1  0.83090000  0.41850000  0.68870000  1.0 0.0998157419
H  H10  1  0.83150000  0.41910000  0.56130000  1.0 0.0998157419
H  H11  1  0.56130000  0.18810000  0.83150000  1.0 0.0998157419
H  H12  1  0.68870000  0.06190000  0.83090000  1.0 0.0998157419
H  H13  1  0.83090000  0.68870000  0.06190000  1.0 0.0998157419
H  H14  1  0.83150000  0.56130000  0.18810000  1.0 0.0998157419
H  H15  1  0.06190000  0.83090000  0.68870000  1.0 0.0998157419
H  H16  1  0.18810000  0.83150000  0.56130000  1.0 0.0998157419
H  H17  1  0.18810000  0.41910000  0.83150000  1.0 0.0998157419
H  H18  1  0.41910000  0.56130000  0.83150000  1.0 0.0998157419
H  H19  1  0.41850000  0.68870000  0.83090000  1.0 0.0998157419
H  H20  1  0.06190000  0.41850000  0.83090000  1.0 0.0998157419
H  H21  1  0.41910000  0.83150000  0.18810000  1.0 0.0998157419
H  H22  1  0.41850000  0.83090000  0.06190000  1.0 0.0998157419
H  H23  1  0.56130000  0.41910000  0.18810000  1.0 0.0998157419
H  H24  1  0.41910000  0.18810000  0.56130000  1.0 0.0998157419
H  H25  1  0.56190000  0.18870000  0.33090000  1.0 0.0998157419
H  H26  1  0.68810000  0.06130000  0.33150000  1.0 0.0998157419
H  H27  1  0.06130000  0.33150000  0.68810000  1.0 0.0998157419
H  H28  1  0.33150000  0.68810000  0.06130000  1.0 0.0998157419
H  H29  1  0.06130000  0.91910000  0.33150000  1.0 0.0998157419
H  H30  1  0.18870000  0.91850000  0.33090000  1.0 0.0998157419
H  H31  1  0.91910000  0.68810000  0.33150000  1.0 0.0998157419
H  H32  1  0.91850000  0.56190000  0.33090000  1.0 0.0998157419
H  H33  1  0.91910000  0.33150000  0.06130000  1.0 0.0998157419
H  H34  1  0.91850000  0.33090000  0.18870000  1.0 0.0998157419
H  H35  1  0.18870000  0.56190000  0.91850000  1.0 0.0998157419
H  H36  1  0.06130000  0.68810000  0.91910000  1.0 0.0998157419
H  H37  1  0.91910000  0.06130000  0.68810000  1.0 0.0998157419
H  H38  1  0.91850000  0.18870000  0.56190000  1.0 0.0998157419
H  H39  1  0.68810000  0.91910000  0.06130000  1.0 0.0998157419
H  H40  1  0.56190000  0.91850000  0.18870000  1.0 0.0998157419
H  H41  1  0.56190000  0.33090000  0.91850000  1.0 0.0998157419
H  H42  1  0.33090000  0.18870000  0.91850000  1.0 0.0998157419
H  H43  1  0.33150000  0.06130000  0.91910000  1.0 0.0998157419
H  H44  1  0.68810000  0.33150000  0.91910000  1.0 0.0998157419
H  H45  1  0.33090000  0.91850000  0.56190000  1.0 0.0998157419
H  H46  1  0.33150000  0.91910000  0.68810000  1.0 0.0998157419
H  H47  1  0.18870000  0.33090000  0.56190000  1.0 0.0998157419
H  H48  1  0.33090000  0.56190000  0.18870000  1.0 0.0998157419
H  H49  1  0.23070000  0.55530000  0.43730000  1.0 0.1374622771
H  H50  1  0.01930000  0.69470000  0.47330000  1.0 0.1374622771
H  H51  1  0.69470000  0.47330000  0.01930000  1.0 0.1374622771
H  H52  1  0.47330000  0.01930000  0.69470000  1.0 0.1374622771
H  H53  1  0.69470000  0.81270000  0.47330000  1.0 0.1374622771
H  H54  1  0.55530000  0.77670000  0.43730000  1.0 0.1374622771
H  H55  1  0.81270000  0.01930000  0.47330000  1.0 0.1374622771
H  H56  1  0.77670000  0.23070000  0.43730000  1.0 0.1374622771
H  H57  1  0.81270000  0.47330000  0.69470000  1.0 0.1374622771
H  H58  1  0.77670000  0.43730000  0.55530000  1.0 0.1374622771
H  H59  1  0.55530000  0.23070000  0.77670000  1.0 0.1374622771
H  H60  1  0.69470000  0.01930000  0.81270000  1.0 0.1374622771
H  H61  1  0.81270000  0.69470000  0.01930000  1.0 0.1374622771
H  H62  1  0.77670000  0.55530000  0.23070000  1.0 0.1374622771
H  H63  1  0.01930000  0.81270000  0.69470000  1.0 0.1374622771
H  H64  1  0.23070000  0.77670000  0.55530000  1.0 0.1374622771
H  H65  1  0.23070000  0.43730000  0.77670000  1.0 0.1374622771
H  H66  1  0.43730000  0.55530000  0.77670000  1.0 0.1374622771
H  H67  1  0.47330000  0.69470000  0.81270000  1.0 0.1374622771
H  H68  1  0.01930000  0.47330000  0.81270000  1.0 0.1374622771
H  H69  1  0.43730000  0.77670000  0.23070000  1.0 0.1374622771
H  H70  1  0.47330000  0.81270000  0.01930000  1.0 0.1374622771
H  H71  1  0.55530000  0.43730000  0.23070000  1.0 0.1374622771
H  H72  1  0.43730000  0.23070000  0.55530000  1.0 0.1374622771
H  H73  1  0.51930000  0.19470000  0.31270000  1.0 0.1374622771
H  H74  1  0.73070000  0.05530000  0.27670000  1.0 0.1374622771
H  H75  1  0.05530000  0.27670000  0.73070000  1.0 0.1374622771
H  H76  1  0.27670000  0.73070000  0.05530000  1.0 0.1374622771
H  H77  1  0.05530000  0.93730000  0.27670000  1.0 0.1374622771
H  H78  1  0.19470000  0.97330000  0.31270000  1.0 0.1374622771
H  H79  1  0.93730000  0.73070000  0.27670000  1.0 0.1374622771
H  H80  1  0.97330000  0.51930000  0.31270000  1.0 0.1374622771
H  H81  1  0.93730000  0.27670000  0.05530000  1.0 0.1374622771
H  H82  1  0.97330000  0.31270000  0.19470000  1.0 0.1374622771
H  H83  1  0.19470000  0.51930000  0.97330000  1.0 0.1374622771
H  H84  1  0.05530000  0.73070000  0.93730000  1.0 0.1374622771
H  H85  1  0.93730000  0.05530000  0.73070000  1.0 0.1374622771
H  H86  1  0.97330000  0.19470000  0.51930000  1.0 0.1374622771
H  H87  1  0.73070000  0.93730000  0.05530000  1.0 0.1374622771
H  H88  1  0.51930000  0.97330000  0.19470000  1.0 0.1374622771
H  H89  1  0.51930000  0.31270000  0.97330000  1.0 0.1374622771
H  H90  1  0.31270000  0.19470000  0.97330000  1.0 0.1374622771
H  H91  1  0.27670000  0.05530000  0.93730000  1.0 0.1374622771
H  H92  1  0.73070000  0.27670000  0.93730000  1.0 0.1374622771
H  H93  1  0.31270000  0.97330000  0.51930000  1.0 0.1374622771
H  H94  1  0.27670000  0.93730000  0.73070000  1.0 0.1374622771
H  H95  1  0.19470000  0.31270000  0.51930000  1.0 0.1374622771
H  H96  1  0.31270000  0.51930000  0.19470000  1.0 0.1374622771
H  H97  1  0.23550000  0.60710000  0.43250000  1.0 0.1216804712
H  H98  1  0.01450000  0.64290000  0.52510000  1.0 0.1216804712
H  H99  1  0.64290000  0.52510000  0.01450000  1.0 0.1216804712
H  H100  1  0.52510000  0.01450000  0.64290000  1.0 0.1216804712
H  H101  1  0.64290000  0.81750000  0.52510000  1.0 0.1216804712
H  H102  1  0.60710000  0.72490000  0.43250000  1.0 0.1216804712
H  H103  1  0.81750000  0.01450000  0.52510000  1.0 0.1216804712
H  H104  1  0.72490000  0.23550000  0.43250000  1.0 0.1216804712
H  H105  1  0.81750000  0.52510000  0.64290000  1.0 0.1216804712
H  H106  1  0.72490000  0.43250000  0.60710000  1.0 0.1216804712
H  H107  1  0.60710000  0.23550000  0.72490000  1.0 0.1216804712
H  H108  1  0.64290000  0.01450000  0.81750000  1.0 0.1216804712
H  H109  1  0.81750000  0.64290000  0.01450000  1.0 0.1216804712
H  H110  1  0.72490000  0.60710000  0.23550000  1.0 0.1216804712
H  H111  1  0.01450000  0.81750000  0.64290000  1.0 0.1216804712
H  H112  1  0.23550000  0.72490000  0.60710000  1.0 0.1216804712
H  H113  1  0.23550000  0.43250000  0.72490000  1.0 0.1216804712
H  H114  1  0.43250000  0.60710000  0.72490000  1.0 0.1216804712
H  H115  1  0.52510000  0.64290000  0.81750000  1.0 0.1216804712
H  H116  1  0.01450000  0.52510000  0.81750000  1.0 0.1216804712
H  H117  1  0.43250000  0.72490000  0.23550000  1.0 0.1216804712
H  H118  1  0.52510000  0.81750000  0.01450000  1.0 0.1216804712
H  H119  1  0.60710000  0.43250000  0.23550000  1.0 0.1216804712
H  H120  1  0.43250000  0.23550000  0.60710000  1.0 0.1216804712
H  H121  1  0.51450000  0.14290000  0.31750000  1.0 0.1216804712
H  H122  1  0.73550000  0.10710000  0.22490000  1.0 0.1216804712
H  H123  1  0.10710000  0.22490000  0.73550000  1.0 0.1216804712
H  H124  1  0.22490000  0.73550000  0.10710000  1.0 0.1216804712
H  H125  1  0.10710000  0.93250000  0.22490000  1.0 0.1216804712
H  H126  1  0.14290000  0.02510000  0.31750000  1.0 0.1216804712
H  H127  1  0.93250000  0.73550000  0.22490000  1.0 0.1216804712
H  H128  1  0.02510000  0.51450000  0.31750000  1.0 0.1216804712
H  H129  1  0.93250000  0.22490000  0.10710000  1.0 0.1216804712
H  H130  1  0.02510000  0.31750000  0.14290000  1.0 0.1216804712
H  H131  1  0.14290000  0.51450000  0.02510000  1.0 0.1216804712
H  H132  1  0.10710000  0.73550000  0.93250000  1.0 0.1216804712
H  H133  1  0.93250000  0.10710000  0.73550000  1.0 0.1216804712
H  H134  1  0.02510000  0.14290000  0.51450000  1.0 0.1216804712
H  H135  1  0.73550000  0.93250000  0.10710000  1.0 0.1216804712
H  H136  1  0.51450000  0.02510000  0.14290000  1.0 0.1216804712
H  H137  1  0.51450000  0.31750000  0.02510000  1.0 0.1216804712
H  H138  1  0.31750000  0.14290000  0.02510000  1.0 0.1216804712
H  H139  1  0.22490000  0.10710000  0.93250000  1.0 0.1216804712
H  H140  1  0.73550000  0.22490000  0.93250000  1.0 0.1216804712
H  H141  1  0.31750000  0.02510000  0.51450000  1.0 0.1216804712
H  H142  1  0.22490000  0.93250000  0.73550000  1.0 0.1216804712
H  H143  1  0.14290000  0.31750000  0.51450000  1.0 0.1216804712
H  H144  1  0.31750000  0.51450000  0.14290000  1.0 0.1216804712
H  H145  1  0.14970000  0.66650000  0.39610000  1.0 0.1089323609
H  H146  1  0.10030000  0.58350000  0.46230000  1.0 0.1089323609
H  H147  1  0.58350000  0.46230000  0.10030000  1.0 0.1089323609
H  H148  1  0.46230000  0.10030000  0.58350000  1.0 0.1089323609
H  H149  1  0.58350000  0.85390000  0.46230000  1.0 0.1089323609
H  H150  1  0.66650000  0.78770000  0.39610000  1.0 0.1089323609
H  H151  1  0.85390000  0.10030000  0.46230000  1.0 0.1089323609
H  H152  1  0.78770000  0.14970000  0.39610000  1.0 0.1089323609
H  H153  1  0.85390000  0.46230000  0.58350000  1.0 0.1089323609
H  H154  1  0.78770000  0.39610000  0.66650000  1.0 0.1089323609
H  H155  1  0.66650000  0.14970000  0.78770000  1.0 0.1089323609
H  H156  1  0.58350000  0.10030000  0.85390000  1.0 0.1089323609
H  H157  1  0.85390000  0.58350000  0.10030000  1.0 0.1089323609
H  H158  1  0.78770000  0.66650000  0.14970000  1.0 0.1089323609
H  H159  1  0.10030000  0.85390000  0.58350000  1.0 0.1089323609
H  H160  1  0.14970000  0.78770000  0.66650000  1.0 0.1089323609
H  H161  1  0.14970000  0.39610000  0.78770000  1.0 0.1089323609
H  H162  1  0.39610000  0.66650000  0.78770000  1.0 0.1089323609
H  H163  1  0.46230000  0.58350000  0.85390000  1.0 0.1089323609
H  H164  1  0.10030000  0.46230000  0.85390000  1.0 0.1089323609
H  H165  1  0.39610000  0.78770000  0.14970000  1.0 0.1089323609
H  H166  1  0.46230000  0.85390000  0.10030000  1.0 0.1089323609
H  H167  1  0.66650000  0.39610000  0.14970000  1.0 0.1089323609
H  H168  1  0.39610000  0.14970000  0.66650000  1.0 0.1089323609
H  H169  1  0.60030000  0.08350000  0.35390000  1.0 0.1089323609
H  H170  1  0.64970000  0.16650000  0.28770000  1.0 0.1089323609
H  H171  1  0.16650000  0.28770000  0.64970000  1.0 0.1089323609
H  H172  1  0.28770000  0.64970000  0.16650000  1.0 0.1089323609
H  H173  1  0.16650000  0.89610000  0.28770000  1.0 0.1089323609
H  H174  1  0.08350000  0.96230000  0.35390000  1.0 0.1089323609
H  H175  1  0.89610000  0.64970000  0.28770000  1.0 0.1089323609
H  H176  1  0.96230000  0.60030000  0.35390000  1.0 0.1089323609
H  H177  1  0.89610000  0.28770000  0.16650000  1.0 0.1089323609
H  H178  1  0.96230000  0.35390000  0.08350000  1.0 0.1089323609
H  H179  1  0.08350000  0.60030000  0.96230000  1.0 0.1089323609
H  H180  1  0.16650000  0.64970000  0.89610000  1.0 0.1089323609
H  H181  1  0.89610000  0.16650000  0.64970000  1.0 0.1089323609
H  H182  1  0.96230000  0.08350000  0.60030000  1.0 0.1089323609
H  H183  1  0.64970000  0.89610000  0.16650000  1.0 0.1089323609
H  H184  1  0.60030000  0.96230000  0.08350000  1.0 0.1089323609
H  H185  1  0.60030000  0.35390000  0.96230000  1.0 0.1089323609
H  H186  1  0.35390000  0.08350000  0.96230000  1.0 0.1089323609
H  H187  1  0.28770000  0.16650000  0.89610000  1.0 0.1089323609
H  H188  1  0.64970000  0.28770000  0.89610000  1.0 0.1089323609
H  H189  1  0.35390000  0.96230000  0.60030000  1.0 0.1089323609
H  H190  1  0.28770000  0.89610000  0.64970000  1.0 0.1089323609
H  H191  1  0.08350000  0.35390000  0.60030000  1.0 0.1089323609
H  H192  1  0.35390000  0.60030000  0.08350000  1.0 0.1089323609
H  H193  1  0.16230000  0.80170000  0.38730000  1.0 0.1089323609
H  H194  1  0.08770000  0.44830000  0.60130000  1.0 0.1089323609
H  H195  1  0.44830000  0.60130000  0.08770000  1.0 0.1089323609
H  H196  1  0.60130000  0.08770000  0.44830000  1.0 0.1089323609
H  H197  1  0.44830000  0.86270000  0.60130000  1.0 0.1089323609
H  H198  1  0.80170000  0.64870000  0.38730000  1.0 0.1089323609
H  H199  1  0.86270000  0.08770000  0.60130000  1.0 0.1089323609
H  H200  1  0.64870000  0.16230000  0.38730000  1.0 0.1089323609
H  H201  1  0.86270000  0.60130000  0.44830000  1.0 0.1089323609
H  H202  1  0.64870000  0.38730000  0.80170000  1.0 0.1089323609
H  H203  1  0.80170000  0.16230000  0.64870000  1.0 0.1089323609
H  H204  1  0.44830000  0.08770000  0.86270000  1.0 0.1089323609
H  H205  1  0.86270000  0.44830000  0.08770000  1.0 0.1089323609
H  H206  1  0.64870000  0.80170000  0.16230000  1.0 0.1089323609
H  H207  1  0.08770000  0.86270000  0.44830000  1.0 0.1089323609
H  H208  1  0.16230000  0.64870000  0.80170000  1.0 0.1089323609
H  H209  1  0.16230000  0.38730000  0.64870000  1.0 0.1089323609
H  H210  1  0.38730000  0.80170000  0.64870000  1.0 0.1089323609
H  H211  1  0.60130000  0.44830000  0.86270000  1.0 0.1089323609
H  H212  1  0.08770000  0.60130000  0.86270000  1.0 0.1089323609
H  H213  1  0.38730000  0.64870000  0.16230000  1.0 0.1089323609
H  H214  1  0.60130000  0.86270000  0.08770000  1.0 0.1089323609
H  H215  1  0.80170000  0.38730000  0.16230000  1.0 0.1089323609
H  H216  1  0.38730000  0.16230000  0.80170000  1.0 0.1089323609
H  H217  1  0.58770000  0.94830000  0.36270000  1.0 0.1089323609
H  H218  1  0.66230000  0.30170000  0.14870000  1.0 0.1089323609
H  H219  1  0.30170000  0.14870000  0.66230000  1.0 0.1089323609
H  H220  1  0.14870000  0.66230000  0.30170000  1.0 0.1089323609
H  H221  1  0.30170000  0.88730000  0.14870000  1.0 0.1089323609
H  H222  1  0.94830000  0.10130000  0.36270000  1.0 0.1089323609
H  H223  1  0.88730000  0.66230000  0.14870000  1.0 0.1089323609
H  H224  1  0.10130000  0.58770000  0.36270000  1.0 0.1089323609
H  H225  1  0.88730000  0.14870000  0.30170000  1.0 0.1089323609
H  H226  1  0.10130000  0.36270000  0.94830000  1.0 0.1089323609
H  H227  1  0.94830000  0.58770000  0.10130000  1.0 0.1089323609
H  H228  1  0.30170000  0.66230000  0.88730000  1.0 0.1089323609
H  H229  1  0.88730000  0.30170000  0.66230000  1.0 0.1089323609
H  H230  1  0.10130000  0.94830000  0.58770000  1.0 0.1089323609
H  H231  1  0.66230000  0.88730000  0.30170000  1.0 0.1089323609
H  H232  1  0.58770000  0.10130000  0.94830000  1.0 0.1089323609
H  H233  1  0.58770000  0.36270000  0.10130000  1.0 0.1089323609
H  H234  1  0.36270000  0.94830000  0.10130000  1.0 0.1089323609
H  H235  1  0.14870000  0.30170000  0.88730000  1.0 0.1089323609
H  H236  1  0.66230000  0.14870000  0.88730000  1.0 0.1089323609
H  H237  1  0.36270000  0.10130000  0.58770000  1.0 0.1089323609
H  H238  1  0.14870000  0.88730000  0.66230000  1.0 0.1089323609
H  H239  1  0.94830000  0.36270000  0.58770000  1.0 0.1089323609
H  H240  1  0.36270000  0.58770000  0.94830000  1.0 0.1089323609
H  H241  1  0.10590000  0.75170000  0.39330000  1.0 0.1216804712
H  H242  1  0.14410000  0.49830000  0.50090000  1.0 0.1216804712
H  H243  1  0.49830000  0.50090000  0.14410000  1.0 0.1216804712
H  H244  1  0.50090000  0.14410000  0.49830000  1.0 0.1216804712
H  H245  1  0.49830000  0.85670000  0.50090000  1.0 0.1216804712
H  H246  1  0.75170000  0.74910000  0.39330000  1.0 0.1216804712
H  H247  1  0.85670000  0.14410000  0.50090000  1.0 0.1216804712
H  H248  1  0.74910000  0.10590000  0.39330000  1.0 0.1216804712
H  H249  1  0.85670000  0.50090000  0.49830000  1.0 0.1216804712
H  H250  1  0.74910000  0.39330000  0.75170000  1.0 0.1216804712
H  H251  1  0.75170000  0.10590000  0.74910000  1.0 0.1216804712
H  H252  1  0.49830000  0.14410000  0.85670000  1.0 0.1216804712
H  H253  1  0.85670000  0.49830000  0.14410000  1.0 0.1216804712
H  H254  1  0.74910000  0.75170000  0.10590000  1.0 0.1216804712
H  H255  1  0.14410000  0.85670000  0.49830000  1.0 0.1216804712
H  H256  1  0.10590000  0.74910000  0.75170000  1.0 0.1216804712
H  H257  1  0.10590000  0.39330000  0.74910000  1.0 0.1216804712
H  H258  1  0.39330000  0.75170000  0.74910000  1.0 0.1216804712
H  H259  1  0.50090000  0.49830000  0.85670000  1.0 0.1216804712
H  H260  1  0.14410000  0.50090000  0.85670000  1.0 0.1216804712
H  H261  1  0.39330000  0.74910000  0.10590000  1.0 0.1216804712
H  H262  1  0.50090000  0.85670000  0.14410000  1.0 0.1216804712
H  H263  1  0.75170000  0.39330000  0.10590000  1.0 0.1216804712
H  H264  1  0.39330000  0.10590000  0.75170000  1.0 0.1216804712
H  H265  1  0.64410000  0.99830000  0.35670000  1.0 0.1216804712
H  H266  1  0.60590000  0.25170000  0.24910000  1.0 0.1216804712
H  H267  1  0.25170000  0.24910000  0.60590000  1.0 0.1216804712
H  H268  1  0.24910000  0.60590000  0.25170000  1.0 0.1216804712
H  H269  1  0.25170000  0.89330000  0.24910000  1.0 0.1216804712
H  H270  1  0.99830000  0.00090000  0.35670000  1.0 0.1216804712
H  H271  1  0.89330000  0.60590000  0.24910000  1.0 0.1216804712
H  H272  1  0.00090000  0.64410000  0.35670000  1.0 0.1216804712
H  H273  1  0.89330000  0.24910000  0.25170000  1.0 0.1216804712
H  H274  1  0.00090000  0.35670000  0.99830000  1.0 0.1216804712
H  H275  1  0.99830000  0.64410000  0.00090000  1.0 0.1216804712
H  H276  1  0.25170000  0.60590000  0.89330000  1.0 0.1216804712
H  H277  1  0.89330000  0.25170000  0.60590000  1.0 0.1216804712
H  H278  1  0.00090000  0.99830000  0.64410000  1.0 0.1216804712
H  H279  1  0.60590000  0.89330000  0.25170000  1.0 0.1216804712
H  H280  1  0.64410000  0.00090000  0.99830000  1.0 0.1216804712
H  H281  1  0.64410000  0.35670000  0.00090000  1.0 0.1216804712
H  H282  1  0.35670000  0.99830000  0.00090000  1.0 0.1216804712
H  H283  1  0.24910000  0.25170000  0.89330000  1.0 0.1216804712
H  H284  1  0.60590000  0.24910000  0.89330000  1.0 0.1216804712
H  H285  1  0.35670000  0.00090000  0.64410000  1.0 0.1216804712
H  H286  1  0.24910000  0.89330000  0.60590000  1.0 0.1216804712
H  H287  1  0.99830000  0.35670000  0.64410000  1.0 0.1216804712
H  H288  1  0.35670000  0.64410000  0.99830000  1.0 0.1216804712
H  H289  1  0.05860000  0.80640000  0.38740000  1.0 0.1337406978
H  H290  1  0.19140000  0.44360000  0.50240000  1.0 0.1337406978
H  H291  1  0.44360000  0.50240000  0.19140000  1.0 0.1337406978
H  H292  1  0.50240000  0.19140000  0.44360000  1.0 0.1337406978
H  H293  1  0.44360000  0.86260000  0.50240000  1.0 0.1337406978
H  H294  1  0.80640000  0.74760000  0.38740000  1.0 0.1337406978
H  H295  1  0.86260000  0.19140000  0.50240000  1.0 0.1337406978
H  H296  1  0.74760000  0.05860000  0.38740000  1.0 0.1337406978
H  H297  1  0.86260000  0.50240000  0.44360000  1.0 0.1337406978
H  H298  1  0.74760000  0.38740000  0.80640000  1.0 0.1337406978
H  H299  1  0.80640000  0.05860000  0.74760000  1.0 0.1337406978
H  H300  1  0.44360000  0.19140000  0.86260000  1.0 0.1337406978
H  H301  1  0.86260000  0.44360000  0.19140000  1.0 0.1337406978
H  H302  1  0.74760000  0.80640000  0.05860000  1.0 0.1337406978
H  H303  1  0.19140000  0.86260000  0.44360000  1.0 0.1337406978
H  H304  1  0.05860000  0.74760000  0.80640000  1.0 0.1337406978
H  H305  1  0.05860000  0.38740000  0.74760000  1.0 0.1337406978
H  H306  1  0.38740000  0.80640000  0.74760000  1.0 0.1337406978
H  H307  1  0.50240000  0.44360000  0.86260000  1.0 0.1337406978
H  H308  1  0.19140000  0.50240000  0.86260000  1.0 0.1337406978
H  H309  1  0.38740000  0.74760000  0.05860000  1.0 0.1337406978
H  H310  1  0.50240000  0.86260000  0.19140000  1.0 0.1337406978
H  H311  1  0.80640000  0.38740000  0.05860000  1.0 0.1337406978
H  H312  1  0.38740000  0.05860000  0.80640000  1.0 0.1337406978
H  H313  1  0.69140000  0.94360000  0.36260000  1.0 0.1337406978
H  H314  1  0.55860000  0.30640000  0.24760000  1.0 0.1337406978
H  H315  1  0.30640000  0.24760000  0.55860000  1.0 0.1337406978
H  H316  1  0.24760000  0.55860000  0.30640000  1.0 0.1337406978
H  H317  1  0.30640000  0.88740000  0.24760000  1.0 0.1337406978
H  H318  1  0.94360000  0.00240000  0.36260000  1.0 0.1337406978
H  H319  1  0.88740000  0.55860000  0.24760000  1.0 0.1337406978
H  H320  1  0.00240000  0.69140000  0.36260000  1.0 0.1337406978
H  H321  1  0.88740000  0.24760000  0.30640000  1.0 0.1337406978
H  H322  1  0.00240000  0.36260000  0.94360000  1.0 0.1337406978
H  H323  1  0.94360000  0.69140000  0.00240000  1.0 0.1337406978
H  H324  1  0.30640000  0.55860000  0.88740000  1.0 0.1337406978
H  H325  1  0.88740000  0.30640000  0.55860000  1.0 0.1337406978
H  H326  1  0.00240000  0.94360000  0.69140000  1.0 0.1337406978
H  H327  1  0.55860000  0.88740000  0.30640000  1.0 0.1337406978
H  H328  1  0.69140000  0.00240000  0.94360000  1.0 0.1337406978
H  H329  1  0.69140000  0.36260000  0.00240000  1.0 0.1337406978
H  H330  1  0.36260000  0.94360000  0.00240000  1.0 0.1337406978
H  H331  1  0.24760000  0.30640000  0.88740000  1.0 0.1337406978
H  H332  1  0.55860000  0.24760000  0.88740000  1.0 0.1337406978
H  H333  1  0.36260000  0.00240000  0.69140000  1.0 0.1337406978
H  H334  1  0.24760000  0.88740000  0.55860000  1.0 0.1337406978
H  H335  1  0.94360000  0.36260000  0.69140000  1.0 0.1337406978
H  H336  1  0.36260000  0.69140000  0.94360000  1.0 0.1337406978
H  H337  1  0.06490000  0.85830000  0.37890000  1.0 0.0998157419
H  H338  1  0.18510000  0.39170000  0.55210000  1.0 0.0998157419
H  H339  1  0.39170000  0.55210000  0.18510000  1.0 0.0998157419
H  H340  1  0.55210000  0.18510000  0.39170000  1.0 0.0998157419
H  H341  1  0.39170000  0.87110000  0.55210000  1.0 0.0998157419
H  H342  1  0.85830000  0.69790000  0.37890000  1.0 0.0998157419
H  H343  1  0.87110000  0.18510000  0.55210000  1.0 0.0998157419
H  H344  1  0.69790000  0.06490000  0.37890000  1.0 0.0998157419
H  H345  1  0.87110000  0.55210000  0.39170000  1.0 0.0998157419
H  H346  1  0.69790000  0.37890000  0.85830000  1.0 0.0998157419
H  H347  1  0.85830000  0.06490000  0.69790000  1.0 0.0998157419
H  H348  1  0.39170000  0.18510000  0.87110000  1.0 0.0998157419
H  H349  1  0.87110000  0.39170000  0.18510000  1.0 0.0998157419
H  H350  1  0.69790000  0.85830000  0.06490000  1.0 0.0998157419
H  H351  1  0.18510000  0.87110000  0.39170000  1.0 0.0998157419
H  H352  1  0.06490000  0.69790000  0.85830000  1.0 0.0998157419
H  H353  1  0.06490000  0.37890000  0.69790000  1.0 0.0998157419
H  H354  1  0.37890000  0.85830000  0.69790000  1.0 0.0998157419
H  H355  1  0.55210000  0.39170000  0.87110000  1.0 0.0998157419
H  H356  1  0.18510000  0.55210000  0.87110000  1.0 0.0998157419
H  H357  1  0.37890000  0.69790000  0.06490000  1.0 0.0998157419
H  H358  1  0.55210000  0.87110000  0.18510000  1.0 0.0998157419
H  H359  1  0.85830000  0.37890000  0.06490000  1.0 0.0998157419
H  H360  1  0.37890000  0.06490000  0.85830000  1.0 0.0998157419
H  H361  1  0.68510000  0.89170000  0.37110000  1.0 0.0998157419
H  H362  1  0.56490000  0.35830000  0.19790000  1.0 0.0998157419
H  H363  1  0.35830000  0.19790000  0.56490000  1.0 0.0998157419
H  H364  1  0.19790000  0.56490000  0.35830000  1.0 0.0998157419
H  H365  1  0.35830000  0.87890000  0.19790000  1.0 0.0998157419
H  H366  1  0.89170000  0.05210000  0.37110000  1.0 0.0998157419
H  H367  1  0.87890000  0.56490000  0.19790000  1.0 0.0998157419
H  H368  1  0.05210000  0.68510000  0.37110000  1.0 0.0998157419
H  H369  1  0.87890000  0.19790000  0.35830000  1.0 0.0998157419
H  H370  1  0.05210000  0.37110000  0.89170000  1.0 0.0998157419
H  H371  1  0.89170000  0.68510000  0.05210000  1.0 0.0998157419
H  H372  1  0.35830000  0.56490000  0.87890000  1.0 0.0998157419
H  H373  1  0.87890000  0.35830000  0.56490000  1.0 0.0998157419
H  H374  1  0.05210000  0.89170000  0.68510000  1.0 0.0998157419
H  H375  1  0.56490000  0.87890000  0.35830000  1.0 0.0998157419
H  H376  1  0.68510000  0.05210000  0.89170000  1.0 0.0998157419
H  H377  1  0.68510000  0.37110000  0.05210000  1.0 0.0998157419
H  H378  1  0.37110000  0.89170000  0.05210000  1.0 0.0998157419
H  H379  1  0.19790000  0.35830000  0.87890000  1.0 0.0998157419
H  H380  1  0.56490000  0.19790000  0.87890000  1.0 0.0998157419
H  H381  1  0.37110000  0.05210000  0.68510000  1.0 0.0998157419
H  H382  1  0.19790000  0.87890000  0.56490000  1.0 0.0998157419
H  H383  1  0.89170000  0.37110000  0.68510000  1.0 0.0998157419
H  H384  1  0.37110000  0.68510000  0.89170000  1.0 0.0998157419
H  H385  1  0.29220000  0.65760000  0.38480000  1.0 0.0998157419
H  H386  1  0.95780000  0.59240000  0.58460000  1.0 0.0998157419
H  H387  1  0.59240000  0.58460000  0.95780000  1.0 0.0998157419
H  H388  1  0.58460000  0.95780000  0.59240000  1.0 0.0998157419
H  H389  1  0.59240000  0.86520000  0.58460000  1.0 0.0998157419
H  H390  1  0.65760000  0.66540000  0.38480000  1.0 0.0998157419
H  H391  1  0.86520000  0.95780000  0.58460000  1.0 0.0998157419
H  H392  1  0.66540000  0.29220000  0.38480000  1.0 0.0998157419
H  H393  1  0.86520000  0.58460000  0.59240000  1.0 0.0998157419
H  H394  1  0.66540000  0.38480000  0.65760000  1.0 0.0998157419
H  H395  1  0.65760000  0.29220000  0.66540000  1.0 0.0998157419
H  H396  1  0.59240000  0.95780000  0.86520000  1.0 0.0998157419
H  H397  1  0.86520000  0.59240000  0.95780000  1.0 0.0998157419
H  H398  1  0.66540000  0.65760000  0.29220000  1.0 0.0998157419
H  H399  1  0.95780000  0.86520000  0.59240000  1.0 0.0998157419
H  H400  1  0.29220000  0.66540000  0.65760000  1.0 0.0998157419
H  H401  1  0.29220000  0.38480000  0.66540000  1.0 0.0998157419
H  H402  1  0.38480000  0.65760000  0.66540000  1.0 0.0998157419
H  H403  1  0.58460000  0.59240000  0.86520000  1.0 0.0998157419
H  H404  1  0.95780000  0.58460000  0.86520000  1.0 0.0998157419
H  H405  1  0.38480000  0.66540000  0.29220000  1.0 0.0998157419
H  H406  1  0.58460000  0.86520000  0.95780000  1.0 0.0998157419
H  H407  1  0.65760000  0.38480000  0.29220000  1.0 0.0998157419
H  H408  1  0.38480000  0.29220000  0.65760000  1.0 0.0998157419
H  H409  1  0.45780000  0.09240000  0.36520000  1.0 0.0998157419
H  H410  1  0.79220000  0.15760000  0.16540000  1.0 0.0998157419
H  H411  1  0.15760000  0.16540000  0.79220000  1.0 0.0998157419
H  H412  1  0.16540000  0.79220000  0.15760000  1.0 0.0998157419
H  H413  1  0.15760000  0.88480000  0.16540000  1.0 0.0998157419
H  H414  1  0.09240000  0.08460000  0.36520000  1.0 0.0998157419
H  H415  1  0.88480000  0.79220000  0.16540000  1.0 0.0998157419
H  H416  1  0.08460000  0.45780000  0.36520000  1.0 0.0998157419
H  H417  1  0.88480000  0.16540000  0.15760000  1.0 0.0998157419
H  H418  1  0.08460000  0.36520000  0.09240000  1.0 0.0998157419
H  H419  1  0.09240000  0.45780000  0.08460000  1.0 0.0998157419
H  H420  1  0.15760000  0.79220000  0.88480000  1.0 0.0998157419
H  H421  1  0.88480000  0.15760000  0.79220000  1.0 0.0998157419
H  H422  1  0.08460000  0.09240000  0.45780000  1.0 0.0998157419
H  H423  1  0.79220000  0.88480000  0.15760000  1.0 0.0998157419
H  H424  1  0.45780000  0.08460000  0.09240000  1.0 0.0998157419
H  H425  1  0.45780000  0.36520000  0.08460000  1.0 0.0998157419
H  H426  1  0.36520000  0.09240000  0.08460000  1.0 0.0998157419
H  H427  1  0.16540000  0.15760000  0.88480000  1.0 0.0998157419
H  H428  1  0.79220000  0.16540000  0.88480000  1.0 0.0998157419
H  H429  1  0.36520000  0.08460000  0.45780000  1.0 0.0998157419
H  H430  1  0.16540000  0.88480000  0.79220000  1.0 0.0998157419
H  H431  1  0.09240000  0.36520000  0.45780000  1.0 0.0998157419
H  H432  1  0.36520000  0.45780000  0.09240000  1.0 0.0998157419
H  H433  1  0.35690000  0.70950000  0.35370000  1.0 0.1089323609
H  H434  1  0.89310000  0.54050000  0.67010000  1.0 0.1089323609
H  H435  1  0.54050000  0.67010000  0.89310000  1.0 0.1089323609
H  H436  1  0.67010000  0.89310000  0.54050000  1.0 0.1089323609
H  H437  1  0.54050000  0.89630000  0.67010000  1.0 0.1089323609
H  H438  1  0.70950000  0.57990000  0.35370000  1.0 0.1089323609
H  H439  1  0.89630000  0.89310000  0.67010000  1.0 0.1089323609
H  H440  1  0.57990000  0.35690000  0.35370000  1.0 0.1089323609
H  H441  1  0.89630000  0.67010000  0.54050000  1.0 0.1089323609
H  H442  1  0.57990000  0.35370000  0.70950000  1.0 0.1089323609
H  H443  1  0.70950000  0.35690000  0.57990000  1.0 0.1089323609
H  H444  1  0.54050000  0.89310000  0.89630000  1.0 0.1089323609
H  H445  1  0.89630000  0.54050000  0.89310000  1.0 0.1089323609
H  H446  1  0.57990000  0.70950000  0.35690000  1.0 0.1089323609
H  H447  1  0.89310000  0.89630000  0.54050000  1.0 0.1089323609
H  H448  1  0.35690000  0.57990000  0.70950000  1.0 0.1089323609
H  H449  1  0.35690000  0.35370000  0.57990000  1.0 0.1089323609
H  H450  1  0.35370000  0.70950000  0.57990000  1.0 0.1089323609
H  H451  1  0.67010000  0.54050000  0.89630000  1.0 0.1089323609
H  H452  1  0.89310000  0.67010000  0.89630000  1.0 0.1089323609
H  H453  1  0.35370000  0.57990000  0.35690000  1.0 0.1089323609
H  H454  1  0.67010000  0.89630000  0.89310000  1.0 0.1089323609
H  H455  1  0.70950000  0.35370000  0.35690000  1.0 0.1089323609
H  H456  1  0.35370000  0.35690000  0.70950000  1.0 0.1089323609
H  H457  1  0.39310000  0.04050000  0.39630000  1.0 0.1089323609
H  H458  1  0.85690000  0.20950000  0.07990000  1.0 0.1089323609
H  H459  1  0.20950000  0.07990000  0.85690000  1.0 0.1089323609
H  H460  1  0.07990000  0.85690000  0.20950000  1.0 0.1089323609
H  H461  1  0.20950000  0.85370000  0.07990000  1.0 0.1089323609
H  H462  1  0.04050000  0.17010000  0.39630000  1.0 0.1089323609
H  H463  1  0.85370000  0.85690000  0.07990000  1.0 0.1089323609
H  H464  1  0.17010000  0.39310000  0.39630000  1.0 0.1089323609
H  H465  1  0.85370000  0.07990000  0.20950000  1.0 0.1089323609
H  H466  1  0.17010000  0.39630000  0.04050000  1.0 0.1089323609
H  H467  1  0.04050000  0.39310000  0.17010000  1.0 0.1089323609
H  H468  1  0.20950000  0.85690000  0.85370000  1.0 0.1089323609
H  H469  1  0.85370000  0.20950000  0.85690000  1.0 0.1089323609
H  H470  1  0.17010000  0.04050000  0.39310000  1.0 0.1089323609
H  H471  1  0.85690000  0.85370000  0.20950000  1.0 0.1089323609
H  H472  1  0.39310000  0.17010000  0.04050000  1.0 0.1089323609
H  H473  1  0.39310000  0.39630000  0.17010000  1.0 0.1089323609
H  H474  1  0.39630000  0.04050000  0.17010000  1.0 0.1089323609
H  H475  1  0.07990000  0.20950000  0.85370000  1.0 0.1089323609
H  H476  1  0.85690000  0.07990000  0.85370000  1.0 0.1089323609
H  H477  1  0.39630000  0.17010000  0.39310000  1.0 0.1089323609
H  H478  1  0.07990000  0.85370000  0.85690000  1.0 0.1089323609
H  H479  1  0.04050000  0.39630000  0.39310000  1.0 0.1089323609
H  H480  1  0.39630000  0.39310000  0.04050000  1.0 0.1089323609
H  H481  1  0.30910000  0.76350000  0.35290000  1.0 0.1337406978
H  H482  1  0.94090000  0.48650000  0.67550000  1.0 0.1337406978
H  H483  1  0.48650000  0.67550000  0.94090000  1.0 0.1337406978
H  H484  1  0.67550000  0.94090000  0.48650000  1.0 0.1337406978
H  H485  1  0.48650000  0.89710000  0.67550000  1.0 0.1337406978
H  H486  1  0.76350000  0.57450000  0.35290000  1.0 0.1337406978
H  H487  1  0.89710000  0.94090000  0.67550000  1.0 0.1337406978
H  H488  1  0.57450000  0.30910000  0.35290000  1.0 0.1337406978
H  H489  1  0.89710000  0.67550000  0.48650000  1.0 0.1337406978
H  H490  1  0.57450000  0.35290000  0.76350000  1.0 0.1337406978
H  H491  1  0.76350000  0.30910000  0.57450000  1.0 0.1337406978
H  H492  1  0.48650000  0.94090000  0.89710000  1.0 0.1337406978
H  H493  1  0.89710000  0.48650000  0.94090000  1.0 0.1337406978
H  H494  1  0.57450000  0.76350000  0.30910000  1.0 0.1337406978
H  H495  1  0.94090000  0.89710000  0.48650000  1.0 0.1337406978
H  H496  1  0.30910000  0.57450000  0.76350000  1.0 0.1337406978
H  H497  1  0.30910000  0.35290000  0.57450000  1.0 0.1337406978
H  H498  1  0.35290000  0.76350000  0.57450000  1.0 0.1337406978
H  H499  1  0.67550000  0.48650000  0.89710000  1.0 0.1337406978
H  H500  1  0.94090000  0.67550000  0.89710000  1.0 0.1337406978
H  H501  1  0.35290000  0.57450000  0.30910000  1.0 0.1337406978
H  H502  1  0.67550000  0.89710000  0.94090000  1.0 0.1337406978
H  H503  1  0.76350000  0.35290000  0.30910000  1.0 0.1337406978
H  H504  1  0.35290000  0.30910000  0.76350000  1.0 0.1337406978
H  H505  1  0.44090000  0.98650000  0.39710000  1.0 0.1337406978
H  H506  1  0.80910000  0.26350000  0.07450000  1.0 0.1337406978
H  H507  1  0.26350000  0.07450000  0.80910000  1.0 0.1337406978
H  H508  1  0.07450000  0.80910000  0.26350000  1.0 0.1337406978
H  H509  1  0.26350000  0.85290000  0.07450000  1.0 0.1337406978
H  H510  1  0.98650000  0.17550000  0.39710000  1.0 0.1337406978
H  H511  1  0.85290000  0.80910000  0.07450000  1.0 0.1337406978
H  H512  1  0.17550000  0.44090000  0.39710000  1.0 0.1337406978
H  H513  1  0.85290000  0.07450000  0.26350000  1.0 0.1337406978
H  H514  1  0.17550000  0.39710000  0.98650000  1.0 0.1337406978
H  H515  1  0.98650000  0.44090000  0.17550000  1.0 0.1337406978
H  H516  1  0.26350000  0.80910000  0.85290000  1.0 0.1337406978
H  H517  1  0.85290000  0.26350000  0.80910000  1.0 0.1337406978
H  H518  1  0.17550000  0.98650000  0.44090000  1.0 0.1337406978
H  H519  1  0.80910000  0.85290000  0.26350000  1.0 0.1337406978
H  H520  1  0.44090000  0.17550000  0.98650000  1.0 0.1337406978
H  H521  1  0.44090000  0.39710000  0.17550000  1.0 0.1337406978
H  H522  1  0.39710000  0.98650000  0.17550000  1.0 0.1337406978
H  H523  1  0.07450000  0.26350000  0.85290000  1.0 0.1337406978
H  H524  1  0.80910000  0.07450000  0.85290000  1.0 0.1337406978
H  H525  1  0.39710000  0.17550000  0.44090000  1.0 0.1337406978
H  H526  1  0.07450000  0.85290000  0.80910000  1.0 0.1337406978
H  H527  1  0.98650000  0.39710000  0.44090000  1.0 0.1337406978
H  H528  1  0.39710000  0.44090000  0.98650000  1.0 0.1337406978
H  H529  1  0.25080000  0.76540000  0.36640000  1.0 0.1216804712
H  H530  1  0.99920000  0.48460000  0.63260000  1.0 0.1216804712
H  H531  1  0.48460000  0.63260000  0.99920000  1.0 0.1216804712
H  H532  1  0.63260000  0.99920000  0.48460000  1.0 0.1216804712
H  H533  1  0.48460000  0.88360000  0.63260000  1.0 0.1216804712
H  H534  1  0.76540000  0.61740000  0.36640000  1.0 0.1216804712
H  H535  1  0.88360000  0.99920000  0.63260000  1.0 0.1216804712
H  H536  1  0.61740000  0.25080000  0.36640000  1.0 0.1216804712
H  H537  1  0.88360000  0.63260000  0.48460000  1.0 0.1216804712
H  H538  1  0.61740000  0.36640000  0.76540000  1.0 0.1216804712
H  H539  1  0.76540000  0.25080000  0.61740000  1.0 0.1216804712
H  H540  1  0.48460000  0.99920000  0.88360000  1.0 0.1216804712
H  H541  1  0.88360000  0.48460000  0.99920000  1.0 0.1216804712
H  H542  1  0.61740000  0.76540000  0.25080000  1.0 0.1216804712
H  H543  1  0.99920000  0.88360000  0.48460000  1.0 0.1216804712
H  H544  1  0.25080000  0.61740000  0.76540000  1.0 0.1216804712
H  H545  1  0.25080000  0.36640000  0.61740000  1.0 0.1216804712
H  H546  1  0.36640000  0.76540000  0.61740000  1.0 0.1216804712
H  H547  1  0.63260000  0.48460000  0.88360000  1.0 0.1216804712
H  H548  1  0.99920000  0.63260000  0.88360000  1.0 0.1216804712
H  H549  1  0.36640000  0.61740000  0.25080000  1.0 0.1216804712
H  H550  1  0.63260000  0.88360000  0.99920000  1.0 0.1216804712
H  H551  1  0.76540000  0.36640000  0.25080000  1.0 0.1216804712
H  H552  1  0.36640000  0.25080000  0.76540000  1.0 0.1216804712
H  H553  1  0.49920000  0.98460000  0.38360000  1.0 0.1216804712
H  H554  1  0.75080000  0.26540000  0.11740000  1.0 0.1216804712
H  H555  1  0.26540000  0.11740000  0.75080000  1.0 0.1216804712
H  H556  1  0.11740000  0.75080000  0.26540000  1.0 0.1216804712
H  H557  1  0.26540000  0.86640000  0.11740000  1.0 0.1216804712
H  H558  1  0.98460000  0.13260000  0.38360000  1.0 0.1216804712
H  H559  1  0.86640000  0.75080000  0.11740000  1.0 0.1216804712
H  H560  1  0.13260000  0.49920000  0.38360000  1.0 0.1216804712
H  H561  1  0.86640000  0.11740000  0.26540000  1.0 0.1216804712
H  H562  1  0.13260000  0.38360000  0.98460000  1.0 0.1216804712
H  H563  1  0.98460000  0.49920000  0.13260000  1.0 0.1216804712
H  H564  1  0.26540000  0.75080000  0.86640000  1.0 0.1216804712
H  H565  1  0.86640000  0.26540000  0.75080000  1.0 0.1216804712
H  H566  1  0.13260000  0.98460000  0.49920000  1.0 0.1216804712
H  H567  1  0.75080000  0.86640000  0.26540000  1.0 0.1216804712
H  H568  1  0.49920000  0.13260000  0.98460000  1.0 0.1216804712
H  H569  1  0.49920000  0.38360000  0.13260000  1.0 0.1216804712
H  H570  1  0.38360000  0.98460000  0.13260000  1.0 0.1216804712
H  H571  1  0.11740000  0.26540000  0.86640000  1.0 0.1216804712
H  H572  1  0.75080000  0.11740000  0.86640000  1.0 0.1216804712
H  H573  1  0.38360000  0.13260000  0.49920000  1.0 0.1216804712
H  H574  1  0.11740000  0.86640000  0.75080000  1.0 0.1216804712
H  H575  1  0.98460000  0.38360000  0.49920000  1.0 0.1216804712
H  H576  1  0.38360000  0.49920000  0.98460000  1.0 0.1216804712
H  H577  1  0.41860000  0.63100000  0.40340000  1.0 0.1089323609
H  H578  1  0.83140000  0.61900000  0.70300000  1.0 0.1089323609
H  H579  1  0.61900000  0.70300000  0.83140000  1.0 0.1089323609
H  H580  1  0.70300000  0.83140000  0.61900000  1.0 0.1089323609
H  H581  1  0.61900000  0.84660000  0.70300000  1.0 0.1089323609
H  H582  1  0.63100000  0.54700000  0.40340000  1.0 0.1089323609
H  H583  1  0.84660000  0.83140000  0.70300000  1.0 0.1089323609
H  H584  1  0.54700000  0.41860000  0.40340000  1.0 0.1089323609
H  H585  1  0.84660000  0.70300000  0.61900000  1.0 0.1089323609
H  H586  1  0.54700000  0.40340000  0.63100000  1.0 0.1089323609
H  H587  1  0.63100000  0.41860000  0.54700000  1.0 0.1089323609
H  H588  1  0.61900000  0.83140000  0.84660000  1.0 0.1089323609
H  H589  1  0.84660000  0.61900000  0.83140000  1.0 0.1089323609
H  H590  1  0.54700000  0.63100000  0.41860000  1.0 0.1089323609
H  H591  1  0.83140000  0.84660000  0.61900000  1.0 0.1089323609
H  H592  1  0.41860000  0.54700000  0.63100000  1.0 0.1089323609
H  H593  1  0.41860000  0.40340000  0.54700000  1.0 0.1089323609
H  H594  1  0.40340000  0.63100000  0.54700000  1.0 0.1089323609
H  H595  1  0.70300000  0.61900000  0.84660000  1.0 0.1089323609
H  H596  1  0.83140000  0.70300000  0.84660000  1.0 0.1089323609
H  H597  1  0.40340000  0.54700000  0.41860000  1.0 0.1089323609
H  H598  1  0.70300000  0.84660000  0.83140000  1.0 0.1089323609
H  H599  1  0.63100000  0.40340000  0.41860000  1.0 0.1089323609
H  H600  1  0.40340000  0.41860000  0.63100000  1.0 0.1089323609
H  H601  1  0.33140000  0.11900000  0.34660000  1.0 0.1089323609
H  H602  1  0.91860000  0.13100000  0.04700000  1.0 0.1089323609
H  H603  1  0.13100000  0.04700000  0.91860000  1.0 0.1089323609
H  H604  1  0.04700000  0.91860000  0.13100000  1.0 0.1089323609
H  H605  1  0.13100000  0.90340000  0.04700000  1.0 0.1089323609
H  H606  1  0.11900000  0.20300000  0.34660000  1.0 0.1089323609
H  H607  1  0.90340000  0.91860000  0.04700000  1.0 0.1089323609
H  H608  1  0.20300000  0.33140000  0.34660000  1.0 0.1089323609
H  H609  1  0.90340000  0.04700000  0.13100000  1.0 0.1089323609
H  H610  1  0.20300000  0.34660000  0.11900000  1.0 0.1089323609
H  H611  1  0.11900000  0.33140000  0.20300000  1.0 0.1089323609
H  H612  1  0.13100000  0.91860000  0.90340000  1.0 0.1089323609
H  H613  1  0.90340000  0.13100000  0.91860000  1.0 0.1089323609
H  H614  1  0.20300000  0.11900000  0.33140000  1.0 0.1089323609
H  H615  1  0.91860000  0.90340000  0.13100000  1.0 0.1089323609
H  H616  1  0.33140000  0.20300000  0.11900000  1.0 0.1089323609
H  H617  1  0.33140000  0.34660000  0.20300000  1.0 0.1089323609
H  H618  1  0.34660000  0.11900000  0.20300000  1.0 0.1089323609
H  H619  1  0.04700000  0.13100000  0.90340000  1.0 0.1089323609
H  H620  1  0.91860000  0.04700000  0.90340000  1.0 0.1089323609
H  H621  1  0.34660000  0.20300000  0.33140000  1.0 0.1089323609
H  H622  1  0.04700000  0.90340000  0.91860000  1.0 0.1089323609
H  H623  1  0.11900000  0.34660000  0.33140000  1.0 0.1089323609
H  H624  1  0.34660000  0.33140000  0.11900000  1.0 0.1089323609
H  H625  1  0.35690000  0.64690000  0.50010000  1.0 0.1216804712
H  H626  1  0.89310000  0.60310000  0.75390000  1.0 0.1216804712
H  H627  1  0.60310000  0.75390000  0.89310000  1.0 0.1216804712
H  H628  1  0.75390000  0.89310000  0.60310000  1.0 0.1216804712
H  H629  1  0.60310000  0.74990000  0.75390000  1.0 0.1216804712
H  H630  1  0.64690000  0.49610000  0.50010000  1.0 0.1216804712
H  H631  1  0.74990000  0.89310000  0.75390000  1.0 0.1216804712
H  H632  1  0.49610000  0.35690000  0.50010000  1.0 0.1216804712
H  H633  1  0.74990000  0.75390000  0.60310000  1.0 0.1216804712
H  H634  1  0.49610000  0.50010000  0.64690000  1.0 0.1216804712
H  H635  1  0.64690000  0.35690000  0.49610000  1.0 0.1216804712
H  H636  1  0.60310000  0.89310000  0.74990000  1.0 0.1216804712
H  H637  1  0.74990000  0.60310000  0.89310000  1.0 0.1216804712
H  H638  1  0.49610000  0.64690000  0.35690000  1.0 0.1216804712
H  H639  1  0.89310000  0.74990000  0.60310000  1.0 0.1216804712
H  H640  1  0.35690000  0.49610000  0.64690000  1.0 0.1216804712
H  H641  1  0.35690000  0.50010000  0.49610000  1.0 0.1216804712
H  H642  1  0.50010000  0.64690000  0.49610000  1.0 0.1216804712
H  H643  1  0.75390000  0.60310000  0.74990000  1.0 0.1216804712
H  H644  1  0.89310000  0.75390000  0.74990000  1.0 0.1216804712
H  H645  1  0.50010000  0.49610000  0.35690000  1.0 0.1216804712
H  H646  1  0.75390000  0.74990000  0.89310000  1.0 0.1216804712
H  H647  1  0.64690000  0.50010000  0.35690000  1.0 0.1216804712
H  H648  1  0.50010000  0.35690000  0.64690000  1.0 0.1216804712
H  H649  1  0.39310000  0.10310000  0.24990000  1.0 0.1216804712
H  H650  1  0.85690000  0.14690000  0.99610000  1.0 0.1216804712
H  H651  1  0.14690000  0.99610000  0.85690000  1.0 0.1216804712
H  H652  1  0.99610000  0.85690000  0.14690000  1.0 0.1216804712
H  H653  1  0.14690000  0.00010000  0.99610000  1.0 0.1216804712
H  H654  1  0.10310000  0.25390000  0.24990000  1.0 0.1216804712
H  H655  1  0.00010000  0.85690000  0.99610000  1.0 0.1216804712
H  H656  1  0.25390000  0.39310000  0.24990000  1.0 0.1216804712
H  H657  1  0.00010000  0.99610000  0.14690000  1.0 0.1216804712
H  H658  1  0.25390000  0.24990000  0.10310000  1.0 0.1216804712
H  H659  1  0.10310000  0.39310000  0.25390000  1.0 0.1216804712
H  H660  1  0.14690000  0.85690000  0.00010000  1.0 0.1216804712
H  H661  1  0.00010000  0.14690000  0.85690000  1.0 0.1216804712
H  H662  1  0.25390000  0.10310000  0.39310000  1.0 0.1216804712
H  H663  1  0.85690000  0.00010000  0.14690000  1.0 0.1216804712
H  H664  1  0.39310000  0.25390000  0.10310000  1.0 0.1216804712
H  H665  1  0.39310000  0.24990000  0.25390000  1.0 0.1216804712
H  H666  1  0.24990000  0.10310000  0.25390000  1.0 0.1216804712
H  H667  1  0.99610000  0.14690000  0.00010000  1.0 0.1216804712
H  H668  1  0.85690000  0.99610000  0.00010000  1.0 0.1216804712
H  H669  1  0.24990000  0.25390000  0.39310000  1.0 0.1216804712
H  H670  1  0.99610000  0.00010000  0.85690000  1.0 0.1216804712
H  H671  1  0.10310000  0.24990000  0.39310000  1.0 0.1216804712
H  H672  1  0.24990000  0.39310000  0.10310000  1.0 0.1216804712
H  H673  1  0.30850000  0.64630000  0.49590000  1.0 0.1337406978
H  H674  1  0.94150000  0.60370000  0.70070000  1.0 0.1337406978
H  H675  1  0.60370000  0.70070000  0.94150000  1.0 0.1337406978
H  H676  1  0.70070000  0.94150000  0.60370000  1.0 0.1337406978
H  H677  1  0.60370000  0.75410000  0.70070000  1.0 0.1337406978
H  H678  1  0.64630000  0.54930000  0.49590000  1.0 0.1337406978
H  H679  1  0.75410000  0.94150000  0.70070000  1.0 0.1337406978
H  H680  1  0.54930000  0.30850000  0.49590000  1.0 0.1337406978
H  H681  1  0.75410000  0.70070000  0.60370000  1.0 0.1337406978
H  H682  1  0.54930000  0.49590000  0.64630000  1.0 0.1337406978
H  H683  1  0.64630000  0.30850000  0.54930000  1.0 0.1337406978
H  H684  1  0.60370000  0.94150000  0.75410000  1.0 0.1337406978
H  H685  1  0.75410000  0.60370000  0.94150000  1.0 0.1337406978
H  H686  1  0.54930000  0.64630000  0.30850000  1.0 0.1337406978
H  H687  1  0.94150000  0.75410000  0.60370000  1.0 0.1337406978
H  H688  1  0.30850000  0.54930000  0.64630000  1.0 0.1337406978
H  H689  1  0.30850000  0.49590000  0.54930000  1.0 0.1337406978
H  H690  1  0.49590000  0.64630000  0.54930000  1.0 0.1337406978
H  H691  1  0.70070000  0.60370000  0.75410000  1.0 0.1337406978
H  H692  1  0.94150000  0.70070000  0.75410000  1.0 0.1337406978
H  H693  1  0.49590000  0.54930000  0.30850000  1.0 0.1337406978
H  H694  1  0.70070000  0.75410000  0.94150000  1.0 0.1337406978
H  H695  1  0.64630000  0.49590000  0.30850000  1.0 0.1337406978
H  H696  1  0.49590000  0.30850000  0.64630000  1.0 0.1337406978
H  H697  1  0.44150000  0.10370000  0.25410000  1.0 0.1337406978
H  H698  1  0.80850000  0.14630000  0.04930000  1.0 0.1337406978
H  H699  1  0.14630000  0.04930000  0.80850000  1.0 0.1337406978
H  H700  1  0.04930000  0.80850000  0.14630000  1.0 0.1337406978
H  H701  1  0.14630000  0.99590000  0.04930000  1.0 0.1337406978
H  H702  1  0.10370000  0.20070000  0.25410000  1.0 0.1337406978
H  H703  1  0.99590000  0.80850000  0.04930000  1.0 0.1337406978
H  H704  1  0.20070000  0.44150000  0.25410000  1.0 0.1337406978
H  H705  1  0.99590000  0.04930000  0.14630000  1.0 0.1337406978
H  H706  1  0.20070000  0.25410000  0.10370000  1.0 0.1337406978
H  H707  1  0.10370000  0.44150000  0.20070000  1.0 0.1337406978
H  H708  1  0.14630000  0.80850000  0.99590000  1.0 0.1337406978
H  H709  1  0.99590000  0.14630000  0.80850000  1.0 0.1337406978
H  H710  1  0.20070000  0.10370000  0.44150000  1.0 0.1337406978
H  H711  1  0.80850000  0.99590000  0.14630000  1.0 0.1337406978
H  H712  1  0.44150000  0.20070000  0.10370000  1.0 0.1337406978
H  H713  1  0.44150000  0.25410000  0.20070000  1.0 0.1337406978
H  H714  1  0.25410000  0.10370000  0.20070000  1.0 0.1337406978
H  H715  1  0.04930000  0.14630000  0.99590000  1.0 0.1337406978
H  H716  1  0.80850000  0.04930000  0.99590000  1.0 0.1337406978
H  H717  1  0.25410000  0.20070000  0.44150000  1.0 0.1337406978
H  H718  1  0.04930000  0.99590000  0.80850000  1.0 0.1337406978
H  H719  1  0.10370000  0.25410000  0.44150000  1.0 0.1337406978
H  H720  1  0.25410000  0.44150000  0.10370000  1.0 0.1337406978
H  H721  1  0.31680000  0.63380000  0.44780000  1.0 0.0998157419
H  H722  1  0.93320000  0.61620000  0.64840000  1.0 0.0998157419
H  H723  1  0.61620000  0.64840000  0.93320000  1.0 0.0998157419
H  H724  1  0.64840000  0.93320000  0.61620000  1.0 0.0998157419
H  H725  1  0.61620000  0.80220000  0.64840000  1.0 0.0998157419
H  H726  1  0.63380000  0.60160000  0.44780000  1.0 0.0998157419
H  H727  1  0.80220000  0.93320000  0.64840000  1.0 0.0998157419
H  H728  1  0.60160000  0.31680000  0.44780000  1.0 0.0998157419
H  H729  1  0.80220000  0.64840000  0.61620000  1.0 0.0998157419
H  H730  1  0.60160000  0.44780000  0.63380000  1.0 0.0998157419
H  H731  1  0.63380000  0.31680000  0.60160000  1.0 0.0998157419
H  H732  1  0.61620000  0.93320000  0.80220000  1.0 0.0998157419
H  H733  1  0.80220000  0.61620000  0.93320000  1.0 0.0998157419
H  H734  1  0.60160000  0.63380000  0.31680000  1.0 0.0998157419
H  H735  1  0.93320000  0.80220000  0.61620000  1.0 0.0998157419
H  H736  1  0.31680000  0.60160000  0.63380000  1.0 0.0998157419
H  H737  1  0.31680000  0.44780000  0.60160000  1.0 0.0998157419
H  H738  1  0.44780000  0.63380000  0.60160000  1.0 0.0998157419
H  H739  1  0.64840000  0.61620000  0.80220000  1.0 0.0998157419
H  H740  1  0.93320000  0.64840000  0.80220000  1.0 0.0998157419
H  H741  1  0.44780000  0.60160000  0.31680000  1.0 0.0998157419
H  H742  1  0.64840000  0.80220000  0.93320000  1.0 0.0998157419
H  H743  1  0.63380000  0.44780000  0.31680000  1.0 0.0998157419
H  H744  1  0.44780000  0.31680000  0.63380000  1.0 0.0998157419
H  H745  1  0.43320000  0.11620000  0.30220000  1.0 0.0998157419
H  H746  1  0.81680000  0.13380000  0.10160000  1.0 0.0998157419
H  H747  1  0.13380000  0.10160000  0.81680000  1.0 0.0998157419
H  H748  1  0.10160000  0.81680000  0.13380000  1.0 0.0998157419
H  H749  1  0.13380000  0.94780000  0.10160000  1.0 0.0998157419
H  H750  1  0.11620000  0.14840000  0.30220000  1.0 0.0998157419
H  H751  1  0.94780000  0.81680000  0.10160000  1.0 0.0998157419
H  H752  1  0.14840000  0.43320000  0.30220000  1.0 0.0998157419
H  H753  1  0.94780000  0.10160000  0.13380000  1.0 0.0998157419
H  H754  1  0.14840000  0.30220000  0.11620000  1.0 0.0998157419
H  H755  1  0.11620000  0.43320000  0.14840000  1.0 0.0998157419
H  H756  1  0.13380000  0.81680000  0.94780000  1.0 0.0998157419
H  H757  1  0.94780000  0.13380000  0.81680000  1.0 0.0998157419
H  H758  1  0.14840000  0.11620000  0.43320000  1.0 0.0998157419
H  H759  1  0.81680000  0.94780000  0.13380000  1.0 0.0998157419
H  H760  1  0.43320000  0.14840000  0.11620000  1.0 0.0998157419
H  H761  1  0.43320000  0.30220000  0.14840000  1.0 0.0998157419
H  H762  1  0.30220000  0.11620000  0.14840000  1.0 0.0998157419
H  H763  1  0.10160000  0.13380000  0.94780000  1.0 0.0998157419
H  H764  1  0.81680000  0.10160000  0.94780000  1.0 0.0998157419
H  H765  1  0.30220000  0.14840000  0.43320000  1.0 0.0998157419
H  H766  1  0.10160000  0.94780000  0.81680000  1.0 0.0998157419
H  H767  1  0.11620000  0.30220000  0.43320000  1.0 0.0998157419
H  H768  1  0.30220000  0.43320000  0.11620000  1.0 0.0998157419
C  C1  1  0.10199000  0.71111000  0.35129000  1.0 0.2427791805
C  C2  1  0.14801000  0.53889000  0.41439000  1.0 0.2427791805
C  C3  1  0.53889000  0.41439000  0.14801000  1.0 0.2427791805
C  C4  1  0.41439000  0.14801000  0.53889000  1.0 0.2427791805
C  C5  1  0.53889000  0.89871000  0.41439000  1.0 0.2427791805
C  C6  1  0.71111000  0.83561000  0.35129000  1.0 0.2427791805
C  C7  1  0.89871000  0.14801000  0.41439000  1.0 0.2427791805
C  C8  1  0.83561000  0.10199000  0.35129000  1.0 0.2427791805
C  C9  1  0.89871000  0.41439000  0.53889000  1.0 0.2427791805
C  C10  1  0.83561000  0.35129000  0.71111000  1.0 0.2427791805
C  C11  1  0.71111000  0.10199000  0.83561000  1.0 0.2427791805
C  C12  1  0.53889000  0.14801000  0.89871000  1.0 0.2427791805
C  C13  1  0.89871000  0.53889000  0.14801000  1.0 0.2427791805
C  C14  1  0.83561000  0.71111000  0.10199000  1.0 0.2427791805
C  C15  1  0.14801000  0.89871000  0.53889000  1.0 0.2427791805
C  C16  1  0.10199000  0.83561000  0.71111000  1.0 0.2427791805
C  C17  1  0.10199000  0.35129000  0.83561000  1.0 0.2427791805
C  C18  1  0.35129000  0.71111000  0.83561000  1.0 0.2427791805
C  C19  1  0.41439000  0.53889000  0.89871000  1.0 0.2427791805
C  C20  1  0.14801000  0.41439000  0.89871000  1.0 0.2427791805
C  C21  1  0.35129000  0.83561000  0.10199000  1.0 0.2427791805
C  C22  1  0.41439000  0.89871000  0.14801000  1.0 0.2427791805
C  C23  1  0.71111000  0.35129000  0.10199000  1.0 0.2427791805
C  C24  1  0.35129000  0.10199000  0.71111000  1.0 0.2427791805
C  C25  1  0.64801000  0.03889000  0.39871000  1.0 0.2427791805
C  C26  1  0.60199000  0.21111000  0.33561000  1.0 0.2427791805
C  C27  1  0.21111000  0.33561000  0.60199000  1.0 0.2427791805
C  C28  1  0.33561000  0.60199000  0.21111000  1.0 0.2427791805
C  C29  1  0.21111000  0.85129000  0.33561000  1.0 0.2427791805
C  C30  1  0.03889000  0.91439000  0.39871000  1.0 0.2427791805
C  C31  1  0.85129000  0.60199000  0.33561000  1.0 0.2427791805
C  C32  1  0.91439000  0.64801000  0.39871000  1.0 0.2427791805
C  C33  1  0.85129000  0.33561000  0.21111000  1.0 0.2427791805
C  C34  1  0.91439000  0.39871000  0.03889000  1.0 0.2427791805
C  C35  1  0.03889000  0.64801000  0.91439000  1.0 0.2427791805
C  C36  1  0.21111000  0.60199000  0.85129000  1.0 0.2427791805
C  C37  1  0.85129000  0.21111000  0.60199000  1.0 0.2427791805
C  C38  1  0.91439000  0.03889000  0.64801000  1.0 0.2427791805
C  C39  1  0.60199000  0.85129000  0.21111000  1.0 0.2427791805
C  C40  1  0.64801000  0.91439000  0.03889000  1.0 0.2427791805
C  C41  1  0.64801000  0.39871000  0.91439000  1.0 0.2427791805
C  C42  1  0.39871000  0.03889000  0.91439000  1.0 0.2427791805
C  C43  1  0.33561000  0.21111000  0.85129000  1.0 0.2427791805
C  C44  1  0.60199000  0.33561000  0.85129000  1.0 0.2427791805
C  C45  1  0.39871000  0.91439000  0.64801000  1.0 0.2427791805
C  C46  1  0.33561000  0.85129000  0.60199000  1.0 0.2427791805
C  C47  1  0.03889000  0.39871000  0.64801000  1.0 0.2427791805
C  C48  1  0.39871000  0.64801000  0.03889000  1.0 0.2427791805
C  C49  1  0.18900000  0.58258000  0.41766000  1.0 0.0728335513
C  C50  1  0.06100000  0.66742000  0.43924000  1.0 0.0728335513
C  C51  1  0.66742000  0.43924000  0.06100000  1.0 0.0728335513
C  C52  1  0.43924000  0.06100000  0.66742000  1.0 0.0728335513
C  C53  1  0.66742000  0.83234000  0.43924000  1.0 0.0728335513
C  C54  1  0.58258000  0.81076000  0.41766000  1.0 0.0728335513
C  C55  1  0.83234000  0.06100000  0.43924000  1.0 0.0728335513
C  C56  1  0.81076000  0.18900000  0.41766000  1.0 0.0728335513
C  C57  1  0.83234000  0.43924000  0.66742000  1.0 0.0728335513
C  C58  1  0.81076000  0.41766000  0.58258000  1.0 0.0728335513
C  C59  1  0.58258000  0.18900000  0.81076000  1.0 0.0728335513
C  C60  1  0.66742000  0.06100000  0.83234000  1.0 0.0728335513
C  C61  1  0.83234000  0.66742000  0.06100000  1.0 0.0728335513
C  C62  1  0.81076000  0.58258000  0.18900000  1.0 0.0728335513
C  C63  1  0.06100000  0.83234000  0.66742000  1.0 0.0728335513
C  C64  1  0.18900000  0.81076000  0.58258000  1.0 0.0728335513
C  C65  1  0.18900000  0.41766000  0.81076000  1.0 0.0728335513
C  C66  1  0.41766000  0.58258000  0.81076000  1.0 0.0728335513
C  C67  1  0.43924000  0.66742000  0.83234000  1.0 0.0728335513
C  C68  1  0.06100000  0.43924000  0.83234000  1.0 0.0728335513
C  C69  1  0.41766000  0.81076000  0.18900000  1.0 0.0728335513
C  C70  1  0.43924000  0.83234000  0.06100000  1.0 0.0728335513
C  C71  1  0.58258000  0.41766000  0.18900000  1.0 0.0728335513
C  C72  1  0.41766000  0.18900000  0.58258000  1.0 0.0728335513
C  C73  1  0.56100000  0.16742000  0.33234000  1.0 0.0728335513
C  C74  1  0.68900000  0.08258000  0.31076000  1.0 0.0728335513
C  C75  1  0.08258000  0.31076000  0.68900000  1.0 0.0728335513
C  C76  1  0.31076000  0.68900000  0.08258000  1.0 0.0728335513
C  C77  1  0.08258000  0.91766000  0.31076000  1.0 0.0728335513
C  C78  1  0.16742000  0.93924000  0.33234000  1.0 0.0728335513
C  C79  1  0.91766000  0.68900000  0.31076000  1.0 0.0728335513
C  C80  1  0.93924000  0.56100000  0.33234000  1.0 0.0728335513
C  C81  1  0.91766000  0.31076000  0.08258000  1.0 0.0728335513
C  C82  1  0.93924000  0.33234000  0.16742000  1.0 0.0728335513
C  C83  1  0.16742000  0.56100000  0.93924000  1.0 0.0728335513
C  C84  1  0.08258000  0.68900000  0.91766000  1.0 0.0728335513
C  C85  1  0.91766000  0.08258000  0.68900000  1.0 0.0728335513
C  C86  1  0.93924000  0.16742000  0.56100000  1.0 0.0728335513
C  C87  1  0.68900000  0.91766000  0.08258000  1.0 0.0728335513
C  C88  1  0.56100000  0.93924000  0.16742000  1.0 0.0728335513
C  C89  1  0.56100000  0.33234000  0.93924000  1.0 0.0728335513
C  C90  1  0.33234000  0.16742000  0.93924000  1.0 0.0728335513
C  C91  1  0.31076000  0.08258000  0.91766000  1.0 0.0728335513
C  C92  1  0.68900000  0.31076000  0.91766000  1.0 0.0728335513
C  C93  1  0.33234000  0.93924000  0.56100000  1.0 0.0728335513
C  C94  1  0.31076000  0.91766000  0.68900000  1.0 0.0728335513
C  C95  1  0.16742000  0.33234000  0.56100000  1.0 0.0728335513
C  C96  1  0.33234000  0.56100000  0.16742000  1.0 0.0728335513
C  C97  1  0.21487000  0.57871000  0.42831000  1.0 -0.1398563434
C  C98  1  0.03513000  0.67129000  0.47189000  1.0 -0.1398563434
C  C99  1  0.67129000  0.47189000  0.03513000  1.0 -0.1398563434
C  C100  1  0.47189000  0.03513000  0.67129000  1.0 -0.1398563434
C  C101  1  0.67129000  0.82169000  0.47189000  1.0 -0.1398563434
C  C102  1  0.57871000  0.77811000  0.42831000  1.0 -0.1398563434
C  C103  1  0.82169000  0.03513000  0.47189000  1.0 -0.1398563434
C  C104  1  0.77811000  0.21487000  0.42831000  1.0 -0.1398563434
C  C105  1  0.82169000  0.47189000  0.67129000  1.0 -0.1398563434
C  C106  1  0.77811000  0.42831000  0.57871000  1.0 -0.1398563434
C  C107  1  0.57871000  0.21487000  0.77811000  1.0 -0.1398563434
C  C108  1  0.67129000  0.03513000  0.82169000  1.0 -0.1398563434
C  C109  1  0.82169000  0.67129000  0.03513000  1.0 -0.1398563434
C  C110  1  0.77811000  0.57871000  0.21487000  1.0 -0.1398563434
C  C111  1  0.03513000  0.82169000  0.67129000  1.0 -0.1398563434
C  C112  1  0.21487000  0.77811000  0.57871000  1.0 -0.1398563434
C  C113  1  0.21487000  0.42831000  0.77811000  1.0 -0.1398563434
C  C114  1  0.42831000  0.57871000  0.77811000  1.0 -0.1398563434
C  C115  1  0.47189000  0.67129000  0.82169000  1.0 -0.1398563434
C  C116  1  0.03513000  0.47189000  0.82169000  1.0 -0.1398563434
C  C117  1  0.42831000  0.77811000  0.21487000  1.0 -0.1398563434
C  C118  1  0.47189000  0.82169000  0.03513000  1.0 -0.1398563434
C  C119  1  0.57871000  0.42831000  0.21487000  1.0 -0.1398563434
C  C120  1  0.42831000  0.21487000  0.57871000  1.0 -0.1398563434
C  C121  1  0.53513000  0.17129000  0.32169000  1.0 -0.1398563434
C  C122  1  0.71487000  0.07871000  0.27811000  1.0 -0.1398563434
C  C123  1  0.07871000  0.27811000  0.71487000  1.0 -0.1398563434
C  C124  1  0.27811000  0.71487000  0.07871000  1.0 -0.1398563434
C  C125  1  0.07871000  0.92831000  0.27811000  1.0 -0.1398563434
C  C126  1  0.17129000  0.97189000  0.32169000  1.0 -0.1398563434
C  C127  1  0.92831000  0.71487000  0.27811000  1.0 -0.1398563434
C  C128  1  0.97189000  0.53513000  0.32169000  1.0 -0.1398563434
C  C129  1  0.92831000  0.27811000  0.07871000  1.0 -0.1398563434
C  C130  1  0.97189000  0.32169000  0.17129000  1.0 -0.1398563434
C  C131  1  0.17129000  0.53513000  0.97189000  1.0 -0.1398563434
C  C132  1  0.07871000  0.71487000  0.92831000  1.0 -0.1398563434
C  C133  1  0.92831000  0.07871000  0.71487000  1.0 -0.1398563434
C  C134  1  0.97189000  0.17129000  0.53513000  1.0 -0.1398563434
C  C135  1  0.71487000  0.92831000  0.07871000  1.0 -0.1398563434
C  C136  1  0.53513000  0.97189000  0.17129000  1.0 -0.1398563434
C  C137  1  0.53513000  0.32169000  0.97189000  1.0 -0.1398563434
C  C138  1  0.32169000  0.17129000  0.97189000  1.0 -0.1398563434
C  C139  1  0.27811000  0.07871000  0.92831000  1.0 -0.1398563434
C  C140  1  0.71487000  0.27811000  0.92831000  1.0 -0.1398563434
C  C141  1  0.32169000  0.97189000  0.53513000  1.0 -0.1398563434
C  C142  1  0.27811000  0.92831000  0.71487000  1.0 -0.1398563434
C  C143  1  0.17129000  0.32169000  0.53513000  1.0 -0.1398563434
C  C144  1  0.32169000  0.53513000  0.17129000  1.0 -0.1398563434
C  C145  1  0.21768000  0.60902000  0.42578000  1.0 -0.0623395168
C  C146  1  0.03232000  0.64098000  0.50248000  1.0 -0.0623395168
C  C147  1  0.64098000  0.50248000  0.03232000  1.0 -0.0623395168
C  C148  1  0.50248000  0.03232000  0.64098000  1.0 -0.0623395168
C  C149  1  0.64098000  0.82422000  0.50248000  1.0 -0.0623395168
C  C150  1  0.60902000  0.74752000  0.42578000  1.0 -0.0623395168
C  C151  1  0.82422000  0.03232000  0.50248000  1.0 -0.0623395168
C  C152  1  0.74752000  0.21768000  0.42578000  1.0 -0.0623395168
C  C153  1  0.82422000  0.50248000  0.64098000  1.0 -0.0623395168
C  C154  1  0.74752000  0.42578000  0.60902000  1.0 -0.0623395168
C  C155  1  0.60902000  0.21768000  0.74752000  1.0 -0.0623395168
C  C156  1  0.64098000  0.03232000  0.82422000  1.0 -0.0623395168
C  C157  1  0.82422000  0.64098000  0.03232000  1.0 -0.0623395168
C  C158  1  0.74752000  0.60902000  0.21768000  1.0 -0.0623395168
C  C159  1  0.03232000  0.82422000  0.64098000  1.0 -0.0623395168
C  C160  1  0.21768000  0.74752000  0.60902000  1.0 -0.0623395168
C  C161  1  0.21768000  0.42578000  0.74752000  1.0 -0.0623395168
C  C162  1  0.42578000  0.60902000  0.74752000  1.0 -0.0623395168
C  C163  1  0.50248000  0.64098000  0.82422000  1.0 -0.0623395168
C  C164  1  0.03232000  0.50248000  0.82422000  1.0 -0.0623395168
C  C165  1  0.42578000  0.74752000  0.21768000  1.0 -0.0623395168
C  C166  1  0.50248000  0.82422000  0.03232000  1.0 -0.0623395168
C  C167  1  0.60902000  0.42578000  0.21768000  1.0 -0.0623395168
C  C168  1  0.42578000  0.21768000  0.60902000  1.0 -0.0623395168
C  C169  1  0.53232000  0.14098000  0.32422000  1.0 -0.0623395168
C  C170  1  0.71768000  0.10902000  0.24752000  1.0 -0.0623395168
C  C171  1  0.10902000  0.24752000  0.71768000  1.0 -0.0623395168
C  C172  1  0.24752000  0.71768000  0.10902000  1.0 -0.0623395168
C  C173  1  0.10902000  0.92578000  0.24752000  1.0 -0.0623395168
C  C174  1  0.14098000  0.00248000  0.32422000  1.0 -0.0623395168
C  C175  1  0.92578000  0.71768000  0.24752000  1.0 -0.0623395168
C  C176  1  0.00248000  0.53232000  0.32422000  1.0 -0.0623395168
C  C177  1  0.92578000  0.24752000  0.10902000  1.0 -0.0623395168
C  C178  1  0.00248000  0.32422000  0.14098000  1.0 -0.0623395168
C  C179  1  0.14098000  0.53232000  0.00248000  1.0 -0.0623395168
C  C180  1  0.10902000  0.71768000  0.92578000  1.0 -0.0623395168
C  C181  1  0.92578000  0.10902000  0.71768000  1.0 -0.0623395168
C  C182  1  0.00248000  0.14098000  0.53232000  1.0 -0.0623395168
C  C183  1  0.71768000  0.92578000  0.10902000  1.0 -0.0623395168
C  C184  1  0.53232000  0.00248000  0.14098000  1.0 -0.0623395168
C  C185  1  0.53232000  0.32422000  0.00248000  1.0 -0.0623395168
C  C186  1  0.32422000  0.14098000  0.00248000  1.0 -0.0623395168
C  C187  1  0.24752000  0.10902000  0.92578000  1.0 -0.0623395168
C  C188  1  0.71768000  0.24752000  0.92578000  1.0 -0.0623395168
C  C189  1  0.32422000  0.00248000  0.53232000  1.0 -0.0623395168
C  C190  1  0.24752000  0.92578000  0.71768000  1.0 -0.0623395168
C  C191  1  0.14098000  0.32422000  0.53232000  1.0 -0.0623395168
C  C192  1  0.32422000  0.53232000  0.14098000  1.0 -0.0623395168
C  C193  1  0.19307000  0.64267000  0.41277000  1.0 -0.0212480622
C  C194  1  0.05693000  0.60733000  0.49851000  1.0 -0.0212480622
C  C195  1  0.60733000  0.49851000  0.05693000  1.0 -0.0212480622
C  C196  1  0.49851000  0.05693000  0.60733000  1.0 -0.0212480622
C  C197  1  0.60733000  0.83723000  0.49851000  1.0 -0.0212480622
C  C198  1  0.64267000  0.75149000  0.41277000  1.0 -0.0212480622
C  C199  1  0.83723000  0.05693000  0.49851000  1.0 -0.0212480622
C  C200  1  0.75149000  0.19307000  0.41277000  1.0 -0.0212480622
C  C201  1  0.83723000  0.49851000  0.60733000  1.0 -0.0212480622
C  C202  1  0.75149000  0.41277000  0.64267000  1.0 -0.0212480622
C  C203  1  0.64267000  0.19307000  0.75149000  1.0 -0.0212480622
C  C204  1  0.60733000  0.05693000  0.83723000  1.0 -0.0212480622
C  C205  1  0.83723000  0.60733000  0.05693000  1.0 -0.0212480622
C  C206  1  0.75149000  0.64267000  0.19307000  1.0 -0.0212480622
C  C207  1  0.05693000  0.83723000  0.60733000  1.0 -0.0212480622
C  C208  1  0.19307000  0.75149000  0.64267000  1.0 -0.0212480622
C  C209  1  0.19307000  0.41277000  0.75149000  1.0 -0.0212480622
C  C210  1  0.41277000  0.64267000  0.75149000  1.0 -0.0212480622
C  C211  1  0.49851000  0.60733000  0.83723000  1.0 -0.0212480622
C  C212  1  0.05693000  0.49851000  0.83723000  1.0 -0.0212480622
C  C213  1  0.41277000  0.75149000  0.19307000  1.0 -0.0212480622
C  C214  1  0.49851000  0.83723000  0.05693000  1.0 -0.0212480622
C  C215  1  0.64267000  0.41277000  0.19307000  1.0 -0.0212480622
C  C216  1  0.41277000  0.19307000  0.64267000  1.0 -0.0212480622
C  C217  1  0.55693000  0.10733000  0.33723000  1.0 -0.0212480622
C  C218  1  0.69307000  0.14267000  0.25149000  1.0 -0.0212480622
C  C219  1  0.14267000  0.25149000  0.69307000  1.0 -0.0212480622
C  C220  1  0.25149000  0.69307000  0.14267000  1.0 -0.0212480622
C  C221  1  0.14267000  0.91277000  0.25149000  1.0 -0.0212480622
C  C222  1  0.10733000  0.99851000  0.33723000  1.0 -0.0212480622
C  C223  1  0.91277000  0.69307000  0.25149000  1.0 -0.0212480622
C  C224  1  0.99851000  0.55693000  0.33723000  1.0 -0.0212480622
C  C225  1  0.91277000  0.25149000  0.14267000  1.0 -0.0212480622
C  C226  1  0.99851000  0.33723000  0.10733000  1.0 -0.0212480622
C  C227  1  0.10733000  0.55693000  0.99851000  1.0 -0.0212480622
C  C228  1  0.14267000  0.69307000  0.91277000  1.0 -0.0212480622
C  C229  1  0.91277000  0.14267000  0.69307000  1.0 -0.0212480622
C  C230  1  0.99851000  0.10733000  0.55693000  1.0 -0.0212480622
C  C231  1  0.69307000  0.91277000  0.14267000  1.0 -0.0212480622
C  C232  1  0.55693000  0.99851000  0.10733000  1.0 -0.0212480622
C  C233  1  0.55693000  0.33723000  0.99851000  1.0 -0.0212480622
C  C234  1  0.33723000  0.10733000  0.99851000  1.0 -0.0212480622
C  C235  1  0.25149000  0.14267000  0.91277000  1.0 -0.0212480622
C  C236  1  0.69307000  0.25149000  0.91277000  1.0 -0.0212480622
C  C237  1  0.33723000  0.99851000  0.55693000  1.0 -0.0212480622
C  C238  1  0.25149000  0.91277000  0.69307000  1.0 -0.0212480622
C  C239  1  0.10733000  0.33723000  0.55693000  1.0 -0.0212480622
C  C240  1  0.33723000  0.55693000  0.10733000  1.0 -0.0212480622
C  C241  1  0.16701000  0.64367000  0.40385000  1.0 0.0596516971
C  C242  1  0.08299000  0.60633000  0.46453000  1.0 0.0596516971
C  C243  1  0.60633000  0.46453000  0.08299000  1.0 0.0596516971
C  C244  1  0.46453000  0.08299000  0.60633000  1.0 0.0596516971
C  C245  1  0.60633000  0.84615000  0.46453000  1.0 0.0596516971
C  C246  1  0.64367000  0.78547000  0.40385000  1.0 0.0596516971
C  C247  1  0.84615000  0.08299000  0.46453000  1.0 0.0596516971
C  C248  1  0.78547000  0.16701000  0.40385000  1.0 0.0596516971
C  C249  1  0.84615000  0.46453000  0.60633000  1.0 0.0596516971
C  C250  1  0.78547000  0.40385000  0.64367000  1.0 0.0596516971
C  C251  1  0.64367000  0.16701000  0.78547000  1.0 0.0596516971
C  C252  1  0.60633000  0.08299000  0.84615000  1.0 0.0596516971
C  C253  1  0.84615000  0.60633000  0.08299000  1.0 0.0596516971
C  C254  1  0.78547000  0.64367000  0.16701000  1.0 0.0596516971
C  C255  1  0.08299000  0.84615000  0.60633000  1.0 0.0596516971
C  C256  1  0.16701000  0.78547000  0.64367000  1.0 0.0596516971
C  C257  1  0.16701000  0.40385000  0.78547000  1.0 0.0596516971
C  C258  1  0.40385000  0.64367000  0.78547000  1.0 0.0596516971
C  C259  1  0.46453000  0.60633000  0.84615000  1.0 0.0596516971
C  C260  1  0.08299000  0.46453000  0.84615000  1.0 0.0596516971
C  C261  1  0.40385000  0.78547000  0.16701000  1.0 0.0596516971
C  C262  1  0.46453000  0.84615000  0.08299000  1.0 0.0596516971
C  C263  1  0.64367000  0.40385000  0.16701000  1.0 0.0596516971
C  C264  1  0.40385000  0.16701000  0.64367000  1.0 0.0596516971
C  C265  1  0.58299000  0.10633000  0.34615000  1.0 0.0596516971
C  C266  1  0.66701000  0.14367000  0.28547000  1.0 0.0596516971
C  C267  1  0.14367000  0.28547000  0.66701000  1.0 0.0596516971
C  C268  1  0.28547000  0.66701000  0.14367000  1.0 0.0596516971
C  C269  1  0.14367000  0.90385000  0.28547000  1.0 0.0596516971
C  C270  1  0.10633000  0.96453000  0.34615000  1.0 0.0596516971
C  C271  1  0.90385000  0.66701000  0.28547000  1.0 0.0596516971
C  C272  1  0.96453000  0.58299000  0.34615000  1.0 0.0596516971
C  C273  1  0.90385000  0.28547000  0.14367000  1.0 0.0596516971
C  C274  1  0.96453000  0.34615000  0.10633000  1.0 0.0596516971
C  C275  1  0.10633000  0.58299000  0.96453000  1.0 0.0596516971
C  C276  1  0.14367000  0.66701000  0.90385000  1.0 0.0596516971
C  C277  1  0.90385000  0.14367000  0.66701000  1.0 0.0596516971
C  C278  1  0.96453000  0.10633000  0.58299000  1.0 0.0596516971
C  C279  1  0.66701000  0.90385000  0.14367000  1.0 0.0596516971
C  C280  1  0.58299000  0.96453000  0.10633000  1.0 0.0596516971
C  C281  1  0.58299000  0.34615000  0.96453000  1.0 0.0596516971
C  C282  1  0.34615000  0.10633000  0.96453000  1.0 0.0596516971
C  C283  1  0.28547000  0.14367000  0.90385000  1.0 0.0596516971
C  C284  1  0.66701000  0.28547000  0.90385000  1.0 0.0596516971
C  C285  1  0.34615000  0.96453000  0.58299000  1.0 0.0596516971
C  C286  1  0.28547000  0.90385000  0.66701000  1.0 0.0596516971
C  C287  1  0.10633000  0.34615000  0.58299000  1.0 0.0596516971
C  C288  1  0.34615000  0.58299000  0.10633000  1.0 0.0596516971
C  C289  1  0.14096000  0.80284000  0.38688000  1.0 0.0596516971
C  C290  1  0.10904000  0.44716000  0.58068000  1.0 0.0596516971
C  C291  1  0.44716000  0.58068000  0.10904000  1.0 0.0596516971
C  C292  1  0.58068000  0.10904000  0.44716000  1.0 0.0596516971
C  C293  1  0.44716000  0.86312000  0.58068000  1.0 0.0596516971
C  C294  1  0.80284000  0.66932000  0.38688000  1.0 0.0596516971
C  C295  1  0.86312000  0.10904000  0.58068000  1.0 0.0596516971
C  C296  1  0.66932000  0.14096000  0.38688000  1.0 0.0596516971
C  C297  1  0.86312000  0.58068000  0.44716000  1.0 0.0596516971
C  C298  1  0.66932000  0.38688000  0.80284000  1.0 0.0596516971
C  C299  1  0.80284000  0.14096000  0.66932000  1.0 0.0596516971
C  C300  1  0.44716000  0.10904000  0.86312000  1.0 0.0596516971
C  C301  1  0.86312000  0.44716000  0.10904000  1.0 0.0596516971
C  C302  1  0.66932000  0.80284000  0.14096000  1.0 0.0596516971
C  C303  1  0.10904000  0.86312000  0.44716000  1.0 0.0596516971
C  C304  1  0.14096000  0.66932000  0.80284000  1.0 0.0596516971
C  C305  1  0.14096000  0.38688000  0.66932000  1.0 0.0596516971
C  C306  1  0.38688000  0.80284000  0.66932000  1.0 0.0596516971
C  C307  1  0.58068000  0.44716000  0.86312000  1.0 0.0596516971
C  C308  1  0.10904000  0.58068000  0.86312000  1.0 0.0596516971
C  C309  1  0.38688000  0.66932000  0.14096000  1.0 0.0596516971
C  C310  1  0.58068000  0.86312000  0.10904000  1.0 0.0596516971
C  C311  1  0.80284000  0.38688000  0.14096000  1.0 0.0596516971
C  C312  1  0.38688000  0.14096000  0.80284000  1.0 0.0596516971
C  C313  1  0.60904000  0.94716000  0.36312000  1.0 0.0596516971
C  C314  1  0.64096000  0.30284000  0.16932000  1.0 0.0596516971
C  C315  1  0.30284000  0.16932000  0.64096000  1.0 0.0596516971
C  C316  1  0.16932000  0.64096000  0.30284000  1.0 0.0596516971
C  C317  1  0.30284000  0.88688000  0.16932000  1.0 0.0596516971
C  C318  1  0.94716000  0.08068000  0.36312000  1.0 0.0596516971
C  C319  1  0.88688000  0.64096000  0.16932000  1.0 0.0596516971
C  C320  1  0.08068000  0.60904000  0.36312000  1.0 0.0596516971
C  C321  1  0.88688000  0.16932000  0.30284000  1.0 0.0596516971
C  C322  1  0.08068000  0.36312000  0.94716000  1.0 0.0596516971
C  C323  1  0.94716000  0.60904000  0.08068000  1.0 0.0596516971
C  C324  1  0.30284000  0.64096000  0.88688000  1.0 0.0596516971
C  C325  1  0.88688000  0.30284000  0.64096000  1.0 0.0596516971
C  C326  1  0.08068000  0.94716000  0.60904000  1.0 0.0596516971
C  C327  1  0.64096000  0.88688000  0.30284000  1.0 0.0596516971
C  C328  1  0.60904000  0.08068000  0.94716000  1.0 0.0596516971
C  C329  1  0.60904000  0.36312000  0.08068000  1.0 0.0596516971
C  C330  1  0.36312000  0.94716000  0.08068000  1.0 0.0596516971
C  C331  1  0.16932000  0.30284000  0.88688000  1.0 0.0596516971
C  C332  1  0.64096000  0.16932000  0.88688000  1.0 0.0596516971
C  C333  1  0.36312000  0.08068000  0.60904000  1.0 0.0596516971
C  C334  1  0.16932000  0.88688000  0.64096000  1.0 0.0596516971
C  C335  1  0.94716000  0.36312000  0.60904000  1.0 0.0596516971
C  C336  1  0.36312000  0.60904000  0.94716000  1.0 0.0596516971
C  C337  1  0.13925000  0.77145000  0.39177000  1.0 -0.0252444941
C  C338  1  0.11075000  0.47855000  0.55247000  1.0 -0.0252444941
C  C339  1  0.47855000  0.55247000  0.11075000  1.0 -0.0252444941
C  C340  1  0.55247000  0.11075000  0.47855000  1.0 -0.0252444941
C  C341  1  0.47855000  0.85823000  0.55247000  1.0 -0.0252444941
C  C342  1  0.77145000  0.69753000  0.39177000  1.0 -0.0252444941
C  C343  1  0.85823000  0.11075000  0.55247000  1.0 -0.0252444941
C  C344  1  0.69753000  0.13925000  0.39177000  1.0 -0.0252444941
C  C345  1  0.85823000  0.55247000  0.47855000  1.0 -0.0252444941
C  C346  1  0.69753000  0.39177000  0.77145000  1.0 -0.0252444941
C  C347  1  0.77145000  0.13925000  0.69753000  1.0 -0.0252444941
C  C348  1  0.47855000  0.11075000  0.85823000  1.0 -0.0252444941
C  C349  1  0.85823000  0.47855000  0.11075000  1.0 -0.0252444941
C  C350  1  0.69753000  0.77145000  0.13925000  1.0 -0.0252444941
C  C351  1  0.11075000  0.85823000  0.47855000  1.0 -0.0252444941
C  C352  1  0.13925000  0.69753000  0.77145000  1.0 -0.0252444941
C  C353  1  0.13925000  0.39177000  0.69753000  1.0 -0.0252444941
C  C354  1  0.39177000  0.77145000  0.69753000  1.0 -0.0252444941
C  C355  1  0.55247000  0.47855000  0.85823000  1.0 -0.0252444941
C  C356  1  0.11075000  0.55247000  0.85823000  1.0 -0.0252444941
C  C357  1  0.39177000  0.69753000  0.13925000  1.0 -0.0252444941
C  C358  1  0.55247000  0.85823000  0.11075000  1.0 -0.0252444941
C  C359  1  0.77145000  0.39177000  0.13925000  1.0 -0.0252444941
C  C360  1  0.39177000  0.13925000  0.77145000  1.0 -0.0252444941
C  C361  1  0.61075000  0.97855000  0.35823000  1.0 -0.0252444941
C  C362  1  0.63925000  0.27145000  0.19753000  1.0 -0.0252444941
C  C363  1  0.27145000  0.19753000  0.63925000  1.0 -0.0252444941
C  C364  1  0.19753000  0.63925000  0.27145000  1.0 -0.0252444941
C  C365  1  0.27145000  0.89177000  0.19753000  1.0 -0.0252444941
C  C366  1  0.97855000  0.05247000  0.35823000  1.0 -0.0252444941
C  C367  1  0.89177000  0.63925000  0.19753000  1.0 -0.0252444941
C  C368  1  0.05247000  0.61075000  0.35823000  1.0 -0.0252444941
C  C369  1  0.89177000  0.19753000  0.27145000  1.0 -0.0252444941
C  C370  1  0.05247000  0.35823000  0.97855000  1.0 -0.0252444941
C  C371  1  0.97855000  0.61075000  0.05247000  1.0 -0.0252444941
C  C372  1  0.27145000  0.63925000  0.89177000  1.0 -0.0252444941
C  C373  1  0.89177000  0.27145000  0.63925000  1.0 -0.0252444941
C  C374  1  0.05247000  0.97855000  0.61075000  1.0 -0.0252444941
C  C375  1  0.63925000  0.89177000  0.27145000  1.0 -0.0252444941
C  C376  1  0.61075000  0.05247000  0.97855000  1.0 -0.0252444941
C  C377  1  0.61075000  0.35823000  0.05247000  1.0 -0.0252444941
C  C378  1  0.35823000  0.97855000  0.05247000  1.0 -0.0252444941
C  C379  1  0.19753000  0.27145000  0.89177000  1.0 -0.0252444941
C  C380  1  0.63925000  0.19753000  0.89177000  1.0 -0.0252444941
C  C381  1  0.35823000  0.05247000  0.61075000  1.0 -0.0252444941
C  C382  1  0.19753000  0.89177000  0.63925000  1.0 -0.0252444941
C  C383  1  0.97855000  0.35823000  0.61075000  1.0 -0.0252444941
C  C384  1  0.35823000  0.61075000  0.97855000  1.0 -0.0252444941
C  C385  1  0.10788000  0.77282000  0.39100000  1.0 -0.0623395168
C  C386  1  0.14212000  0.47718000  0.52170000  1.0 -0.0623395168
C  C387  1  0.47718000  0.52170000  0.14212000  1.0 -0.0623395168
C  C388  1  0.52170000  0.14212000  0.47718000  1.0 -0.0623395168
C  C389  1  0.47718000  0.85900000  0.52170000  1.0 -0.0623395168
C  C390  1  0.77282000  0.72830000  0.39100000  1.0 -0.0623395168
C  C391  1  0.85900000  0.14212000  0.52170000  1.0 -0.0623395168
C  C392  1  0.72830000  0.10788000  0.39100000  1.0 -0.0623395168
C  C393  1  0.85900000  0.52170000  0.47718000  1.0 -0.0623395168
C  C394  1  0.72830000  0.39100000  0.77282000  1.0 -0.0623395168
C  C395  1  0.77282000  0.10788000  0.72830000  1.0 -0.0623395168
C  C396  1  0.47718000  0.14212000  0.85900000  1.0 -0.0623395168
C  C397  1  0.85900000  0.47718000  0.14212000  1.0 -0.0623395168
C  C398  1  0.72830000  0.77282000  0.10788000  1.0 -0.0623395168
C  C399  1  0.14212000  0.85900000  0.47718000  1.0 -0.0623395168
C  C400  1  0.10788000  0.72830000  0.77282000  1.0 -0.0623395168
C  C401  1  0.10788000  0.39100000  0.72830000  1.0 -0.0623395168
C  C402  1  0.39100000  0.77282000  0.72830000  1.0 -0.0623395168
C  C403  1  0.52170000  0.47718000  0.85900000  1.0 -0.0623395168
C  C404  1  0.14212000  0.52170000  0.85900000  1.0 -0.0623395168
C  C405  1  0.39100000  0.72830000  0.10788000  1.0 -0.0623395168
C  C406  1  0.52170000  0.85900000  0.14212000  1.0 -0.0623395168
C  C407  1  0.77282000  0.39100000  0.10788000  1.0 -0.0623395168
C  C408  1  0.39100000  0.10788000  0.77282000  1.0 -0.0623395168
C  C409  1  0.64212000  0.97718000  0.35900000  1.0 -0.0623395168
C  C410  1  0.60788000  0.27282000  0.22830000  1.0 -0.0623395168
C  C411  1  0.27282000  0.22830000  0.60788000  1.0 -0.0623395168
C  C412  1  0.22830000  0.60788000  0.27282000  1.0 -0.0623395168
C  C413  1  0.27282000  0.89100000  0.22830000  1.0 -0.0623395168
C  C414  1  0.97718000  0.02170000  0.35900000  1.0 -0.0623395168
C  C415  1  0.89100000  0.60788000  0.22830000  1.0 -0.0623395168
C  C416  1  0.02170000  0.64212000  0.35900000  1.0 -0.0623395168
C  C417  1  0.89100000  0.22830000  0.27282000  1.0 -0.0623395168
C  C418  1  0.02170000  0.35900000  0.97718000  1.0 -0.0623395168
C  C419  1  0.97718000  0.64212000  0.02170000  1.0 -0.0623395168
C  C420  1  0.27282000  0.60788000  0.89100000  1.0 -0.0623395168
C  C421  1  0.89100000  0.27282000  0.60788000  1.0 -0.0623395168
C  C422  1  0.02170000  0.97718000  0.64212000  1.0 -0.0623395168
C  C423  1  0.60788000  0.89100000  0.27282000  1.0 -0.0623395168
C  C424  1  0.64212000  0.02170000  0.97718000  1.0 -0.0623395168
C  C425  1  0.64212000  0.35900000  0.02170000  1.0 -0.0623395168
C  C426  1  0.35900000  0.97718000  0.02170000  1.0 -0.0623395168
C  C427  1  0.22830000  0.27282000  0.89100000  1.0 -0.0623395168
C  C428  1  0.60788000  0.22830000  0.89100000  1.0 -0.0623395168
C  C429  1  0.35900000  0.02170000  0.64212000  1.0 -0.0623395168
C  C430  1  0.22830000  0.89100000  0.60788000  1.0 -0.0623395168
C  C431  1  0.97718000  0.35900000  0.64212000  1.0 -0.0623395168
C  C432  1  0.35900000  0.64212000  0.97718000  1.0 -0.0623395168
C  C433  1  0.08049000  0.80501000  0.38691000  1.0 -0.1309972761
C  C434  1  0.16951000  0.44499000  0.52241000  1.0 -0.1309972761
C  C435  1  0.44499000  0.52241000  0.16951000  1.0 -0.1309972761
C  C436  1  0.52241000  0.16951000  0.44499000  1.0 -0.1309972761
C  C437  1  0.44499000  0.86309000  0.52241000  1.0 -0.1309972761
C  C438  1  0.80501000  0.72759000  0.38691000  1.0 -0.1309972761
C  C439  1  0.86309000  0.16951000  0.52241000  1.0 -0.1309972761
C  C440  1  0.72759000  0.08049000  0.38691000  1.0 -0.1309972761
C  C441  1  0.86309000  0.52241000  0.44499000  1.0 -0.1309972761
C  C442  1  0.72759000  0.38691000  0.80501000  1.0 -0.1309972761
C  C443  1  0.80501000  0.08049000  0.72759000  1.0 -0.1309972761
C  C444  1  0.44499000  0.16951000  0.86309000  1.0 -0.1309972761
C  C445  1  0.86309000  0.44499000  0.16951000  1.0 -0.1309972761
C  C446  1  0.72759000  0.80501000  0.08049000  1.0 -0.1309972761
C  C447  1  0.16951000  0.86309000  0.44499000  1.0 -0.1309972761
C  C448  1  0.08049000  0.72759000  0.80501000  1.0 -0.1309972761
C  C449  1  0.08049000  0.38691000  0.72759000  1.0 -0.1309972761
C  C450  1  0.38691000  0.80501000  0.72759000  1.0 -0.1309972761
C  C451  1  0.52241000  0.44499000  0.86309000  1.0 -0.1309972761
C  C452  1  0.16951000  0.52241000  0.86309000  1.0 -0.1309972761
C  C453  1  0.38691000  0.72759000  0.08049000  1.0 -0.1309972761
C  C454  1  0.52241000  0.86309000  0.16951000  1.0 -0.1309972761
C  C455  1  0.80501000  0.38691000  0.08049000  1.0 -0.1309972761
C  C456  1  0.38691000  0.08049000  0.80501000  1.0 -0.1309972761
C  C457  1  0.66951000  0.94499000  0.36309000  1.0 -0.1309972761
C  C458  1  0.58049000  0.30501000  0.22759000  1.0 -0.1309972761
C  C459  1  0.30501000  0.22759000  0.58049000  1.0 -0.1309972761
C  C460  1  0.22759000  0.58049000  0.30501000  1.0 -0.1309972761
C  C461  1  0.30501000  0.88691000  0.22759000  1.0 -0.1309972761
C  C462  1  0.94499000  0.02241000  0.36309000  1.0 -0.1309972761
C  C463  1  0.88691000  0.58049000  0.22759000  1.0 -0.1309972761
C  C464  1  0.02241000  0.66951000  0.36309000  1.0 -0.1309972761
C  C465  1  0.88691000  0.22759000  0.30501000  1.0 -0.1309972761
C  C466  1  0.02241000  0.36309000  0.94499000  1.0 -0.1309972761
C  C467  1  0.94499000  0.66951000  0.02241000  1.0 -0.1309972761
C  C468  1  0.30501000  0.58049000  0.88691000  1.0 -0.1309972761
C  C469  1  0.88691000  0.30501000  0.58049000  1.0 -0.1309972761
C  C470  1  0.02241000  0.94499000  0.66951000  1.0 -0.1309972761
C  C471  1  0.58049000  0.88691000  0.30501000  1.0 -0.1309972761
C  C472  1  0.66951000  0.02241000  0.94499000  1.0 -0.1309972761
C  C473  1  0.66951000  0.36309000  0.02241000  1.0 -0.1309972761
C  C474  1  0.36309000  0.94499000  0.02241000  1.0 -0.1309972761
C  C475  1  0.22759000  0.30501000  0.88691000  1.0 -0.1309972761
C  C476  1  0.58049000  0.22759000  0.88691000  1.0 -0.1309972761
C  C477  1  0.36309000  0.02241000  0.66951000  1.0 -0.1309972761
C  C478  1  0.22759000  0.88691000  0.58049000  1.0 -0.1309972761
C  C479  1  0.94499000  0.36309000  0.66951000  1.0 -0.1309972761
C  C480  1  0.36309000  0.66951000  0.94499000  1.0 -0.1309972761
C  C481  1  0.08428000  0.83606000  0.38202000  1.0 0.0824746193
C  C482  1  0.16572000  0.41394000  0.55236000  1.0 0.0824746193
C  C483  1  0.41394000  0.55236000  0.16572000  1.0 0.0824746193
C  C484  1  0.55236000  0.16572000  0.41394000  1.0 0.0824746193
C  C485  1  0.41394000  0.86798000  0.55236000  1.0 0.0824746193
C  C486  1  0.83606000  0.69764000  0.38202000  1.0 0.0824746193
C  C487  1  0.86798000  0.16572000  0.55236000  1.0 0.0824746193
C  C488  1  0.69764000  0.08428000  0.38202000  1.0 0.0824746193
C  C489  1  0.86798000  0.55236000  0.41394000  1.0 0.0824746193
C  C490  1  0.69764000  0.38202000  0.83606000  1.0 0.0824746193
C  C491  1  0.83606000  0.08428000  0.69764000  1.0 0.0824746193
C  C492  1  0.41394000  0.16572000  0.86798000  1.0 0.0824746193
C  C493  1  0.86798000  0.41394000  0.16572000  1.0 0.0824746193
C  C494  1  0.69764000  0.83606000  0.08428000  1.0 0.0824746193
C  C495  1  0.16572000  0.86798000  0.41394000  1.0 0.0824746193
C  C496  1  0.08428000  0.69764000  0.83606000  1.0 0.0824746193
C  C497  1  0.08428000  0.38202000  0.69764000  1.0 0.0824746193
C  C498  1  0.38202000  0.83606000  0.69764000  1.0 0.0824746193
C  C499  1  0.55236000  0.41394000  0.86798000  1.0 0.0824746193
C  C500  1  0.16572000  0.55236000  0.86798000  1.0 0.0824746193
C  C501  1  0.38202000  0.69764000  0.08428000  1.0 0.0824746193
C  C502  1  0.55236000  0.86798000  0.16572000  1.0 0.0824746193
C  C503  1  0.83606000  0.38202000  0.08428000  1.0 0.0824746193
C  C504  1  0.38202000  0.08428000  0.83606000  1.0 0.0824746193
C  C505  1  0.66572000  0.91394000  0.36798000  1.0 0.0824746193
C  C506  1  0.58428000  0.33606000  0.19764000  1.0 0.0824746193
C  C507  1  0.33606000  0.19764000  0.58428000  1.0 0.0824746193
C  C508  1  0.19764000  0.58428000  0.33606000  1.0 0.0824746193
C  C509  1  0.33606000  0.88202000  0.19764000  1.0 0.0824746193
C  C510  1  0.91394000  0.05236000  0.36798000  1.0 0.0824746193
C  C511  1  0.88202000  0.58428000  0.19764000  1.0 0.0824746193
C  C512  1  0.05236000  0.66572000  0.36798000  1.0 0.0824746193
C  C513  1  0.88202000  0.19764000  0.33606000  1.0 0.0824746193
C  C514  1  0.05236000  0.36798000  0.91394000  1.0 0.0824746193
C  C515  1  0.91394000  0.66572000  0.05236000  1.0 0.0824746193
C  C516  1  0.33606000  0.58428000  0.88202000  1.0 0.0824746193
C  C517  1  0.88202000  0.33606000  0.58428000  1.0 0.0824746193
C  C518  1  0.05236000  0.91394000  0.66572000  1.0 0.0824746193
C  C519  1  0.58428000  0.88202000  0.33606000  1.0 0.0824746193
C  C520  1  0.66572000  0.05236000  0.91394000  1.0 0.0824746193
C  C521  1  0.66572000  0.36798000  0.05236000  1.0 0.0824746193
C  C522  1  0.36798000  0.91394000  0.05236000  1.0 0.0824746193
C  C523  1  0.19764000  0.33606000  0.88202000  1.0 0.0824746193
C  C524  1  0.58428000  0.19764000  0.88202000  1.0 0.0824746193
C  C525  1  0.36798000  0.05236000  0.66572000  1.0 0.0824746193
C  C526  1  0.19764000  0.88202000  0.58428000  1.0 0.0824746193
C  C527  1  0.91394000  0.36798000  0.66572000  1.0 0.0824746193
C  C528  1  0.36798000  0.66572000  0.91394000  1.0 0.0824746193
C  C529  1  0.17032000  0.73726000  0.39488000  1.0 0.3813063367
C  C530  1  0.07968000  0.51274000  0.55246000  1.0 0.3813063367
C  C531  1  0.51274000  0.55246000  0.07968000  1.0 0.3813063367
C  C532  1  0.55246000  0.07968000  0.51274000  1.0 0.3813063367
C  C533  1  0.51274000  0.85512000  0.55246000  1.0 0.3813063367
C  C534  1  0.73726000  0.69754000  0.39488000  1.0 0.3813063367
C  C535  1  0.85512000  0.07968000  0.55246000  1.0 0.3813063367
C  C536  1  0.69754000  0.17032000  0.39488000  1.0 0.3813063367
C  C537  1  0.85512000  0.55246000  0.51274000  1.0 0.3813063367
C  C538  1  0.69754000  0.39488000  0.73726000  1.0 0.3813063367
C  C539  1  0.73726000  0.17032000  0.69754000  1.0 0.3813063367
C  C540  1  0.51274000  0.07968000  0.85512000  1.0 0.3813063367
C  C541  1  0.85512000  0.51274000  0.07968000  1.0 0.3813063367
C  C542  1  0.69754000  0.73726000  0.17032000  1.0 0.3813063367
C  C543  1  0.07968000  0.85512000  0.51274000  1.0 0.3813063367
C  C544  1  0.17032000  0.69754000  0.73726000  1.0 0.3813063367
C  C545  1  0.17032000  0.39488000  0.69754000  1.0 0.3813063367
C  C546  1  0.39488000  0.73726000  0.69754000  1.0 0.3813063367
C  C547  1  0.55246000  0.51274000  0.85512000  1.0 0.3813063367
C  C548  1  0.07968000  0.55246000  0.85512000  1.0 0.3813063367
C  C549  1  0.39488000  0.69754000  0.17032000  1.0 0.3813063367
C  C550  1  0.55246000  0.85512000  0.07968000  1.0 0.3813063367
C  C551  1  0.73726000  0.39488000  0.17032000  1.0 0.3813063367
C  C552  1  0.39488000  0.17032000  0.73726000  1.0 0.3813063367
C  C553  1  0.57968000  0.01274000  0.35512000  1.0 0.3813063367
C  C554  1  0.67032000  0.23726000  0.19754000  1.0 0.3813063367
C  C555  1  0.23726000  0.19754000  0.67032000  1.0 0.3813063367
C  C556  1  0.19754000  0.67032000  0.23726000  1.0 0.3813063367
C  C557  1  0.23726000  0.89488000  0.19754000  1.0 0.3813063367
C  C558  1  0.01274000  0.05246000  0.35512000  1.0 0.3813063367
C  C559  1  0.89488000  0.67032000  0.19754000  1.0 0.3813063367
C  C560  1  0.05246000  0.57968000  0.35512000  1.0 0.3813063367
C  C561  1  0.89488000  0.19754000  0.23726000  1.0 0.3813063367
C  C562  1  0.05246000  0.35512000  0.01274000  1.0 0.3813063367
C  C563  1  0.01274000  0.57968000  0.05246000  1.0 0.3813063367
C  C564  1  0.23726000  0.67032000  0.89488000  1.0 0.3813063367
C  C565  1  0.89488000  0.23726000  0.67032000  1.0 0.3813063367
C  C566  1  0.05246000  0.01274000  0.57968000  1.0 0.3813063367
C  C567  1  0.67032000  0.89488000  0.23726000  1.0 0.3813063367
C  C568  1  0.57968000  0.05246000  0.01274000  1.0 0.3813063367
C  C569  1  0.57968000  0.35512000  0.05246000  1.0 0.3813063367
C  C570  1  0.35512000  0.01274000  0.05246000  1.0 0.3813063367
C  C571  1  0.19754000  0.23726000  0.89488000  1.0 0.3813063367
C  C572  1  0.67032000  0.19754000  0.89488000  1.0 0.3813063367
C  C573  1  0.35512000  0.05246000  0.57968000  1.0 0.3813063367
C  C574  1  0.19754000  0.89488000  0.67032000  1.0 0.3813063367
C  C575  1  0.01274000  0.35512000  0.57968000  1.0 0.3813063367
C  C576  1  0.35512000  0.57968000  0.01274000  1.0 0.3813063367
C  C577  1  0.19549000  0.67695000  0.40587000  1.0 0.3664961005
C  C578  1  0.05451000  0.57305000  0.52831000  1.0 0.3664961005
C  C579  1  0.57305000  0.52831000  0.05451000  1.0 0.3664961005
C  C580  1  0.52831000  0.05451000  0.57305000  1.0 0.3664961005
C  C581  1  0.57305000  0.84413000  0.52831000  1.0 0.3664961005
C  C582  1  0.67695000  0.72169000  0.40587000  1.0 0.3664961005
C  C583  1  0.84413000  0.05451000  0.52831000  1.0 0.3664961005
C  C584  1  0.72169000  0.19549000  0.40587000  1.0 0.3664961005
C  C585  1  0.84413000  0.52831000  0.57305000  1.0 0.3664961005
C  C586  1  0.72169000  0.40587000  0.67695000  1.0 0.3664961005
C  C587  1  0.67695000  0.19549000  0.72169000  1.0 0.3664961005
C  C588  1  0.57305000  0.05451000  0.84413000  1.0 0.3664961005
C  C589  1  0.84413000  0.57305000  0.05451000  1.0 0.3664961005
C  C590  1  0.72169000  0.67695000  0.19549000  1.0 0.3664961005
C  C591  1  0.05451000  0.84413000  0.57305000  1.0 0.3664961005
C  C592  1  0.19549000  0.72169000  0.67695000  1.0 0.3664961005
C  C593  1  0.19549000  0.40587000  0.72169000  1.0 0.3664961005
C  C594  1  0.40587000  0.67695000  0.72169000  1.0 0.3664961005
C  C595  1  0.52831000  0.57305000  0.84413000  1.0 0.3664961005
C  C596  1  0.05451000  0.52831000  0.84413000  1.0 0.3664961005
C  C597  1  0.40587000  0.72169000  0.19549000  1.0 0.3664961005
C  C598  1  0.52831000  0.84413000  0.05451000  1.0 0.3664961005
C  C599  1  0.67695000  0.40587000  0.19549000  1.0 0.3664961005
C  C600  1  0.40587000  0.19549000  0.67695000  1.0 0.3664961005
C  C601  1  0.55451000  0.07305000  0.34413000  1.0 0.3664961005
C  C602  1  0.69549000  0.17695000  0.22169000  1.0 0.3664961005
C  C603  1  0.17695000  0.22169000  0.69549000  1.0 0.3664961005
C  C604  1  0.22169000  0.69549000  0.17695000  1.0 0.3664961005
C  C605  1  0.17695000  0.90587000  0.22169000  1.0 0.3664961005
C  C606  1  0.07305000  0.02831000  0.34413000  1.0 0.3664961005
C  C607  1  0.90587000  0.69549000  0.22169000  1.0 0.3664961005
C  C608  1  0.02831000  0.55451000  0.34413000  1.0 0.3664961005
C  C609  1  0.90587000  0.22169000  0.17695000  1.0 0.3664961005
C  C610  1  0.02831000  0.34413000  0.07305000  1.0 0.3664961005
C  C611  1  0.07305000  0.55451000  0.02831000  1.0 0.3664961005
C  C612  1  0.17695000  0.69549000  0.90587000  1.0 0.3664961005
C  C613  1  0.90587000  0.17695000  0.69549000  1.0 0.3664961005
C  C614  1  0.02831000  0.07305000  0.55451000  1.0 0.3664961005
C  C615  1  0.69549000  0.90587000  0.17695000  1.0 0.3664961005
C  C616  1  0.55451000  0.02831000  0.07305000  1.0 0.3664961005
C  C617  1  0.55451000  0.34413000  0.02831000  1.0 0.3664961005
C  C618  1  0.34413000  0.07305000  0.02831000  1.0 0.3664961005
C  C619  1  0.22169000  0.17695000  0.90587000  1.0 0.3664961005
C  C620  1  0.69549000  0.22169000  0.90587000  1.0 0.3664961005
C  C621  1  0.34413000  0.02831000  0.55451000  1.0 0.3664961005
C  C622  1  0.22169000  0.90587000  0.69549000  1.0 0.3664961005
C  C623  1  0.07305000  0.34413000  0.55451000  1.0 0.3664961005
C  C624  1  0.34413000  0.55451000  0.07305000  1.0 0.3664961005
C  C625  1  0.22987000  0.70881000  0.38931000  1.0 0.3813063367
C  C626  1  0.02013000  0.54119000  0.57799000  1.0 0.3813063367
C  C627  1  0.54119000  0.57799000  0.02013000  1.0 0.3813063367
C  C628  1  0.57799000  0.02013000  0.54119000  1.0 0.3813063367
C  C629  1  0.54119000  0.86069000  0.57799000  1.0 0.3813063367
C  C630  1  0.70881000  0.67201000  0.38931000  1.0 0.3813063367
C  C631  1  0.86069000  0.02013000  0.57799000  1.0 0.3813063367
C  C632  1  0.67201000  0.22987000  0.38931000  1.0 0.3813063367
C  C633  1  0.86069000  0.57799000  0.54119000  1.0 0.3813063367
C  C634  1  0.67201000  0.38931000  0.70881000  1.0 0.3813063367
C  C635  1  0.70881000  0.22987000  0.67201000  1.0 0.3813063367
C  C636  1  0.54119000  0.02013000  0.86069000  1.0 0.3813063367
C  C637  1  0.86069000  0.54119000  0.02013000  1.0 0.3813063367
C  C638  1  0.67201000  0.70881000  0.22987000  1.0 0.3813063367
C  C639  1  0.02013000  0.86069000  0.54119000  1.0 0.3813063367
C  C640  1  0.22987000  0.67201000  0.70881000  1.0 0.3813063367
C  C641  1  0.22987000  0.38931000  0.67201000  1.0 0.3813063367
C  C642  1  0.38931000  0.70881000  0.67201000  1.0 0.3813063367
C  C643  1  0.57799000  0.54119000  0.86069000  1.0 0.3813063367
C  C644  1  0.02013000  0.57799000  0.86069000  1.0 0.3813063367
C  C645  1  0.38931000  0.67201000  0.22987000  1.0 0.3813063367
C  C646  1  0.57799000  0.86069000  0.02013000  1.0 0.3813063367
C  C647  1  0.70881000  0.38931000  0.22987000  1.0 0.3813063367
C  C648  1  0.38931000  0.22987000  0.70881000  1.0 0.3813063367
C  C649  1  0.52013000  0.04119000  0.36069000  1.0 0.3813063367
C  C650  1  0.72987000  0.20881000  0.17201000  1.0 0.3813063367
C  C651  1  0.20881000  0.17201000  0.72987000  1.0 0.3813063367
C  C652  1  0.17201000  0.72987000  0.20881000  1.0 0.3813063367
C  C653  1  0.20881000  0.88931000  0.17201000  1.0 0.3813063367
C  C654  1  0.04119000  0.07799000  0.36069000  1.0 0.3813063367
C  C655  1  0.88931000  0.72987000  0.17201000  1.0 0.3813063367
C  C656  1  0.07799000  0.52013000  0.36069000  1.0 0.3813063367
C  C657  1  0.88931000  0.17201000  0.20881000  1.0 0.3813063367
C  C658  1  0.07799000  0.36069000  0.04119000  1.0 0.3813063367
C  C659  1  0.04119000  0.52013000  0.07799000  1.0 0.3813063367
C  C660  1  0.20881000  0.72987000  0.88931000  1.0 0.3813063367
C  C661  1  0.88931000  0.20881000  0.72987000  1.0 0.3813063367
C  C662  1  0.07799000  0.04119000  0.52013000  1.0 0.3813063367
C  C663  1  0.72987000  0.88931000  0.20881000  1.0 0.3813063367
C  C664  1  0.52013000  0.07799000  0.04119000  1.0 0.3813063367
C  C665  1  0.52013000  0.36069000  0.07799000  1.0 0.3813063367
C  C666  1  0.36069000  0.04119000  0.07799000  1.0 0.3813063367
C  C667  1  0.17201000  0.20881000  0.88931000  1.0 0.3813063367
C  C668  1  0.72987000  0.17201000  0.88931000  1.0 0.3813063367
C  C669  1  0.36069000  0.07799000  0.52013000  1.0 0.3813063367
C  C670  1  0.17201000  0.88931000  0.72987000  1.0 0.3813063367
C  C671  1  0.04119000  0.36069000  0.52013000  1.0 0.3813063367
C  C672  1  0.36069000  0.52013000  0.04119000  1.0 0.3813063367
C  C673  1  0.26584000  0.71084000  0.37856000  1.0 -0.0212480622
C  C674  1  0.98416000  0.53916000  0.60524000  1.0 -0.0212480622
C  C675  1  0.53916000  0.60524000  0.98416000  1.0 -0.0212480622
C  C676  1  0.60524000  0.98416000  0.53916000  1.0 -0.0212480622
C  C677  1  0.53916000  0.87144000  0.60524000  1.0 -0.0212480622
C  C678  1  0.71084000  0.64476000  0.37856000  1.0 -0.0212480622
C  C679  1  0.87144000  0.98416000  0.60524000  1.0 -0.0212480622
C  C680  1  0.64476000  0.26584000  0.37856000  1.0 -0.0212480622
C  C681  1  0.87144000  0.60524000  0.53916000  1.0 -0.0212480622
C  C682  1  0.64476000  0.37856000  0.71084000  1.0 -0.0212480622
C  C683  1  0.71084000  0.26584000  0.64476000  1.0 -0.0212480622
C  C684  1  0.53916000  0.98416000  0.87144000  1.0 -0.0212480622
C  C685  1  0.87144000  0.53916000  0.98416000  1.0 -0.0212480622
C  C686  1  0.64476000  0.71084000  0.26584000  1.0 -0.0212480622
C  C687  1  0.98416000  0.87144000  0.53916000  1.0 -0.0212480622
C  C688  1  0.26584000  0.64476000  0.71084000  1.0 -0.0212480622
C  C689  1  0.26584000  0.37856000  0.64476000  1.0 -0.0212480622
C  C690  1  0.37856000  0.71084000  0.64476000  1.0 -0.0212480622
C  C691  1  0.60524000  0.53916000  0.87144000  1.0 -0.0212480622
C  C692  1  0.98416000  0.60524000  0.87144000  1.0 -0.0212480622
C  C693  1  0.37856000  0.64476000  0.26584000  1.0 -0.0212480622
C  C694  1  0.60524000  0.87144000  0.98416000  1.0 -0.0212480622
C  C695  1  0.71084000  0.37856000  0.26584000  1.0 -0.0212480622
C  C696  1  0.37856000  0.26584000  0.71084000  1.0 -0.0212480622
C  C697  1  0.48416000  0.03916000  0.37144000  1.0 -0.0212480622
C  C698  1  0.76584000  0.21084000  0.14476000  1.0 -0.0212480622
C  C699  1  0.21084000  0.14476000  0.76584000  1.0 -0.0212480622
C  C700  1  0.14476000  0.76584000  0.21084000  1.0 -0.0212480622
C  C701  1  0.21084000  0.87856000  0.14476000  1.0 -0.0212480622
C  C702  1  0.03916000  0.10524000  0.37144000  1.0 -0.0212480622
C  C703  1  0.87856000  0.76584000  0.14476000  1.0 -0.0212480622
C  C704  1  0.10524000  0.48416000  0.37144000  1.0 -0.0212480622
C  C705  1  0.87856000  0.14476000  0.21084000  1.0 -0.0212480622
C  C706  1  0.10524000  0.37144000  0.03916000  1.0 -0.0212480622
C  C707  1  0.03916000  0.48416000  0.10524000  1.0 -0.0212480622
C  C708  1  0.21084000  0.76584000  0.87856000  1.0 -0.0212480622
C  C709  1  0.87856000  0.21084000  0.76584000  1.0 -0.0212480622
C  C710  1  0.10524000  0.03916000  0.48416000  1.0 -0.0212480622
C  C711  1  0.76584000  0.87856000  0.21084000  1.0 -0.0212480622
C  C712  1  0.48416000  0.10524000  0.03916000  1.0 -0.0212480622
C  C713  1  0.48416000  0.37144000  0.10524000  1.0 -0.0212480622
C  C714  1  0.37144000  0.03916000  0.10524000  1.0 -0.0212480622
C  C715  1  0.14476000  0.21084000  0.87856000  1.0 -0.0212480622
C  C716  1  0.76584000  0.14476000  0.87856000  1.0 -0.0212480622
C  C717  1  0.37144000  0.10524000  0.48416000  1.0 -0.0212480622
C  C718  1  0.14476000  0.87856000  0.76584000  1.0 -0.0212480622
C  C719  1  0.03916000  0.37144000  0.48416000  1.0 -0.0212480622
C  C720  1  0.37144000  0.48416000  0.03916000  1.0 -0.0212480622
C  C721  1  0.29566000  0.67950000  0.37822000  1.0 0.0596516971
C  C722  1  0.95434000  0.57050000  0.60338000  1.0 0.0596516971
C  C723  1  0.57050000  0.60338000  0.95434000  1.0 0.0596516971
C  C724  1  0.60338000  0.95434000  0.57050000  1.0 0.0596516971
C  C725  1  0.57050000  0.87178000  0.60338000  1.0 0.0596516971
C  C726  1  0.67950000  0.64662000  0.37822000  1.0 0.0596516971
C  C727  1  0.87178000  0.95434000  0.60338000  1.0 0.0596516971
C  C728  1  0.64662000  0.29566000  0.37822000  1.0 0.0596516971
C  C729  1  0.87178000  0.60338000  0.57050000  1.0 0.0596516971
C  C730  1  0.64662000  0.37822000  0.67950000  1.0 0.0596516971
C  C731  1  0.67950000  0.29566000  0.64662000  1.0 0.0596516971
C  C732  1  0.57050000  0.95434000  0.87178000  1.0 0.0596516971
C  C733  1  0.87178000  0.57050000  0.95434000  1.0 0.0596516971
C  C734  1  0.64662000  0.67950000  0.29566000  1.0 0.0596516971
C  C735  1  0.95434000  0.87178000  0.57050000  1.0 0.0596516971
C  C736  1  0.29566000  0.64662000  0.67950000  1.0 0.0596516971
C  C737  1  0.29566000  0.37822000  0.64662000  1.0 0.0596516971
C  C738  1  0.37822000  0.67950000  0.64662000  1.0 0.0596516971
C  C739  1  0.60338000  0.57050000  0.87178000  1.0 0.0596516971
C  C740  1  0.95434000  0.60338000  0.87178000  1.0 0.0596516971
C  C741  1  0.37822000  0.64662000  0.29566000  1.0 0.0596516971
C  C742  1  0.60338000  0.87178000  0.95434000  1.0 0.0596516971
C  C743  1  0.67950000  0.37822000  0.29566000  1.0 0.0596516971
C  C744  1  0.37822000  0.29566000  0.67950000  1.0 0.0596516971
C  C745  1  0.45434000  0.07050000  0.37178000  1.0 0.0596516971
C  C746  1  0.79566000  0.17950000  0.14662000  1.0 0.0596516971
C  C747  1  0.17950000  0.14662000  0.79566000  1.0 0.0596516971
C  C748  1  0.14662000  0.79566000  0.17950000  1.0 0.0596516971
C  C749  1  0.17950000  0.87822000  0.14662000  1.0 0.0596516971
C  C750  1  0.07050000  0.10338000  0.37178000  1.0 0.0596516971
C  C751  1  0.87822000  0.79566000  0.14662000  1.0 0.0596516971
C  C752  1  0.10338000  0.45434000  0.37178000  1.0 0.0596516971
C  C753  1  0.87822000  0.14662000  0.17950000  1.0 0.0596516971
C  C754  1  0.10338000  0.37178000  0.07050000  1.0 0.0596516971
C  C755  1  0.07050000  0.45434000  0.10338000  1.0 0.0596516971
C  C756  1  0.17950000  0.79566000  0.87822000  1.0 0.0596516971
C  C757  1  0.87822000  0.17950000  0.79566000  1.0 0.0596516971
C  C758  1  0.10338000  0.07050000  0.45434000  1.0 0.0596516971
C  C759  1  0.79566000  0.87822000  0.17950000  1.0 0.0596516971
C  C760  1  0.45434000  0.10338000  0.07050000  1.0 0.0596516971
C  C761  1  0.45434000  0.37178000  0.10338000  1.0 0.0596516971
C  C762  1  0.37178000  0.07050000  0.10338000  1.0 0.0596516971
C  C763  1  0.14662000  0.17950000  0.87822000  1.0 0.0596516971
C  C764  1  0.79566000  0.14662000  0.87822000  1.0 0.0596516971
C  C765  1  0.37178000  0.10338000  0.45434000  1.0 0.0596516971
C  C766  1  0.14662000  0.87822000  0.79566000  1.0 0.0596516971
C  C767  1  0.07050000  0.37178000  0.45434000  1.0 0.0596516971
C  C768  1  0.37178000  0.45434000  0.07050000  1.0 0.0596516971
C  C769  1  0.33333333  0.70978000  0.35992000  1.0 0.0728335513
C  C770  1  0.91666000  0.54022000  0.65304000  1.0 0.0728335513
C  C771  1  0.54022000  0.65304000  0.91666000  1.0 0.0728335513
C  C772  1  0.65304000  0.91666000  0.54022000  1.0 0.0728335513
C  C773  1  0.54022000  0.89008000  0.65304000  1.0 0.0728335513
C  C774  1  0.70978000  0.59696000  0.35992000  1.0 0.0728335513
C  C775  1  0.89008000  0.91666000  0.65304000  1.0 0.0728335513
C  C776  1  0.59696000  0.33333333  0.35992000  1.0 0.0728335513
C  C777  1  0.89008000  0.65304000  0.54022000  1.0 0.0728335513
C  C778  1  0.59696000  0.35992000  0.70978000  1.0 0.0728335513
C  C779  1  0.70978000  0.33333333  0.59696000  1.0 0.0728335513
C  C780  1  0.54022000  0.91666000  0.89008000  1.0 0.0728335513
C  C781  1  0.89008000  0.54022000  0.91666000  1.0 0.0728335513
C  C782  1  0.59696000  0.70978000  0.33333333  1.0 0.0728335513
C  C783  1  0.91666000  0.89008000  0.54022000  1.0 0.0728335513
C  C784  1  0.33333333  0.59696000  0.70978000  1.0 0.0728335513
C  C785  1  0.33333333  0.35992000  0.59696000  1.0 0.0728335513
C  C786  1  0.35992000  0.70978000  0.59696000  1.0 0.0728335513
C  C787  1  0.65304000  0.54022000  0.89008000  1.0 0.0728335513
C  C788  1  0.91666000  0.65304000  0.89008000  1.0 0.0728335513
C  C789  1  0.35992000  0.59696000  0.33333333  1.0 0.0728335513
C  C790  1  0.65304000  0.89008000  0.91666000  1.0 0.0728335513
C  C791  1  0.70978000  0.35992000  0.33333333  1.0 0.0728335513
C  C792  1  0.35992000  0.33333333  0.70978000  1.0 0.0728335513
C  C793  1  0.41666000  0.04022000  0.39008000  1.0 0.0728335513
C  C794  1  0.83334000  0.20978000  0.09696000  1.0 0.0728335513
C  C795  1  0.20978000  0.09696000  0.83334000  1.0 0.0728335513
C  C796  1  0.09696000  0.83334000  0.20978000  1.0 0.0728335513
C  C797  1  0.20978000  0.85992000  0.09696000  1.0 0.0728335513
C  C798  1  0.04022000  0.15304000  0.39008000  1.0 0.0728335513
C  C799  1  0.85992000  0.83334000  0.09696000  1.0 0.0728335513
C  C800  1  0.15304000  0.41666000  0.39008000  1.0 0.0728335513
C  C801  1  0.85992000  0.09696000  0.20978000  1.0 0.0728335513
C  C802  1  0.15304000  0.39008000  0.04022000  1.0 0.0728335513
C  C803  1  0.04022000  0.41666000  0.15304000  1.0 0.0728335513
C  C804  1  0.20978000  0.83334000  0.85992000  1.0 0.0728335513
C  C805  1  0.85992000  0.20978000  0.83334000  1.0 0.0728335513
C  C806  1  0.15304000  0.04022000  0.41666000  1.0 0.0728335513
C  C807  1  0.83334000  0.85992000  0.20978000  1.0 0.0728335513
C  C808  1  0.41666000  0.15304000  0.04022000  1.0 0.0728335513
C  C809  1  0.41666000  0.39008000  0.15304000  1.0 0.0728335513
C  C810  1  0.39008000  0.04022000  0.15304000  1.0 0.0728335513
C  C811  1  0.09696000  0.20978000  0.85992000  1.0 0.0728335513
C  C812  1  0.83334000  0.09696000  0.85992000  1.0 0.0728335513
C  C813  1  0.39008000  0.15304000  0.41666000  1.0 0.0728335513
C  C814  1  0.09696000  0.85992000  0.83334000  1.0 0.0728335513
C  C815  1  0.04022000  0.39008000  0.41666000  1.0 0.0728335513
C  C816  1  0.39008000  0.41666000  0.04022000  1.0 0.0728335513
C  C817  1  0.30494000  0.74216000  0.35922000  1.0 -0.1309972761
C  C818  1  0.94506000  0.50784000  0.65632000  1.0 -0.1309972761
C  C819  1  0.50784000  0.65632000  0.94506000  1.0 -0.1309972761
C  C820  1  0.65632000  0.94506000  0.50784000  1.0 -0.1309972761
C  C821  1  0.50784000  0.89078000  0.65632000  1.0 -0.1309972761
C  C822  1  0.74216000  0.59368000  0.35922000  1.0 -0.1309972761
C  C823  1  0.89078000  0.94506000  0.65632000  1.0 -0.1309972761
C  C824  1  0.59368000  0.30494000  0.35922000  1.0 -0.1309972761
C  C825  1  0.89078000  0.65632000  0.50784000  1.0 -0.1309972761
C  C826  1  0.59368000  0.35922000  0.74216000  1.0 -0.1309972761
C  C827  1  0.74216000  0.30494000  0.59368000  1.0 -0.1309972761
C  C828  1  0.50784000  0.94506000  0.89078000  1.0 -0.1309972761
C  C829  1  0.89078000  0.50784000  0.94506000  1.0 -0.1309972761
C  C830  1  0.59368000  0.74216000  0.30494000  1.0 -0.1309972761
C  C831  1  0.94506000  0.89078000  0.50784000  1.0 -0.1309972761
C  C832  1  0.30494000  0.59368000  0.74216000  1.0 -0.1309972761
C  C833  1  0.30494000  0.35922000  0.59368000  1.0 -0.1309972761
C  C834  1  0.35922000  0.74216000  0.59368000  1.0 -0.1309972761
C  C835  1  0.65632000  0.50784000  0.89078000  1.0 -0.1309972761
C  C836  1  0.94506000  0.65632000  0.89078000  1.0 -0.1309972761
C  C837  1  0.35922000  0.59368000  0.30494000  1.0 -0.1309972761
C  C838  1  0.65632000  0.89078000  0.94506000  1.0 -0.1309972761
C  C839  1  0.74216000  0.35922000  0.30494000  1.0 -0.1309972761
C  C840  1  0.35922000  0.30494000  0.74216000  1.0 -0.1309972761
C  C841  1  0.44506000  0.00784000  0.39078000  1.0 -0.1309972761
C  C842  1  0.80494000  0.24216000  0.09368000  1.0 -0.1309972761
C  C843  1  0.24216000  0.09368000  0.80494000  1.0 -0.1309972761
C  C844  1  0.09368000  0.80494000  0.24216000  1.0 -0.1309972761
C  C845  1  0.24216000  0.85922000  0.09368000  1.0 -0.1309972761
C  C846  1  0.00784000  0.15632000  0.39078000  1.0 -0.1309972761
C  C847  1  0.85922000  0.80494000  0.09368000  1.0 -0.1309972761
C  C848  1  0.15632000  0.44506000  0.39078000  1.0 -0.1309972761
C  C849  1  0.85922000  0.09368000  0.24216000  1.0 -0.1309972761
C  C850  1  0.15632000  0.39078000  0.00784000  1.0 -0.1309972761
C  C851  1  0.00784000  0.44506000  0.15632000  1.0 -0.1309972761
C  C852  1  0.24216000  0.80494000  0.85922000  1.0 -0.1309972761
C  C853  1  0.85922000  0.24216000  0.80494000  1.0 -0.1309972761
C  C854  1  0.15632000  0.00784000  0.44506000  1.0 -0.1309972761
C  C855  1  0.80494000  0.85922000  0.24216000  1.0 -0.1309972761
C  C856  1  0.44506000  0.15632000  0.00784000  1.0 -0.1309972761
C  C857  1  0.44506000  0.39078000  0.15632000  1.0 -0.1309972761
C  C858  1  0.39078000  0.00784000  0.15632000  1.0 -0.1309972761
C  C859  1  0.09368000  0.24216000  0.85922000  1.0 -0.1309972761
C  C860  1  0.80494000  0.09368000  0.85922000  1.0 -0.1309972761
C  C861  1  0.39078000  0.15632000  0.44506000  1.0 -0.1309972761
C  C862  1  0.09368000  0.85922000  0.80494000  1.0 -0.1309972761
C  C863  1  0.00784000  0.39078000  0.44506000  1.0 -0.1309972761
C  C864  1  0.39078000  0.44506000  0.00784000  1.0 -0.1309972761
C  C865  1  0.27046000  0.74324000  0.36782000  1.0 -0.0499447808
C  C866  1  0.97954000  0.50676000  0.63152000  1.0 -0.0499447808
C  C867  1  0.50676000  0.63152000  0.97954000  1.0 -0.0499447808
C  C868  1  0.63152000  0.97954000  0.50676000  1.0 -0.0499447808
C  C869  1  0.50676000  0.88218000  0.63152000  1.0 -0.0499447808
C  C870  1  0.74324000  0.61848000  0.36782000  1.0 -0.0499447808
C  C871  1  0.88218000  0.97954000  0.63152000  1.0 -0.0499447808
C  C872  1  0.61848000  0.27046000  0.36782000  1.0 -0.0499447808
C  C873  1  0.88218000  0.63152000  0.50676000  1.0 -0.0499447808
C  C874  1  0.61848000  0.36782000  0.74324000  1.0 -0.0499447808
C  C875  1  0.74324000  0.27046000  0.61848000  1.0 -0.0499447808
C  C876  1  0.50676000  0.97954000  0.88218000  1.0 -0.0499447808
C  C877  1  0.88218000  0.50676000  0.97954000  1.0 -0.0499447808
C  C878  1  0.61848000  0.74324000  0.27046000  1.0 -0.0499447808
C  C879  1  0.97954000  0.88218000  0.50676000  1.0 -0.0499447808
C  C880  1  0.27046000  0.61848000  0.74324000  1.0 -0.0499447808
C  C881  1  0.27046000  0.36782000  0.61848000  1.0 -0.0499447808
C  C882  1  0.36782000  0.74324000  0.61848000  1.0 -0.0499447808
C  C883  1  0.63152000  0.50676000  0.88218000  1.0 -0.0499447808
C  C884  1  0.97954000  0.63152000  0.88218000  1.0 -0.0499447808
C  C885  1  0.36782000  0.61848000  0.27046000  1.0 -0.0499447808
C  C886  1  0.63152000  0.88218000  0.97954000  1.0 -0.0499447808
C  C887  1  0.74324000  0.36782000  0.27046000  1.0 -0.0499447808
C  C888  1  0.36782000  0.27046000  0.74324000  1.0 -0.0499447808
C  C889  1  0.47954000  0.00676000  0.38218000  1.0 -0.0499447808
C  C890  1  0.77046000  0.24324000  0.11848000  1.0 -0.0499447808
C  C891  1  0.24324000  0.11848000  0.77046000  1.0 -0.0499447808
C  C892  1  0.11848000  0.77046000  0.24324000  1.0 -0.0499447808
C  C893  1  0.24324000  0.86782000  0.11848000  1.0 -0.0499447808
C  C894  1  0.00676000  0.13152000  0.38218000  1.0 -0.0499447808
C  C895  1  0.86782000  0.77046000  0.11848000  1.0 -0.0499447808
C  C896  1  0.13152000  0.47954000  0.38218000  1.0 -0.0499447808
C  C897  1  0.86782000  0.11848000  0.24324000  1.0 -0.0499447808
C  C898  1  0.13152000  0.38218000  0.00676000  1.0 -0.0499447808
C  C899  1  0.00676000  0.47954000  0.13152000  1.0 -0.0499447808
C  C900  1  0.24324000  0.77046000  0.86782000  1.0 -0.0499447808
C  C901  1  0.86782000  0.24324000  0.77046000  1.0 -0.0499447808
C  C902  1  0.13152000  0.00676000  0.47954000  1.0 -0.0499447808
C  C903  1  0.77046000  0.86782000  0.24324000  1.0 -0.0499447808
C  C904  1  0.47954000  0.13152000  0.00676000  1.0 -0.0499447808
C  C905  1  0.47954000  0.38218000  0.13152000  1.0 -0.0499447808
C  C906  1  0.38218000  0.00676000  0.13152000  1.0 -0.0499447808
C  C907  1  0.11848000  0.24324000  0.86782000  1.0 -0.0499447808
C  C908  1  0.77046000  0.11848000  0.86782000  1.0 -0.0499447808
C  C909  1  0.38218000  0.13152000  0.47954000  1.0 -0.0499447808
C  C910  1  0.11848000  0.86782000  0.77046000  1.0 -0.0499447808
C  C911  1  0.00676000  0.38218000  0.47954000  1.0 -0.0499447808
C  C912  1  0.38218000  0.47954000  0.00676000  1.0 -0.0499447808
C  C913  1  0.32092000  0.57920000  0.43184000  1.0 0.2427791805
C  C914  1  0.92908000  0.67080000  0.58196000  1.0 0.2427791805
C  C915  1  0.67080000  0.58196000  0.92908000  1.0 0.2427791805
C  C916  1  0.58196000  0.92908000  0.67080000  1.0 0.2427791805
C  C917  1  0.67080000  0.81816000  0.58196000  1.0 0.2427791805
C  C918  1  0.57920000  0.66804000  0.43184000  1.0 0.2427791805
C  C919  1  0.81816000  0.92908000  0.58196000  1.0 0.2427791805
C  C920  1  0.66804000  0.32092000  0.43184000  1.0 0.2427791805
C  C921  1  0.81816000  0.58196000  0.67080000  1.0 0.2427791805
C  C922  1  0.66804000  0.43184000  0.57920000  1.0 0.2427791805
C  C923  1  0.57920000  0.32092000  0.66804000  1.0 0.2427791805
C  C924  1  0.67080000  0.92908000  0.81816000  1.0 0.2427791805
C  C925  1  0.81816000  0.67080000  0.92908000  1.0 0.2427791805
C  C926  1  0.66804000  0.57920000  0.32092000  1.0 0.2427791805
C  C927  1  0.92908000  0.81816000  0.67080000  1.0 0.2427791805
C  C928  1  0.32092000  0.66804000  0.57920000  1.0 0.2427791805
C  C929  1  0.32092000  0.43184000  0.66804000  1.0 0.2427791805
C  C930  1  0.43184000  0.57920000  0.66804000  1.0 0.2427791805
C  C931  1  0.58196000  0.67080000  0.81816000  1.0 0.2427791805
C  C932  1  0.92908000  0.58196000  0.81816000  1.0 0.2427791805
C  C933  1  0.43184000  0.66804000  0.32092000  1.0 0.2427791805
C  C934  1  0.58196000  0.81816000  0.92908000  1.0 0.2427791805
C  C935  1  0.57920000  0.43184000  0.32092000  1.0 0.2427791805
C  C936  1  0.43184000  0.32092000  0.57920000  1.0 0.2427791805
C  C937  1  0.42908000  0.17080000  0.31816000  1.0 0.2427791805
C  C938  1  0.82092000  0.07920000  0.16804000  1.0 0.2427791805
C  C939  1  0.07920000  0.16804000  0.82092000  1.0 0.2427791805
C  C940  1  0.16804000  0.82092000  0.07920000  1.0 0.2427791805
C  C941  1  0.07920000  0.93184000  0.16804000  1.0 0.2427791805
C  C942  1  0.17080000  0.08196000  0.31816000  1.0 0.2427791805
C  C943  1  0.93184000  0.82092000  0.16804000  1.0 0.2427791805
C  C944  1  0.08196000  0.42908000  0.31816000  1.0 0.2427791805
C  C945  1  0.93184000  0.16804000  0.07920000  1.0 0.2427791805
C  C946  1  0.08196000  0.31816000  0.17080000  1.0 0.2427791805
C  C947  1  0.17080000  0.42908000  0.08196000  1.0 0.2427791805
C  C948  1  0.07920000  0.82092000  0.93184000  1.0 0.2427791805
C  C949  1  0.93184000  0.07920000  0.82092000  1.0 0.2427791805
C  C950  1  0.08196000  0.17080000  0.42908000  1.0 0.2427791805
C  C951  1  0.82092000  0.93184000  0.07920000  1.0 0.2427791805
C  C952  1  0.42908000  0.08196000  0.17080000  1.0 0.2427791805
C  C953  1  0.42908000  0.31816000  0.08196000  1.0 0.2427791805
C  C954  1  0.31816000  0.17080000  0.08196000  1.0 0.2427791805
C  C955  1  0.16804000  0.07920000  0.93184000  1.0 0.2427791805
C  C956  1  0.82092000  0.16804000  0.93184000  1.0 0.2427791805
C  C957  1  0.31816000  0.08196000  0.42908000  1.0 0.2427791805
C  C958  1  0.16804000  0.93184000  0.82092000  1.0 0.2427791805
C  C959  1  0.17080000  0.31816000  0.42908000  1.0 0.2427791805
C  C960  1  0.31816000  0.42908000  0.17080000  1.0 0.2427791805
C  C961  1  0.39627000  0.63353000  0.42269000  1.0 0.0540945724
C  C962  1  0.85373000  0.61647000  0.70249000  1.0 0.0540945724
C  C963  1  0.61647000  0.70249000  0.85373000  1.0 0.0540945724
C  C964  1  0.70249000  0.85373000  0.61647000  1.0 0.0540945724
C  C965  1  0.61647000  0.82731000  0.70249000  1.0 0.0540945724
C  C966  1  0.63353000  0.54751000  0.42269000  1.0 0.0540945724
C  C967  1  0.82731000  0.85373000  0.70249000  1.0 0.0540945724
C  C968  1  0.54751000  0.39627000  0.42269000  1.0 0.0540945724
C  C969  1  0.82731000  0.70249000  0.61647000  1.0 0.0540945724
C  C970  1  0.54751000  0.42269000  0.63353000  1.0 0.0540945724
C  C971  1  0.63353000  0.39627000  0.54751000  1.0 0.0540945724
C  C972  1  0.61647000  0.85373000  0.82731000  1.0 0.0540945724
C  C973  1  0.82731000  0.61647000  0.85373000  1.0 0.0540945724
C  C974  1  0.54751000  0.63353000  0.39627000  1.0 0.0540945724
C  C975  1  0.85373000  0.82731000  0.61647000  1.0 0.0540945724
C  C976  1  0.39627000  0.54751000  0.63353000  1.0 0.0540945724
C  C977  1  0.39627000  0.42269000  0.54751000  1.0 0.0540945724
C  C978  1  0.42269000  0.63353000  0.54751000  1.0 0.0540945724
C  C979  1  0.70249000  0.61647000  0.82731000  1.0 0.0540945724
C  C980  1  0.85373000  0.70249000  0.82731000  1.0 0.0540945724
C  C981  1  0.42269000  0.54751000  0.39627000  1.0 0.0540945724
C  C982  1  0.70249000  0.82731000  0.85373000  1.0 0.0540945724
C  C983  1  0.63353000  0.42269000  0.39627000  1.0 0.0540945724
C  C984  1  0.42269000  0.39627000  0.63353000  1.0 0.0540945724
C  C985  1  0.35373000  0.11647000  0.32731000  1.0 0.0540945724
C  C986  1  0.89627000  0.13353000  0.04751000  1.0 0.0540945724
C  C987  1  0.13353000  0.04751000  0.89627000  1.0 0.0540945724
C  C988  1  0.04751000  0.89627000  0.13353000  1.0 0.0540945724
C  C989  1  0.13353000  0.92269000  0.04751000  1.0 0.0540945724
C  C990  1  0.11647000  0.20249000  0.32731000  1.0 0.0540945724
C  C991  1  0.92269000  0.89627000  0.04751000  1.0 0.0540945724
C  C992  1  0.20249000  0.35373000  0.32731000  1.0 0.0540945724
C  C993  1  0.92269000  0.04751000  0.13353000  1.0 0.0540945724
C  C994  1  0.20249000  0.32731000  0.11647000  1.0 0.0540945724
C  C995  1  0.11647000  0.35373000  0.20249000  1.0 0.0540945724
C  C996  1  0.13353000  0.89627000  0.92269000  1.0 0.0540945724
C  C997  1  0.92269000  0.13353000  0.89627000  1.0 0.0540945724
C  C998  1  0.20249000  0.11647000  0.35373000  1.0 0.0540945724
C  C999  1  0.89627000  0.92269000  0.13353000  1.0 0.0540945724
C  C1000  1  0.35373000  0.20249000  0.11647000  1.0 0.0540945724
C  C1001  1  0.35373000  0.32731000  0.20249000  1.0 0.0540945724
C  C1002  1  0.32731000  0.11647000  0.20249000  1.0 0.0540945724
C  C1003  1  0.04751000  0.13353000  0.92269000  1.0 0.0540945724
C  C1004  1  0.89627000  0.04751000  0.92269000  1.0 0.0540945724
C  C1005  1  0.32731000  0.20249000  0.35373000  1.0 0.0540945724
C  C1006  1  0.04751000  0.92269000  0.89627000  1.0 0.0540945724
C  C1007  1  0.11647000  0.32731000  0.35373000  1.0 0.0540945724
C  C1008  1  0.32731000  0.35373000  0.11647000  1.0 0.0540945724
C  C1009  1  0.39353000  0.63901000  0.45159000  1.0 -0.0149998704
C  C1010  1  0.85647000  0.61099000  0.73413000  1.0 -0.0149998704
C  C1011  1  0.61099000  0.73413000  0.85647000  1.0 -0.0149998704
C  C1012  1  0.73413000  0.85647000  0.61099000  1.0 -0.0149998704
C  C1013  1  0.61099000  0.79841000  0.73413000  1.0 -0.0149998704
C  C1014  1  0.63901000  0.51587000  0.45159000  1.0 -0.0149998704
C  C1015  1  0.79841000  0.85647000  0.73413000  1.0 -0.0149998704
C  C1016  1  0.51587000  0.39353000  0.45159000  1.0 -0.0149998704
C  C1017  1  0.79841000  0.73413000  0.61099000  1.0 -0.0149998704
C  C1018  1  0.51587000  0.45159000  0.63901000  1.0 -0.0149998704
C  C1019  1  0.63901000  0.39353000  0.51587000  1.0 -0.0149998704
C  C1020  1  0.61099000  0.85647000  0.79841000  1.0 -0.0149998704
C  C1021  1  0.79841000  0.61099000  0.85647000  1.0 -0.0149998704
C  C1022  1  0.51587000  0.63901000  0.39353000  1.0 -0.0149998704
C  C1023  1  0.85647000  0.79841000  0.61099000  1.0 -0.0149998704
C  C1024  1  0.39353000  0.51587000  0.63901000  1.0 -0.0149998704
C  C1025  1  0.39353000  0.45159000  0.51587000  1.0 -0.0149998704
C  C1026  1  0.45159000  0.63901000  0.51587000  1.0 -0.0149998704
C  C1027  1  0.73413000  0.61099000  0.79841000  1.0 -0.0149998704
C  C1028  1  0.85647000  0.73413000  0.79841000  1.0 -0.0149998704
C  C1029  1  0.45159000  0.51587000  0.39353000  1.0 -0.0149998704
C  C1030  1  0.73413000  0.79841000  0.85647000  1.0 -0.0149998704
C  C1031  1  0.63901000  0.45159000  0.39353000  1.0 -0.0149998704
C  C1032  1  0.45159000  0.39353000  0.63901000  1.0 -0.0149998704
C  C1033  1  0.35647000  0.11099000  0.29841000  1.0 -0.0149998704
C  C1034  1  0.89353000  0.13901000  0.01587000  1.0 -0.0149998704
C  C1035  1  0.13901000  0.01587000  0.89353000  1.0 -0.0149998704
C  C1036  1  0.01587000  0.89353000  0.13901000  1.0 -0.0149998704
C  C1037  1  0.13901000  0.95159000  0.01587000  1.0 -0.0149998704
C  C1038  1  0.11099000  0.23413000  0.29841000  1.0 -0.0149998704
C  C1039  1  0.95159000  0.89353000  0.01587000  1.0 -0.0149998704
C  C1040  1  0.23413000  0.35647000  0.29841000  1.0 -0.0149998704
C  C1041  1  0.95159000  0.01587000  0.13901000  1.0 -0.0149998704
C  C1042  1  0.23413000  0.29841000  0.11099000  1.0 -0.0149998704
C  C1043  1  0.11099000  0.35647000  0.23413000  1.0 -0.0149998704
C  C1044  1  0.13901000  0.89353000  0.95159000  1.0 -0.0149998704
C  C1045  1  0.95159000  0.13901000  0.89353000  1.0 -0.0149998704
C  C1046  1  0.23413000  0.11099000  0.35647000  1.0 -0.0149998704
C  C1047  1  0.89353000  0.95159000  0.13901000  1.0 -0.0149998704
C  C1048  1  0.35647000  0.23413000  0.11099000  1.0 -0.0149998704
C  C1049  1  0.35647000  0.29841000  0.23413000  1.0 -0.0149998704
C  C1050  1  0.29841000  0.11099000  0.23413000  1.0 -0.0149998704
C  C1051  1  0.01587000  0.13901000  0.95159000  1.0 -0.0149998704
C  C1052  1  0.89353000  0.01587000  0.95159000  1.0 -0.0149998704
C  C1053  1  0.29841000  0.23413000  0.35647000  1.0 -0.0149998704
C  C1054  1  0.01587000  0.95159000  0.89353000  1.0 -0.0149998704
C  C1055  1  0.11099000  0.29841000  0.35647000  1.0 -0.0149998704
C  C1056  1  0.29841000  0.35647000  0.11099000  1.0 -0.0149998704
C  C1057  1  0.35973000  0.64335000  0.47973000  1.0 -0.0623395168
C  C1058  1  0.89027000  0.60665000  0.73281000  1.0 -0.0623395168
C  C1059  1  0.60665000  0.73281000  0.89027000  1.0 -0.0623395168
C  C1060  1  0.73281000  0.89027000  0.60665000  1.0 -0.0623395168
C  C1061  1  0.60665000  0.77027000  0.73281000  1.0 -0.0623395168
C  C1062  1  0.64335000  0.51719000  0.47973000  1.0 -0.0623395168
C  C1063  1  0.77027000  0.89027000  0.73281000  1.0 -0.0623395168
C  C1064  1  0.51719000  0.35973000  0.47973000  1.0 -0.0623395168
C  C1065  1  0.77027000  0.73281000  0.60665000  1.0 -0.0623395168
C  C1066  1  0.51719000  0.47973000  0.64335000  1.0 -0.0623395168
C  C1067  1  0.64335000  0.35973000  0.51719000  1.0 -0.0623395168
C  C1068  1  0.60665000  0.89027000  0.77027000  1.0 -0.0623395168
C  C1069  1  0.77027000  0.60665000  0.89027000  1.0 -0.0623395168
C  C1070  1  0.51719000  0.64335000  0.35973000  1.0 -0.0623395168
C  C1071  1  0.89027000  0.77027000  0.60665000  1.0 -0.0623395168
C  C1072  1  0.35973000  0.51719000  0.64335000  1.0 -0.0623395168
C  C1073  1  0.35973000  0.47973000  0.51719000  1.0 -0.0623395168
C  C1074  1  0.47973000  0.64335000  0.51719000  1.0 -0.0623395168
C  C1075  1  0.73281000  0.60665000  0.77027000  1.0 -0.0623395168
C  C1076  1  0.89027000  0.73281000  0.77027000  1.0 -0.0623395168
C  C1077  1  0.47973000  0.51719000  0.35973000  1.0 -0.0623395168
C  C1078  1  0.73281000  0.77027000  0.89027000  1.0 -0.0623395168
C  C1079  1  0.64335000  0.47973000  0.35973000  1.0 -0.0623395168
C  C1080  1  0.47973000  0.35973000  0.64335000  1.0 -0.0623395168
C  C1081  1  0.39027000  0.10665000  0.27027000  1.0 -0.0623395168
C  C1082  1  0.85973000  0.14335000  0.01719000  1.0 -0.0623395168
C  C1083  1  0.14335000  0.01719000  0.85973000  1.0 -0.0623395168
C  C1084  1  0.01719000  0.85973000  0.14335000  1.0 -0.0623395168
C  C1085  1  0.14335000  0.97973000  0.01719000  1.0 -0.0623395168
C  C1086  1  0.10665000  0.23281000  0.27027000  1.0 -0.0623395168
C  C1087  1  0.97973000  0.85973000  0.01719000  1.0 -0.0623395168
C  C1088  1  0.23281000  0.39027000  0.27027000  1.0 -0.0623395168
C  C1089  1  0.97973000  0.01719000  0.14335000  1.0 -0.0623395168
C  C1090  1  0.23281000  0.27027000  0.10665000  1.0 -0.0623395168
C  C1091  1  0.10665000  0.39027000  0.23281000  1.0 -0.0623395168
C  C1092  1  0.14335000  0.85973000  0.97973000  1.0 -0.0623395168
C  C1093  1  0.97973000  0.14335000  0.85973000  1.0 -0.0623395168
C  C1094  1  0.23281000  0.10665000  0.39027000  1.0 -0.0623395168
C  C1095  1  0.85973000  0.97973000  0.14335000  1.0 -0.0623395168
C  C1096  1  0.39027000  0.23281000  0.10665000  1.0 -0.0623395168
C  C1097  1  0.39027000  0.27027000  0.23281000  1.0 -0.0623395168
C  C1098  1  0.27027000  0.10665000  0.23281000  1.0 -0.0623395168
C  C1099  1  0.01719000  0.14335000  0.97973000  1.0 -0.0623395168
C  C1100  1  0.85973000  0.01719000  0.97973000  1.0 -0.0623395168
C  C1101  1  0.27027000  0.23281000  0.39027000  1.0 -0.0623395168
C  C1102  1  0.01719000  0.97973000  0.85973000  1.0 -0.0623395168
C  C1103  1  0.10665000  0.27027000  0.39027000  1.0 -0.0623395168
C  C1104  1  0.27027000  0.39027000  0.10665000  1.0 -0.0623395168
C  C1105  1  0.33163000  0.64241000  0.47751000  1.0 -0.1178713845
C  C1106  1  0.91837000  0.60759000  0.70155000  1.0 -0.1178713845
C  C1107  1  0.60759000  0.70155000  0.91837000  1.0 -0.1178713845
C  C1108  1  0.70155000  0.91837000  0.60759000  1.0 -0.1178713845
C  C1109  1  0.60759000  0.77249000  0.70155000  1.0 -0.1178713845
C  C1110  1  0.64241000  0.54845000  0.47751000  1.0 -0.1178713845
C  C1111  1  0.77249000  0.91837000  0.70155000  1.0 -0.1178713845
C  C1112  1  0.54845000  0.33163000  0.47751000  1.0 -0.1178713845
C  C1113  1  0.77249000  0.70155000  0.60759000  1.0 -0.1178713845
C  C1114  1  0.54845000  0.47751000  0.64241000  1.0 -0.1178713845
C  C1115  1  0.64241000  0.33163000  0.54845000  1.0 -0.1178713845
C  C1116  1  0.60759000  0.91837000  0.77249000  1.0 -0.1178713845
C  C1117  1  0.77249000  0.60759000  0.91837000  1.0 -0.1178713845
C  C1118  1  0.54845000  0.64241000  0.33163000  1.0 -0.1178713845
C  C1119  1  0.91837000  0.77249000  0.60759000  1.0 -0.1178713845
C  C1120  1  0.33163000  0.54845000  0.64241000  1.0 -0.1178713845
C  C1121  1  0.33163000  0.47751000  0.54845000  1.0 -0.1178713845
C  C1122  1  0.47751000  0.64241000  0.54845000  1.0 -0.1178713845
C  C1123  1  0.70155000  0.60759000  0.77249000  1.0 -0.1178713845
C  C1124  1  0.91837000  0.70155000  0.77249000  1.0 -0.1178713845
C  C1125  1  0.47751000  0.54845000  0.33163000  1.0 -0.1178713845
C  C1126  1  0.70155000  0.77249000  0.91837000  1.0 -0.1178713845
C  C1127  1  0.64241000  0.47751000  0.33163000  1.0 -0.1178713845
C  C1128  1  0.47751000  0.33163000  0.64241000  1.0 -0.1178713845
C  C1129  1  0.41837000  0.10759000  0.27249000  1.0 -0.1178713845
C  C1130  1  0.83163000  0.14241000  0.04845000  1.0 -0.1178713845
C  C1131  1  0.14241000  0.04845000  0.83163000  1.0 -0.1178713845
C  C1132  1  0.04845000  0.83163000  0.14241000  1.0 -0.1178713845
C  C1133  1  0.14241000  0.97751000  0.04845000  1.0 -0.1178713845
C  C1134  1  0.10759000  0.20155000  0.27249000  1.0 -0.1178713845
C  C1135  1  0.97751000  0.83163000  0.04845000  1.0 -0.1178713845
C  C1136  1  0.20155000  0.41837000  0.27249000  1.0 -0.1178713845
C  C1137  1  0.97751000  0.04845000  0.14241000  1.0 -0.1178713845
C  C1138  1  0.20155000  0.27249000  0.10759000  1.0 -0.1178713845
C  C1139  1  0.10759000  0.41837000  0.20155000  1.0 -0.1178713845
C  C1140  1  0.14241000  0.83163000  0.97751000  1.0 -0.1178713845
C  C1141  1  0.97751000  0.14241000  0.83163000  1.0 -0.1178713845
C  C1142  1  0.20155000  0.10759000  0.41837000  1.0 -0.1178713845
C  C1143  1  0.83163000  0.97751000  0.14241000  1.0 -0.1178713845
C  C1144  1  0.41837000  0.20155000  0.10759000  1.0 -0.1178713845
C  C1145  1  0.41837000  0.27249000  0.20155000  1.0 -0.1178713845
C  C1146  1  0.27249000  0.10759000  0.20155000  1.0 -0.1178713845
C  C1147  1  0.04845000  0.14241000  0.97751000  1.0 -0.1178713845
C  C1148  1  0.83163000  0.04845000  0.97751000  1.0 -0.1178713845
C  C1149  1  0.27249000  0.20155000  0.41837000  1.0 -0.1178713845
C  C1150  1  0.04845000  0.97751000  0.83163000  1.0 -0.1178713845
C  C1151  1  0.10759000  0.27249000  0.41837000  1.0 -0.1178713845
C  C1152  1  0.27249000  0.41837000  0.10759000  1.0 -0.1178713845
C  C1153  1  0.33653000  0.63571000  0.44841000  1.0 0.0728335513
C  C1154  1  0.91347000  0.61429000  0.67065000  1.0 0.0728335513
C  C1155  1  0.61429000  0.67065000  0.91347000  1.0 0.0728335513
C  C1156  1  0.67065000  0.91347000  0.61429000  1.0 0.0728335513
C  C1157  1  0.61429000  0.80159000  0.67065000  1.0 0.0728335513
C  C1158  1  0.63571000  0.57935000  0.44841000  1.0 0.0728335513
C  C1159  1  0.80159000  0.91347000  0.67065000  1.0 0.0728335513
C  C1160  1  0.57935000  0.33653000  0.44841000  1.0 0.0728335513
C  C1161  1  0.80159000  0.67065000  0.61429000  1.0 0.0728335513
C  C1162  1  0.57935000  0.44841000  0.63571000  1.0 0.0728335513
C  C1163  1  0.63571000  0.33653000  0.57935000  1.0 0.0728335513
C  C1164  1  0.61429000  0.91347000  0.80159000  1.0 0.0728335513
C  C1165  1  0.80159000  0.61429000  0.91347000  1.0 0.0728335513
C  C1166  1  0.57935000  0.63571000  0.33653000  1.0 0.0728335513
C  C1167  1  0.91347000  0.80159000  0.61429000  1.0 0.0728335513
C  C1168  1  0.33653000  0.57935000  0.63571000  1.0 0.0728335513
C  C1169  1  0.33653000  0.44841000  0.57935000  1.0 0.0728335513
C  C1170  1  0.44841000  0.63571000  0.57935000  1.0 0.0728335513
C  C1171  1  0.67065000  0.61429000  0.80159000  1.0 0.0728335513
C  C1172  1  0.91347000  0.67065000  0.80159000  1.0 0.0728335513
C  C1173  1  0.44841000  0.57935000  0.33653000  1.0 0.0728335513
C  C1174  1  0.67065000  0.80159000  0.91347000  1.0 0.0728335513
C  C1175  1  0.63571000  0.44841000  0.33653000  1.0 0.0728335513
C  C1176  1  0.44841000  0.33653000  0.63571000  1.0 0.0728335513
C  C1177  1  0.41347000  0.11429000  0.30159000  1.0 0.0728335513
C  C1178  1  0.83653000  0.13571000  0.07935000  1.0 0.0728335513
C  C1179  1  0.13571000  0.07935000  0.83653000  1.0 0.0728335513
C  C1180  1  0.07935000  0.83653000  0.13571000  1.0 0.0728335513
C  C1181  1  0.13571000  0.94841000  0.07935000  1.0 0.0728335513
C  C1182  1  0.11429000  0.17065000  0.30159000  1.0 0.0728335513
C  C1183  1  0.94841000  0.83653000  0.07935000  1.0 0.0728335513
C  C1184  1  0.17065000  0.41347000  0.30159000  1.0 0.0728335513
C  C1185  1  0.94841000  0.07935000  0.13571000  1.0 0.0728335513
C  C1186  1  0.17065000  0.30159000  0.11429000  1.0 0.0728335513
C  C1187  1  0.11429000  0.41347000  0.17065000  1.0 0.0728335513
C  C1188  1  0.13571000  0.83653000  0.94841000  1.0 0.0728335513
C  C1189  1  0.94841000  0.13571000  0.83653000  1.0 0.0728335513
C  C1190  1  0.17065000  0.11429000  0.41347000  1.0 0.0728335513
C  C1191  1  0.83653000  0.94841000  0.13571000  1.0 0.0728335513
C  C1192  1  0.41347000  0.17065000  0.11429000  1.0 0.0728335513
C  C1193  1  0.41347000  0.30159000  0.17065000  1.0 0.0728335513
C  C1194  1  0.30159000  0.11429000  0.17065000  1.0 0.0728335513
C  C1195  1  0.07935000  0.13571000  0.94841000  1.0 0.0728335513
C  C1196  1  0.83653000  0.07935000  0.94841000  1.0 0.0728335513
C  C1197  1  0.30159000  0.17065000  0.41347000  1.0 0.0728335513
C  C1198  1  0.07935000  0.94841000  0.83653000  1.0 0.0728335513
C  C1199  1  0.11429000  0.30159000  0.41347000  1.0 0.0728335513
C  C1200  1  0.30159000  0.41347000  0.11429000  1.0 0.0728335513
C  C1201  1  0.42545000  0.63939000  0.45279000  1.0 0.360110044
C  C1202  1  0.82455000  0.61061000  0.76763000  1.0 0.360110044
C  C1203  1  0.61061000  0.76763000  0.82455000  1.0 0.360110044
C  C1204  1  0.76763000  0.82455000  0.61061000  1.0 0.360110044
C  C1205  1  0.61061000  0.79721000  0.76763000  1.0 0.360110044
C  C1206  1  0.63939000  0.48237000  0.45279000  1.0 0.360110044
C  C1207  1  0.79721000  0.82455000  0.76763000  1.0 0.360110044
C  C1208  1  0.48237000  0.42545000  0.45279000  1.0 0.360110044
C  C1209  1  0.79721000  0.76763000  0.61061000  1.0 0.360110044
C  C1210  1  0.48237000  0.45279000  0.63939000  1.0 0.360110044
C  C1211  1  0.63939000  0.42545000  0.48237000  1.0 0.360110044
C  C1212  1  0.61061000  0.82455000  0.79721000  1.0 0.360110044
C  C1213  1  0.79721000  0.61061000  0.82455000  1.0 0.360110044
C  C1214  1  0.48237000  0.63939000  0.42545000  1.0 0.360110044
C  C1215  1  0.82455000  0.79721000  0.61061000  1.0 0.360110044
C  C1216  1  0.42545000  0.48237000  0.63939000  1.0 0.360110044
C  C1217  1  0.42545000  0.45279000  0.48237000  1.0 0.360110044
C  C1218  1  0.45279000  0.63939000  0.48237000  1.0 0.360110044
C  C1219  1  0.76763000  0.61061000  0.79721000  1.0 0.360110044
C  C1220  1  0.82455000  0.76763000  0.79721000  1.0 0.360110044
C  C1221  1  0.45279000  0.48237000  0.42545000  1.0 0.360110044
C  C1222  1  0.76763000  0.79721000  0.82455000  1.0 0.360110044
C  C1223  1  0.63939000  0.45279000  0.42545000  1.0 0.360110044
C  C1224  1  0.45279000  0.42545000  0.63939000  1.0 0.360110044
C  C1225  1  0.32455000  0.11061000  0.29721000  1.0 0.360110044
C  C1226  1  0.92545000  0.13939000  0.98237000  1.0 0.360110044
C  C1227  1  0.13939000  0.98237000  0.92545000  1.0 0.360110044
C  C1228  1  0.98237000  0.92545000  0.13939000  1.0 0.360110044
C  C1229  1  0.13939000  0.95279000  0.98237000  1.0 0.360110044
C  C1230  1  0.11061000  0.26763000  0.29721000  1.0 0.360110044
C  C1231  1  0.95279000  0.92545000  0.98237000  1.0 0.360110044
C  C1232  1  0.26763000  0.32455000  0.29721000  1.0 0.360110044
C  C1233  1  0.95279000  0.98237000  0.13939000  1.0 0.360110044
C  C1234  1  0.26763000  0.29721000  0.11061000  1.0 0.360110044
C  C1235  1  0.11061000  0.32455000  0.26763000  1.0 0.360110044
C  C1236  1  0.13939000  0.92545000  0.95279000  1.0 0.360110044
C  C1237  1  0.95279000  0.13939000  0.92545000  1.0 0.360110044
C  C1238  1  0.26763000  0.11061000  0.32455000  1.0 0.360110044
C  C1239  1  0.92545000  0.95279000  0.13939000  1.0 0.360110044
C  C1240  1  0.32455000  0.26763000  0.11061000  1.0 0.360110044
C  C1241  1  0.32455000  0.29721000  0.26763000  1.0 0.360110044
C  C1242  1  0.29721000  0.11061000  0.26763000  1.0 0.360110044
C  C1243  1  0.98237000  0.13939000  0.95279000  1.0 0.360110044
C  C1244  1  0.92545000  0.98237000  0.95279000  1.0 0.360110044
C  C1245  1  0.29721000  0.26763000  0.32455000  1.0 0.360110044
C  C1246  1  0.98237000  0.95279000  0.92545000  1.0 0.360110044
C  C1247  1  0.11061000  0.29721000  0.32455000  1.0 0.360110044
C  C1248  1  0.29721000  0.32455000  0.11061000  1.0 0.360110044
S  S1  1  0.07841000  0.75429000  0.34141000  1.0 -0.3989322341
S  S2  1  0.17159000  0.49571000  0.42411000  1.0 -0.3989322341
S  S3  1  0.49571000  0.42411000  0.17159000  1.0 -0.3989322341
S  S4  1  0.42411000  0.17159000  0.49571000  1.0 -0.3989322341
S  S5  1  0.49571000  0.90859000  0.42411000  1.0 -0.3989322341
S  S6  1  0.75429000  0.82589000  0.34141000  1.0 -0.3989322341
S  S7  1  0.90859000  0.17159000  0.42411000  1.0 -0.3989322341
S  S8  1  0.82589000  0.07841000  0.34141000  1.0 -0.3989322341
S  S9  1  0.90859000  0.42411000  0.49571000  1.0 -0.3989322341
S  S10  1  0.82589000  0.34141000  0.75429000  1.0 -0.3989322341
S  S11  1  0.75429000  0.07841000  0.82589000  1.0 -0.3989322341
S  S12  1  0.49571000  0.17159000  0.90859000  1.0 -0.3989322341
S  S13  1  0.90859000  0.49571000  0.17159000  1.0 -0.3989322341
S  S14  1  0.82589000  0.75429000  0.07841000  1.0 -0.3989322341
S  S15  1  0.17159000  0.90859000  0.49571000  1.0 -0.3989322341
S  S16  1  0.07841000  0.82589000  0.75429000  1.0 -0.3989322341
S  S17  1  0.07841000  0.34141000  0.82589000  1.0 -0.3989322341
S  S18  1  0.34141000  0.75429000  0.82589000  1.0 -0.3989322341
S  S19  1  0.42411000  0.49571000  0.90859000  1.0 -0.3989322341
S  S20  1  0.17159000  0.42411000  0.90859000  1.0 -0.3989322341
S  S21  1  0.34141000  0.82589000  0.07841000  1.0 -0.3989322341
S  S22  1  0.42411000  0.90859000  0.17159000  1.0 -0.3989322341
S  S23  1  0.75429000  0.34141000  0.07841000  1.0 -0.3989322341
S  S24  1  0.34141000  0.07841000  0.75429000  1.0 -0.3989322341
S  S25  1  0.67159000  0.99571000  0.40859000  1.0 -0.3989322341
S  S26  1  0.57841000  0.25429000  0.32589000  1.0 -0.3989322341
S  S27  1  0.25429000  0.32589000  0.57841000  1.0 -0.3989322341
S  S28  1  0.32589000  0.57841000  0.25429000  1.0 -0.3989322341
S  S29  1  0.25429000  0.84141000  0.32589000  1.0 -0.3989322341
S  S30  1  0.99571000  0.92411000  0.40859000  1.0 -0.3989322341
S  S31  1  0.84141000  0.57841000  0.32589000  1.0 -0.3989322341
S  S32  1  0.92411000  0.67159000  0.40859000  1.0 -0.3989322341
S  S33  1  0.84141000  0.32589000  0.25429000  1.0 -0.3989322341
S  S34  1  0.92411000  0.40859000  0.99571000  1.0 -0.3989322341
S  S35  1  0.99571000  0.67159000  0.92411000  1.0 -0.3989322341
S  S36  1  0.25429000  0.57841000  0.84141000  1.0 -0.3989322341
S  S37  1  0.84141000  0.25429000  0.57841000  1.0 -0.3989322341
S  S38  1  0.92411000  0.99571000  0.67159000  1.0 -0.3989322341
S  S39  1  0.57841000  0.84141000  0.25429000  1.0 -0.3989322341
S  S40  1  0.67159000  0.92411000  0.99571000  1.0 -0.3989322341
S  S41  1  0.67159000  0.40859000  0.92411000  1.0 -0.3989322341
S  S42  1  0.40859000  0.99571000  0.92411000  1.0 -0.3989322341
S  S43  1  0.32589000  0.25429000  0.84141000  1.0 -0.3989322341
S  S44  1  0.57841000  0.32589000  0.84141000  1.0 -0.3989322341
S  S45  1  0.40859000  0.92411000  0.67159000  1.0 -0.3989322341
S  S46  1  0.32589000  0.84141000  0.57841000  1.0 -0.3989322341
S  S47  1  0.99571000  0.40859000  0.67159000  1.0 -0.3989322341
S  S48  1  0.40859000  0.67159000  0.99571000  1.0 -0.3989322341
S  S49  1  0.29415000  0.55619000  0.46581000  1.0 -0.3989322341
S  S50  1  0.95585000  0.69381000  0.56615000  1.0 -0.3989322341
S  S51  1  0.69381000  0.56615000  0.95585000  1.0 -0.3989322341
S  S52  1  0.56615000  0.95585000  0.69381000  1.0 -0.3989322341
S  S53  1  0.69381000  0.78419000  0.56615000  1.0 -0.3989322341
S  S54  1  0.55619000  0.68385000  0.46581000  1.0 -0.3989322341
S  S55  1  0.78419000  0.95585000  0.56615000  1.0 -0.3989322341
S  S56  1  0.68385000  0.29415000  0.46581000  1.0 -0.3989322341
S  S57  1  0.78419000  0.56615000  0.69381000  1.0 -0.3989322341
S  S58  1  0.68385000  0.46581000  0.55619000  1.0 -0.3989322341
S  S59  1  0.55619000  0.29415000  0.68385000  1.0 -0.3989322341
S  S60  1  0.69381000  0.95585000  0.78419000  1.0 -0.3989322341
S  S61  1  0.78419000  0.69381000  0.95585000  1.0 -0.3989322341
S  S62  1  0.68385000  0.55619000  0.29415000  1.0 -0.3989322341
S  S63  1  0.95585000  0.78419000  0.69381000  1.0 -0.3989322341
S  S64  1  0.29415000  0.68385000  0.55619000  1.0 -0.3989322341
S  S65  1  0.29415000  0.46581000  0.68385000  1.0 -0.3989322341
S  S66  1  0.46581000  0.55619000  0.68385000  1.0 -0.3989322341
S  S67  1  0.56615000  0.69381000  0.78419000  1.0 -0.3989322341
S  S68  1  0.95585000  0.56615000  0.78419000  1.0 -0.3989322341
S  S69  1  0.46581000  0.68385000  0.29415000  1.0 -0.3989322341
S  S70  1  0.56615000  0.78419000  0.95585000  1.0 -0.3989322341
S  S71  1  0.55619000  0.46581000  0.29415000  1.0 -0.3989322341
S  S72  1  0.46581000  0.29415000  0.55619000  1.0 -0.3989322341
S  S73  1  0.45585000  0.19381000  0.28419000  1.0 -0.3989322341
S  S74  1  0.79415000  0.05619000  0.18385000  1.0 -0.3989322341
S  S75  1  0.05619000  0.18385000  0.79415000  1.0 -0.3989322341
S  S76  1  0.18385000  0.79415000  0.05619000  1.0 -0.3989322341
S  S77  1  0.05619000  0.96581000  0.18385000  1.0 -0.3989322341
S  S78  1  0.19381000  0.06615000  0.28419000  1.0 -0.3989322341
S  S79  1  0.96581000  0.79415000  0.18385000  1.0 -0.3989322341
S  S80  1  0.06615000  0.45585000  0.28419000  1.0 -0.3989322341
S  S81  1  0.96581000  0.18385000  0.05619000  1.0 -0.3989322341
S  S82  1  0.06615000  0.28419000  0.19381000  1.0 -0.3989322341
S  S83  1  0.19381000  0.45585000  0.06615000  1.0 -0.3989322341
S  S84  1  0.05619000  0.79415000  0.96581000  1.0 -0.3989322341
S  S85  1  0.96581000  0.05619000  0.79415000  1.0 -0.3989322341
S  S86  1  0.06615000  0.19381000  0.45585000  1.0 -0.3989322341
S  S87  1  0.79415000  0.96581000  0.05619000  1.0 -0.3989322341
S  S88  1  0.45585000  0.06615000  0.19381000  1.0 -0.3989322341
S  S89  1  0.45585000  0.28419000  0.06615000  1.0 -0.3989322341
S  S90  1  0.28419000  0.19381000  0.06615000  1.0 -0.3989322341
S  S91  1  0.18385000  0.05619000  0.96581000  1.0 -0.3989322341
S  S92  1  0.79415000  0.18385000  0.96581000  1.0 -0.3989322341
S  S93  1  0.28419000  0.06615000  0.45585000  1.0 -0.3989322341
S  S94  1  0.18385000  0.96581000  0.79415000  1.0 -0.3989322341
S  S95  1  0.19381000  0.28419000  0.45585000  1.0 -0.3989322341
S  S96  1  0.28419000  0.45585000  0.19381000  1.0 -0.3989322341
N  N1  1  0.11733000  0.68011000  0.35941000  1.0 -0.4719572286
N  N2  1  0.13267000  0.56989000  0.40685000  1.0 -0.4719572286
N  N3  1  0.56989000  0.40685000  0.13267000  1.0 -0.4719572286
N  N4  1  0.40685000  0.13267000  0.56989000  1.0 -0.4719572286
N  N5  1  0.56989000  0.89059000  0.40685000  1.0 -0.4719572286
N  N6  1  0.68011000  0.84315000  0.35941000  1.0 -0.4719572286
N  N7  1  0.89059000  0.13267000  0.40685000  1.0 -0.4719572286
N  N8  1  0.84315000  0.11733000  0.35941000  1.0 -0.4719572286
N  N9  1  0.89059000  0.40685000  0.56989000  1.0 -0.4719572286
N  N10  1  0.84315000  0.35941000  0.68011000  1.0 -0.4719572286
N  N11  1  0.68011000  0.11733000  0.84315000  1.0 -0.4719572286
N  N12  1  0.56989000  0.13267000  0.89059000  1.0 -0.4719572286
N  N13  1  0.89059000  0.56989000  0.13267000  1.0 -0.4719572286
N  N14  1  0.84315000  0.68011000  0.11733000  1.0 -0.4719572286
N  N15  1  0.13267000  0.89059000  0.56989000  1.0 -0.4719572286
N  N16  1  0.11733000  0.84315000  0.68011000  1.0 -0.4719572286
N  N17  1  0.11733000  0.35941000  0.84315000  1.0 -0.4719572286
N  N18  1  0.35941000  0.68011000  0.84315000  1.0 -0.4719572286
N  N19  1  0.40685000  0.56989000  0.89059000  1.0 -0.4719572286
N  N20  1  0.13267000  0.40685000  0.89059000  1.0 -0.4719572286
N  N21  1  0.35941000  0.84315000  0.11733000  1.0 -0.4719572286
N  N22  1  0.40685000  0.89059000  0.13267000  1.0 -0.4719572286
N  N23  1  0.68011000  0.35941000  0.11733000  1.0 -0.4719572286
N  N24  1  0.35941000  0.11733000  0.68011000  1.0 -0.4719572286
N  N25  1  0.63267000  0.06989000  0.39059000  1.0 -0.4719572286
N  N26  1  0.61733000  0.18011000  0.34315000  1.0 -0.4719572286
N  N27  1  0.18011000  0.34315000  0.61733000  1.0 -0.4719572286
N  N28  1  0.34315000  0.61733000  0.18011000  1.0 -0.4719572286
N  N29  1  0.18011000  0.85941000  0.34315000  1.0 -0.4719572286
N  N30  1  0.06989000  0.90685000  0.39059000  1.0 -0.4719572286
N  N31  1  0.85941000  0.61733000  0.34315000  1.0 -0.4719572286
N  N32  1  0.90685000  0.63267000  0.39059000  1.0 -0.4719572286
N  N33  1  0.85941000  0.34315000  0.18011000  1.0 -0.4719572286
N  N34  1  0.90685000  0.39059000  0.06989000  1.0 -0.4719572286
N  N35  1  0.06989000  0.63267000  0.90685000  1.0 -0.4719572286
N  N36  1  0.18011000  0.61733000  0.85941000  1.0 -0.4719572286
N  N37  1  0.85941000  0.18011000  0.61733000  1.0 -0.4719572286
N  N38  1  0.90685000  0.06989000  0.63267000  1.0 -0.4719572286
N  N39  1  0.61733000  0.85941000  0.18011000  1.0 -0.4719572286
N  N40  1  0.63267000  0.90685000  0.06989000  1.0 -0.4719572286
N  N41  1  0.63267000  0.39059000  0.90685000  1.0 -0.4719572286
N  N42  1  0.39059000  0.06989000  0.90685000  1.0 -0.4719572286
N  N43  1  0.34315000  0.18011000  0.85941000  1.0 -0.4719572286
N  N44  1  0.61733000  0.34315000  0.85941000  1.0 -0.4719572286
N  N45  1  0.39059000  0.90685000  0.63267000  1.0 -0.4719572286
N  N46  1  0.34315000  0.85941000  0.61733000  1.0 -0.4719572286
N  N47  1  0.06989000  0.39059000  0.63267000  1.0 -0.4719572286
N  N48  1  0.39059000  0.63267000  0.06989000  1.0 -0.4719572286
N  N49  1  0.16536000  0.61430000  0.40556000  1.0 -0.2029719674
N  N50  1  0.08464000  0.63570000  0.43522000  1.0 -0.2029719674
N  N51  1  0.63570000  0.43522000  0.08464000  1.0 -0.2029719674
N  N52  1  0.43522000  0.08464000  0.63570000  1.0 -0.2029719674
N  N53  1  0.63570000  0.84444000  0.43522000  1.0 -0.2029719674
N  N54  1  0.61430000  0.81478000  0.40556000  1.0 -0.2029719674
N  N55  1  0.84444000  0.08464000  0.43522000  1.0 -0.2029719674
N  N56  1  0.81478000  0.16536000  0.40556000  1.0 -0.2029719674
N  N57  1  0.84444000  0.43522000  0.63570000  1.0 -0.2029719674
N  N58  1  0.81478000  0.40556000  0.61430000  1.0 -0.2029719674
N  N59  1  0.61430000  0.16536000  0.81478000  1.0 -0.2029719674
N  N60  1  0.63570000  0.08464000  0.84444000  1.0 -0.2029719674
N  N61  1  0.84444000  0.63570000  0.08464000  1.0 -0.2029719674
N  N62  1  0.81478000  0.61430000  0.16536000  1.0 -0.2029719674
N  N63  1  0.08464000  0.84444000  0.63570000  1.0 -0.2029719674
N  N64  1  0.16536000  0.81478000  0.61430000  1.0 -0.2029719674
N  N65  1  0.16536000  0.40556000  0.81478000  1.0 -0.2029719674
N  N66  1  0.40556000  0.61430000  0.81478000  1.0 -0.2029719674
N  N67  1  0.43522000  0.63570000  0.84444000  1.0 -0.2029719674
N  N68  1  0.08464000  0.43522000  0.84444000  1.0 -0.2029719674
N  N69  1  0.40556000  0.81478000  0.16536000  1.0 -0.2029719674
N  N70  1  0.43522000  0.84444000  0.08464000  1.0 -0.2029719674
N  N71  1  0.61430000  0.40556000  0.16536000  1.0 -0.2029719674
N  N72  1  0.40556000  0.16536000  0.61430000  1.0 -0.2029719674
N  N73  1  0.58464000  0.13570000  0.34444000  1.0 -0.2029719674
N  N74  1  0.66536000  0.11430000  0.31478000  1.0 -0.2029719674
N  N75  1  0.11430000  0.31478000  0.66536000  1.0 -0.2029719674
N  N76  1  0.31478000  0.66536000  0.11430000  1.0 -0.2029719674
N  N77  1  0.11430000  0.90556000  0.31478000  1.0 -0.2029719674
N  N78  1  0.13570000  0.93522000  0.34444000  1.0 -0.2029719674
N  N79  1  0.90556000  0.66536000  0.31478000  1.0 -0.2029719674
N  N80  1  0.93522000  0.58464000  0.34444000  1.0 -0.2029719674
N  N81  1  0.90556000  0.31478000  0.11430000  1.0 -0.2029719674
N  N82  1  0.93522000  0.34444000  0.13570000  1.0 -0.2029719674
N  N83  1  0.13570000  0.58464000  0.93522000  1.0 -0.2029719674
N  N84  1  0.11430000  0.66536000  0.90556000  1.0 -0.2029719674
N  N85  1  0.90556000  0.11430000  0.66536000  1.0 -0.2029719674
N  N86  1  0.93522000  0.13570000  0.58464000  1.0 -0.2029719674
N  N87  1  0.66536000  0.90556000  0.11430000  1.0 -0.2029719674
N  N88  1  0.58464000  0.93522000  0.13570000  1.0 -0.2029719674
N  N89  1  0.58464000  0.34444000  0.93522000  1.0 -0.2029719674
N  N90  1  0.34444000  0.13570000  0.93522000  1.0 -0.2029719674
N  N91  1  0.31478000  0.11430000  0.90556000  1.0 -0.2029719674
N  N92  1  0.66536000  0.31478000  0.90556000  1.0 -0.2029719674
N  N93  1  0.34444000  0.93522000  0.58464000  1.0 -0.2029719674
N  N94  1  0.31478000  0.90556000  0.66536000  1.0 -0.2029719674
N  N95  1  0.13570000  0.34444000  0.58464000  1.0 -0.2029719674
N  N96  1  0.34444000  0.58464000  0.13570000  1.0 -0.2029719674
N  N97  1  0.11465000  0.83545000  0.38153000  1.0 -0.2099534551
N  N98  1  0.13535000  0.41455000  0.58163000  1.0 -0.2099534551
N  N99  1  0.41455000  0.58163000  0.13535000  1.0 -0.2099534551
N  N100  1  0.58163000  0.13535000  0.41455000  1.0 -0.2099534551
N  N101  1  0.41455000  0.86847000  0.58163000  1.0 -0.2099534551
N  N102  1  0.83545000  0.66837000  0.38153000  1.0 -0.2099534551
N  N103  1  0.86847000  0.13535000  0.58163000  1.0 -0.2099534551
N  N104  1  0.66837000  0.11465000  0.38153000  1.0 -0.2099534551
N  N105  1  0.86847000  0.58163000  0.41455000  1.0 -0.2099534551
N  N106  1  0.66837000  0.38153000  0.83545000  1.0 -0.2099534551
N  N107  1  0.83545000  0.11465000  0.66837000  1.0 -0.2099534551
N  N108  1  0.41455000  0.13535000  0.86847000  1.0 -0.2099534551
N  N109  1  0.86847000  0.41455000  0.13535000  1.0 -0.2099534551
N  N110  1  0.66837000  0.83545000  0.11465000  1.0 -0.2099534551
N  N111  1  0.13535000  0.86847000  0.41455000  1.0 -0.2099534551
N  N112  1  0.11465000  0.66837000  0.83545000  1.0 -0.2099534551
N  N113  1  0.11465000  0.38153000  0.66837000  1.0 -0.2099534551
N  N114  1  0.38153000  0.83545000  0.66837000  1.0 -0.2099534551
N  N115  1  0.58163000  0.41455000  0.86847000  1.0 -0.2099534551
N  N116  1  0.13535000  0.58163000  0.86847000  1.0 -0.2099534551
N  N117  1  0.38153000  0.66837000  0.11465000  1.0 -0.2099534551
N  N118  1  0.58163000  0.86847000  0.13535000  1.0 -0.2099534551
N  N119  1  0.83545000  0.38153000  0.11465000  1.0 -0.2099534551
N  N120  1  0.38153000  0.11465000  0.83545000  1.0 -0.2099534551
N  N121  1  0.63535000  0.91455000  0.36847000  1.0 -0.2099534551
N  N122  1  0.61465000  0.33545000  0.16837000  1.0 -0.2099534551
N  N123  1  0.33545000  0.16837000  0.61465000  1.0 -0.2099534551
N  N124  1  0.16837000  0.61465000  0.33545000  1.0 -0.2099534551
N  N125  1  0.33545000  0.88153000  0.16837000  1.0 -0.2099534551
N  N126  1  0.91455000  0.08163000  0.36847000  1.0 -0.2099534551
N  N127  1  0.88153000  0.61465000  0.16837000  1.0 -0.2099534551
N  N128  1  0.08163000  0.63535000  0.36847000  1.0 -0.2099534551
N  N129  1  0.88153000  0.16837000  0.33545000  1.0 -0.2099534551
N  N130  1  0.08163000  0.36847000  0.91455000  1.0 -0.2099534551
N  N131  1  0.91455000  0.63535000  0.08163000  1.0 -0.2099534551
N  N132  1  0.33545000  0.61465000  0.88153000  1.0 -0.2099534551
N  N133  1  0.88153000  0.33545000  0.61465000  1.0 -0.2099534551
N  N134  1  0.08163000  0.91455000  0.63535000  1.0 -0.2099534551
N  N135  1  0.61465000  0.88153000  0.33545000  1.0 -0.2099534551
N  N136  1  0.63535000  0.08163000  0.91455000  1.0 -0.2099534551
N  N137  1  0.63535000  0.36847000  0.08163000  1.0 -0.2099534551
N  N138  1  0.36847000  0.91455000  0.08163000  1.0 -0.2099534551
N  N139  1  0.16837000  0.33545000  0.88153000  1.0 -0.2099534551
N  N140  1  0.61465000  0.16837000  0.88153000  1.0 -0.2099534551
N  N141  1  0.36847000  0.08163000  0.63535000  1.0 -0.2099534551
N  N142  1  0.16837000  0.88153000  0.61465000  1.0 -0.2099534551
N  N143  1  0.91455000  0.36847000  0.63535000  1.0 -0.2099534551
N  N144  1  0.36847000  0.63535000  0.91455000  1.0 -0.2099534551
N  N145  1  0.16573000  0.70663000  0.40381000  1.0 -0.4076936042
N  N146  1  0.08427000  0.54337000  0.52617000  1.0 -0.4076936042
N  N147  1  0.54337000  0.52617000  0.08427000  1.0 -0.4076936042
N  N148  1  0.52617000  0.08427000  0.54337000  1.0 -0.4076936042
N  N149  1  0.54337000  0.84619000  0.52617000  1.0 -0.4076936042
N  N150  1  0.70663000  0.72383000  0.40381000  1.0 -0.4076936042
N  N151  1  0.84619000  0.08427000  0.52617000  1.0 -0.4076936042
N  N152  1  0.72383000  0.16573000  0.40381000  1.0 -0.4076936042
N  N153  1  0.84619000  0.52617000  0.54337000  1.0 -0.4076936042
N  N154  1  0.72383000  0.40381000  0.70663000  1.0 -0.4076936042
N  N155  1  0.70663000  0.16573000  0.72383000  1.0 -0.4076936042
N  N156  1  0.54337000  0.08427000  0.84619000  1.0 -0.4076936042
N  N157  1  0.84619000  0.54337000  0.08427000  1.0 -0.4076936042
N  N158  1  0.72383000  0.70663000  0.16573000  1.0 -0.4076936042
N  N159  1  0.08427000  0.84619000  0.54337000  1.0 -0.4076936042
N  N160  1  0.16573000  0.72383000  0.70663000  1.0 -0.4076936042
N  N161  1  0.16573000  0.40381000  0.72383000  1.0 -0.4076936042
N  N162  1  0.40381000  0.70663000  0.72383000  1.0 -0.4076936042
N  N163  1  0.52617000  0.54337000  0.84619000  1.0 -0.4076936042
N  N164  1  0.08427000  0.52617000  0.84619000  1.0 -0.4076936042
N  N165  1  0.40381000  0.72383000  0.16573000  1.0 -0.4076936042
N  N166  1  0.52617000  0.84619000  0.08427000  1.0 -0.4076936042
N  N167  1  0.70663000  0.40381000  0.16573000  1.0 -0.4076936042
N  N168  1  0.40381000  0.16573000  0.70663000  1.0 -0.4076936042
N  N169  1  0.58427000  0.04337000  0.34619000  1.0 -0.4076936042
N  N170  1  0.66573000  0.20663000  0.22383000  1.0 -0.4076936042
N  N171  1  0.20663000  0.22383000  0.66573000  1.0 -0.4076936042
N  N172  1  0.22383000  0.66573000  0.20663000  1.0 -0.4076936042
N  N173  1  0.20663000  0.90381000  0.22383000  1.0 -0.4076936042
N  N174  1  0.04337000  0.02617000  0.34619000  1.0 -0.4076936042
N  N175  1  0.90381000  0.66573000  0.22383000  1.0 -0.4076936042
N  N176  1  0.02617000  0.58427000  0.34619000  1.0 -0.4076936042
N  N177  1  0.90381000  0.22383000  0.20663000  1.0 -0.4076936042
N  N178  1  0.02617000  0.34619000  0.04337000  1.0 -0.4076936042
N  N179  1  0.04337000  0.58427000  0.02617000  1.0 -0.4076936042
N  N180  1  0.20663000  0.66573000  0.90381000  1.0 -0.4076936042
N  N181  1  0.90381000  0.20663000  0.66573000  1.0 -0.4076936042
N  N182  1  0.02617000  0.04337000  0.58427000  1.0 -0.4076936042
N  N183  1  0.66573000  0.90381000  0.20663000  1.0 -0.4076936042
N  N184  1  0.58427000  0.02617000  0.04337000  1.0 -0.4076936042
N  N185  1  0.58427000  0.34619000  0.02617000  1.0 -0.4076936042
N  N186  1  0.34619000  0.04337000  0.02617000  1.0 -0.4076936042
N  N187  1  0.22383000  0.20663000  0.90381000  1.0 -0.4076936042
N  N188  1  0.66573000  0.22383000  0.90381000  1.0 -0.4076936042
N  N189  1  0.34619000  0.02617000  0.58427000  1.0 -0.4076936042
N  N190  1  0.22383000  0.90381000  0.66573000  1.0 -0.4076936042
N  N191  1  0.04337000  0.34619000  0.58427000  1.0 -0.4076936042
N  N192  1  0.34619000  0.58427000  0.04337000  1.0 -0.4076936042
N  N193  1  0.22804000  0.67678000  0.39926000  1.0 -0.4076936042
N  N194  1  0.02196000  0.57322000  0.55408000  1.0 -0.4076936042
N  N195  1  0.57322000  0.55408000  0.02196000  1.0 -0.4076936042
N  N196  1  0.55408000  0.02196000  0.57322000  1.0 -0.4076936042
N  N197  1  0.57322000  0.85074000  0.55408000  1.0 -0.4076936042
N  N198  1  0.67678000  0.69592000  0.39926000  1.0 -0.4076936042
N  N199  1  0.85074000  0.02196000  0.55408000  1.0 -0.4076936042
N  N200  1  0.69592000  0.22804000  0.39926000  1.0 -0.4076936042
N  N201  1  0.85074000  0.55408000  0.57322000  1.0 -0.4076936042
N  N202  1  0.69592000  0.39926000  0.67678000  1.0 -0.4076936042
N  N203  1  0.67678000  0.22804000  0.69592000  1.0 -0.4076936042
N  N204  1  0.57322000  0.02196000  0.85074000  1.0 -0.4076936042
N  N205  1  0.85074000  0.57322000  0.02196000  1.0 -0.4076936042
N  N206  1  0.69592000  0.67678000  0.22804000  1.0 -0.4076936042
N  N207  1  0.02196000  0.85074000  0.57322000  1.0 -0.4076936042
N  N208  1  0.22804000  0.69592000  0.67678000  1.0 -0.4076936042
N  N209  1  0.22804000  0.39926000  0.69592000  1.0 -0.4076936042
N  N210  1  0.39926000  0.67678000  0.69592000  1.0 -0.4076936042
N  N211  1  0.55408000  0.57322000  0.85074000  1.0 -0.4076936042
N  N212  1  0.02196000  0.55408000  0.85074000  1.0 -0.4076936042
N  N213  1  0.39926000  0.69592000  0.22804000  1.0 -0.4076936042
N  N214  1  0.55408000  0.85074000  0.02196000  1.0 -0.4076936042
N  N215  1  0.67678000  0.39926000  0.22804000  1.0 -0.4076936042
N  N216  1  0.39926000  0.22804000  0.67678000  1.0 -0.4076936042
N  N217  1  0.52196000  0.07322000  0.35074000  1.0 -0.4076936042
N  N218  1  0.72804000  0.17678000  0.19592000  1.0 -0.4076936042
N  N219  1  0.17678000  0.19592000  0.72804000  1.0 -0.4076936042
N  N220  1  0.19592000  0.72804000  0.17678000  1.0 -0.4076936042
N  N221  1  0.17678000  0.89926000  0.19592000  1.0 -0.4076936042
N  N222  1  0.07322000  0.05408000  0.35074000  1.0 -0.4076936042
N  N223  1  0.89926000  0.72804000  0.19592000  1.0 -0.4076936042
N  N224  1  0.05408000  0.52196000  0.35074000  1.0 -0.4076936042
N  N225  1  0.89926000  0.19592000  0.17678000  1.0 -0.4076936042
N  N226  1  0.05408000  0.35074000  0.07322000  1.0 -0.4076936042
N  N227  1  0.07322000  0.52196000  0.05408000  1.0 -0.4076936042
N  N228  1  0.17678000  0.72804000  0.89926000  1.0 -0.4076936042
N  N229  1  0.89926000  0.17678000  0.72804000  1.0 -0.4076936042
N  N230  1  0.05408000  0.07322000  0.52196000  1.0 -0.4076936042
N  N231  1  0.72804000  0.89926000  0.17678000  1.0 -0.4076936042
N  N232  1  0.52196000  0.05408000  0.07322000  1.0 -0.4076936042
N  N233  1  0.52196000  0.35074000  0.05408000  1.0 -0.4076936042
N  N234  1  0.35074000  0.07322000  0.05408000  1.0 -0.4076936042
N  N235  1  0.19592000  0.17678000  0.89926000  1.0 -0.4076936042
N  N236  1  0.72804000  0.19592000  0.89926000  1.0 -0.4076936042
N  N237  1  0.35074000  0.05408000  0.52196000  1.0 -0.4076936042
N  N238  1  0.19592000  0.89926000  0.72804000  1.0 -0.4076936042
N  N239  1  0.07322000  0.35074000  0.52196000  1.0 -0.4076936042
N  N240  1  0.35074000  0.52196000  0.07322000  1.0 -0.4076936042
N  N241  1  0.20200000  0.74048000  0.38658000  1.0 -0.415686126
N  N242  1  0.04800000  0.50952000  0.57906000  1.0 -0.415686126
N  N243  1  0.50952000  0.57906000  0.04800000  1.0 -0.415686126
N  N244  1  0.57906000  0.04800000  0.50952000  1.0 -0.415686126
N  N245  1  0.50952000  0.86342000  0.57906000  1.0 -0.415686126
N  N246  1  0.74048000  0.67094000  0.38658000  1.0 -0.415686126
N  N247  1  0.86342000  0.04800000  0.57906000  1.0 -0.415686126
N  N248  1  0.67094000  0.20200000  0.38658000  1.0 -0.415686126
N  N249  1  0.86342000  0.57906000  0.50952000  1.0 -0.415686126
N  N250  1  0.67094000  0.38658000  0.74048000  1.0 -0.415686126
N  N251  1  0.74048000  0.20200000  0.67094000  1.0 -0.415686126
N  N252  1  0.50952000  0.04800000  0.86342000  1.0 -0.415686126
N  N253  1  0.86342000  0.50952000  0.04800000  1.0 -0.415686126
N  N254  1  0.67094000  0.74048000  0.20200000  1.0 -0.415686126
N  N255  1  0.04800000  0.86342000  0.50952000  1.0 -0.415686126
N  N256  1  0.20200000  0.67094000  0.74048000  1.0 -0.415686126
N  N257  1  0.20200000  0.38658000  0.67094000  1.0 -0.415686126
N  N258  1  0.38658000  0.74048000  0.67094000  1.0 -0.415686126
N  N259  1  0.57906000  0.50952000  0.86342000  1.0 -0.415686126
N  N260  1  0.04800000  0.57906000  0.86342000  1.0 -0.415686126
N  N261  1  0.38658000  0.67094000  0.20200000  1.0 -0.415686126
N  N262  1  0.57906000  0.86342000  0.04800000  1.0 -0.415686126
N  N263  1  0.74048000  0.38658000  0.20200000  1.0 -0.415686126
N  N264  1  0.38658000  0.20200000  0.74048000  1.0 -0.415686126
N  N265  1  0.54800000  0.00952000  0.36342000  1.0 -0.415686126
N  N266  1  0.70200000  0.24048000  0.17094000  1.0 -0.415686126
N  N267  1  0.24048000  0.17094000  0.70200000  1.0 -0.415686126
N  N268  1  0.17094000  0.70200000  0.24048000  1.0 -0.415686126
N  N269  1  0.24048000  0.88658000  0.17094000  1.0 -0.415686126
N  N270  1  0.00952000  0.07906000  0.36342000  1.0 -0.415686126
N  N271  1  0.88658000  0.70200000  0.17094000  1.0 -0.415686126
N  N272  1  0.07906000  0.54800000  0.36342000  1.0 -0.415686126
N  N273  1  0.88658000  0.17094000  0.24048000  1.0 -0.415686126
N  N274  1  0.07906000  0.36342000  0.00952000  1.0 -0.415686126
N  N275  1  0.00952000  0.54800000  0.07906000  1.0 -0.415686126
N  N276  1  0.24048000  0.70200000  0.88658000  1.0 -0.415686126
N  N277  1  0.88658000  0.24048000  0.70200000  1.0 -0.415686126
N  N278  1  0.07906000  0.00952000  0.54800000  1.0 -0.415686126
N  N279  1  0.70200000  0.88658000  0.24048000  1.0 -0.415686126
N  N280  1  0.54800000  0.07906000  0.00952000  1.0 -0.415686126
N  N281  1  0.54800000  0.36342000  0.07906000  1.0 -0.415686126
N  N282  1  0.36342000  0.00952000  0.07906000  1.0 -0.415686126
N  N283  1  0.17094000  0.24048000  0.88658000  1.0 -0.415686126
N  N284  1  0.70200000  0.17094000  0.88658000  1.0 -0.415686126
N  N285  1  0.36342000  0.07906000  0.54800000  1.0 -0.415686126
N  N286  1  0.17094000  0.88658000  0.70200000  1.0 -0.415686126
N  N287  1  0.00952000  0.36342000  0.54800000  1.0 -0.415686126
N  N288  1  0.36342000  0.54800000  0.00952000  1.0 -0.415686126
N  N289  1  0.32872000  0.67866000  0.36912000  1.0 -0.2029719674
N  N290  1  0.92128000  0.57134000  0.62650000  1.0 -0.2029719674
N  N291  1  0.57134000  0.62650000  0.92128000  1.0 -0.2029719674
N  N292  1  0.62650000  0.92128000  0.57134000  1.0 -0.2029719674
N  N293  1  0.57134000  0.88088000  0.62650000  1.0 -0.2029719674
N  N294  1  0.67866000  0.62350000  0.36912000  1.0 -0.2029719674
N  N295  1  0.88088000  0.92128000  0.62650000  1.0 -0.2029719674
N  N296  1  0.62350000  0.32872000  0.36912000  1.0 -0.2029719674
N  N297  1  0.88088000  0.62650000  0.57134000  1.0 -0.2029719674
N  N298  1  0.62350000  0.36912000  0.67866000  1.0 -0.2029719674
N  N299  1  0.67866000  0.32872000  0.62350000  1.0 -0.2029719674
N  N300  1  0.57134000  0.92128000  0.88088000  1.0 -0.2029719674
N  N301  1  0.88088000  0.57134000  0.92128000  1.0 -0.2029719674
N  N302  1  0.62350000  0.67866000  0.32872000  1.0 -0.2029719674
N  N303  1  0.92128000  0.88088000  0.57134000  1.0 -0.2029719674
N  N304  1  0.32872000  0.62350000  0.67866000  1.0 -0.2029719674
N  N305  1  0.32872000  0.36912000  0.62350000  1.0 -0.2029719674
N  N306  1  0.36912000  0.67866000  0.62350000  1.0 -0.2029719674
N  N307  1  0.62650000  0.57134000  0.88088000  1.0 -0.2029719674
N  N308  1  0.92128000  0.62650000  0.88088000  1.0 -0.2029719674
N  N309  1  0.36912000  0.62350000  0.32872000  1.0 -0.2029719674
N  N310  1  0.62650000  0.88088000  0.92128000  1.0 -0.2029719674
N  N311  1  0.67866000  0.36912000  0.32872000  1.0 -0.2029719674
N  N312  1  0.36912000  0.32872000  0.67866000  1.0 -0.2029719674
N  N313  1  0.42128000  0.07134000  0.38088000  1.0 -0.2029719674
N  N314  1  0.82872000  0.17866000  0.12350000  1.0 -0.2029719674
N  N315  1  0.17866000  0.12350000  0.82872000  1.0 -0.2029719674
N  N316  1  0.12350000  0.82872000  0.17866000  1.0 -0.2029719674
N  N317  1  0.17866000  0.86912000  0.12350000  1.0 -0.2029719674
N  N318  1  0.07134000  0.12650000  0.38088000  1.0 -0.2029719674
N  N319  1  0.86912000  0.82872000  0.12350000  1.0 -0.2029719674
N  N320  1  0.12650000  0.42128000  0.38088000  1.0 -0.2029719674
N  N321  1  0.86912000  0.12350000  0.17866000  1.0 -0.2029719674
N  N322  1  0.12650000  0.38088000  0.07134000  1.0 -0.2029719674
N  N323  1  0.07134000  0.42128000  0.12650000  1.0 -0.2029719674
N  N324  1  0.17866000  0.82872000  0.86912000  1.0 -0.2029719674
N  N325  1  0.86912000  0.17866000  0.82872000  1.0 -0.2029719674
N  N326  1  0.12650000  0.07134000  0.42128000  1.0 -0.2029719674
N  N327  1  0.82872000  0.86912000  0.17866000  1.0 -0.2029719674
N  N328  1  0.42128000  0.12650000  0.07134000  1.0 -0.2029719674
N  N329  1  0.42128000  0.38088000  0.12650000  1.0 -0.2029719674
N  N330  1  0.38088000  0.07134000  0.12650000  1.0 -0.2029719674
N  N331  1  0.12350000  0.17866000  0.86912000  1.0 -0.2029719674
N  N332  1  0.82872000  0.12350000  0.86912000  1.0 -0.2029719674
N  N333  1  0.38088000  0.12650000  0.42128000  1.0 -0.2029719674
N  N334  1  0.12350000  0.86912000  0.82872000  1.0 -0.2029719674
N  N335  1  0.07134000  0.38088000  0.42128000  1.0 -0.2029719674
N  N336  1  0.38088000  0.42128000  0.07134000  1.0 -0.2029719674
N  N337  1  0.33930000  0.59558000  0.40900000  1.0 -0.4719572286
N  N338  1  0.91070000  0.65442000  0.59388000  1.0 -0.4719572286
N  N339  1  0.65442000  0.59388000  0.91070000  1.0 -0.4719572286
N  N340  1  0.59388000  0.91070000  0.65442000  1.0 -0.4719572286
N  N341  1  0.65442000  0.84100000  0.59388000  1.0 -0.4719572286
N  N342  1  0.59558000  0.65612000  0.40900000  1.0 -0.4719572286
N  N343  1  0.84100000  0.91070000  0.59388000  1.0 -0.4719572286
N  N344  1  0.65612000  0.33930000  0.40900000  1.0 -0.4719572286
N  N345  1  0.84100000  0.59388000  0.65442000  1.0 -0.4719572286
N  N346  1  0.65612000  0.40900000  0.59558000  1.0 -0.4719572286
N  N347  1  0.59558000  0.33930000  0.65612000  1.0 -0.4719572286
N  N348  1  0.65442000  0.91070000  0.84100000  1.0 -0.4719572286
N  N349  1  0.84100000  0.65442000  0.91070000  1.0 -0.4719572286
N  N350  1  0.65612000  0.59558000  0.33930000  1.0 -0.4719572286
N  N351  1  0.91070000  0.84100000  0.65442000  1.0 -0.4719572286
N  N352  1  0.33930000  0.65612000  0.59558000  1.0 -0.4719572286
N  N353  1  0.33930000  0.40900000  0.65612000  1.0 -0.4719572286
N  N354  1  0.40900000  0.59558000  0.65612000  1.0 -0.4719572286
N  N355  1  0.59388000  0.65442000  0.84100000  1.0 -0.4719572286
N  N356  1  0.91070000  0.59388000  0.84100000  1.0 -0.4719572286
N  N357  1  0.40900000  0.65612000  0.33930000  1.0 -0.4719572286
N  N358  1  0.59388000  0.84100000  0.91070000  1.0 -0.4719572286
N  N359  1  0.59558000  0.40900000  0.33930000  1.0 -0.4719572286
N  N360  1  0.40900000  0.33930000  0.59558000  1.0 -0.4719572286
N  N361  1  0.41070000  0.15442000  0.34100000  1.0 -0.4719572286
N  N362  1  0.83930000  0.09558000  0.15612000  1.0 -0.4719572286
N  N363  1  0.09558000  0.15612000  0.83930000  1.0 -0.4719572286
N  N364  1  0.15612000  0.83930000  0.09558000  1.0 -0.4719572286
N  N365  1  0.09558000  0.90900000  0.15612000  1.0 -0.4719572286
N  N366  1  0.15442000  0.09388000  0.34100000  1.0 -0.4719572286
N  N367  1  0.90900000  0.83930000  0.15612000  1.0 -0.4719572286
N  N368  1  0.09388000  0.41070000  0.34100000  1.0 -0.4719572286
N  N369  1  0.90900000  0.15612000  0.09558000  1.0 -0.4719572286
N  N370  1  0.09388000  0.34100000  0.15442000  1.0 -0.4719572286
N  N371  1  0.15442000  0.41070000  0.09388000  1.0 -0.4719572286
N  N372  1  0.09558000  0.83930000  0.90900000  1.0 -0.4719572286
N  N373  1  0.90900000  0.09558000  0.83930000  1.0 -0.4719572286
N  N374  1  0.09388000  0.15442000  0.41070000  1.0 -0.4719572286
N  N375  1  0.83930000  0.90900000  0.09558000  1.0 -0.4719572286
N  N376  1  0.41070000  0.09388000  0.15442000  1.0 -0.4719572286
N  N377  1  0.41070000  0.34100000  0.09388000  1.0 -0.4719572286
N  N378  1  0.34100000  0.15442000  0.09388000  1.0 -0.4719572286
N  N379  1  0.15612000  0.09558000  0.90900000  1.0 -0.4719572286
N  N380  1  0.83930000  0.15612000  0.90900000  1.0 -0.4719572286
N  N381  1  0.34100000  0.09388000  0.41070000  1.0 -0.4719572286
N  N382  1  0.15612000  0.90900000  0.83930000  1.0 -0.4719572286
N  N383  1  0.15442000  0.34100000  0.41070000  1.0 -0.4719572286
N  N384  1  0.34100000  0.41070000  0.15442000  1.0 -0.4719572286
N  N385  1  0.36844000  0.63170000  0.42078000  1.0 -0.2029719674
N  N386  1  0.88156000  0.61830000  0.67092000  1.0 -0.2029719674
N  N387  1  0.61830000  0.67092000  0.88156000  1.0 -0.2029719674
N  N388  1  0.67092000  0.88156000  0.61830000  1.0 -0.2029719674
N  N389  1  0.61830000  0.82922000  0.67092000  1.0 -0.2029719674
N  N390  1  0.63170000  0.57908000  0.42078000  1.0 -0.2029719674
N  N391  1  0.82922000  0.88156000  0.67092000  1.0 -0.2029719674
N  N392  1  0.57908000  0.36844000  0.42078000  1.0 -0.2029719674
N  N393  1  0.82922000  0.67092000  0.61830000  1.0 -0.2029719674
N  N394  1  0.57908000  0.42078000  0.63170000  1.0 -0.2029719674
N  N395  1  0.63170000  0.36844000  0.57908000  1.0 -0.2029719674
N  N396  1  0.61830000  0.88156000  0.82922000  1.0 -0.2029719674
N  N397  1  0.82922000  0.61830000  0.88156000  1.0 -0.2029719674
N  N398  1  0.57908000  0.63170000  0.36844000  1.0 -0.2029719674
N  N399  1  0.88156000  0.82922000  0.61830000  1.0 -0.2029719674
N  N400  1  0.36844000  0.57908000  0.63170000  1.0 -0.2029719674
N  N401  1  0.36844000  0.42078000  0.57908000  1.0 -0.2029719674
N  N402  1  0.42078000  0.63170000  0.57908000  1.0 -0.2029719674
N  N403  1  0.67092000  0.61830000  0.82922000  1.0 -0.2029719674
N  N404  1  0.88156000  0.67092000  0.82922000  1.0 -0.2029719674
N  N405  1  0.42078000  0.57908000  0.36844000  1.0 -0.2029719674
N  N406  1  0.67092000  0.82922000  0.88156000  1.0 -0.2029719674
N  N407  1  0.63170000  0.42078000  0.36844000  1.0 -0.2029719674
N  N408  1  0.42078000  0.36844000  0.63170000  1.0 -0.2029719674
N  N409  1  0.38156000  0.11830000  0.32922000  1.0 -0.2029719674
N  N410  1  0.86844000  0.13170000  0.07908000  1.0 -0.2029719674
N  N411  1  0.13170000  0.07908000  0.86844000  1.0 -0.2029719674
N  N412  1  0.07908000  0.86844000  0.13170000  1.0 -0.2029719674
N  N413  1  0.13170000  0.92078000  0.07908000  1.0 -0.2029719674
N  N414  1  0.11830000  0.17092000  0.32922000  1.0 -0.2029719674
N  N415  1  0.92078000  0.86844000  0.07908000  1.0 -0.2029719674
N  N416  1  0.17092000  0.38156000  0.32922000  1.0 -0.2029719674
N  N417  1  0.92078000  0.07908000  0.13170000  1.0 -0.2029719674
N  N418  1  0.17092000  0.32922000  0.11830000  1.0 -0.2029719674
N  N419  1  0.11830000  0.38156000  0.17092000  1.0 -0.2029719674
N  N420  1  0.13170000  0.86844000  0.92078000  1.0 -0.2029719674
N  N421  1  0.92078000  0.13170000  0.86844000  1.0 -0.2029719674
N  N422  1  0.17092000  0.11830000  0.38156000  1.0 -0.2029719674
N  N423  1  0.86844000  0.92078000  0.13170000  1.0 -0.2029719674
N  N424  1  0.38156000  0.17092000  0.11830000  1.0 -0.2029719674
N  N425  1  0.38156000  0.32922000  0.17092000  1.0 -0.2029719674
N  N426  1  0.32922000  0.11830000  0.17092000  1.0 -0.2029719674
N  N427  1  0.07908000  0.13170000  0.92078000  1.0 -0.2029719674
N  N428  1  0.86844000  0.07908000  0.92078000  1.0 -0.2029719674
N  N429  1  0.32922000  0.17092000  0.38156000  1.0 -0.2029719674
N  N430  1  0.07908000  0.92078000  0.86844000  1.0 -0.2029719674
N  N431  1  0.11830000  0.32922000  0.38156000  1.0 -0.2029719674
N  N432  1  0.32922000  0.38156000  0.11830000  1.0 -0.2029719674
N  N433  1  0.45416000  0.64018000  0.42286000  1.0 -0.3989322341
N  N434  1  0.79584000  0.60982000  0.76720000  1.0 -0.3989322341
N  N435  1  0.60982000  0.76720000  0.79584000  1.0 -0.3989322341
N  N436  1  0.76720000  0.79584000  0.60982000  1.0 -0.3989322341
N  N437  1  0.60982000  0.82714000  0.76720000  1.0 -0.3989322341
N  N438  1  0.64018000  0.48280000  0.42286000  1.0 -0.3989322341
N  N439  1  0.82714000  0.79584000  0.76720000  1.0 -0.3989322341
N  N440  1  0.48280000  0.45416000  0.42286000  1.0 -0.3989322341
N  N441  1  0.82714000  0.76720000  0.60982000  1.0 -0.3989322341
N  N442  1  0.48280000  0.42286000  0.64018000  1.0 -0.3989322341
N  N443  1  0.64018000  0.45416000  0.48280000  1.0 -0.3989322341
N  N444  1  0.60982000  0.79584000  0.82714000  1.0 -0.3989322341
N  N445  1  0.82714000  0.60982000  0.79584000  1.0 -0.3989322341
N  N446  1  0.48280000  0.64018000  0.45416000  1.0 -0.3989322341
N  N447  1  0.79584000  0.82714000  0.60982000  1.0 -0.3989322341
N  N448  1  0.45416000  0.48280000  0.64018000  1.0 -0.3989322341
N  N449  1  0.45416000  0.42286000  0.48280000  1.0 -0.3989322341
N  N450  1  0.42286000  0.64018000  0.48280000  1.0 -0.3989322341
N  N451  1  0.76720000  0.60982000  0.82714000  1.0 -0.3989322341
N  N452  1  0.79584000  0.76720000  0.82714000  1.0 -0.3989322341
N  N453  1  0.42286000  0.48280000  0.45416000  1.0 -0.3989322341
N  N454  1  0.76720000  0.82714000  0.79584000  1.0 -0.3989322341
N  N455  1  0.64018000  0.42286000  0.45416000  1.0 -0.3989322341
N  N456  1  0.42286000  0.45416000  0.64018000  1.0 -0.3989322341
N  N457  1  0.29584000  0.10982000  0.32714000  1.0 -0.3989322341
N  N458  1  0.95416000  0.14018000  0.98280000  1.0 -0.3989322341
N  N459  1  0.14018000  0.98280000  0.95416000  1.0 -0.3989322341
N  N460  1  0.98280000  0.95416000  0.14018000  1.0 -0.3989322341
N  N461  1  0.14018000  0.92286000  0.98280000  1.0 -0.3989322341
N  N462  1  0.10982000  0.26720000  0.32714000  1.0 -0.3989322341
N  N463  1  0.92286000  0.95416000  0.98280000  1.0 -0.3989322341
N  N464  1  0.26720000  0.29584000  0.32714000  1.0 -0.3989322341
N  N465  1  0.92286000  0.98280000  0.14018000  1.0 -0.3989322341
N  N466  1  0.26720000  0.32714000  0.10982000  1.0 -0.3989322341
N  N467  1  0.10982000  0.29584000  0.26720000  1.0 -0.3989322341
N  N468  1  0.14018000  0.95416000  0.92286000  1.0 -0.3989322341
N  N469  1  0.92286000  0.14018000  0.95416000  1.0 -0.3989322341
N  N470  1  0.26720000  0.10982000  0.29584000  1.0 -0.3989322341
N  N471  1  0.95416000  0.92286000  0.14018000  1.0 -0.3989322341
N  N472  1  0.29584000  0.26720000  0.10982000  1.0 -0.3989322341
N  N473  1  0.29584000  0.32714000  0.26720000  1.0 -0.3989322341
N  N474  1  0.32714000  0.10982000  0.26720000  1.0 -0.3989322341
N  N475  1  0.98280000  0.14018000  0.92286000  1.0 -0.3989322341
N  N476  1  0.95416000  0.98280000  0.92286000  1.0 -0.3989322341
N  N477  1  0.32714000  0.26720000  0.29584000  1.0 -0.3989322341
N  N478  1  0.98280000  0.92286000  0.95416000  1.0 -0.3989322341
N  N479  1  0.10982000  0.32714000  0.29584000  1.0 -0.3989322341
N  N480  1  0.32714000  0.29584000  0.10982000  1.0 -0.3989322341
