# DDEC6 charges by PACMAN v1.1 (https://github.com/mtap-research/PACMAN-charge/)
data_LAFRAN01_FSR_pacman
_symmetry_space_group_name_H-M   'P 1'
_cell_length_a   45.18080000
_cell_length_b   45.18080000
_cell_length_c   45.18080000
_cell_angle_alpha   60.00000000
_cell_angle_beta   60.00000000
_cell_angle_gamma   60.00000000
_symmetry_Int_Tables_number   1
_chemical_formula_structural   CoH16C26(SN5)2
_chemical_formula_sum   'Co48 H768 C1248 S96 N480'
_cell_volume   65214.88785735
_cell_formula_units_Z   48
loop_
 _symmetry_equiv_pos_site_id
 _symmetry_equiv_pos_as_xyz
  1  'x, y, z'
loop_
 _atom_site_type_symbol
 _atom_site_label
 _atom_site_symmetry_multiplicity
 _atom_site_fract_x
 _atom_site_fract_y
 _atom_site_fract_z
 _atom_site_occupancy
 _atom_site_charge
Co  Co1  1  0.12500000  0.86864000  0.62500000  1.0 0.667383676
Co  Co2  1  0.86864000  0.12500000  0.38136000  1.0 0.667383676
Co  Co3  1  0.62500000  0.38136000  0.12500000  1.0 0.667383676
Co  Co4  1  0.38136000  0.62500000  0.86864000  1.0 0.667383676
Co  Co5  1  0.62500000  0.12500000  0.86864000  1.0 0.667383676
Co  Co6  1  0.38136000  0.86864000  0.12500000  1.0 0.667383676
Co  Co7  1  0.12500000  0.62500000  0.38136000  1.0 0.667383676
Co  Co8  1  0.86864000  0.38136000  0.62500000  1.0 0.667383676
Co  Co9  1  0.86864000  0.62500000  0.12500000  1.0 0.667383676
Co  Co10  1  0.12500000  0.38136000  0.86864000  1.0 0.667383676
Co  Co11  1  0.38136000  0.12500000  0.62500000  1.0 0.667383676
Co  Co12  1  0.62500000  0.86864000  0.38136000  1.0 0.667383676
Co  Co13  1  0.62500000  0.88136000  0.12500000  1.0 0.667383676
Co  Co14  1  0.88136000  0.62500000  0.36864000  1.0 0.667383676
Co  Co15  1  0.12500000  0.36864000  0.62500000  1.0 0.667383676
Co  Co16  1  0.36864000  0.12500000  0.88136000  1.0 0.667383676
Co  Co17  1  0.12500000  0.62500000  0.88136000  1.0 0.667383676
Co  Co18  1  0.36864000  0.88136000  0.62500000  1.0 0.667383676
Co  Co19  1  0.62500000  0.12500000  0.36864000  1.0 0.667383676
Co  Co20  1  0.88136000  0.36864000  0.12500000  1.0 0.667383676
Co  Co21  1  0.88136000  0.12500000  0.62500000  1.0 0.667383676
Co  Co22  1  0.62500000  0.36864000  0.88136000  1.0 0.667383676
Co  Co23  1  0.36864000  0.62500000  0.12500000  1.0 0.667383676
Co  Co24  1  0.12500000  0.88136000  0.36864000  1.0 0.667383676
Co  Co25  1  0.12709000  0.87291000  0.87291000  1.0 0.6508979849
Co  Co26  1  0.87291000  0.12709000  0.12709000  1.0 0.6508979849
Co  Co27  1  0.87291000  0.12709000  0.87291000  1.0 0.6508979849
Co  Co28  1  0.12709000  0.87291000  0.12709000  1.0 0.6508979849
Co  Co29  1  0.87291000  0.87291000  0.12709000  1.0 0.6508979849
Co  Co30  1  0.12709000  0.12709000  0.87291000  1.0 0.6508979849
Co  Co31  1  0.12291000  0.37709000  0.12291000  1.0 0.6508979849
Co  Co32  1  0.37709000  0.12291000  0.37709000  1.0 0.6508979849
Co  Co33  1  0.37709000  0.12291000  0.12291000  1.0 0.6508979849
Co  Co34  1  0.12291000  0.37709000  0.37709000  1.0 0.6508979849
Co  Co35  1  0.37709000  0.37709000  0.12291000  1.0 0.6508979849
Co  Co36  1  0.12291000  0.12291000  0.37709000  1.0 0.6508979849
Co  Co37  1  0.62291000  0.87709000  0.87709000  1.0 0.6508979849
Co  Co38  1  0.87709000  0.62291000  0.62291000  1.0 0.6508979849
Co  Co39  1  0.87709000  0.62291000  0.87709000  1.0 0.6508979849
Co  Co40  1  0.62291000  0.87709000  0.62291000  1.0 0.6508979849
Co  Co41  1  0.87709000  0.87709000  0.62291000  1.0 0.6508979849
Co  Co42  1  0.62291000  0.62291000  0.87709000  1.0 0.6508979849
Co  Co43  1  0.62709000  0.37291000  0.62709000  1.0 0.6508979849
Co  Co44  1  0.37291000  0.62709000  0.37291000  1.0 0.6508979849
Co  Co45  1  0.37291000  0.62709000  0.62709000  1.0 0.6508979849
Co  Co46  1  0.62709000  0.37291000  0.37291000  1.0 0.6508979849
Co  Co47  1  0.37291000  0.37291000  0.62709000  1.0 0.6508979849
Co  Co48  1  0.62709000  0.62709000  0.37291000  1.0 0.6508979849
H  H1  1  0.28910000  0.89550000  0.64970000  1.0 0.1066560701
H  H2  1  0.89550000  0.28910000  0.16570000  1.0 0.1066560701
H  H3  1  0.64970000  0.16570000  0.28910000  1.0 0.1066560701
H  H4  1  0.16570000  0.64970000  0.89550000  1.0 0.1066560701
H  H5  1  0.64970000  0.28910000  0.89550000  1.0 0.1066560701
H  H6  1  0.16570000  0.89550000  0.28910000  1.0 0.1066560701
H  H7  1  0.28910000  0.64970000  0.16570000  1.0 0.1066560701
H  H8  1  0.89550000  0.16570000  0.64970000  1.0 0.1066560701
H  H9  1  0.89550000  0.64970000  0.28910000  1.0 0.1066560701
H  H10  1  0.28910000  0.16570000  0.89550000  1.0 0.1066560701
H  H11  1  0.16570000  0.28910000  0.64970000  1.0 0.1066560701
H  H12  1  0.64970000  0.89550000  0.16570000  1.0 0.1066560701
H  H13  1  0.96090000  0.35450000  0.08430000  1.0 0.1066560701
H  H14  1  0.35450000  0.96090000  0.60030000  1.0 0.1066560701
H  H15  1  0.60030000  0.08430000  0.35450000  1.0 0.1066560701
H  H16  1  0.08430000  0.60030000  0.96090000  1.0 0.1066560701
H  H17  1  0.60030000  0.96090000  0.08430000  1.0 0.1066560701
H  H18  1  0.08430000  0.35450000  0.60030000  1.0 0.1066560701
H  H19  1  0.96090000  0.60030000  0.35450000  1.0 0.1066560701
H  H20  1  0.35450000  0.08430000  0.96090000  1.0 0.1066560701
H  H21  1  0.35450000  0.60030000  0.08430000  1.0 0.1066560701
H  H22  1  0.96090000  0.08430000  0.60030000  1.0 0.1066560701
H  H23  1  0.08430000  0.96090000  0.35450000  1.0 0.1066560701
H  H24  1  0.60030000  0.35450000  0.96090000  1.0 0.1066560701
H  H25  1  0.46090000  0.85450000  0.10030000  1.0 0.1066560701
H  H26  1  0.85450000  0.46090000  0.58430000  1.0 0.1066560701
H  H27  1  0.10030000  0.58430000  0.46090000  1.0 0.1066560701
H  H28  1  0.58430000  0.10030000  0.85450000  1.0 0.1066560701
H  H29  1  0.10030000  0.46090000  0.85450000  1.0 0.1066560701
H  H30  1  0.58430000  0.85450000  0.46090000  1.0 0.1066560701
H  H31  1  0.46090000  0.10030000  0.58430000  1.0 0.1066560701
H  H32  1  0.85450000  0.58430000  0.10030000  1.0 0.1066560701
H  H33  1  0.85450000  0.10030000  0.46090000  1.0 0.1066560701
H  H34  1  0.46090000  0.58430000  0.85450000  1.0 0.1066560701
H  H35  1  0.58430000  0.46090000  0.10030000  1.0 0.1066560701
H  H36  1  0.10030000  0.85450000  0.58430000  1.0 0.1066560701
H  H37  1  0.78910000  0.39550000  0.66570000  1.0 0.1066560701
H  H38  1  0.39550000  0.78910000  0.14970000  1.0 0.1066560701
H  H39  1  0.14970000  0.66570000  0.39550000  1.0 0.1066560701
H  H40  1  0.66570000  0.14970000  0.78910000  1.0 0.1066560701
H  H41  1  0.14970000  0.78910000  0.66570000  1.0 0.1066560701
H  H42  1  0.66570000  0.39550000  0.14970000  1.0 0.1066560701
H  H43  1  0.78910000  0.14970000  0.39550000  1.0 0.1066560701
H  H44  1  0.39550000  0.66570000  0.78910000  1.0 0.1066560701
H  H45  1  0.39550000  0.14970000  0.66570000  1.0 0.1066560701
H  H46  1  0.78910000  0.66570000  0.14970000  1.0 0.1066560701
H  H47  1  0.66570000  0.78910000  0.39550000  1.0 0.1066560701
H  H48  1  0.14970000  0.39550000  0.78910000  1.0 0.1066560701
H  H49  1  0.22980000  0.92620000  0.73860000  1.0 0.1216223958
H  H50  1  0.92620000  0.22980000  0.10540000  1.0 0.1216223958
H  H51  1  0.73860000  0.10540000  0.22980000  1.0 0.1216223958
H  H52  1  0.10540000  0.73860000  0.92620000  1.0 0.1216223958
H  H53  1  0.73860000  0.22980000  0.92620000  1.0 0.1216223958
H  H54  1  0.10540000  0.92620000  0.22980000  1.0 0.1216223958
H  H55  1  0.22980000  0.73860000  0.10540000  1.0 0.1216223958
H  H56  1  0.92620000  0.10540000  0.73860000  1.0 0.1216223958
H  H57  1  0.92620000  0.73860000  0.22980000  1.0 0.1216223958
H  H58  1  0.22980000  0.10540000  0.92620000  1.0 0.1216223958
H  H59  1  0.10540000  0.22980000  0.73860000  1.0 0.1216223958
H  H60  1  0.73860000  0.92620000  0.10540000  1.0 0.1216223958
H  H61  1  0.02020000  0.32380000  0.14460000  1.0 0.1216223958
H  H62  1  0.32380000  0.02020000  0.51140000  1.0 0.1216223958
H  H63  1  0.51140000  0.14460000  0.32380000  1.0 0.1216223958
H  H64  1  0.14460000  0.51140000  0.02020000  1.0 0.1216223958
H  H65  1  0.51140000  0.02020000  0.14460000  1.0 0.1216223958
H  H66  1  0.14460000  0.32380000  0.51140000  1.0 0.1216223958
H  H67  1  0.02020000  0.51140000  0.32380000  1.0 0.1216223958
H  H68  1  0.32380000  0.14460000  0.02020000  1.0 0.1216223958
H  H69  1  0.32380000  0.51140000  0.14460000  1.0 0.1216223958
H  H70  1  0.02020000  0.14460000  0.51140000  1.0 0.1216223958
H  H71  1  0.14460000  0.02020000  0.32380000  1.0 0.1216223958
H  H72  1  0.51140000  0.32380000  0.02020000  1.0 0.1216223958
H  H73  1  0.52020000  0.82380000  0.01140000  1.0 0.1216223958
H  H74  1  0.82380000  0.52020000  0.64460000  1.0 0.1216223958
H  H75  1  0.01140000  0.64460000  0.52020000  1.0 0.1216223958
H  H76  1  0.64460000  0.01140000  0.82380000  1.0 0.1216223958
H  H77  1  0.01140000  0.52020000  0.82380000  1.0 0.1216223958
H  H78  1  0.64460000  0.82380000  0.52020000  1.0 0.1216223958
H  H79  1  0.52020000  0.01140000  0.64460000  1.0 0.1216223958
H  H80  1  0.82380000  0.64460000  0.01140000  1.0 0.1216223958
H  H81  1  0.82380000  0.01140000  0.52020000  1.0 0.1216223958
H  H82  1  0.52020000  0.64460000  0.82380000  1.0 0.1216223958
H  H83  1  0.64460000  0.52020000  0.01140000  1.0 0.1216223958
H  H84  1  0.01140000  0.82380000  0.64460000  1.0 0.1216223958
H  H85  1  0.72980000  0.42620000  0.60540000  1.0 0.1216223958
H  H86  1  0.42620000  0.72980000  0.23860000  1.0 0.1216223958
H  H87  1  0.23860000  0.60540000  0.42620000  1.0 0.1216223958
H  H88  1  0.60540000  0.23860000  0.72980000  1.0 0.1216223958
H  H89  1  0.23860000  0.72980000  0.60540000  1.0 0.1216223958
H  H90  1  0.60540000  0.42620000  0.23860000  1.0 0.1216223958
H  H91  1  0.72980000  0.23860000  0.42620000  1.0 0.1216223958
H  H92  1  0.42620000  0.60540000  0.72980000  1.0 0.1216223958
H  H93  1  0.42620000  0.23860000  0.60540000  1.0 0.1216223958
H  H94  1  0.72980000  0.60540000  0.23860000  1.0 0.1216223958
H  H95  1  0.60540000  0.72980000  0.42620000  1.0 0.1216223958
H  H96  1  0.23860000  0.42620000  0.72980000  1.0 0.1216223958
H  H97  1  0.28210000  0.93150000  0.73270000  1.0 0.1390102082
H  H98  1  0.93150000  0.28210000  0.05370000  1.0 0.1390102082
H  H99  1  0.73270000  0.05370000  0.28210000  1.0 0.1390102082
H  H100  1  0.05370000  0.73270000  0.93150000  1.0 0.1390102082
H  H101  1  0.73270000  0.28210000  0.93150000  1.0 0.1390102082
H  H102  1  0.05370000  0.93150000  0.28210000  1.0 0.1390102082
H  H103  1  0.28210000  0.73270000  0.05370000  1.0 0.1390102082
H  H104  1  0.93150000  0.05370000  0.73270000  1.0 0.1390102082
H  H105  1  0.93150000  0.73270000  0.28210000  1.0 0.1390102082
H  H106  1  0.28210000  0.05370000  0.93150000  1.0 0.1390102082
H  H107  1  0.05370000  0.28210000  0.73270000  1.0 0.1390102082
H  H108  1  0.73270000  0.93150000  0.05370000  1.0 0.1390102082
H  H109  1  0.96790000  0.31850000  0.19630000  1.0 0.1390102082
H  H110  1  0.31850000  0.96790000  0.51730000  1.0 0.1390102082
H  H111  1  0.51730000  0.19630000  0.31850000  1.0 0.1390102082
H  H112  1  0.19630000  0.51730000  0.96790000  1.0 0.1390102082
H  H113  1  0.51730000  0.96790000  0.19630000  1.0 0.1390102082
H  H114  1  0.19630000  0.31850000  0.51730000  1.0 0.1390102082
H  H115  1  0.96790000  0.51730000  0.31850000  1.0 0.1390102082
H  H116  1  0.31850000  0.19630000  0.96790000  1.0 0.1390102082
H  H117  1  0.31850000  0.51730000  0.19630000  1.0 0.1390102082
H  H118  1  0.96790000  0.19630000  0.51730000  1.0 0.1390102082
H  H119  1  0.19630000  0.96790000  0.31850000  1.0 0.1390102082
H  H120  1  0.51730000  0.31850000  0.96790000  1.0 0.1390102082
H  H121  1  0.46790000  0.81850000  0.01730000  1.0 0.1390102082
H  H122  1  0.81850000  0.46790000  0.69630000  1.0 0.1390102082
H  H123  1  0.01730000  0.69630000  0.46790000  1.0 0.1390102082
H  H124  1  0.69630000  0.01730000  0.81850000  1.0 0.1390102082
H  H125  1  0.01730000  0.46790000  0.81850000  1.0 0.1390102082
H  H126  1  0.69630000  0.81850000  0.46790000  1.0 0.1390102082
H  H127  1  0.46790000  0.01730000  0.69630000  1.0 0.1390102082
H  H128  1  0.81850000  0.69630000  0.01730000  1.0 0.1390102082
H  H129  1  0.81850000  0.01730000  0.46790000  1.0 0.1390102082
H  H130  1  0.46790000  0.69630000  0.81850000  1.0 0.1390102082
H  H131  1  0.69630000  0.46790000  0.01730000  1.0 0.1390102082
H  H132  1  0.01730000  0.81850000  0.69630000  1.0 0.1390102082
H  H133  1  0.78210000  0.43150000  0.55370000  1.0 0.1390102082
H  H134  1  0.43150000  0.78210000  0.23270000  1.0 0.1390102082
H  H135  1  0.23270000  0.55370000  0.43150000  1.0 0.1390102082
H  H136  1  0.55370000  0.23270000  0.78210000  1.0 0.1390102082
H  H137  1  0.23270000  0.78210000  0.55370000  1.0 0.1390102082
H  H138  1  0.55370000  0.43150000  0.23270000  1.0 0.1390102082
H  H139  1  0.78210000  0.23270000  0.43150000  1.0 0.1390102082
H  H140  1  0.43150000  0.55370000  0.78210000  1.0 0.1390102082
H  H141  1  0.43150000  0.23270000  0.55370000  1.0 0.1390102082
H  H142  1  0.78210000  0.55370000  0.23270000  1.0 0.1390102082
H  H143  1  0.55370000  0.78210000  0.43150000  1.0 0.1390102082
H  H144  1  0.23270000  0.43150000  0.78210000  1.0 0.1390102082
H  H145  1  0.33590000  0.91430000  0.68930000  1.0 0.1023053257
H  H146  1  0.91430000  0.33590000  0.06050000  1.0 0.1023053257
H  H147  1  0.68930000  0.06050000  0.33590000  1.0 0.1023053257
H  H148  1  0.06050000  0.68930000  0.91430000  1.0 0.1023053257
H  H149  1  0.68930000  0.33590000  0.91430000  1.0 0.1023053257
H  H150  1  0.06050000  0.91430000  0.33590000  1.0 0.1023053257
H  H151  1  0.33590000  0.68930000  0.06050000  1.0 0.1023053257
H  H152  1  0.91430000  0.06050000  0.68930000  1.0 0.1023053257
H  H153  1  0.91430000  0.68930000  0.33590000  1.0 0.1023053257
H  H154  1  0.33590000  0.06050000  0.91430000  1.0 0.1023053257
H  H155  1  0.06050000  0.33590000  0.68930000  1.0 0.1023053257
H  H156  1  0.68930000  0.91430000  0.06050000  1.0 0.1023053257
H  H157  1  0.91410000  0.33570000  0.18950000  1.0 0.1023053257
H  H158  1  0.33570000  0.91410000  0.56070000  1.0 0.1023053257
H  H159  1  0.56070000  0.18950000  0.33570000  1.0 0.1023053257
H  H160  1  0.18950000  0.56070000  0.91410000  1.0 0.1023053257
H  H161  1  0.56070000  0.91410000  0.18950000  1.0 0.1023053257
H  H162  1  0.18950000  0.33570000  0.56070000  1.0 0.1023053257
H  H163  1  0.91410000  0.56070000  0.33570000  1.0 0.1023053257
H  H164  1  0.33570000  0.18950000  0.91410000  1.0 0.1023053257
H  H165  1  0.33570000  0.56070000  0.18950000  1.0 0.1023053257
H  H166  1  0.91410000  0.18950000  0.56070000  1.0 0.1023053257
H  H167  1  0.18950000  0.91410000  0.33570000  1.0 0.1023053257
H  H168  1  0.56070000  0.33570000  0.91410000  1.0 0.1023053257
H  H169  1  0.41410000  0.83570000  0.06070000  1.0 0.1023053257
H  H170  1  0.83570000  0.41410000  0.68950000  1.0 0.1023053257
H  H171  1  0.06070000  0.68950000  0.41410000  1.0 0.1023053257
H  H172  1  0.68950000  0.06070000  0.83570000  1.0 0.1023053257
H  H173  1  0.06070000  0.41410000  0.83570000  1.0 0.1023053257
H  H174  1  0.68950000  0.83570000  0.41410000  1.0 0.1023053257
H  H175  1  0.41410000  0.06070000  0.68950000  1.0 0.1023053257
H  H176  1  0.83570000  0.68950000  0.06070000  1.0 0.1023053257
H  H177  1  0.83570000  0.06070000  0.41410000  1.0 0.1023053257
H  H178  1  0.41410000  0.68950000  0.83570000  1.0 0.1023053257
H  H179  1  0.68950000  0.41410000  0.06070000  1.0 0.1023053257
H  H180  1  0.06070000  0.83570000  0.68950000  1.0 0.1023053257
H  H181  1  0.83590000  0.41430000  0.56050000  1.0 0.1023053257
H  H182  1  0.41430000  0.83590000  0.18930000  1.0 0.1023053257
H  H183  1  0.18930000  0.56050000  0.41430000  1.0 0.1023053257
H  H184  1  0.56050000  0.18930000  0.83590000  1.0 0.1023053257
H  H185  1  0.18930000  0.83590000  0.56050000  1.0 0.1023053257
H  H186  1  0.56050000  0.41430000  0.18930000  1.0 0.1023053257
H  H187  1  0.83590000  0.18930000  0.41430000  1.0 0.1023053257
H  H188  1  0.41430000  0.56050000  0.83590000  1.0 0.1023053257
H  H189  1  0.41430000  0.18930000  0.56050000  1.0 0.1023053257
H  H190  1  0.83590000  0.56050000  0.18930000  1.0 0.1023053257
H  H191  1  0.56050000  0.83590000  0.41430000  1.0 0.1023053257
H  H192  1  0.18930000  0.41430000  0.83590000  1.0 0.1023053257
H  H193  1  0.19470000  0.88950000  0.56170000  1.0 0.1023053257
H  H194  1  0.88950000  0.19470000  0.35410000  1.0 0.1023053257
H  H195  1  0.56170000  0.35410000  0.19470000  1.0 0.1023053257
H  H196  1  0.35410000  0.56170000  0.88950000  1.0 0.1023053257
H  H197  1  0.56170000  0.19470000  0.88950000  1.0 0.1023053257
H  H198  1  0.35410000  0.88950000  0.19470000  1.0 0.1023053257
H  H199  1  0.19470000  0.56170000  0.35410000  1.0 0.1023053257
H  H200  1  0.88950000  0.35410000  0.56170000  1.0 0.1023053257
H  H201  1  0.88950000  0.56170000  0.19470000  1.0 0.1023053257
H  H202  1  0.19470000  0.35410000  0.88950000  1.0 0.1023053257
H  H203  1  0.35410000  0.19470000  0.56170000  1.0 0.1023053257
H  H204  1  0.56170000  0.88950000  0.35410000  1.0 0.1023053257
H  H205  1  0.05530000  0.36050000  0.89590000  1.0 0.1023053257
H  H206  1  0.36050000  0.05530000  0.68830000  1.0 0.1023053257
H  H207  1  0.68830000  0.89590000  0.36050000  1.0 0.1023053257
H  H208  1  0.89590000  0.68830000  0.05530000  1.0 0.1023053257
H  H209  1  0.68830000  0.05530000  0.89590000  1.0 0.1023053257
H  H210  1  0.89590000  0.36050000  0.68830000  1.0 0.1023053257
H  H211  1  0.05530000  0.68830000  0.36050000  1.0 0.1023053257
H  H212  1  0.36050000  0.89590000  0.05530000  1.0 0.1023053257
H  H213  1  0.36050000  0.68830000  0.89590000  1.0 0.1023053257
H  H214  1  0.05530000  0.89590000  0.68830000  1.0 0.1023053257
H  H215  1  0.89590000  0.05530000  0.36050000  1.0 0.1023053257
H  H216  1  0.68830000  0.36050000  0.05530000  1.0 0.1023053257
H  H217  1  0.55530000  0.86050000  0.18830000  1.0 0.1023053257
H  H218  1  0.86050000  0.55530000  0.39590000  1.0 0.1023053257
H  H219  1  0.18830000  0.39590000  0.55530000  1.0 0.1023053257
H  H220  1  0.39590000  0.18830000  0.86050000  1.0 0.1023053257
H  H221  1  0.18830000  0.55530000  0.86050000  1.0 0.1023053257
H  H222  1  0.39590000  0.86050000  0.55530000  1.0 0.1023053257
H  H223  1  0.55530000  0.18830000  0.39590000  1.0 0.1023053257
H  H224  1  0.86050000  0.39590000  0.18830000  1.0 0.1023053257
H  H225  1  0.86050000  0.18830000  0.55530000  1.0 0.1023053257
H  H226  1  0.55530000  0.39590000  0.86050000  1.0 0.1023053257
H  H227  1  0.39590000  0.55530000  0.18830000  1.0 0.1023053257
H  H228  1  0.18830000  0.86050000  0.39590000  1.0 0.1023053257
H  H229  1  0.69470000  0.38950000  0.85410000  1.0 0.1023053257
H  H230  1  0.38950000  0.69470000  0.06170000  1.0 0.1023053257
H  H231  1  0.06170000  0.85410000  0.38950000  1.0 0.1023053257
H  H232  1  0.85410000  0.06170000  0.69470000  1.0 0.1023053257
H  H233  1  0.06170000  0.69470000  0.85410000  1.0 0.1023053257
H  H234  1  0.85410000  0.38950000  0.06170000  1.0 0.1023053257
H  H235  1  0.69470000  0.06170000  0.38950000  1.0 0.1023053257
H  H236  1  0.38950000  0.85410000  0.69470000  1.0 0.1023053257
H  H237  1  0.38950000  0.06170000  0.85410000  1.0 0.1023053257
H  H238  1  0.69470000  0.85410000  0.06170000  1.0 0.1023053257
H  H239  1  0.85410000  0.69470000  0.38950000  1.0 0.1023053257
H  H240  1  0.06170000  0.38950000  0.69470000  1.0 0.1023053257
H  H241  1  0.24170000  0.90390000  0.55230000  1.0 0.1390102082
H  H242  1  0.90390000  0.24170000  0.30210000  1.0 0.1390102082
H  H243  1  0.55230000  0.30210000  0.24170000  1.0 0.1390102082
H  H244  1  0.30210000  0.55230000  0.90390000  1.0 0.1390102082
H  H245  1  0.55230000  0.24170000  0.90390000  1.0 0.1390102082
H  H246  1  0.30210000  0.90390000  0.24170000  1.0 0.1390102082
H  H247  1  0.24170000  0.55230000  0.30210000  1.0 0.1390102082
H  H248  1  0.90390000  0.30210000  0.55230000  1.0 0.1390102082
H  H249  1  0.90390000  0.55230000  0.24170000  1.0 0.1390102082
H  H250  1  0.24170000  0.30210000  0.90390000  1.0 0.1390102082
H  H251  1  0.30210000  0.24170000  0.55230000  1.0 0.1390102082
H  H252  1  0.55230000  0.90390000  0.30210000  1.0 0.1390102082
H  H253  1  0.00830000  0.34610000  0.94790000  1.0 0.1390102082
H  H254  1  0.34610000  0.00830000  0.69770000  1.0 0.1390102082
H  H255  1  0.69770000  0.94790000  0.34610000  1.0 0.1390102082
H  H256  1  0.94790000  0.69770000  0.00830000  1.0 0.1390102082
H  H257  1  0.69770000  0.00830000  0.94790000  1.0 0.1390102082
H  H258  1  0.94790000  0.34610000  0.69770000  1.0 0.1390102082
H  H259  1  0.00830000  0.69770000  0.34610000  1.0 0.1390102082
H  H260  1  0.34610000  0.94790000  0.00830000  1.0 0.1390102082
H  H261  1  0.34610000  0.69770000  0.94790000  1.0 0.1390102082
H  H262  1  0.00830000  0.94790000  0.69770000  1.0 0.1390102082
H  H263  1  0.94790000  0.00830000  0.34610000  1.0 0.1390102082
H  H264  1  0.69770000  0.34610000  0.00830000  1.0 0.1390102082
H  H265  1  0.50830000  0.84610000  0.19770000  1.0 0.1390102082
H  H266  1  0.84610000  0.50830000  0.44790000  1.0 0.1390102082
H  H267  1  0.19770000  0.44790000  0.50830000  1.0 0.1390102082
H  H268  1  0.44790000  0.19770000  0.84610000  1.0 0.1390102082
H  H269  1  0.19770000  0.50830000  0.84610000  1.0 0.1390102082
H  H270  1  0.44790000  0.84610000  0.50830000  1.0 0.1390102082
H  H271  1  0.50830000  0.19770000  0.44790000  1.0 0.1390102082
H  H272  1  0.84610000  0.44790000  0.19770000  1.0 0.1390102082
H  H273  1  0.84610000  0.19770000  0.50830000  1.0 0.1390102082
H  H274  1  0.50830000  0.44790000  0.84610000  1.0 0.1390102082
H  H275  1  0.44790000  0.50830000  0.19770000  1.0 0.1390102082
H  H276  1  0.19770000  0.84610000  0.44790000  1.0 0.1390102082
H  H277  1  0.74170000  0.40390000  0.80210000  1.0 0.1390102082
H  H278  1  0.40390000  0.74170000  0.05230000  1.0 0.1390102082
H  H279  1  0.05230000  0.80210000  0.40390000  1.0 0.1390102082
H  H280  1  0.80210000  0.05230000  0.74170000  1.0 0.1390102082
H  H281  1  0.05230000  0.74170000  0.80210000  1.0 0.1390102082
H  H282  1  0.80210000  0.40390000  0.05230000  1.0 0.1390102082
H  H283  1  0.74170000  0.05230000  0.40390000  1.0 0.1390102082
H  H284  1  0.40390000  0.80210000  0.74170000  1.0 0.1390102082
H  H285  1  0.40390000  0.05230000  0.80210000  1.0 0.1390102082
H  H286  1  0.74170000  0.80210000  0.05230000  1.0 0.1390102082
H  H287  1  0.80210000  0.74170000  0.40390000  1.0 0.1390102082
H  H288  1  0.05230000  0.40390000  0.74170000  1.0 0.1390102082
H  H289  1  0.24600000  0.90540000  0.60140000  1.0 0.1216223958
H  H290  1  0.90540000  0.24600000  0.24720000  1.0 0.1216223958
H  H291  1  0.60140000  0.24720000  0.24600000  1.0 0.1216223958
H  H292  1  0.24720000  0.60140000  0.90540000  1.0 0.1216223958
H  H293  1  0.60140000  0.24600000  0.90540000  1.0 0.1216223958
H  H294  1  0.24720000  0.90540000  0.24600000  1.0 0.1216223958
H  H295  1  0.24600000  0.60140000  0.24720000  1.0 0.1216223958
H  H296  1  0.90540000  0.24720000  0.60140000  1.0 0.1216223958
H  H297  1  0.90540000  0.60140000  0.24600000  1.0 0.1216223958
H  H298  1  0.24600000  0.24720000  0.90540000  1.0 0.1216223958
H  H299  1  0.24720000  0.24600000  0.60140000  1.0 0.1216223958
H  H300  1  0.60140000  0.90540000  0.24720000  1.0 0.1216223958
H  H301  1  0.00400000  0.34460000  0.00280000  1.0 0.1216223958
H  H302  1  0.34460000  0.00400000  0.64860000  1.0 0.1216223958
H  H303  1  0.64860000  0.00280000  0.34460000  1.0 0.1216223958
H  H304  1  0.00280000  0.64860000  0.00400000  1.0 0.1216223958
H  H305  1  0.64860000  0.00400000  0.00280000  1.0 0.1216223958
H  H306  1  0.00280000  0.34460000  0.64860000  1.0 0.1216223958
H  H307  1  0.00400000  0.64860000  0.34460000  1.0 0.1216223958
H  H308  1  0.34460000  0.00280000  0.00400000  1.0 0.1216223958
H  H309  1  0.34460000  0.64860000  0.00280000  1.0 0.1216223958
H  H310  1  0.00400000  0.00280000  0.64860000  1.0 0.1216223958
H  H311  1  0.00280000  0.00400000  0.34460000  1.0 0.1216223958
H  H312  1  0.64860000  0.34460000  0.00400000  1.0 0.1216223958
H  H313  1  0.50400000  0.84460000  0.14860000  1.0 0.1216223958
H  H314  1  0.84460000  0.50400000  0.50280000  1.0 0.1216223958
H  H315  1  0.14860000  0.50280000  0.50400000  1.0 0.1216223958
H  H316  1  0.50280000  0.14860000  0.84460000  1.0 0.1216223958
H  H317  1  0.14860000  0.50400000  0.84460000  1.0 0.1216223958
H  H318  1  0.50280000  0.84460000  0.50400000  1.0 0.1216223958
H  H319  1  0.50400000  0.14860000  0.50280000  1.0 0.1216223958
H  H320  1  0.84460000  0.50280000  0.14860000  1.0 0.1216223958
H  H321  1  0.84460000  0.14860000  0.50400000  1.0 0.1216223958
H  H322  1  0.50400000  0.50280000  0.84460000  1.0 0.1216223958
H  H323  1  0.50280000  0.50400000  0.14860000  1.0 0.1216223958
H  H324  1  0.14860000  0.84460000  0.50280000  1.0 0.1216223958
H  H325  1  0.74600000  0.40540000  0.74720000  1.0 0.1216223958
H  H326  1  0.40540000  0.74600000  0.10140000  1.0 0.1216223958
H  H327  1  0.10140000  0.74720000  0.40540000  1.0 0.1216223958
H  H328  1  0.74720000  0.10140000  0.74600000  1.0 0.1216223958
H  H329  1  0.10140000  0.74600000  0.74720000  1.0 0.1216223958
H  H330  1  0.74720000  0.40540000  0.10140000  1.0 0.1216223958
H  H331  1  0.74600000  0.10140000  0.40540000  1.0 0.1216223958
H  H332  1  0.40540000  0.74720000  0.74600000  1.0 0.1216223958
H  H333  1  0.40540000  0.10140000  0.74720000  1.0 0.1216223958
H  H334  1  0.74600000  0.74720000  0.10140000  1.0 0.1216223958
H  H335  1  0.74720000  0.74600000  0.40540000  1.0 0.1216223958
H  H336  1  0.10140000  0.40540000  0.74600000  1.0 0.1216223958
H  H337  1  0.15030000  0.88730000  0.66310000  1.0 0.1066560701
H  H338  1  0.88730000  0.15030000  0.29930000  1.0 0.1066560701
H  H339  1  0.66310000  0.29930000  0.15030000  1.0 0.1066560701
H  H340  1  0.29930000  0.66310000  0.88730000  1.0 0.1066560701
H  H341  1  0.66310000  0.15030000  0.88730000  1.0 0.1066560701
H  H342  1  0.29930000  0.88730000  0.15030000  1.0 0.1066560701
H  H343  1  0.15030000  0.66310000  0.29930000  1.0 0.1066560701
H  H344  1  0.88730000  0.29930000  0.66310000  1.0 0.1066560701
H  H345  1  0.88730000  0.66310000  0.15030000  1.0 0.1066560701
H  H346  1  0.15030000  0.29930000  0.88730000  1.0 0.1066560701
H  H347  1  0.29930000  0.15030000  0.66310000  1.0 0.1066560701
H  H348  1  0.66310000  0.88730000  0.29930000  1.0 0.1066560701
H  H349  1  0.09970000  0.36270000  0.95070000  1.0 0.1066560701
H  H350  1  0.36270000  0.09970000  0.58690000  1.0 0.1066560701
H  H351  1  0.58690000  0.95070000  0.36270000  1.0 0.1066560701
H  H352  1  0.95070000  0.58690000  0.09970000  1.0 0.1066560701
H  H353  1  0.58690000  0.09970000  0.95070000  1.0 0.1066560701
H  H354  1  0.95070000  0.36270000  0.58690000  1.0 0.1066560701
H  H355  1  0.09970000  0.58690000  0.36270000  1.0 0.1066560701
H  H356  1  0.36270000  0.95070000  0.09970000  1.0 0.1066560701
H  H357  1  0.36270000  0.58690000  0.95070000  1.0 0.1066560701
H  H358  1  0.09970000  0.95070000  0.58690000  1.0 0.1066560701
H  H359  1  0.95070000  0.09970000  0.36270000  1.0 0.1066560701
H  H360  1  0.58690000  0.36270000  0.09970000  1.0 0.1066560701
H  H361  1  0.59970000  0.86270000  0.08690000  1.0 0.1066560701
H  H362  1  0.86270000  0.59970000  0.45070000  1.0 0.1066560701
H  H363  1  0.08690000  0.45070000  0.59970000  1.0 0.1066560701
H  H364  1  0.45070000  0.08690000  0.86270000  1.0 0.1066560701
H  H365  1  0.08690000  0.59970000  0.86270000  1.0 0.1066560701
H  H366  1  0.45070000  0.86270000  0.59970000  1.0 0.1066560701
H  H367  1  0.59970000  0.08690000  0.45070000  1.0 0.1066560701
H  H368  1  0.86270000  0.45070000  0.08690000  1.0 0.1066560701
H  H369  1  0.86270000  0.08690000  0.59970000  1.0 0.1066560701
H  H370  1  0.59970000  0.45070000  0.86270000  1.0 0.1066560701
H  H371  1  0.45070000  0.59970000  0.08690000  1.0 0.1066560701
H  H372  1  0.08690000  0.86270000  0.45070000  1.0 0.1066560701
H  H373  1  0.65030000  0.38730000  0.79930000  1.0 0.1066560701
H  H374  1  0.38730000  0.65030000  0.16310000  1.0 0.1066560701
H  H375  1  0.16310000  0.79930000  0.38730000  1.0 0.1066560701
H  H376  1  0.79930000  0.16310000  0.65030000  1.0 0.1066560701
H  H377  1  0.16310000  0.65030000  0.79930000  1.0 0.1066560701
H  H378  1  0.79930000  0.38730000  0.16310000  1.0 0.1066560701
H  H379  1  0.65030000  0.16310000  0.38730000  1.0 0.1066560701
H  H380  1  0.38730000  0.79930000  0.65030000  1.0 0.1066560701
H  H381  1  0.38730000  0.16310000  0.79930000  1.0 0.1066560701
H  H382  1  0.65030000  0.79930000  0.16310000  1.0 0.1066560701
H  H383  1  0.79930000  0.65030000  0.38730000  1.0 0.1066560701
H  H384  1  0.16310000  0.38730000  0.65030000  1.0 0.1066560701
H  H385  1  0.16610000  0.88510000  0.79230000  1.0 0.1023053257
H  H386  1  0.88510000  0.16610000  0.15650000  1.0 0.1023053257
H  H387  1  0.79230000  0.15650000  0.16610000  1.0 0.1023053257
H  H388  1  0.15650000  0.79230000  0.88510000  1.0 0.1023053257
H  H389  1  0.79230000  0.16610000  0.88510000  1.0 0.1023053257
H  H390  1  0.15650000  0.88510000  0.16610000  1.0 0.1023053257
H  H391  1  0.16610000  0.79230000  0.15650000  1.0 0.1023053257
H  H392  1  0.88510000  0.15650000  0.79230000  1.0 0.1023053257
H  H393  1  0.88510000  0.79230000  0.16610000  1.0 0.1023053257
H  H394  1  0.16610000  0.15650000  0.88510000  1.0 0.1023053257
H  H395  1  0.15650000  0.16610000  0.79230000  1.0 0.1023053257
H  H396  1  0.79230000  0.88510000  0.15650000  1.0 0.1023053257
H  H397  1  0.08390000  0.36490000  0.09350000  1.0 0.1023053257
H  H398  1  0.36490000  0.08390000  0.45770000  1.0 0.1023053257
H  H399  1  0.45770000  0.09350000  0.36490000  1.0 0.1023053257
H  H400  1  0.09350000  0.45770000  0.08390000  1.0 0.1023053257
H  H401  1  0.45770000  0.08390000  0.09350000  1.0 0.1023053257
H  H402  1  0.09350000  0.36490000  0.45770000  1.0 0.1023053257
H  H403  1  0.08390000  0.45770000  0.36490000  1.0 0.1023053257
H  H404  1  0.36490000  0.09350000  0.08390000  1.0 0.1023053257
H  H405  1  0.36490000  0.45770000  0.09350000  1.0 0.1023053257
H  H406  1  0.08390000  0.09350000  0.45770000  1.0 0.1023053257
H  H407  1  0.09350000  0.08390000  0.36490000  1.0 0.1023053257
H  H408  1  0.45770000  0.36490000  0.08390000  1.0 0.1023053257
H  H409  1  0.58390000  0.86490000  0.95770000  1.0 0.1023053257
H  H410  1  0.86490000  0.58390000  0.59350000  1.0 0.1023053257
H  H411  1  0.95770000  0.59350000  0.58390000  1.0 0.1023053257
H  H412  1  0.59350000  0.95770000  0.86490000  1.0 0.1023053257
H  H413  1  0.95770000  0.58390000  0.86490000  1.0 0.1023053257
H  H414  1  0.59350000  0.86490000  0.58390000  1.0 0.1023053257
H  H415  1  0.58390000  0.95770000  0.59350000  1.0 0.1023053257
H  H416  1  0.86490000  0.59350000  0.95770000  1.0 0.1023053257
H  H417  1  0.86490000  0.95770000  0.58390000  1.0 0.1023053257
H  H418  1  0.58390000  0.59350000  0.86490000  1.0 0.1023053257
H  H419  1  0.59350000  0.58390000  0.95770000  1.0 0.1023053257
H  H420  1  0.95770000  0.86490000  0.59350000  1.0 0.1023053257
H  H421  1  0.66610000  0.38510000  0.65650000  1.0 0.1023053257
H  H422  1  0.38510000  0.66610000  0.29230000  1.0 0.1023053257
H  H423  1  0.29230000  0.65650000  0.38510000  1.0 0.1023053257
H  H424  1  0.65650000  0.29230000  0.66610000  1.0 0.1023053257
H  H425  1  0.29230000  0.66610000  0.65650000  1.0 0.1023053257
H  H426  1  0.65650000  0.38510000  0.29230000  1.0 0.1023053257
H  H427  1  0.66610000  0.29230000  0.38510000  1.0 0.1023053257
H  H428  1  0.38510000  0.65650000  0.66610000  1.0 0.1023053257
H  H429  1  0.38510000  0.29230000  0.65650000  1.0 0.1023053257
H  H430  1  0.66610000  0.65650000  0.29230000  1.0 0.1023053257
H  H431  1  0.65650000  0.66610000  0.38510000  1.0 0.1023053257
H  H432  1  0.29230000  0.38510000  0.66610000  1.0 0.1023053257
H  H433  1  0.11490000  0.87450000  0.74750000  1.0 0.1216223958
H  H434  1  0.87450000  0.11490000  0.26310000  1.0 0.1216223958
H  H435  1  0.74750000  0.26310000  0.11490000  1.0 0.1216223958
H  H436  1  0.26310000  0.74750000  0.87450000  1.0 0.1216223958
H  H437  1  0.74750000  0.11490000  0.87450000  1.0 0.1216223958
H  H438  1  0.26310000  0.87450000  0.11490000  1.0 0.1216223958
H  H439  1  0.11490000  0.74750000  0.26310000  1.0 0.1216223958
H  H440  1  0.87450000  0.26310000  0.74750000  1.0 0.1216223958
H  H441  1  0.87450000  0.74750000  0.11490000  1.0 0.1216223958
H  H442  1  0.11490000  0.26310000  0.87450000  1.0 0.1216223958
H  H443  1  0.26310000  0.11490000  0.74750000  1.0 0.1216223958
H  H444  1  0.74750000  0.87450000  0.26310000  1.0 0.1216223958
H  H445  1  0.13510000  0.37550000  0.98690000  1.0 0.1216223958
H  H446  1  0.37550000  0.13510000  0.50250000  1.0 0.1216223958
H  H447  1  0.50250000  0.98690000  0.37550000  1.0 0.1216223958
H  H448  1  0.98690000  0.50250000  0.13510000  1.0 0.1216223958
H  H449  1  0.50250000  0.13510000  0.98690000  1.0 0.1216223958
H  H450  1  0.98690000  0.37550000  0.50250000  1.0 0.1216223958
H  H451  1  0.13510000  0.50250000  0.37550000  1.0 0.1216223958
H  H452  1  0.37550000  0.98690000  0.13510000  1.0 0.1216223958
H  H453  1  0.37550000  0.50250000  0.98690000  1.0 0.1216223958
H  H454  1  0.13510000  0.98690000  0.50250000  1.0 0.1216223958
H  H455  1  0.98690000  0.13510000  0.37550000  1.0 0.1216223958
H  H456  1  0.50250000  0.37550000  0.13510000  1.0 0.1216223958
H  H457  1  0.63510000  0.87550000  0.00250000  1.0 0.1216223958
H  H458  1  0.87550000  0.63510000  0.48690000  1.0 0.1216223958
H  H459  1  0.00250000  0.48690000  0.63510000  1.0 0.1216223958
H  H460  1  0.48690000  0.00250000  0.87550000  1.0 0.1216223958
H  H461  1  0.00250000  0.63510000  0.87550000  1.0 0.1216223958
H  H462  1  0.48690000  0.87550000  0.63510000  1.0 0.1216223958
H  H463  1  0.63510000  0.00250000  0.48690000  1.0 0.1216223958
H  H464  1  0.87550000  0.48690000  0.00250000  1.0 0.1216223958
H  H465  1  0.87550000  0.00250000  0.63510000  1.0 0.1216223958
H  H466  1  0.63510000  0.48690000  0.87550000  1.0 0.1216223958
H  H467  1  0.48690000  0.63510000  0.00250000  1.0 0.1216223958
H  H468  1  0.00250000  0.87550000  0.48690000  1.0 0.1216223958
H  H469  1  0.61490000  0.37450000  0.76310000  1.0 0.1216223958
H  H470  1  0.37450000  0.61490000  0.24750000  1.0 0.1216223958
H  H471  1  0.24750000  0.76310000  0.37450000  1.0 0.1216223958
H  H472  1  0.76310000  0.24750000  0.61490000  1.0 0.1216223958
H  H473  1  0.24750000  0.61490000  0.76310000  1.0 0.1216223958
H  H474  1  0.76310000  0.37450000  0.24750000  1.0 0.1216223958
H  H475  1  0.61490000  0.24750000  0.37450000  1.0 0.1216223958
H  H476  1  0.37450000  0.76310000  0.61490000  1.0 0.1216223958
H  H477  1  0.37450000  0.24750000  0.76310000  1.0 0.1216223958
H  H478  1  0.61490000  0.76310000  0.24750000  1.0 0.1216223958
H  H479  1  0.76310000  0.61490000  0.37450000  1.0 0.1216223958
H  H480  1  0.24750000  0.37450000  0.61490000  1.0 0.1216223958
H  H481  1  0.07150000  0.86110000  0.80570000  1.0 0.1390102082
H  H482  1  0.86110000  0.07150000  0.26170000  1.0 0.1390102082
H  H483  1  0.80570000  0.26170000  0.07150000  1.0 0.1390102082
H  H484  1  0.26170000  0.80570000  0.86110000  1.0 0.1390102082
H  H485  1  0.80570000  0.07150000  0.86110000  1.0 0.1390102082
H  H486  1  0.26170000  0.86110000  0.07150000  1.0 0.1390102082
H  H487  1  0.07150000  0.80570000  0.26170000  1.0 0.1390102082
H  H488  1  0.86110000  0.26170000  0.80570000  1.0 0.1390102082
H  H489  1  0.86110000  0.80570000  0.07150000  1.0 0.1390102082
H  H490  1  0.07150000  0.26170000  0.86110000  1.0 0.1390102082
H  H491  1  0.26170000  0.07150000  0.80570000  1.0 0.1390102082
H  H492  1  0.80570000  0.86110000  0.26170000  1.0 0.1390102082
H  H493  1  0.17850000  0.38890000  0.98830000  1.0 0.1390102082
H  H494  1  0.38890000  0.17850000  0.44430000  1.0 0.1390102082
H  H495  1  0.44430000  0.98830000  0.38890000  1.0 0.1390102082
H  H496  1  0.98830000  0.44430000  0.17850000  1.0 0.1390102082
H  H497  1  0.44430000  0.17850000  0.98830000  1.0 0.1390102082
H  H498  1  0.98830000  0.38890000  0.44430000  1.0 0.1390102082
H  H499  1  0.17850000  0.44430000  0.38890000  1.0 0.1390102082
H  H500  1  0.38890000  0.98830000  0.17850000  1.0 0.1390102082
H  H501  1  0.38890000  0.44430000  0.98830000  1.0 0.1390102082
H  H502  1  0.17850000  0.98830000  0.44430000  1.0 0.1390102082
H  H503  1  0.98830000  0.17850000  0.38890000  1.0 0.1390102082
H  H504  1  0.44430000  0.38890000  0.17850000  1.0 0.1390102082
H  H505  1  0.67850000  0.88890000  0.94430000  1.0 0.1390102082
H  H506  1  0.88890000  0.67850000  0.48830000  1.0 0.1390102082
H  H507  1  0.94430000  0.48830000  0.67850000  1.0 0.1390102082
H  H508  1  0.48830000  0.94430000  0.88890000  1.0 0.1390102082
H  H509  1  0.94430000  0.67850000  0.88890000  1.0 0.1390102082
H  H510  1  0.48830000  0.88890000  0.67850000  1.0 0.1390102082
H  H511  1  0.67850000  0.94430000  0.48830000  1.0 0.1390102082
H  H512  1  0.88890000  0.48830000  0.94430000  1.0 0.1390102082
H  H513  1  0.88890000  0.94430000  0.67850000  1.0 0.1390102082
H  H514  1  0.67850000  0.48830000  0.88890000  1.0 0.1390102082
H  H515  1  0.48830000  0.67850000  0.94430000  1.0 0.1390102082
H  H516  1  0.94430000  0.88890000  0.48830000  1.0 0.1390102082
H  H517  1  0.57150000  0.36110000  0.76170000  1.0 0.1390102082
H  H518  1  0.36110000  0.57150000  0.30570000  1.0 0.1390102082
H  H519  1  0.30570000  0.76170000  0.36110000  1.0 0.1390102082
H  H520  1  0.76170000  0.30570000  0.57150000  1.0 0.1390102082
H  H521  1  0.30570000  0.57150000  0.76170000  1.0 0.1390102082
H  H522  1  0.76170000  0.36110000  0.30570000  1.0 0.1390102082
H  H523  1  0.57150000  0.30570000  0.36110000  1.0 0.1390102082
H  H524  1  0.36110000  0.76170000  0.57150000  1.0 0.1390102082
H  H525  1  0.36110000  0.30570000  0.76170000  1.0 0.1390102082
H  H526  1  0.57150000  0.76170000  0.30570000  1.0 0.1390102082
H  H527  1  0.76170000  0.57150000  0.36110000  1.0 0.1390102082
H  H528  1  0.30570000  0.36110000  0.57150000  1.0 0.1390102082
H  H529  1  0.07860000  0.85760000  0.85460000  1.0 0.1023053257
H  H530  1  0.85760000  0.07860000  0.20920000  1.0 0.1023053257
H  H531  1  0.85460000  0.20920000  0.07860000  1.0 0.1023053257
H  H532  1  0.20920000  0.85460000  0.85760000  1.0 0.1023053257
H  H533  1  0.85460000  0.07860000  0.85760000  1.0 0.1023053257
H  H534  1  0.20920000  0.85760000  0.07860000  1.0 0.1023053257
H  H535  1  0.07860000  0.85460000  0.20920000  1.0 0.1023053257
H  H536  1  0.85760000  0.20920000  0.85460000  1.0 0.1023053257
H  H537  1  0.85760000  0.85460000  0.07860000  1.0 0.1023053257
H  H538  1  0.07860000  0.20920000  0.85760000  1.0 0.1023053257
H  H539  1  0.20920000  0.07860000  0.85460000  1.0 0.1023053257
H  H540  1  0.85460000  0.85760000  0.20920000  1.0 0.1023053257
H  H541  1  0.17140000  0.39240000  0.04080000  1.0 0.1023053257
H  H542  1  0.39240000  0.17140000  0.39540000  1.0 0.1023053257
H  H543  1  0.39540000  0.04080000  0.39240000  1.0 0.1023053257
H  H544  1  0.04080000  0.39540000  0.17140000  1.0 0.1023053257
H  H545  1  0.39540000  0.17140000  0.04080000  1.0 0.1023053257
H  H546  1  0.04080000  0.39240000  0.39540000  1.0 0.1023053257
H  H547  1  0.17140000  0.39540000  0.39240000  1.0 0.1023053257
H  H548  1  0.39240000  0.04080000  0.17140000  1.0 0.1023053257
H  H549  1  0.39240000  0.39540000  0.04080000  1.0 0.1023053257
H  H550  1  0.17140000  0.04080000  0.39540000  1.0 0.1023053257
H  H551  1  0.04080000  0.17140000  0.39240000  1.0 0.1023053257
H  H552  1  0.39540000  0.39240000  0.17140000  1.0 0.1023053257
H  H553  1  0.67140000  0.89240000  0.89540000  1.0 0.1023053257
H  H554  1  0.89240000  0.67140000  0.54080000  1.0 0.1023053257
H  H555  1  0.89540000  0.54080000  0.67140000  1.0 0.1023053257
H  H556  1  0.54080000  0.89540000  0.89240000  1.0 0.1023053257
H  H557  1  0.89540000  0.67140000  0.89240000  1.0 0.1023053257
H  H558  1  0.54080000  0.89240000  0.67140000  1.0 0.1023053257
H  H559  1  0.67140000  0.89540000  0.54080000  1.0 0.1023053257
H  H560  1  0.89240000  0.54080000  0.89540000  1.0 0.1023053257
H  H561  1  0.89240000  0.89540000  0.67140000  1.0 0.1023053257
H  H562  1  0.67140000  0.54080000  0.89240000  1.0 0.1023053257
H  H563  1  0.54080000  0.67140000  0.89540000  1.0 0.1023053257
H  H564  1  0.89540000  0.89240000  0.54080000  1.0 0.1023053257
H  H565  1  0.57860000  0.35760000  0.70920000  1.0 0.1023053257
H  H566  1  0.35760000  0.57860000  0.35460000  1.0 0.1023053257
H  H567  1  0.35460000  0.70920000  0.35760000  1.0 0.1023053257
H  H568  1  0.70920000  0.35460000  0.57860000  1.0 0.1023053257
H  H569  1  0.35460000  0.57860000  0.70920000  1.0 0.1023053257
H  H570  1  0.70920000  0.35760000  0.35460000  1.0 0.1023053257
H  H571  1  0.57860000  0.35460000  0.35760000  1.0 0.1023053257
H  H572  1  0.35760000  0.70920000  0.57860000  1.0 0.1023053257
H  H573  1  0.35760000  0.35460000  0.70920000  1.0 0.1023053257
H  H574  1  0.57860000  0.70920000  0.35460000  1.0 0.1023053257
H  H575  1  0.70920000  0.57860000  0.35760000  1.0 0.1023053257
H  H576  1  0.35460000  0.35760000  0.57860000  1.0 0.1023053257
H  H577  1  0.10100000  0.94680000  0.81720000  1.0 0.1066560701
H  H578  1  0.94680000  0.10100000  0.13500000  1.0 0.1066560701
H  H579  1  0.81720000  0.13500000  0.10100000  1.0 0.1066560701
H  H580  1  0.13500000  0.81720000  0.94680000  1.0 0.1066560701
H  H581  1  0.81720000  0.10100000  0.94680000  1.0 0.1066560701
H  H582  1  0.13500000  0.94680000  0.10100000  1.0 0.1066560701
H  H583  1  0.10100000  0.81720000  0.13500000  1.0 0.1066560701
H  H584  1  0.94680000  0.13500000  0.81720000  1.0 0.1066560701
H  H585  1  0.94680000  0.81720000  0.10100000  1.0 0.1066560701
H  H586  1  0.10100000  0.13500000  0.94680000  1.0 0.1066560701
H  H587  1  0.13500000  0.10100000  0.81720000  1.0 0.1066560701
H  H588  1  0.81720000  0.94680000  0.13500000  1.0 0.1066560701
H  H589  1  0.14900000  0.30320000  0.11500000  1.0 0.1066560701
H  H590  1  0.30320000  0.14900000  0.43280000  1.0 0.1023053257
H  H591  1  0.43280000  0.11500000  0.30320000  1.0 0.1066560701
H  H592  1  0.11500000  0.43280000  0.14900000  1.0 0.1066560701
H  H593  1  0.43280000  0.14900000  0.11500000  1.0 0.1066560701
H  H594  1  0.11500000  0.30320000  0.43280000  1.0 0.1066560701
H  H595  1  0.14900000  0.43280000  0.30320000  1.0 0.1066560701
H  H596  1  0.30320000  0.11500000  0.14900000  1.0 0.1066560701
H  H597  1  0.30320000  0.43280000  0.11500000  1.0 0.1066560701
H  H598  1  0.14900000  0.11500000  0.43280000  1.0 0.1066560701
H  H599  1  0.11500000  0.14900000  0.30320000  1.0 0.1023053257
H  H600  1  0.43280000  0.30320000  0.14900000  1.0 0.1066560701
H  H601  1  0.64900000  0.80320000  0.93280000  1.0 0.1066560701
H  H602  1  0.80320000  0.64900000  0.61500000  1.0 0.1066560701
H  H603  1  0.93280000  0.61500000  0.64900000  1.0 0.1066560701
H  H604  1  0.61500000  0.93280000  0.80320000  1.0 0.1066560701
H  H605  1  0.93280000  0.64900000  0.80320000  1.0 0.1066560701
H  H606  1  0.61500000  0.80320000  0.64900000  1.0 0.1066560701
H  H607  1  0.64900000  0.93280000  0.61500000  1.0 0.1066560701
H  H608  1  0.80320000  0.61500000  0.93280000  1.0 0.1066560701
H  H609  1  0.80320000  0.93280000  0.64900000  1.0 0.1066560701
H  H610  1  0.64900000  0.61500000  0.80320000  1.0 0.1066560701
H  H611  1  0.61500000  0.64900000  0.93280000  1.0 0.1066560701
H  H612  1  0.93280000  0.80320000  0.61500000  1.0 0.1066560701
H  H613  1  0.60100000  0.44680000  0.63500000  1.0 0.1066560701
H  H614  1  0.44680000  0.60100000  0.31720000  1.0 0.1066560701
H  H615  1  0.31720000  0.63500000  0.44680000  1.0 0.1066560701
H  H616  1  0.63500000  0.31720000  0.60100000  1.0 0.1066560701
H  H617  1  0.31720000  0.60100000  0.63500000  1.0 0.1066560701
H  H618  1  0.63500000  0.44680000  0.31720000  1.0 0.1066560701
H  H619  1  0.60100000  0.31720000  0.44680000  1.0 0.1066560701
H  H620  1  0.44680000  0.63500000  0.60100000  1.0 0.1066560701
H  H621  1  0.44680000  0.31720000  0.63500000  1.0 0.1066560701
H  H622  1  0.60100000  0.63500000  0.31720000  1.0 0.1066560701
H  H623  1  0.63500000  0.60100000  0.44680000  1.0 0.1066560701
H  H624  1  0.31720000  0.44680000  0.60100000  1.0 0.1066560701
H  H625  1  0.05070000  0.99550000  0.80830000  1.0 0.1390102082
H  H626  1  0.99550000  0.05070000  0.14550000  1.0 0.1390102082
H  H627  1  0.80830000  0.14550000  0.05070000  1.0 0.1390102082
H  H628  1  0.14550000  0.80830000  0.99550000  1.0 0.1390102082
H  H629  1  0.80830000  0.05070000  0.99550000  1.0 0.1390102082
H  H630  1  0.14550000  0.99550000  0.05070000  1.0 0.1390102082
H  H631  1  0.05070000  0.80830000  0.14550000  1.0 0.1390102082
H  H632  1  0.99550000  0.14550000  0.80830000  1.0 0.1390102082
H  H633  1  0.99550000  0.80830000  0.05070000  1.0 0.1390102082
H  H634  1  0.05070000  0.14550000  0.99550000  1.0 0.1390102082
H  H635  1  0.14550000  0.05070000  0.80830000  1.0 0.1390102082
H  H636  1  0.80830000  0.99550000  0.14550000  1.0 0.1390102082
H  H637  1  0.19930000  0.25450000  0.10450000  1.0 0.1390102082
H  H638  1  0.25450000  0.19930000  0.44170000  1.0 0.1390102082
H  H639  1  0.44170000  0.10450000  0.25450000  1.0 0.1390102082
H  H640  1  0.10450000  0.44170000  0.19930000  1.0 0.1390102082
H  H641  1  0.44170000  0.19930000  0.10450000  1.0 0.1390102082
H  H642  1  0.10450000  0.25450000  0.44170000  1.0 0.1390102082
H  H643  1  0.19930000  0.44170000  0.25450000  1.0 0.1390102082
H  H644  1  0.25450000  0.10450000  0.19930000  1.0 0.1390102082
H  H645  1  0.25450000  0.44170000  0.10450000  1.0 0.1390102082
H  H646  1  0.19930000  0.10450000  0.44170000  1.0 0.1390102082
H  H647  1  0.10450000  0.19930000  0.25450000  1.0 0.1390102082
H  H648  1  0.44170000  0.25450000  0.19930000  1.0 0.1390102082
H  H649  1  0.69930000  0.75450000  0.94170000  1.0 0.1390102082
H  H650  1  0.75450000  0.69930000  0.60450000  1.0 0.1390102082
H  H651  1  0.94170000  0.60450000  0.69930000  1.0 0.1390102082
H  H652  1  0.60450000  0.94170000  0.75450000  1.0 0.1390102082
H  H653  1  0.94170000  0.69930000  0.75450000  1.0 0.1390102082
H  H654  1  0.60450000  0.75450000  0.69930000  1.0 0.1390102082
H  H655  1  0.69930000  0.94170000  0.60450000  1.0 0.1390102082
H  H656  1  0.75450000  0.60450000  0.94170000  1.0 0.1390102082
H  H657  1  0.75450000  0.94170000  0.69930000  1.0 0.1390102082
H  H658  1  0.69930000  0.60450000  0.75450000  1.0 0.1390102082
H  H659  1  0.60450000  0.69930000  0.94170000  1.0 0.1390102082
H  H660  1  0.94170000  0.75450000  0.60450000  1.0 0.1390102082
H  H661  1  0.55070000  0.49550000  0.64550000  1.0 0.1390102082
H  H662  1  0.49550000  0.55070000  0.30830000  1.0 0.1390102082
H  H663  1  0.30830000  0.64550000  0.49550000  1.0 0.1390102082
H  H664  1  0.64550000  0.30830000  0.55070000  1.0 0.1390102082
H  H665  1  0.30830000  0.55070000  0.64550000  1.0 0.1390102082
H  H666  1  0.64550000  0.49550000  0.30830000  1.0 0.1390102082
H  H667  1  0.55070000  0.30830000  0.49550000  1.0 0.1390102082
H  H668  1  0.49550000  0.64550000  0.55070000  1.0 0.1390102082
H  H669  1  0.49550000  0.30830000  0.64550000  1.0 0.1390102082
H  H670  1  0.55070000  0.64550000  0.30830000  1.0 0.1390102082
H  H671  1  0.64550000  0.55070000  0.49550000  1.0 0.1390102082
H  H672  1  0.30830000  0.49550000  0.55070000  1.0 0.1390102082
H  H673  1  0.99540000  0.00040000  0.85780000  1.0 0.1216223958
H  H674  1  0.00040000  0.99540000  0.14640000  1.0 0.1216223958
H  H675  1  0.85780000  0.14640000  0.99540000  1.0 0.1216223958
H  H676  1  0.14640000  0.85780000  0.00040000  1.0 0.1216223958
H  H677  1  0.85780000  0.99540000  0.00040000  1.0 0.1216223958
H  H678  1  0.14640000  0.00040000  0.99540000  1.0 0.1216223958
H  H679  1  0.99540000  0.85780000  0.14640000  1.0 0.1216223958
H  H680  1  0.00040000  0.14640000  0.85780000  1.0 0.1216223958
H  H681  1  0.00040000  0.85780000  0.99540000  1.0 0.1216223958
H  H682  1  0.99540000  0.14640000  0.00040000  1.0 0.1216223958
H  H683  1  0.14640000  0.99540000  0.85780000  1.0 0.1216223958
H  H684  1  0.85780000  0.00040000  0.14640000  1.0 0.1216223958
H  H685  1  0.25460000  0.24960000  0.10360000  1.0 0.1216223958
H  H686  1  0.24960000  0.25460000  0.39220000  1.0 0.1216223958
H  H687  1  0.39220000  0.10360000  0.24960000  1.0 0.1216223958
H  H688  1  0.10360000  0.39220000  0.25460000  1.0 0.1216223958
H  H689  1  0.39220000  0.25460000  0.10360000  1.0 0.1216223958
H  H690  1  0.10360000  0.24960000  0.39220000  1.0 0.1216223958
H  H691  1  0.25460000  0.39220000  0.24960000  1.0 0.1216223958
H  H692  1  0.24960000  0.10360000  0.25460000  1.0 0.1216223958
H  H693  1  0.24960000  0.39220000  0.10360000  1.0 0.1216223958
H  H694  1  0.25460000  0.10360000  0.39220000  1.0 0.1216223958
H  H695  1  0.10360000  0.25460000  0.24960000  1.0 0.1216223958
H  H696  1  0.39220000  0.24960000  0.25460000  1.0 0.1216223958
H  H697  1  0.75460000  0.74960000  0.89220000  1.0 0.1216223958
H  H698  1  0.74960000  0.75460000  0.60360000  1.0 0.1216223958
H  H699  1  0.89220000  0.60360000  0.75460000  1.0 0.1216223958
H  H700  1  0.60360000  0.89220000  0.74960000  1.0 0.1216223958
H  H701  1  0.89220000  0.75460000  0.74960000  1.0 0.1216223958
H  H702  1  0.60360000  0.74960000  0.75460000  1.0 0.1216223958
H  H703  1  0.75460000  0.89220000  0.60360000  1.0 0.1216223958
H  H704  1  0.74960000  0.60360000  0.89220000  1.0 0.1216223958
H  H705  1  0.74960000  0.89220000  0.75460000  1.0 0.1216223958
H  H706  1  0.75460000  0.60360000  0.74960000  1.0 0.1216223958
H  H707  1  0.60360000  0.75460000  0.89220000  1.0 0.1216223958
H  H708  1  0.89220000  0.74960000  0.60360000  1.0 0.1216223958
H  H709  1  0.49540000  0.50040000  0.64640000  1.0 0.1216223958
H  H710  1  0.50040000  0.49540000  0.35780000  1.0 0.1216223958
H  H711  1  0.35780000  0.64640000  0.50040000  1.0 0.1216223958
H  H712  1  0.64640000  0.35780000  0.49540000  1.0 0.1216223958
H  H713  1  0.35780000  0.49540000  0.64640000  1.0 0.1216223958
H  H714  1  0.64640000  0.50040000  0.35780000  1.0 0.1216223958
H  H715  1  0.49540000  0.35780000  0.50040000  1.0 0.1216223958
H  H716  1  0.50040000  0.64640000  0.49540000  1.0 0.1216223958
H  H717  1  0.50040000  0.35780000  0.64640000  1.0 0.1216223958
H  H718  1  0.49540000  0.64640000  0.35780000  1.0 0.1216223958
H  H719  1  0.64640000  0.49540000  0.50040000  1.0 0.1216223958
H  H720  1  0.35780000  0.50040000  0.49540000  1.0 0.1216223958
H  H721  1  0.04780000  0.90480000  0.91920000  1.0 0.1066560701
H  H722  1  0.90480000  0.04780000  0.12820000  1.0 0.1066560701
H  H723  1  0.91920000  0.12820000  0.04780000  1.0 0.1066560701
H  H724  1  0.12820000  0.91920000  0.90480000  1.0 0.1066560701
H  H725  1  0.91920000  0.04780000  0.90480000  1.0 0.1066560701
H  H726  1  0.12820000  0.90480000  0.04780000  1.0 0.1066560701
H  H727  1  0.04780000  0.91920000  0.12820000  1.0 0.1066560701
H  H728  1  0.90480000  0.12820000  0.91920000  1.0 0.1066560701
H  H729  1  0.90480000  0.91920000  0.04780000  1.0 0.1066560701
H  H730  1  0.04780000  0.12820000  0.90480000  1.0 0.1066560701
H  H731  1  0.12820000  0.04780000  0.91920000  1.0 0.1066560701
H  H732  1  0.91920000  0.90480000  0.12820000  1.0 0.1066560701
H  H733  1  0.20220000  0.34520000  0.12180000  1.0 0.1066560701
H  H734  1  0.34520000  0.20220000  0.33080000  1.0 0.1066560701
H  H735  1  0.33080000  0.12180000  0.34520000  1.0 0.1066560701
H  H736  1  0.12180000  0.33080000  0.20220000  1.0 0.1066560701
H  H737  1  0.33080000  0.20220000  0.12180000  1.0 0.1066560701
H  H738  1  0.12180000  0.34520000  0.33080000  1.0 0.1066560701
H  H739  1  0.20220000  0.33080000  0.34520000  1.0 0.1066560701
H  H740  1  0.34520000  0.12180000  0.20220000  1.0 0.1066560701
H  H741  1  0.34520000  0.33080000  0.12180000  1.0 0.1066560701
H  H742  1  0.20220000  0.12180000  0.33080000  1.0 0.1066560701
H  H743  1  0.12180000  0.20220000  0.34520000  1.0 0.1066560701
H  H744  1  0.33080000  0.34520000  0.20220000  1.0 0.1066560701
H  H745  1  0.70220000  0.84520000  0.83080000  1.0 0.1066560701
H  H746  1  0.84520000  0.70220000  0.62180000  1.0 0.1066560701
H  H747  1  0.83080000  0.62180000  0.70220000  1.0 0.1066560701
H  H748  1  0.62180000  0.83080000  0.84520000  1.0 0.1066560701
H  H749  1  0.83080000  0.70220000  0.84520000  1.0 0.1066560701
H  H750  1  0.62180000  0.84520000  0.70220000  1.0 0.1066560701
H  H751  1  0.70220000  0.83080000  0.62180000  1.0 0.1066560701
H  H752  1  0.84520000  0.62180000  0.83080000  1.0 0.1066560701
H  H753  1  0.84520000  0.83080000  0.70220000  1.0 0.1066560701
H  H754  1  0.70220000  0.62180000  0.84520000  1.0 0.1066560701
H  H755  1  0.62180000  0.70220000  0.83080000  1.0 0.1066560701
H  H756  1  0.83080000  0.84520000  0.62180000  1.0 0.1066560701
H  H757  1  0.54780000  0.40480000  0.62820000  1.0 0.1066560701
H  H758  1  0.40480000  0.54780000  0.41920000  1.0 0.1066560701
H  H759  1  0.41920000  0.62820000  0.40480000  1.0 0.1066560701
H  H760  1  0.62820000  0.41920000  0.54780000  1.0 0.1066560701
H  H761  1  0.41920000  0.54780000  0.62820000  1.0 0.1066560701
H  H762  1  0.62820000  0.40480000  0.41920000  1.0 0.1066560701
H  H763  1  0.54780000  0.41920000  0.40480000  1.0 0.1066560701
H  H764  1  0.40480000  0.62820000  0.54780000  1.0 0.1066560701
H  H765  1  0.40480000  0.41920000  0.62820000  1.0 0.1066560701
H  H766  1  0.54780000  0.62820000  0.41920000  1.0 0.1066560701
H  H767  1  0.62820000  0.54780000  0.40480000  1.0 0.1066560701
H  H768  1  0.41920000  0.40480000  0.54780000  1.0 0.1066560701
C  C1  1  0.28775000  0.90203000  0.66741000  1.0 0.0606174449
C  C2  1  0.90203000  0.28775000  0.14281000  1.0 0.0606174449
C  C3  1  0.66741000  0.14281000  0.28775000  1.0 0.0606174449
C  C4  1  0.14281000  0.66741000  0.90203000  1.0 0.0606174449
C  C5  1  0.66741000  0.28775000  0.90203000  1.0 0.0606174449
C  C6  1  0.14281000  0.90203000  0.28775000  1.0 0.0606174449
C  C7  1  0.28775000  0.66741000  0.14281000  1.0 0.0606174449
C  C8  1  0.90203000  0.14281000  0.66741000  1.0 0.0606174449
C  C9  1  0.90203000  0.66741000  0.28775000  1.0 0.0606174449
C  C10  1  0.28775000  0.14281000  0.90203000  1.0 0.0606174449
C  C11  1  0.14281000  0.28775000  0.66741000  1.0 0.0606174449
C  C12  1  0.66741000  0.90203000  0.14281000  1.0 0.0606174449
C  C13  1  0.96225000  0.34797000  0.10719000  1.0 0.0606174449
C  C14  1  0.34797000  0.96225000  0.58259000  1.0 0.0606174449
C  C15  1  0.58259000  0.10719000  0.34797000  1.0 0.0606174449
C  C16  1  0.10719000  0.58259000  0.96225000  1.0 0.0606174449
C  C17  1  0.58259000  0.96225000  0.10719000  1.0 0.0606174449
C  C18  1  0.10719000  0.34797000  0.58259000  1.0 0.0606174449
C  C19  1  0.96225000  0.58259000  0.34797000  1.0 0.0606174449
C  C20  1  0.34797000  0.10719000  0.96225000  1.0 0.0606174449
C  C21  1  0.34797000  0.58259000  0.10719000  1.0 0.0606174449
C  C22  1  0.96225000  0.10719000  0.58259000  1.0 0.0606174449
C  C23  1  0.10719000  0.96225000  0.34797000  1.0 0.0606174449
C  C24  1  0.58259000  0.34797000  0.96225000  1.0 0.0606174449
C  C25  1  0.46225000  0.84797000  0.08259000  1.0 0.0606174449
C  C26  1  0.84797000  0.46225000  0.60719000  1.0 0.0606174449
C  C27  1  0.08259000  0.60719000  0.46225000  1.0 0.0606174449
C  C28  1  0.60719000  0.08259000  0.84797000  1.0 0.0606174449
C  C29  1  0.08259000  0.46225000  0.84797000  1.0 0.0606174449
C  C30  1  0.60719000  0.84797000  0.46225000  1.0 0.0606174449
C  C31  1  0.46225000  0.08259000  0.60719000  1.0 0.0606174449
C  C32  1  0.84797000  0.60719000  0.08259000  1.0 0.0606174449
C  C33  1  0.84797000  0.08259000  0.46225000  1.0 0.0606174449
C  C34  1  0.46225000  0.60719000  0.84797000  1.0 0.0606174449
C  C35  1  0.60719000  0.46225000  0.08259000  1.0 0.0606174449
C  C36  1  0.08259000  0.84797000  0.60719000  1.0 0.0606174449
C  C37  1  0.78775000  0.40203000  0.64281000  1.0 0.0606174449
C  C38  1  0.40203000  0.78775000  0.16741000  1.0 0.0606174449
C  C39  1  0.16741000  0.64281000  0.40203000  1.0 0.0606174449
C  C40  1  0.64281000  0.16741000  0.78775000  1.0 0.0719618374
C  C41  1  0.16741000  0.78775000  0.64281000  1.0 0.0606174449
C  C42  1  0.64281000  0.40203000  0.16741000  1.0 0.0606174449
C  C43  1  0.78775000  0.16741000  0.40203000  1.0 0.0606174449
C  C44  1  0.40203000  0.64281000  0.78775000  1.0 0.0606174449
C  C45  1  0.40203000  0.16741000  0.64281000  1.0 0.0606174449
C  C46  1  0.78775000  0.64281000  0.16741000  1.0 0.0606174449
C  C47  1  0.64281000  0.78775000  0.40203000  1.0 0.0606174449
C  C48  1  0.16741000  0.40203000  0.78775000  1.0 0.0606174449
C  C49  1  0.25422000  0.91078000  0.69406000  1.0 -0.0255762965
C  C50  1  0.91078000  0.25422000  0.14094000  1.0 -0.0201390426
C  C51  1  0.69406000  0.14094000  0.25422000  1.0 -0.0255762965
C  C52  1  0.14094000  0.69406000  0.91078000  1.0 -0.0255762965
C  C53  1  0.69406000  0.25422000  0.91078000  1.0 -0.0255762965
C  C54  1  0.14094000  0.91078000  0.25422000  1.0 -0.0255762965
C  C55  1  0.25422000  0.69406000  0.14094000  1.0 -0.0255762965
C  C56  1  0.91078000  0.14094000  0.69406000  1.0 -0.0201390426
C  C57  1  0.91078000  0.69406000  0.25422000  1.0 -0.0255762965
C  C58  1  0.25422000  0.14094000  0.91078000  1.0 -0.0255762965
C  C59  1  0.14094000  0.25422000  0.69406000  1.0 -0.0255762965
C  C60  1  0.69406000  0.91078000  0.14094000  1.0 -0.0255762965
C  C61  1  0.99578000  0.33922000  0.10906000  1.0 -0.0201390426
C  C62  1  0.33922000  0.99578000  0.55594000  1.0 -0.0255762965
C  C63  1  0.55594000  0.10906000  0.33922000  1.0 -0.0255762965
C  C64  1  0.10906000  0.55594000  0.99578000  1.0 -0.0255762965
C  C65  1  0.55594000  0.99578000  0.10906000  1.0 -0.0255762965
C  C66  1  0.10906000  0.33922000  0.55594000  1.0 -0.0255762965
C  C67  1  0.99578000  0.55594000  0.33922000  1.0 -0.0201390426
C  C68  1  0.33922000  0.10906000  0.99578000  1.0 -0.0255762965
C  C69  1  0.33922000  0.55594000  0.10906000  1.0 -0.0255762965
C  C70  1  0.99578000  0.10906000  0.55594000  1.0 -0.0255762965
C  C71  1  0.10906000  0.99578000  0.33922000  1.0 -0.0255762965
C  C72  1  0.55594000  0.33922000  0.99578000  1.0 -0.0255762965
C  C73  1  0.49578000  0.83922000  0.05594000  1.0 -0.0255762965
C  C74  1  0.83922000  0.49578000  0.60906000  1.0 -0.0255762965
C  C75  1  0.05594000  0.60906000  0.49578000  1.0 -0.0255762965
C  C76  1  0.60906000  0.05594000  0.83922000  1.0 -0.0201390426
C  C77  1  0.05594000  0.49578000  0.83922000  1.0 -0.0255762965
C  C78  1  0.60906000  0.83922000  0.49578000  1.0 -0.0255762965
C  C79  1  0.49578000  0.05594000  0.60906000  1.0 -0.0201390426
C  C80  1  0.83922000  0.60906000  0.05594000  1.0 -0.0201390426
C  C81  1  0.83922000  0.05594000  0.49578000  1.0 -0.0255762965
C  C82  1  0.49578000  0.60906000  0.83922000  1.0 -0.0255762965
C  C83  1  0.60906000  0.49578000  0.05594000  1.0 -0.0255762965
C  C84  1  0.05594000  0.83922000  0.60906000  1.0 -0.0201390426
C  C85  1  0.75422000  0.41078000  0.64094000  1.0 -0.0255762965
C  C86  1  0.41078000  0.75422000  0.19406000  1.0 -0.0255762965
C  C87  1  0.19406000  0.64094000  0.41078000  1.0 -0.0255762965
C  C88  1  0.64094000  0.19406000  0.75422000  1.0 -0.0255762965
C  C89  1  0.19406000  0.75422000  0.64094000  1.0 -0.0255762965
C  C90  1  0.64094000  0.41078000  0.19406000  1.0 -0.0255762965
C  C91  1  0.75422000  0.19406000  0.41078000  1.0 -0.0255762965
C  C92  1  0.41078000  0.64094000  0.75422000  1.0 -0.0255762965
C  C93  1  0.41078000  0.19406000  0.64094000  1.0 -0.0255762965
C  C94  1  0.75422000  0.64094000  0.19406000  1.0 -0.0255762965
C  C95  1  0.64094000  0.75422000  0.41078000  1.0 -0.0201390426
C  C96  1  0.19406000  0.41078000  0.75422000  1.0 -0.0255762965
C  C97  1  0.25187000  0.92089000  0.71957000  1.0 -0.0535059017
C  C98  1  0.92089000  0.25187000  0.10767000  1.0 -0.0535059017
C  C99  1  0.71957000  0.10767000  0.25187000  1.0 -0.0535059017
C  C100  1  0.10767000  0.71957000  0.92089000  1.0 -0.0535059017
C  C101  1  0.71957000  0.25187000  0.92089000  1.0 -0.0535059017
C  C102  1  0.10767000  0.92089000  0.25187000  1.0 -0.0535059017
C  C103  1  0.25187000  0.71957000  0.10767000  1.0 -0.0535059017
C  C104  1  0.92089000  0.10767000  0.71957000  1.0 -0.0535059017
C  C105  1  0.92089000  0.71957000  0.25187000  1.0 -0.0535059017
C  C106  1  0.25187000  0.10767000  0.92089000  1.0 -0.0535059017
C  C107  1  0.10767000  0.25187000  0.71957000  1.0 -0.0535059017
C  C108  1  0.71957000  0.92089000  0.10767000  1.0 -0.0535059017
C  C109  1  0.99813000  0.32911000  0.14233000  1.0 -0.0535059017
C  C110  1  0.32911000  0.99813000  0.53043000  1.0 -0.0535059017
C  C111  1  0.53043000  0.14233000  0.32911000  1.0 -0.0535059017
C  C112  1  0.14233000  0.53043000  0.99813000  1.0 -0.0535059017
C  C113  1  0.53043000  0.99813000  0.14233000  1.0 -0.0535059017
C  C114  1  0.14233000  0.32911000  0.53043000  1.0 -0.0535059017
C  C115  1  0.99813000  0.53043000  0.32911000  1.0 -0.0535059017
C  C116  1  0.32911000  0.14233000  0.99813000  1.0 -0.0535059017
C  C117  1  0.32911000  0.53043000  0.14233000  1.0 -0.0535059017
C  C118  1  0.99813000  0.14233000  0.53043000  1.0 -0.0535059017
C  C119  1  0.14233000  0.99813000  0.32911000  1.0 -0.0535059017
C  C120  1  0.53043000  0.32911000  0.99813000  1.0 -0.0535059017
C  C121  1  0.49813000  0.82911000  0.03043000  1.0 -0.0535059017
C  C122  1  0.82911000  0.49813000  0.64233000  1.0 -0.0535059017
C  C123  1  0.03043000  0.64233000  0.49813000  1.0 -0.0535059017
C  C124  1  0.64233000  0.03043000  0.82911000  1.0 -0.0535059017
C  C125  1  0.03043000  0.49813000  0.82911000  1.0 -0.0535059017
C  C126  1  0.64233000  0.82911000  0.49813000  1.0 -0.0535059017
C  C127  1  0.49813000  0.03043000  0.64233000  1.0 -0.0535059017
C  C128  1  0.82911000  0.64233000  0.03043000  1.0 -0.0535059017
C  C129  1  0.82911000  0.03043000  0.49813000  1.0 -0.0535059017
C  C130  1  0.49813000  0.64233000  0.82911000  1.0 -0.0535059017
C  C131  1  0.64233000  0.49813000  0.03043000  1.0 -0.0535059017
C  C132  1  0.03043000  0.82911000  0.64233000  1.0 -0.0535059017
C  C133  1  0.75187000  0.42089000  0.60767000  1.0 -0.0535059017
C  C134  1  0.42089000  0.75187000  0.21957000  1.0 -0.0535059017
C  C135  1  0.21957000  0.60767000  0.42089000  1.0 -0.0535059017
C  C136  1  0.60767000  0.21957000  0.75187000  1.0 -0.0535059017
C  C137  1  0.21957000  0.75187000  0.60767000  1.0 -0.0535059017
C  C138  1  0.60767000  0.42089000  0.21957000  1.0 -0.0535059017
C  C139  1  0.75187000  0.21957000  0.42089000  1.0 -0.0535059017
C  C140  1  0.42089000  0.60767000  0.75187000  1.0 -0.0535059017
C  C141  1  0.42089000  0.21957000  0.60767000  1.0 -0.0535059017
C  C142  1  0.75187000  0.60767000  0.21957000  1.0 -0.0535059017
C  C143  1  0.60767000  0.75187000  0.42089000  1.0 -0.0535059017
C  C144  1  0.21957000  0.42089000  0.75187000  1.0 -0.0535059017
C  C145  1  0.28306000  0.92314000  0.71658000  1.0 -0.1365597376
C  C146  1  0.92314000  0.28306000  0.07722000  1.0 -0.1365597376
C  C147  1  0.71658000  0.07722000  0.28306000  1.0 -0.1365597376
C  C148  1  0.07722000  0.71658000  0.92314000  1.0 -0.1365597376
C  C149  1  0.71658000  0.28306000  0.92314000  1.0 -0.1365597376
C  C150  1  0.07722000  0.92314000  0.28306000  1.0 -0.1365597376
C  C151  1  0.28306000  0.71658000  0.07722000  1.0 -0.1365597376
C  C152  1  0.92314000  0.07722000  0.71658000  1.0 -0.1365597376
C  C153  1  0.92314000  0.71658000  0.28306000  1.0 -0.1365597376
C  C154  1  0.28306000  0.07722000  0.92314000  1.0 -0.1365597376
C  C155  1  0.07722000  0.28306000  0.71658000  1.0 -0.1365597376
C  C156  1  0.71658000  0.92314000  0.07722000  1.0 -0.1365597376
C  C157  1  0.96694000  0.32686000  0.17278000  1.0 -0.1365597376
C  C158  1  0.32686000  0.96694000  0.53342000  1.0 -0.1365597376
C  C159  1  0.53342000  0.17278000  0.32686000  1.0 -0.1365597376
C  C160  1  0.17278000  0.53342000  0.96694000  1.0 -0.1365597376
C  C161  1  0.53342000  0.96694000  0.17278000  1.0 -0.1365597376
C  C162  1  0.17278000  0.32686000  0.53342000  1.0 -0.1365597376
C  C163  1  0.96694000  0.53342000  0.32686000  1.0 -0.1365597376
C  C164  1  0.32686000  0.17278000  0.96694000  1.0 -0.1365597376
C  C165  1  0.32686000  0.53342000  0.17278000  1.0 -0.1365597376
C  C166  1  0.96694000  0.17278000  0.53342000  1.0 -0.1365597376
C  C167  1  0.17278000  0.96694000  0.32686000  1.0 -0.1365597376
C  C168  1  0.53342000  0.32686000  0.96694000  1.0 -0.1365597376
C  C169  1  0.46694000  0.82686000  0.03342000  1.0 -0.1365597376
C  C170  1  0.82686000  0.46694000  0.67278000  1.0 -0.1365597376
C  C171  1  0.03342000  0.67278000  0.46694000  1.0 -0.1365597376
C  C172  1  0.67278000  0.03342000  0.82686000  1.0 -0.1365597376
C  C173  1  0.03342000  0.46694000  0.82686000  1.0 -0.1365597376
C  C174  1  0.67278000  0.82686000  0.46694000  1.0 -0.1365597376
C  C175  1  0.46694000  0.03342000  0.67278000  1.0 -0.1365597376
C  C176  1  0.82686000  0.67278000  0.03342000  1.0 -0.1365597376
C  C177  1  0.82686000  0.03342000  0.46694000  1.0 -0.1365597376
C  C178  1  0.46694000  0.67278000  0.82686000  1.0 -0.1365597376
C  C179  1  0.67278000  0.46694000  0.03342000  1.0 -0.1365597376
C  C180  1  0.03342000  0.82686000  0.67278000  1.0 -0.1365597376
C  C181  1  0.78306000  0.42314000  0.57722000  1.0 -0.1365597376
C  C182  1  0.42314000  0.78306000  0.21658000  1.0 -0.1365597376
C  C183  1  0.21658000  0.57722000  0.42314000  1.0 -0.1365597376
C  C184  1  0.57722000  0.21658000  0.78306000  1.0 -0.1365597376
C  C185  1  0.21658000  0.78306000  0.57722000  1.0 -0.1365597376
C  C186  1  0.57722000  0.42314000  0.21658000  1.0 -0.1365597376
C  C187  1  0.78306000  0.21658000  0.42314000  1.0 -0.1365597376
C  C188  1  0.42314000  0.57722000  0.78306000  1.0 -0.1365597376
C  C189  1  0.42314000  0.21658000  0.57722000  1.0 -0.1365597376
C  C190  1  0.78306000  0.57722000  0.21658000  1.0 -0.1365597376
C  C191  1  0.57722000  0.78306000  0.42314000  1.0 -0.1365597376
C  C192  1  0.21658000  0.42314000  0.78306000  1.0 -0.1365597376
C  C193  1  0.31479000  0.91335000  0.69037000  1.0 0.0719618374
C  C194  1  0.91335000  0.31479000  0.08149000  1.0 0.0719618374
C  C195  1  0.69037000  0.08149000  0.31479000  1.0 0.0719618374
C  C196  1  0.08149000  0.69037000  0.91335000  1.0 0.0719618374
C  C197  1  0.69037000  0.31479000  0.91335000  1.0 0.0719618374
C  C198  1  0.08149000  0.91335000  0.31479000  1.0 0.0719618374
C  C199  1  0.31479000  0.69037000  0.08149000  1.0 0.0719618374
C  C200  1  0.91335000  0.08149000  0.69037000  1.0 0.0719618374
C  C201  1  0.91335000  0.69037000  0.31479000  1.0 0.0719618374
C  C202  1  0.31479000  0.08149000  0.91335000  1.0 0.0719618374
C  C203  1  0.08149000  0.31479000  0.69037000  1.0 0.0719618374
C  C204  1  0.69037000  0.91335000  0.08149000  1.0 0.0719618374
C  C205  1  0.93521000  0.33665000  0.16851000  1.0 0.0719618374
C  C206  1  0.33665000  0.93521000  0.55963000  1.0 0.0719618374
C  C207  1  0.55963000  0.16851000  0.33665000  1.0 0.0719618374
C  C208  1  0.16851000  0.55963000  0.93521000  1.0 0.0719618374
C  C209  1  0.55963000  0.93521000  0.16851000  1.0 0.0719618374
C  C210  1  0.16851000  0.33665000  0.55963000  1.0 0.0719618374
C  C211  1  0.93521000  0.55963000  0.33665000  1.0 0.0719618374
C  C212  1  0.33665000  0.16851000  0.93521000  1.0 0.0719618374
C  C213  1  0.33665000  0.55963000  0.16851000  1.0 0.0719618374
C  C214  1  0.93521000  0.16851000  0.55963000  1.0 0.0719618374
C  C215  1  0.16851000  0.93521000  0.33665000  1.0 0.0719618374
C  C216  1  0.55963000  0.33665000  0.93521000  1.0 0.0719618374
C  C217  1  0.43521000  0.83665000  0.05963000  1.0 0.0719618374
C  C218  1  0.83665000  0.43521000  0.66851000  1.0 0.0719618374
C  C219  1  0.05963000  0.66851000  0.43521000  1.0 0.0719618374
C  C220  1  0.66851000  0.05963000  0.83665000  1.0 0.0719618374
C  C221  1  0.05963000  0.43521000  0.83665000  1.0 0.0719618374
C  C222  1  0.66851000  0.83665000  0.43521000  1.0 0.0719618374
C  C223  1  0.43521000  0.05963000  0.66851000  1.0 0.0719618374
C  C224  1  0.83665000  0.66851000  0.05963000  1.0 0.0719618374
C  C225  1  0.83665000  0.05963000  0.43521000  1.0 0.0719618374
C  C226  1  0.43521000  0.66851000  0.83665000  1.0 0.0719618374
C  C227  1  0.66851000  0.43521000  0.05963000  1.0 0.0719618374
C  C228  1  0.05963000  0.83665000  0.66851000  1.0 0.0719618374
C  C229  1  0.81479000  0.41335000  0.58149000  1.0 0.0719618374
C  C230  1  0.41335000  0.81479000  0.19037000  1.0 0.0719618374
C  C231  1  0.19037000  0.58149000  0.41335000  1.0 0.0719618374
C  C232  1  0.58149000  0.19037000  0.81479000  1.0 0.0719618374
C  C233  1  0.19037000  0.81479000  0.58149000  1.0 0.0719618374
C  C234  1  0.58149000  0.41335000  0.19037000  1.0 0.0719618374
C  C235  1  0.81479000  0.19037000  0.41335000  1.0 0.0719618374
C  C236  1  0.41335000  0.58149000  0.81479000  1.0 0.0719618374
C  C237  1  0.41335000  0.19037000  0.58149000  1.0 0.0719618374
C  C238  1  0.81479000  0.58149000  0.19037000  1.0 0.0719618374
C  C239  1  0.58149000  0.81479000  0.41335000  1.0 0.0719618374
C  C240  1  0.19037000  0.41335000  0.81479000  1.0 0.0719618374
C  C241  1  0.10597000  0.83469000  0.71079000  1.0 0.2457202956
C  C242  1  0.83469000  0.10597000  0.34855000  1.0 0.2457202956
C  C243  1  0.71079000  0.34855000  0.10597000  1.0 0.2457202956
C  C244  1  0.34855000  0.71079000  0.83469000  1.0 0.2457202956
C  C245  1  0.71079000  0.10597000  0.83469000  1.0 0.2457202956
C  C246  1  0.34855000  0.83469000  0.10597000  1.0 0.2432035349
C  C247  1  0.10597000  0.71079000  0.34855000  1.0 0.2457202956
C  C248  1  0.83469000  0.34855000  0.71079000  1.0 0.2457202956
C  C249  1  0.83469000  0.71079000  0.10597000  1.0 0.2432035349
C  C250  1  0.10597000  0.34855000  0.83469000  1.0 0.2457202956
C  C251  1  0.34855000  0.10597000  0.71079000  1.0 0.2457202956
C  C252  1  0.71079000  0.83469000  0.34855000  1.0 0.2432035349
C  C253  1  0.14403000  0.41531000  0.90145000  1.0 0.2457202956
C  C254  1  0.41531000  0.14403000  0.53921000  1.0 0.2432035349
C  C255  1  0.53921000  0.90145000  0.41531000  1.0 0.2432035349
C  C256  1  0.90145000  0.53921000  0.14403000  1.0 0.2457202956
C  C257  1  0.53921000  0.14403000  0.90145000  1.0 0.2457202956
C  C258  1  0.90145000  0.41531000  0.53921000  1.0 0.2457202956
C  C259  1  0.14403000  0.53921000  0.41531000  1.0 0.2457202956
C  C260  1  0.41531000  0.90145000  0.14403000  1.0 0.2432035349
C  C261  1  0.41531000  0.53921000  0.90145000  1.0 0.2457202956
C  C262  1  0.14403000  0.90145000  0.53921000  1.0 0.2457202956
C  C263  1  0.90145000  0.14403000  0.41531000  1.0 0.2457202956
C  C264  1  0.53921000  0.41531000  0.14403000  1.0 0.2457202956
C  C265  1  0.64403000  0.91531000  0.03921000  1.0 0.2432035349
C  C266  1  0.91531000  0.64403000  0.40145000  1.0 0.2457202956
C  C267  1  0.03921000  0.40145000  0.64403000  1.0 0.2432035349
C  C268  1  0.40145000  0.03921000  0.91531000  1.0 0.2457202956
C  C269  1  0.03921000  0.64403000  0.91531000  1.0 0.2457202956
C  C270  1  0.40145000  0.91531000  0.64403000  1.0 0.2457202956
C  C271  1  0.64403000  0.03921000  0.40145000  1.0 0.2457202956
C  C272  1  0.91531000  0.40145000  0.03921000  1.0 0.2432035349
C  C273  1  0.91531000  0.03921000  0.64403000  1.0 0.2457202956
C  C274  1  0.64403000  0.40145000  0.91531000  1.0 0.2457202956
C  C275  1  0.40145000  0.64403000  0.03921000  1.0 0.2457202956
C  C276  1  0.03921000  0.91531000  0.40145000  1.0 0.2432035349
C  C277  1  0.60597000  0.33469000  0.84855000  1.0 0.2457202956
C  C278  1  0.33469000  0.60597000  0.21079000  1.0 0.2432035349
C  C279  1  0.21079000  0.84855000  0.33469000  1.0 0.2457202956
C  C280  1  0.84855000  0.21079000  0.60597000  1.0 0.2457202956
C  C281  1  0.21079000  0.60597000  0.84855000  1.0 0.2432035349
C  C282  1  0.84855000  0.33469000  0.21079000  1.0 0.2457202956
C  C283  1  0.60597000  0.21079000  0.33469000  1.0 0.2457202956
C  C284  1  0.33469000  0.84855000  0.60597000  1.0 0.2457202956
C  C285  1  0.33469000  0.21079000  0.84855000  1.0 0.2457202956
C  C286  1  0.60597000  0.84855000  0.21079000  1.0 0.2432035349
C  C287  1  0.84855000  0.60597000  0.33469000  1.0 0.2457202956
C  C288  1  0.21079000  0.33469000  0.60597000  1.0 0.2457202956
C  C289  1  0.19516000  0.89170000  0.58126000  1.0 0.0762520099
C  C290  1  0.89170000  0.19516000  0.33188000  1.0 0.0762520099
C  C291  1  0.58126000  0.33188000  0.19516000  1.0 0.0762520099
C  C292  1  0.33188000  0.58126000  0.89170000  1.0 0.0762520099
C  C293  1  0.58126000  0.19516000  0.89170000  1.0 0.0762520099
C  C294  1  0.33188000  0.89170000  0.19516000  1.0 0.0762520099
C  C295  1  0.19516000  0.58126000  0.33188000  1.0 0.0762520099
C  C296  1  0.89170000  0.33188000  0.58126000  1.0 0.0762520099
C  C297  1  0.89170000  0.58126000  0.19516000  1.0 0.0762520099
C  C298  1  0.19516000  0.33188000  0.89170000  1.0 0.0762520099
C  C299  1  0.33188000  0.19516000  0.58126000  1.0 0.0762520099
C  C300  1  0.58126000  0.89170000  0.33188000  1.0 0.0762520099
C  C301  1  0.05484000  0.35830000  0.91812000  1.0 0.0762520099
C  C302  1  0.35830000  0.05484000  0.66874000  1.0 0.0762520099
C  C303  1  0.66874000  0.91812000  0.35830000  1.0 0.0762520099
C  C304  1  0.91812000  0.66874000  0.05484000  1.0 0.0762520099
C  C305  1  0.66874000  0.05484000  0.91812000  1.0 0.0762520099
C  C306  1  0.91812000  0.35830000  0.66874000  1.0 0.0762520099
C  C307  1  0.05484000  0.66874000  0.35830000  1.0 0.0762520099
C  C308  1  0.35830000  0.91812000  0.05484000  1.0 0.0762520099
C  C309  1  0.35830000  0.66874000  0.91812000  1.0 0.0762520099
C  C310  1  0.05484000  0.91812000  0.66874000  1.0 0.0762520099
C  C311  1  0.91812000  0.05484000  0.35830000  1.0 0.0762520099
C  C312  1  0.66874000  0.35830000  0.05484000  1.0 0.0762520099
C  C313  1  0.55484000  0.85830000  0.16874000  1.0 0.0762520099
C  C314  1  0.85830000  0.55484000  0.41812000  1.0 0.0762520099
C  C315  1  0.16874000  0.41812000  0.55484000  1.0 0.0762520099
C  C316  1  0.41812000  0.16874000  0.85830000  1.0 0.0762520099
C  C317  1  0.16874000  0.55484000  0.85830000  1.0 0.0762520099
C  C318  1  0.41812000  0.85830000  0.55484000  1.0 0.0762520099
C  C319  1  0.55484000  0.16874000  0.41812000  1.0 0.0762520099
C  C320  1  0.85830000  0.41812000  0.16874000  1.0 0.0762520099
C  C321  1  0.85830000  0.16874000  0.55484000  1.0 0.0762520099
C  C322  1  0.55484000  0.41812000  0.85830000  1.0 0.0762520099
C  C323  1  0.41812000  0.55484000  0.16874000  1.0 0.0762520099
C  C324  1  0.16874000  0.85830000  0.41812000  1.0 0.0762520099
C  C325  1  0.69516000  0.39170000  0.83188000  1.0 0.0762520099
C  C326  1  0.39170000  0.69516000  0.08126000  1.0 0.0762520099
C  C327  1  0.08126000  0.83188000  0.39170000  1.0 0.0762520099
C  C328  1  0.83188000  0.08126000  0.69516000  1.0 0.0762520099
C  C329  1  0.08126000  0.69516000  0.83188000  1.0 0.0762520099
C  C330  1  0.83188000  0.39170000  0.08126000  1.0 0.0762520099
C  C331  1  0.69516000  0.08126000  0.39170000  1.0 0.0762520099
C  C332  1  0.39170000  0.83188000  0.69516000  1.0 0.0762520099
C  C333  1  0.39170000  0.08126000  0.83188000  1.0 0.0762520099
C  C334  1  0.69516000  0.83188000  0.08126000  1.0 0.0762520099
C  C335  1  0.83188000  0.69516000  0.39170000  1.0 0.0762520099
C  C336  1  0.08126000  0.39170000  0.69516000  1.0 0.0762520099
C  C337  1  0.22368000  0.89964000  0.57556000  1.0 -0.1365597376
C  C338  1  0.89964000  0.22368000  0.30112000  1.0 -0.1365597376
C  C339  1  0.57556000  0.30112000  0.22368000  1.0 -0.1365597376
C  C340  1  0.30112000  0.57556000  0.89964000  1.0 -0.1365597376
C  C341  1  0.57556000  0.22368000  0.89964000  1.0 -0.1365597376
C  C342  1  0.30112000  0.89964000  0.22368000  1.0 -0.1365597376
C  C343  1  0.22368000  0.57556000  0.30112000  1.0 -0.1365597376
C  C344  1  0.89964000  0.30112000  0.57556000  1.0 -0.1365597376
C  C345  1  0.89964000  0.57556000  0.22368000  1.0 -0.1365597376
C  C346  1  0.22368000  0.30112000  0.89964000  1.0 -0.1365597376
C  C347  1  0.30112000  0.22368000  0.57556000  1.0 -0.1365597376
C  C348  1  0.57556000  0.89964000  0.30112000  1.0 -0.1365597376
C  C349  1  0.02632000  0.35036000  0.94888000  1.0 -0.1365597376
C  C350  1  0.35036000  0.02632000  0.67444000  1.0 -0.1365597376
C  C351  1  0.67444000  0.94888000  0.35036000  1.0 -0.1365597376
C  C352  1  0.94888000  0.67444000  0.02632000  1.0 -0.1365597376
C  C353  1  0.67444000  0.02632000  0.94888000  1.0 -0.1365597376
C  C354  1  0.94888000  0.35036000  0.67444000  1.0 -0.1365597376
C  C355  1  0.02632000  0.67444000  0.35036000  1.0 -0.1365597376
C  C356  1  0.35036000  0.94888000  0.02632000  1.0 -0.1365597376
C  C357  1  0.35036000  0.67444000  0.94888000  1.0 -0.1365597376
C  C358  1  0.02632000  0.94888000  0.67444000  1.0 -0.1365597376
C  C359  1  0.94888000  0.02632000  0.35036000  1.0 -0.1365597376
C  C360  1  0.67444000  0.35036000  0.02632000  1.0 -0.1365597376
C  C361  1  0.52632000  0.85036000  0.17444000  1.0 -0.1365597376
C  C362  1  0.85036000  0.52632000  0.44888000  1.0 -0.1365597376
C  C363  1  0.17444000  0.44888000  0.52632000  1.0 -0.1365597376
C  C364  1  0.44888000  0.17444000  0.85036000  1.0 -0.1365597376
C  C365  1  0.17444000  0.52632000  0.85036000  1.0 -0.1365597376
C  C366  1  0.44888000  0.85036000  0.52632000  1.0 -0.1365597376
C  C367  1  0.52632000  0.17444000  0.44888000  1.0 -0.1365597376
C  C368  1  0.85036000  0.44888000  0.17444000  1.0 -0.1365597376
C  C369  1  0.85036000  0.17444000  0.52632000  1.0 -0.1365597376
C  C370  1  0.52632000  0.44888000  0.85036000  1.0 -0.1365597376
C  C371  1  0.44888000  0.52632000  0.17444000  1.0 -0.1365597376
C  C372  1  0.17444000  0.85036000  0.44888000  1.0 -0.1365597376
C  C373  1  0.72368000  0.39964000  0.80112000  1.0 -0.1365597376
C  C374  1  0.39964000  0.72368000  0.07556000  1.0 -0.1365597376
C  C375  1  0.07556000  0.80112000  0.39964000  1.0 -0.1365597376
C  C376  1  0.80112000  0.07556000  0.72368000  1.0 -0.1365597376
C  C377  1  0.07556000  0.72368000  0.80112000  1.0 -0.1365597376
C  C378  1  0.80112000  0.39964000  0.07556000  1.0 -0.1365597376
C  C379  1  0.72368000  0.07556000  0.39964000  1.0 -0.1365597376
C  C380  1  0.39964000  0.80112000  0.72368000  1.0 -0.1365597376
C  C381  1  0.39964000  0.07556000  0.80112000  1.0 -0.1365597376
C  C382  1  0.72368000  0.80112000  0.07556000  1.0 -0.1365597376
C  C383  1  0.80112000  0.72368000  0.39964000  1.0 -0.1365597376
C  C384  1  0.07556000  0.39964000  0.72368000  1.0 -0.1365597376
C  C385  1  0.22586000  0.90130000  0.60428000  1.0 -0.0559787778
C  C386  1  0.90130000  0.22586000  0.26856000  1.0 -0.0559787778
C  C387  1  0.60428000  0.26856000  0.22586000  1.0 -0.0559787778
C  C388  1  0.26856000  0.60428000  0.90130000  1.0 -0.0559787778
C  C389  1  0.60428000  0.22586000  0.90130000  1.0 -0.0559787778
C  C390  1  0.26856000  0.90130000  0.22586000  1.0 -0.0559787778
C  C391  1  0.22586000  0.60428000  0.26856000  1.0 -0.0559787778
C  C392  1  0.90130000  0.26856000  0.60428000  1.0 -0.0559787778
C  C393  1  0.90130000  0.60428000  0.22586000  1.0 -0.0559787778
C  C394  1  0.22586000  0.26856000  0.90130000  1.0 -0.0559787778
C  C395  1  0.26856000  0.22586000  0.60428000  1.0 -0.0559787778
C  C396  1  0.60428000  0.90130000  0.26856000  1.0 -0.0559787778
C  C397  1  0.02414000  0.34870000  0.98144000  1.0 -0.0559787778
C  C398  1  0.34870000  0.02414000  0.64572000  1.0 -0.0559787778
C  C399  1  0.64572000  0.98144000  0.34870000  1.0 -0.0559787778
C  C400  1  0.98144000  0.64572000  0.02414000  1.0 -0.0559787778
C  C401  1  0.64572000  0.02414000  0.98144000  1.0 -0.0559787778
C  C402  1  0.98144000  0.34870000  0.64572000  1.0 -0.0559787778
C  C403  1  0.02414000  0.64572000  0.34870000  1.0 -0.0559787778
C  C404  1  0.34870000  0.98144000  0.02414000  1.0 -0.0559787778
C  C405  1  0.34870000  0.64572000  0.98144000  1.0 -0.0559787778
C  C406  1  0.02414000  0.98144000  0.64572000  1.0 -0.0559787778
C  C407  1  0.98144000  0.02414000  0.34870000  1.0 -0.0559787778
C  C408  1  0.64572000  0.34870000  0.02414000  1.0 -0.0559787778
C  C409  1  0.52414000  0.84870000  0.14572000  1.0 -0.0559787778
C  C410  1  0.84870000  0.52414000  0.48144000  1.0 -0.0559787778
C  C411  1  0.14572000  0.48144000  0.52414000  1.0 -0.0559787778
C  C412  1  0.48144000  0.14572000  0.84870000  1.0 -0.0559787778
C  C413  1  0.14572000  0.52414000  0.84870000  1.0 -0.0559787778
C  C414  1  0.48144000  0.84870000  0.52414000  1.0 -0.0559787778
C  C415  1  0.52414000  0.14572000  0.48144000  1.0 -0.0559787778
C  C416  1  0.84870000  0.48144000  0.14572000  1.0 -0.0559787778
C  C417  1  0.84870000  0.14572000  0.52414000  1.0 -0.0559787778
C  C418  1  0.52414000  0.48144000  0.84870000  1.0 -0.0559787778
C  C419  1  0.48144000  0.52414000  0.14572000  1.0 -0.0559787778
C  C420  1  0.14572000  0.84870000  0.48144000  1.0 -0.0559787778
C  C421  1  0.72586000  0.40130000  0.76856000  1.0 -0.0559787778
C  C422  1  0.40130000  0.72586000  0.10428000  1.0 -0.0559787778
C  C423  1  0.10428000  0.76856000  0.40130000  1.0 -0.0559787778
C  C424  1  0.76856000  0.10428000  0.72586000  1.0 -0.0559787778
C  C425  1  0.10428000  0.72586000  0.76856000  1.0 -0.0559787778
C  C426  1  0.76856000  0.40130000  0.10428000  1.0 -0.0559787778
C  C427  1  0.72586000  0.10428000  0.40130000  1.0 -0.0559787778
C  C428  1  0.40130000  0.76856000  0.72586000  1.0 -0.0559787778
C  C429  1  0.40130000  0.10428000  0.76856000  1.0 -0.0559787778
C  C430  1  0.72586000  0.76856000  0.10428000  1.0 -0.0559787778
C  C431  1  0.76856000  0.72586000  0.40130000  1.0 -0.0559787778
C  C432  1  0.10428000  0.40130000  0.72586000  1.0 -0.0559787778
C  C433  1  0.19765000  0.89687000  0.63733000  1.0 -0.0255762965
C  C434  1  0.89687000  0.19765000  0.26815000  1.0 -0.0201390426
C  C435  1  0.63733000  0.26815000  0.19765000  1.0 -0.0201390426
C  C436  1  0.26815000  0.63733000  0.89687000  1.0 -0.0255762965
C  C437  1  0.63733000  0.19765000  0.89687000  1.0 -0.0255762965
C  C438  1  0.26815000  0.89687000  0.19765000  1.0 -0.0255762965
C  C439  1  0.19765000  0.63733000  0.26815000  1.0 -0.0255762965
C  C440  1  0.89687000  0.26815000  0.63733000  1.0 -0.0255762965
C  C441  1  0.89687000  0.63733000  0.19765000  1.0 -0.0255762965
C  C442  1  0.19765000  0.26815000  0.89687000  1.0 -0.0255762965
C  C443  1  0.26815000  0.19765000  0.63733000  1.0 -0.0255762965
C  C444  1  0.63733000  0.89687000  0.26815000  1.0 -0.0255762965
C  C445  1  0.05235000  0.35313000  0.98185000  1.0 -0.0255762965
C  C446  1  0.35313000  0.05235000  0.61267000  1.0 -0.0255762965
C  C447  1  0.61267000  0.98185000  0.35313000  1.0 -0.0255762965
C  C448  1  0.98185000  0.61267000  0.05235000  1.0 -0.0255762965
C  C449  1  0.61267000  0.05235000  0.98185000  1.0 -0.0255762965
C  C450  1  0.98185000  0.35313000  0.61267000  1.0 -0.0255762965
C  C451  1  0.05235000  0.61267000  0.35313000  1.0 -0.0255762965
C  C452  1  0.35313000  0.98185000  0.05235000  1.0 -0.0255762965
C  C453  1  0.35313000  0.61267000  0.98185000  1.0 -0.0255762965
C  C454  1  0.05235000  0.98185000  0.61267000  1.0 -0.0255762965
C  C455  1  0.98185000  0.05235000  0.35313000  1.0 -0.0255762965
C  C456  1  0.61267000  0.35313000  0.05235000  1.0 -0.0255762965
C  C457  1  0.55235000  0.85313000  0.11267000  1.0 -0.0255762965
C  C458  1  0.85313000  0.55235000  0.48185000  1.0 -0.0255762965
C  C459  1  0.11267000  0.48185000  0.55235000  1.0 -0.0255762965
C  C460  1  0.48185000  0.11267000  0.85313000  1.0 -0.0255762965
C  C461  1  0.11267000  0.55235000  0.85313000  1.0 -0.0255762965
C  C462  1  0.48185000  0.85313000  0.55235000  1.0 -0.0255762965
C  C463  1  0.55235000  0.11267000  0.48185000  1.0 -0.0255762965
C  C464  1  0.85313000  0.48185000  0.11267000  1.0 -0.0255762965
C  C465  1  0.85313000  0.11267000  0.55235000  1.0 -0.0255762965
C  C466  1  0.55235000  0.48185000  0.85313000  1.0 -0.0255762965
C  C467  1  0.48185000  0.55235000  0.11267000  1.0 -0.0255762965
C  C468  1  0.11267000  0.85313000  0.48185000  1.0 -0.0201390426
C  C469  1  0.69765000  0.39687000  0.76815000  1.0 -0.0255762965
C  C470  1  0.39687000  0.69765000  0.13733000  1.0 -0.0255762965
C  C471  1  0.13733000  0.76815000  0.39687000  1.0 -0.0255762965
C  C472  1  0.76815000  0.13733000  0.69765000  1.0 -0.0255762965
C  C473  1  0.13733000  0.69765000  0.76815000  1.0 -0.0255762965
C  C474  1  0.76815000  0.39687000  0.13733000  1.0 -0.0255762965
C  C475  1  0.69765000  0.13733000  0.39687000  1.0 -0.0255762965
C  C476  1  0.39687000  0.76815000  0.69765000  1.0 -0.0255762965
C  C477  1  0.39687000  0.13733000  0.76815000  1.0 -0.0255762965
C  C478  1  0.69765000  0.76815000  0.13733000  1.0 -0.0255762965
C  C479  1  0.76815000  0.69765000  0.39687000  1.0 -0.0255762965
C  C480  1  0.13733000  0.39687000  0.69765000  1.0 -0.0255762965
C  C481  1  0.16947000  0.88997000  0.64055000  1.0 0.0606174449
C  C482  1  0.88997000  0.16947000  0.30001000  1.0 0.0606174449
C  C483  1  0.64055000  0.30001000  0.16947000  1.0 0.0606174449
C  C484  1  0.30001000  0.64055000  0.88997000  1.0 0.0606174449
C  C485  1  0.64055000  0.16947000  0.88997000  1.0 0.0606174449
C  C486  1  0.30001000  0.88997000  0.16947000  1.0 0.0606174449
C  C487  1  0.16947000  0.64055000  0.30001000  1.0 0.0606174449
C  C488  1  0.88997000  0.30001000  0.64055000  1.0 0.0606174449
C  C489  1  0.88997000  0.64055000  0.16947000  1.0 0.0606174449
C  C490  1  0.16947000  0.30001000  0.88997000  1.0 0.0606174449
C  C491  1  0.30001000  0.16947000  0.64055000  1.0 0.0606174449
C  C492  1  0.64055000  0.88997000  0.30001000  1.0 0.0606174449
C  C493  1  0.08053000  0.36003000  0.94999000  1.0 0.0606174449
C  C494  1  0.36003000  0.08053000  0.60945000  1.0 0.0606174449
C  C495  1  0.60945000  0.94999000  0.36003000  1.0 0.0606174449
C  C496  1  0.94999000  0.60945000  0.08053000  1.0 0.0606174449
C  C497  1  0.60945000  0.08053000  0.94999000  1.0 0.0606174449
C  C498  1  0.94999000  0.36003000  0.60945000  1.0 0.0606174449
C  C499  1  0.08053000  0.60945000  0.36003000  1.0 0.0606174449
C  C500  1  0.36003000  0.94999000  0.08053000  1.0 0.0606174449
C  C501  1  0.36003000  0.60945000  0.94999000  1.0 0.0606174449
C  C502  1  0.08053000  0.94999000  0.60945000  1.0 0.0606174449
C  C503  1  0.94999000  0.08053000  0.36003000  1.0 0.0606174449
C  C504  1  0.60945000  0.36003000  0.08053000  1.0 0.0606174449
C  C505  1  0.58053000  0.86003000  0.10945000  1.0 0.0606174449
C  C506  1  0.86003000  0.58053000  0.44999000  1.0 0.0606174449
C  C507  1  0.10945000  0.44999000  0.58053000  1.0 0.0606174449
C  C508  1  0.44999000  0.10945000  0.86003000  1.0 0.0606174449
C  C509  1  0.10945000  0.58053000  0.86003000  1.0 0.0606174449
C  C510  1  0.44999000  0.86003000  0.58053000  1.0 0.0606174449
C  C511  1  0.58053000  0.10945000  0.44999000  1.0 0.0606174449
C  C512  1  0.86003000  0.44999000  0.10945000  1.0 0.0606174449
C  C513  1  0.86003000  0.10945000  0.58053000  1.0 0.0606174449
C  C514  1  0.58053000  0.44999000  0.86003000  1.0 0.0606174449
C  C515  1  0.44999000  0.58053000  0.10945000  1.0 0.0606174449
C  C516  1  0.10945000  0.86003000  0.44999000  1.0 0.0606174449
C  C517  1  0.66947000  0.38997000  0.80001000  1.0 0.0606174449
C  C518  1  0.38997000  0.66947000  0.14055000  1.0 0.0606174449
C  C519  1  0.14055000  0.80001000  0.38997000  1.0 0.0606174449
C  C520  1  0.80001000  0.14055000  0.66947000  1.0 0.0606174449
C  C521  1  0.14055000  0.66947000  0.80001000  1.0 0.0606174449
C  C522  1  0.80001000  0.38997000  0.14055000  1.0 0.0606174449
C  C523  1  0.66947000  0.14055000  0.38997000  1.0 0.0606174449
C  C524  1  0.38997000  0.80001000  0.66947000  1.0 0.0606174449
C  C525  1  0.38997000  0.14055000  0.80001000  1.0 0.0606174449
C  C526  1  0.66947000  0.80001000  0.14055000  1.0 0.0606174449
C  C527  1  0.80001000  0.66947000  0.38997000  1.0 0.0606174449
C  C528  1  0.14055000  0.38997000  0.66947000  1.0 0.0606174449
C  C529  1  0.19791000  0.89773000  0.66963000  1.0 0.3819007936
C  C530  1  0.89773000  0.19791000  0.23473000  1.0 0.3819007936
C  C531  1  0.66963000  0.23473000  0.19791000  1.0 0.3819007936
C  C532  1  0.23473000  0.66963000  0.89773000  1.0 0.3819007936
C  C533  1  0.66963000  0.19791000  0.89773000  1.0 0.3819007936
C  C534  1  0.23473000  0.89773000  0.19791000  1.0 0.3819007936
C  C535  1  0.19791000  0.66963000  0.23473000  1.0 0.3819007936
C  C536  1  0.89773000  0.23473000  0.66963000  1.0 0.3819007936
C  C537  1  0.89773000  0.66963000  0.19791000  1.0 0.3819007936
C  C538  1  0.19791000  0.23473000  0.89773000  1.0 0.3819007936
C  C539  1  0.23473000  0.19791000  0.66963000  1.0 0.3819007936
C  C540  1  0.66963000  0.89773000  0.23473000  1.0 0.3819007936
C  C541  1  0.05209000  0.35227000  0.01527000  1.0 0.3819007936
C  C542  1  0.35227000  0.05209000  0.58037000  1.0 0.3819007936
C  C543  1  0.58037000  0.01527000  0.35227000  1.0 0.3819007936
C  C544  1  0.01527000  0.58037000  0.05209000  1.0 0.3819007936
C  C545  1  0.58037000  0.05209000  0.01527000  1.0 0.3819007936
C  C546  1  0.01527000  0.35227000  0.58037000  1.0 0.3819007936
C  C547  1  0.05209000  0.58037000  0.35227000  1.0 0.3819007936
C  C548  1  0.35227000  0.01527000  0.05209000  1.0 0.3819007936
C  C549  1  0.35227000  0.58037000  0.01527000  1.0 0.3819007936
C  C550  1  0.05209000  0.01527000  0.58037000  1.0 0.3819007936
C  C551  1  0.01527000  0.05209000  0.35227000  1.0 0.3819007936
C  C552  1  0.58037000  0.35227000  0.05209000  1.0 0.3819007936
C  C553  1  0.55209000  0.85227000  0.08037000  1.0 0.3819007936
C  C554  1  0.85227000  0.55209000  0.51527000  1.0 0.3819007936
C  C555  1  0.08037000  0.51527000  0.55209000  1.0 0.3819007936
C  C556  1  0.51527000  0.08037000  0.85227000  1.0 0.3819007936
C  C557  1  0.08037000  0.55209000  0.85227000  1.0 0.3819007936
C  C558  1  0.51527000  0.85227000  0.55209000  1.0 0.3819007936
C  C559  1  0.55209000  0.08037000  0.51527000  1.0 0.3819007936
C  C560  1  0.85227000  0.51527000  0.08037000  1.0 0.3819007936
C  C561  1  0.85227000  0.08037000  0.55209000  1.0 0.3819007936
C  C562  1  0.55209000  0.51527000  0.85227000  1.0 0.3819007936
C  C563  1  0.51527000  0.55209000  0.08037000  1.0 0.3819007936
C  C564  1  0.08037000  0.85227000  0.51527000  1.0 0.3819007936
C  C565  1  0.69791000  0.39773000  0.73473000  1.0 0.3819007936
C  C566  1  0.39773000  0.69791000  0.16963000  1.0 0.3819007936
C  C567  1  0.16963000  0.73473000  0.39773000  1.0 0.3819007936
C  C568  1  0.73473000  0.16963000  0.69791000  1.0 0.3819007936
C  C569  1  0.16963000  0.69791000  0.73473000  1.0 0.3819007936
C  C570  1  0.73473000  0.39773000  0.16963000  1.0 0.3819007936
C  C571  1  0.69791000  0.16963000  0.39773000  1.0 0.3819007936
C  C572  1  0.39773000  0.73473000  0.69791000  1.0 0.3819007936
C  C573  1  0.39773000  0.16963000  0.73473000  1.0 0.3819007936
C  C574  1  0.69791000  0.73473000  0.16963000  1.0 0.3819007936
C  C575  1  0.73473000  0.69791000  0.39773000  1.0 0.3819007936
C  C576  1  0.16963000  0.39773000  0.69791000  1.0 0.3819007936
C  C577  1  0.22364000  0.90576000  0.69558000  1.0 0.3705836802
C  C578  1  0.90576000  0.22364000  0.17502000  1.0 0.3705836802
C  C579  1  0.69558000  0.17502000  0.22364000  1.0 0.3705836802
C  C580  1  0.17502000  0.69558000  0.90576000  1.0 0.3705836802
C  C581  1  0.69558000  0.22364000  0.90576000  1.0 0.3705836802
C  C582  1  0.17502000  0.90576000  0.22364000  1.0 0.3705836802
C  C583  1  0.22364000  0.69558000  0.17502000  1.0 0.3705836802
C  C584  1  0.90576000  0.17502000  0.69558000  1.0 0.3705836802
C  C585  1  0.90576000  0.69558000  0.22364000  1.0 0.3705836802
C  C586  1  0.22364000  0.17502000  0.90576000  1.0 0.3705836802
C  C587  1  0.17502000  0.22364000  0.69558000  1.0 0.3705836802
C  C588  1  0.69558000  0.90576000  0.17502000  1.0 0.3705836802
C  C589  1  0.02636000  0.34424000  0.07498000  1.0 0.3705836802
C  C590  1  0.34424000  0.02636000  0.55442000  1.0 0.3705836802
C  C591  1  0.55442000  0.07498000  0.34424000  1.0 0.3705836802
C  C592  1  0.07498000  0.55442000  0.02636000  1.0 0.3705836802
C  C593  1  0.55442000  0.02636000  0.07498000  1.0 0.3705836802
C  C594  1  0.07498000  0.34424000  0.55442000  1.0 0.3705836802
C  C595  1  0.02636000  0.55442000  0.34424000  1.0 0.3705836802
C  C596  1  0.34424000  0.07498000  0.02636000  1.0 0.3705836802
C  C597  1  0.34424000  0.55442000  0.07498000  1.0 0.3705836802
C  C598  1  0.02636000  0.07498000  0.55442000  1.0 0.3705836802
C  C599  1  0.07498000  0.02636000  0.34424000  1.0 0.3705836802
C  C600  1  0.55442000  0.34424000  0.02636000  1.0 0.3705836802
C  C601  1  0.52636000  0.84424000  0.05442000  1.0 0.3705836802
C  C602  1  0.84424000  0.52636000  0.57498000  1.0 0.3705836802
C  C603  1  0.05442000  0.57498000  0.52636000  1.0 0.3705836802
C  C604  1  0.57498000  0.05442000  0.84424000  1.0 0.3705836802
C  C605  1  0.05442000  0.52636000  0.84424000  1.0 0.3705836802
C  C606  1  0.57498000  0.84424000  0.52636000  1.0 0.3705836802
C  C607  1  0.52636000  0.05442000  0.57498000  1.0 0.3705836802
C  C608  1  0.84424000  0.57498000  0.05442000  1.0 0.3705836802
C  C609  1  0.84424000  0.05442000  0.52636000  1.0 0.3705836802
C  C610  1  0.52636000  0.57498000  0.84424000  1.0 0.3705836802
C  C611  1  0.57498000  0.52636000  0.05442000  1.0 0.3705836802
C  C612  1  0.05442000  0.84424000  0.57498000  1.0 0.3705836802
C  C613  1  0.72364000  0.40576000  0.67502000  1.0 0.3705836802
C  C614  1  0.40576000  0.72364000  0.19558000  1.0 0.3819007936
C  C615  1  0.19558000  0.67502000  0.40576000  1.0 0.3705836802
C  C616  1  0.67502000  0.19558000  0.72364000  1.0 0.3705836802
C  C617  1  0.19558000  0.72364000  0.67502000  1.0 0.3705836802
C  C618  1  0.67502000  0.40576000  0.19558000  1.0 0.3705836802
C  C619  1  0.72364000  0.19558000  0.40576000  1.0 0.3705836802
C  C620  1  0.40576000  0.67502000  0.72364000  1.0 0.3705836802
C  C621  1  0.40576000  0.19558000  0.67502000  1.0 0.3705836802
C  C622  1  0.72364000  0.67502000  0.19558000  1.0 0.3705836802
C  C623  1  0.67502000  0.72364000  0.40576000  1.0 0.3705836802
C  C624  1  0.19558000  0.40576000  0.72364000  1.0 0.3705836802
C  C625  1  0.17262000  0.89106000  0.72916000  1.0 0.3705836802
C  C626  1  0.89106000  0.17262000  0.20716000  1.0 0.3705836802
C  C627  1  0.72916000  0.20716000  0.17262000  1.0 0.3705836802
C  C628  1  0.20716000  0.72916000  0.89106000  1.0 0.3705836802
C  C629  1  0.72916000  0.17262000  0.89106000  1.0 0.3705836802
C  C630  1  0.20716000  0.89106000  0.17262000  1.0 0.3705836802
C  C631  1  0.17262000  0.72916000  0.20716000  1.0 0.3705836802
C  C632  1  0.89106000  0.20716000  0.72916000  1.0 0.3705836802
C  C633  1  0.89106000  0.72916000  0.17262000  1.0 0.3705836802
C  C634  1  0.17262000  0.20716000  0.89106000  1.0 0.3705836802
C  C635  1  0.20716000  0.17262000  0.72916000  1.0 0.3705836802
C  C636  1  0.72916000  0.89106000  0.20716000  1.0 0.3705836802
C  C637  1  0.07738000  0.35894000  0.04284000  1.0 0.3705836802
C  C638  1  0.35894000  0.07738000  0.52084000  1.0 0.3705836802
C  C639  1  0.52084000  0.04284000  0.35894000  1.0 0.3705836802
C  C640  1  0.04284000  0.52084000  0.07738000  1.0 0.3705836802
C  C641  1  0.52084000  0.07738000  0.04284000  1.0 0.3705836802
C  C642  1  0.04284000  0.35894000  0.52084000  1.0 0.3705836802
C  C643  1  0.07738000  0.52084000  0.35894000  1.0 0.3705836802
C  C644  1  0.35894000  0.04284000  0.07738000  1.0 0.3705836802
C  C645  1  0.35894000  0.52084000  0.04284000  1.0 0.3705836802
C  C646  1  0.07738000  0.04284000  0.52084000  1.0 0.3705836802
C  C647  1  0.04284000  0.07738000  0.35894000  1.0 0.3705836802
C  C648  1  0.52084000  0.35894000  0.07738000  1.0 0.3705836802
C  C649  1  0.57738000  0.85894000  0.02084000  1.0 0.3705836802
C  C650  1  0.85894000  0.57738000  0.54284000  1.0 0.3705836802
C  C651  1  0.02084000  0.54284000  0.57738000  1.0 0.3705836802
C  C652  1  0.54284000  0.02084000  0.85894000  1.0 0.3705836802
C  C653  1  0.02084000  0.57738000  0.85894000  1.0 0.3705836802
C  C654  1  0.54284000  0.85894000  0.57738000  1.0 0.3705836802
C  C655  1  0.57738000  0.02084000  0.54284000  1.0 0.3705836802
C  C656  1  0.85894000  0.54284000  0.02084000  1.0 0.3705836802
C  C657  1  0.85894000  0.02084000  0.57738000  1.0 0.3705836802
C  C658  1  0.57738000  0.54284000  0.85894000  1.0 0.3705836802
C  C659  1  0.54284000  0.57738000  0.02084000  1.0 0.3705836802
C  C660  1  0.02084000  0.85894000  0.54284000  1.0 0.3705836802
C  C661  1  0.67262000  0.39106000  0.70716000  1.0 0.3705836802
C  C662  1  0.39106000  0.67262000  0.22916000  1.0 0.3705836802
C  C663  1  0.22916000  0.70716000  0.39106000  1.0 0.3705836802
C  C664  1  0.70716000  0.22916000  0.67262000  1.0 0.3705836802
C  C665  1  0.22916000  0.67262000  0.70716000  1.0 0.3705836802
C  C666  1  0.70716000  0.39106000  0.22916000  1.0 0.3705836802
C  C667  1  0.67262000  0.22916000  0.39106000  1.0 0.3705836802
C  C668  1  0.39106000  0.70716000  0.67262000  1.0 0.3705836802
C  C669  1  0.39106000  0.22916000  0.70716000  1.0 0.3705836802
C  C670  1  0.67262000  0.70716000  0.22916000  1.0 0.3705836802
C  C671  1  0.70716000  0.67262000  0.39106000  1.0 0.3705836802
C  C672  1  0.22916000  0.39106000  0.67262000  1.0 0.3705836802
C  C673  1  0.14691000  0.87953000  0.79511000  1.0 0.0606174449
C  C674  1  0.87953000  0.14691000  0.17845000  1.0 0.0606174449
C  C675  1  0.79511000  0.17845000  0.14691000  1.0 0.0606174449
C  C676  1  0.17845000  0.79511000  0.87953000  1.0 0.0606174449
C  C677  1  0.79511000  0.14691000  0.87953000  1.0 0.0606174449
C  C678  1  0.17845000  0.87953000  0.14691000  1.0 0.0606174449
C  C679  1  0.14691000  0.79511000  0.17845000  1.0 0.0606174449
C  C680  1  0.87953000  0.17845000  0.79511000  1.0 0.0606174449
C  C681  1  0.87953000  0.79511000  0.14691000  1.0 0.0606174449
C  C682  1  0.14691000  0.17845000  0.87953000  1.0 0.0606174449
C  C683  1  0.17845000  0.14691000  0.79511000  1.0 0.0606174449
C  C684  1  0.79511000  0.87953000  0.17845000  1.0 0.0606174449
C  C685  1  0.10309000  0.37047000  0.07155000  1.0 0.0606174449
C  C686  1  0.37047000  0.10309000  0.45489000  1.0 0.0606174449
C  C687  1  0.45489000  0.07155000  0.37047000  1.0 0.0606174449
C  C688  1  0.07155000  0.45489000  0.10309000  1.0 0.0606174449
C  C689  1  0.45489000  0.10309000  0.07155000  1.0 0.0606174449
C  C690  1  0.07155000  0.37047000  0.45489000  1.0 0.0606174449
C  C691  1  0.10309000  0.45489000  0.37047000  1.0 0.0606174449
C  C692  1  0.37047000  0.07155000  0.10309000  1.0 0.0606174449
C  C693  1  0.37047000  0.45489000  0.07155000  1.0 0.0606174449
C  C694  1  0.10309000  0.07155000  0.45489000  1.0 0.0606174449
C  C695  1  0.07155000  0.10309000  0.37047000  1.0 0.0606174449
C  C696  1  0.45489000  0.37047000  0.10309000  1.0 0.0606174449
C  C697  1  0.60309000  0.87047000  0.95489000  1.0 0.0606174449
C  C698  1  0.87047000  0.60309000  0.57155000  1.0 0.0606174449
C  C699  1  0.95489000  0.57155000  0.60309000  1.0 0.0606174449
C  C700  1  0.57155000  0.95489000  0.87047000  1.0 0.0606174449
C  C701  1  0.95489000  0.60309000  0.87047000  1.0 0.0606174449
C  C702  1  0.57155000  0.87047000  0.60309000  1.0 0.0606174449
C  C703  1  0.60309000  0.95489000  0.57155000  1.0 0.0606174449
C  C704  1  0.87047000  0.57155000  0.95489000  1.0 0.0606174449
C  C705  1  0.87047000  0.95489000  0.60309000  1.0 0.0606174449
C  C706  1  0.60309000  0.57155000  0.87047000  1.0 0.0606174449
C  C707  1  0.57155000  0.60309000  0.95489000  1.0 0.0606174449
C  C708  1  0.95489000  0.87047000  0.57155000  1.0 0.0606174449
C  C709  1  0.64691000  0.37953000  0.67845000  1.0 0.0606174449
C  C710  1  0.37953000  0.64691000  0.29511000  1.0 0.0606174449
C  C711  1  0.29511000  0.67845000  0.37953000  1.0 0.0606174449
C  C712  1  0.67845000  0.29511000  0.64691000  1.0 0.0606174449
C  C713  1  0.29511000  0.64691000  0.67845000  1.0 0.0606174449
C  C714  1  0.67845000  0.37953000  0.29511000  1.0 0.0606174449
C  C715  1  0.64691000  0.29511000  0.37953000  1.0 0.0606174449
C  C716  1  0.37953000  0.67845000  0.64691000  1.0 0.0606174449
C  C717  1  0.37953000  0.29511000  0.67845000  1.0 0.0606174449
C  C718  1  0.64691000  0.67845000  0.29511000  1.0 0.0606174449
C  C719  1  0.67845000  0.64691000  0.37953000  1.0 0.0606174449
C  C720  1  0.29511000  0.37953000  0.64691000  1.0 0.0606174449
C  C721  1  0.14488000  0.88142000  0.76416000  1.0 -0.0255762965
C  C722  1  0.88142000  0.14488000  0.20954000  1.0 -0.0255762965
C  C723  1  0.76416000  0.20954000  0.14488000  1.0 -0.0255762965
C  C724  1  0.20954000  0.76416000  0.88142000  1.0 -0.0255762965
C  C725  1  0.76416000  0.14488000  0.88142000  1.0 -0.0255762965
C  C726  1  0.20954000  0.88142000  0.14488000  1.0 -0.0255762965
C  C727  1  0.14488000  0.76416000  0.20954000  1.0 -0.0255762965
C  C728  1  0.88142000  0.20954000  0.76416000  1.0 -0.0255762965
C  C729  1  0.88142000  0.76416000  0.14488000  1.0 -0.0255762965
C  C730  1  0.14488000  0.20954000  0.88142000  1.0 -0.0255762965
C  C731  1  0.20954000  0.14488000  0.76416000  1.0 -0.0255762965
C  C732  1  0.76416000  0.88142000  0.20954000  1.0 -0.0255762965
C  C733  1  0.10512000  0.36858000  0.04046000  1.0 -0.0255762965
C  C734  1  0.36858000  0.10512000  0.48584000  1.0 -0.0255762965
C  C735  1  0.48584000  0.04046000  0.36858000  1.0 -0.0255762965
C  C736  1  0.04046000  0.48584000  0.10512000  1.0 -0.0255762965
C  C737  1  0.48584000  0.10512000  0.04046000  1.0 -0.0255762965
C  C738  1  0.04046000  0.36858000  0.48584000  1.0 -0.0255762965
C  C739  1  0.10512000  0.48584000  0.36858000  1.0 -0.0255762965
C  C740  1  0.36858000  0.04046000  0.10512000  1.0 -0.0255762965
C  C741  1  0.36858000  0.48584000  0.04046000  1.0 -0.0255762965
C  C742  1  0.10512000  0.04046000  0.48584000  1.0 -0.0255762965
C  C743  1  0.04046000  0.10512000  0.36858000  1.0 -0.0255762965
C  C744  1  0.48584000  0.36858000  0.10512000  1.0 -0.0255762965
C  C745  1  0.60512000  0.86858000  0.98584000  1.0 -0.0255762965
C  C746  1  0.86858000  0.60512000  0.54046000  1.0 -0.0255762965
C  C747  1  0.98584000  0.54046000  0.60512000  1.0 -0.0255762965
C  C748  1  0.54046000  0.98584000  0.86858000  1.0 -0.0255762965
C  C749  1  0.98584000  0.60512000  0.86858000  1.0 -0.0255762965
C  C750  1  0.54046000  0.86858000  0.60512000  1.0 -0.0255762965
C  C751  1  0.60512000  0.98584000  0.54046000  1.0 -0.0255762965
C  C752  1  0.86858000  0.54046000  0.98584000  1.0 -0.0255762965
C  C753  1  0.86858000  0.98584000  0.60512000  1.0 -0.0255762965
C  C754  1  0.60512000  0.54046000  0.86858000  1.0 -0.0255762965
C  C755  1  0.54046000  0.60512000  0.98584000  1.0 -0.0255762965
C  C756  1  0.98584000  0.86858000  0.54046000  1.0 -0.0255762965
C  C757  1  0.64488000  0.38142000  0.70954000  1.0 -0.0255762965
C  C758  1  0.38142000  0.64488000  0.26416000  1.0 -0.0255762965
C  C759  1  0.26416000  0.70954000  0.38142000  1.0 -0.0255762965
C  C760  1  0.70954000  0.26416000  0.64488000  1.0 -0.0255762965
C  C761  1  0.26416000  0.64488000  0.70954000  1.0 -0.0255762965
C  C762  1  0.70954000  0.38142000  0.26416000  1.0 -0.0255762965
C  C763  1  0.64488000  0.26416000  0.38142000  1.0 -0.0255762965
C  C764  1  0.38142000  0.70954000  0.64488000  1.0 -0.0255762965
C  C765  1  0.38142000  0.26416000  0.70954000  1.0 -0.0255762965
C  C766  1  0.64488000  0.70954000  0.26416000  1.0 -0.0255762965
C  C767  1  0.70954000  0.64488000  0.38142000  1.0 -0.0255762965
C  C768  1  0.26416000  0.38142000  0.64488000  1.0 -0.0255762965
C  C769  1  0.11686000  0.87394000  0.76784000  1.0 -0.0559787778
C  C770  1  0.87394000  0.11686000  0.24136000  1.0 -0.0559787778
C  C771  1  0.76784000  0.24136000  0.11686000  1.0 -0.0559787778
C  C772  1  0.24136000  0.76784000  0.87394000  1.0 -0.0559787778
C  C773  1  0.76784000  0.11686000  0.87394000  1.0 -0.0559787778
C  C774  1  0.24136000  0.87394000  0.11686000  1.0 -0.0559787778
C  C775  1  0.11686000  0.76784000  0.24136000  1.0 -0.0559787778
C  C776  1  0.87394000  0.24136000  0.76784000  1.0 -0.0559787778
C  C777  1  0.87394000  0.76784000  0.11686000  1.0 -0.0559787778
C  C778  1  0.11686000  0.24136000  0.87394000  1.0 -0.0559787778
C  C779  1  0.24136000  0.11686000  0.76784000  1.0 -0.0559787778
C  C780  1  0.76784000  0.87394000  0.24136000  1.0 -0.0559787778
C  C781  1  0.13314000  0.37606000  0.00864000  1.0 -0.0559787778
C  C782  1  0.37606000  0.13314000  0.48216000  1.0 -0.0559787778
C  C783  1  0.48216000  0.00864000  0.37606000  1.0 -0.0559787778
C  C784  1  0.00864000  0.48216000  0.13314000  1.0 -0.0559787778
C  C785  1  0.48216000  0.13314000  0.00864000  1.0 -0.0559787778
C  C786  1  0.00864000  0.37606000  0.48216000  1.0 -0.0559787778
C  C787  1  0.13314000  0.48216000  0.37606000  1.0 -0.0559787778
C  C788  1  0.37606000  0.00864000  0.13314000  1.0 -0.0559787778
C  C789  1  0.37606000  0.48216000  0.00864000  1.0 -0.0559787778
C  C790  1  0.13314000  0.00864000  0.48216000  1.0 -0.0559787778
C  C791  1  0.00864000  0.13314000  0.37606000  1.0 -0.0559787778
C  C792  1  0.48216000  0.37606000  0.13314000  1.0 -0.0559787778
C  C793  1  0.63314000  0.87606000  0.98216000  1.0 -0.0559787778
C  C794  1  0.87606000  0.63314000  0.50864000  1.0 -0.0559787778
C  C795  1  0.98216000  0.50864000  0.63314000  1.0 -0.0559787778
C  C796  1  0.50864000  0.98216000  0.87606000  1.0 -0.0559787778
C  C797  1  0.98216000  0.63314000  0.87606000  1.0 -0.0559787778
C  C798  1  0.50864000  0.87606000  0.63314000  1.0 -0.0559787778
C  C799  1  0.63314000  0.98216000  0.50864000  1.0 -0.0559787778
C  C800  1  0.87606000  0.50864000  0.98216000  1.0 -0.0559787778
C  C801  1  0.87606000  0.98216000  0.63314000  1.0 -0.0559787778
C  C802  1  0.63314000  0.50864000  0.87606000  1.0 -0.0559787778
C  C803  1  0.50864000  0.63314000  0.98216000  1.0 -0.0559787778
C  C804  1  0.98216000  0.87606000  0.50864000  1.0 -0.0559787778
C  C805  1  0.61686000  0.37394000  0.74136000  1.0 -0.0559787778
C  C806  1  0.37394000  0.61686000  0.26784000  1.0 -0.0559787778
C  C807  1  0.26784000  0.74136000  0.37394000  1.0 -0.0559787778
C  C808  1  0.74136000  0.26784000  0.61686000  1.0 -0.0559787778
C  C809  1  0.26784000  0.61686000  0.74136000  1.0 -0.0559787778
C  C810  1  0.74136000  0.37394000  0.26784000  1.0 -0.0559787778
C  C811  1  0.61686000  0.26784000  0.37394000  1.0 -0.0559787778
C  C812  1  0.37394000  0.74136000  0.61686000  1.0 -0.0559787778
C  C813  1  0.37394000  0.26784000  0.74136000  1.0 -0.0559787778
C  C814  1  0.61686000  0.74136000  0.26784000  1.0 -0.0559787778
C  C815  1  0.74136000  0.61686000  0.37394000  1.0 -0.0559787778
C  C816  1  0.26784000  0.37394000  0.61686000  1.0 -0.0559787778
C  C817  1  0.09159000  0.86557000  0.80225000  1.0 -0.1298392827
C  C818  1  0.86557000  0.09159000  0.24059000  1.0 -0.1298392827
C  C819  1  0.80225000  0.24059000  0.09159000  1.0 -0.1298392827
C  C820  1  0.24059000  0.80225000  0.86557000  1.0 -0.1298392827
C  C821  1  0.80225000  0.09159000  0.86557000  1.0 -0.1298392827
C  C822  1  0.24059000  0.86557000  0.09159000  1.0 -0.1298392827
C  C823  1  0.09159000  0.80225000  0.24059000  1.0 -0.1298392827
C  C824  1  0.86557000  0.24059000  0.80225000  1.0 -0.1298392827
C  C825  1  0.86557000  0.80225000  0.09159000  1.0 -0.1298392827
C  C826  1  0.09159000  0.24059000  0.86557000  1.0 -0.1298392827
C  C827  1  0.24059000  0.09159000  0.80225000  1.0 -0.1298392827
C  C828  1  0.80225000  0.86557000  0.24059000  1.0 -0.1298392827
C  C829  1  0.15841000  0.38443000  0.00941000  1.0 -0.1298392827
C  C830  1  0.38443000  0.15841000  0.44775000  1.0 -0.1298392827
C  C831  1  0.44775000  0.00941000  0.38443000  1.0 -0.1298392827
C  C832  1  0.00941000  0.44775000  0.15841000  1.0 -0.1298392827
C  C833  1  0.44775000  0.15841000  0.00941000  1.0 -0.1298392827
C  C834  1  0.00941000  0.38443000  0.44775000  1.0 -0.1298392827
C  C835  1  0.15841000  0.44775000  0.38443000  1.0 -0.1298392827
C  C836  1  0.38443000  0.00941000  0.15841000  1.0 -0.1298392827
C  C837  1  0.38443000  0.44775000  0.00941000  1.0 -0.1298392827
C  C838  1  0.15841000  0.00941000  0.44775000  1.0 -0.1298392827
C  C839  1  0.00941000  0.15841000  0.38443000  1.0 -0.1298392827
C  C840  1  0.44775000  0.38443000  0.15841000  1.0 -0.1298392827
C  C841  1  0.65841000  0.88443000  0.94775000  1.0 -0.1298392827
C  C842  1  0.88443000  0.65841000  0.50941000  1.0 -0.1298392827
C  C843  1  0.94775000  0.50941000  0.65841000  1.0 -0.1298392827
C  C844  1  0.50941000  0.94775000  0.88443000  1.0 -0.1298392827
C  C845  1  0.94775000  0.65841000  0.88443000  1.0 -0.1298392827
C  C846  1  0.50941000  0.88443000  0.65841000  1.0 -0.1298392827
C  C847  1  0.65841000  0.94775000  0.50941000  1.0 -0.1298392827
C  C848  1  0.88443000  0.50941000  0.94775000  1.0 -0.1298392827
C  C849  1  0.88443000  0.94775000  0.65841000  1.0 -0.1298392827
C  C850  1  0.65841000  0.50941000  0.88443000  1.0 -0.1298392827
C  C851  1  0.50941000  0.65841000  0.94775000  1.0 -0.1298392827
C  C852  1  0.94775000  0.88443000  0.50941000  1.0 -0.1298392827
C  C853  1  0.59159000  0.36557000  0.74059000  1.0 -0.1298392827
C  C854  1  0.36557000  0.59159000  0.30225000  1.0 -0.1298392827
C  C855  1  0.30225000  0.74059000  0.36557000  1.0 -0.1298392827
C  C856  1  0.74059000  0.30225000  0.59159000  1.0 -0.1298392827
C  C857  1  0.30225000  0.59159000  0.74059000  1.0 -0.1298392827
C  C858  1  0.74059000  0.36557000  0.30225000  1.0 -0.1298392827
C  C859  1  0.59159000  0.30225000  0.36557000  1.0 -0.1298392827
C  C860  1  0.36557000  0.74059000  0.59159000  1.0 -0.1298392827
C  C861  1  0.36557000  0.30225000  0.74059000  1.0 -0.1298392827
C  C862  1  0.59159000  0.74059000  0.30225000  1.0 -0.1298392827
C  C863  1  0.74059000  0.59159000  0.36557000  1.0 -0.1298392827
C  C864  1  0.30225000  0.36557000  0.59159000  1.0 -0.1298392827
C  C865  1  0.09595000  0.86383000  0.83125000  1.0 0.0719618374
C  C866  1  0.86383000  0.09595000  0.20897000  1.0 0.0719618374
C  C867  1  0.83125000  0.20897000  0.09595000  1.0 0.0719618374
C  C868  1  0.20897000  0.83125000  0.86383000  1.0 0.0719618374
C  C869  1  0.83125000  0.09595000  0.86383000  1.0 0.0719618374
C  C870  1  0.20897000  0.86383000  0.09595000  1.0 0.0719618374
C  C871  1  0.09595000  0.83125000  0.20897000  1.0 0.0719618374
C  C872  1  0.86383000  0.20897000  0.83125000  1.0 0.0719618374
C  C873  1  0.86383000  0.83125000  0.09595000  1.0 0.0719618374
C  C874  1  0.09595000  0.20897000  0.86383000  1.0 0.0719618374
C  C875  1  0.20897000  0.09595000  0.83125000  1.0 0.0719618374
C  C876  1  0.83125000  0.86383000  0.20897000  1.0 0.0719618374
C  C877  1  0.15405000  0.38617000  0.04103000  1.0 0.0719618374
C  C878  1  0.38617000  0.15405000  0.41875000  1.0 0.0762520099
C  C879  1  0.41875000  0.04103000  0.38617000  1.0 0.0719618374
C  C880  1  0.04103000  0.41875000  0.15405000  1.0 0.0719618374
C  C881  1  0.41875000  0.15405000  0.04103000  1.0 0.0719618374
C  C882  1  0.04103000  0.38617000  0.41875000  1.0 0.0719618374
C  C883  1  0.15405000  0.41875000  0.38617000  1.0 0.0719618374
C  C884  1  0.38617000  0.04103000  0.15405000  1.0 0.0719618374
C  C885  1  0.38617000  0.41875000  0.04103000  1.0 0.0719618374
C  C886  1  0.15405000  0.04103000  0.41875000  1.0 0.0762520099
C  C887  1  0.04103000  0.15405000  0.38617000  1.0 0.0719618374
C  C888  1  0.41875000  0.38617000  0.15405000  1.0 0.0719618374
C  C889  1  0.65405000  0.88617000  0.91875000  1.0 0.0719618374
C  C890  1  0.88617000  0.65405000  0.54103000  1.0 0.0719618374
C  C891  1  0.91875000  0.54103000  0.65405000  1.0 0.0719618374
C  C892  1  0.54103000  0.91875000  0.88617000  1.0 0.0719618374
C  C893  1  0.91875000  0.65405000  0.88617000  1.0 0.0719618374
C  C894  1  0.54103000  0.88617000  0.65405000  1.0 0.0719618374
C  C895  1  0.65405000  0.91875000  0.54103000  1.0 0.0719618374
C  C896  1  0.88617000  0.54103000  0.91875000  1.0 0.0719618374
C  C897  1  0.88617000  0.91875000  0.65405000  1.0 0.0719618374
C  C898  1  0.65405000  0.54103000  0.88617000  1.0 0.0719618374
C  C899  1  0.54103000  0.65405000  0.91875000  1.0 0.0719618374
C  C900  1  0.91875000  0.88617000  0.54103000  1.0 0.0719618374
C  C901  1  0.59595000  0.36383000  0.70897000  1.0 0.0719618374
C  C902  1  0.36383000  0.59595000  0.33125000  1.0 0.0719618374
C  C903  1  0.33125000  0.70897000  0.36383000  1.0 0.0719618374
C  C904  1  0.70897000  0.33125000  0.59595000  1.0 0.0719618374
C  C905  1  0.33125000  0.59595000  0.70897000  1.0 0.0719618374
C  C906  1  0.70897000  0.36383000  0.33125000  1.0 0.0719618374
C  C907  1  0.59595000  0.33125000  0.36383000  1.0 0.0719618374
C  C908  1  0.36383000  0.70897000  0.59595000  1.0 0.0719618374
C  C909  1  0.36383000  0.33125000  0.70897000  1.0 0.0719618374
C  C910  1  0.59595000  0.70897000  0.33125000  1.0 0.0719618374
C  C911  1  0.70897000  0.59595000  0.36383000  1.0 0.0719618374
C  C912  1  0.33125000  0.36383000  0.59595000  1.0 0.0719618374
C  C913  1  0.07900000  0.94824000  0.83702000  1.0 0.0719618374
C  C914  1  0.94824000  0.07900000  0.13574000  1.0 0.0719618374
C  C915  1  0.83702000  0.13574000  0.07900000  1.0 0.0719618374
C  C916  1  0.13574000  0.83702000  0.94824000  1.0 0.0719618374
C  C917  1  0.83702000  0.07900000  0.94824000  1.0 0.0719618374
C  C918  1  0.13574000  0.94824000  0.07900000  1.0 0.0719618374
C  C919  1  0.07900000  0.83702000  0.13574000  1.0 0.0719618374
C  C920  1  0.94824000  0.13574000  0.83702000  1.0 0.0719618374
C  C921  1  0.94824000  0.83702000  0.07900000  1.0 0.0719618374
C  C922  1  0.07900000  0.13574000  0.94824000  1.0 0.0719618374
C  C923  1  0.13574000  0.07900000  0.83702000  1.0 0.0719618374
C  C924  1  0.83702000  0.94824000  0.13574000  1.0 0.0719618374
C  C925  1  0.17100000  0.30176000  0.11426000  1.0 0.0719618374
C  C926  1  0.30176000  0.17100000  0.41298000  1.0 0.0719618374
C  C927  1  0.41298000  0.11426000  0.30176000  1.0 0.0719618374
C  C928  1  0.11426000  0.41298000  0.17100000  1.0 0.0719618374
C  C929  1  0.41298000  0.17100000  0.11426000  1.0 0.0719618374
C  C930  1  0.11426000  0.30176000  0.41298000  1.0 0.0719618374
C  C931  1  0.17100000  0.41298000  0.30176000  1.0 0.0719618374
C  C932  1  0.30176000  0.11426000  0.17100000  1.0 0.0719618374
C  C933  1  0.30176000  0.41298000  0.11426000  1.0 0.0719618374
C  C934  1  0.17100000  0.11426000  0.41298000  1.0 0.0719618374
C  C935  1  0.11426000  0.17100000  0.30176000  1.0 0.0719618374
C  C936  1  0.41298000  0.30176000  0.17100000  1.0 0.0719618374
C  C937  1  0.67100000  0.80176000  0.91298000  1.0 0.0719618374
C  C938  1  0.80176000  0.67100000  0.61426000  1.0 0.0719618374
C  C939  1  0.91298000  0.61426000  0.67100000  1.0 0.0719618374
C  C940  1  0.61426000  0.91298000  0.80176000  1.0 0.0719618374
C  C941  1  0.91298000  0.67100000  0.80176000  1.0 0.0719618374
C  C942  1  0.61426000  0.80176000  0.67100000  1.0 0.0719618374
C  C943  1  0.67100000  0.91298000  0.61426000  1.0 0.0719618374
C  C944  1  0.80176000  0.61426000  0.91298000  1.0 0.0719618374
C  C945  1  0.80176000  0.91298000  0.67100000  1.0 0.0719618374
C  C946  1  0.67100000  0.61426000  0.80176000  1.0 0.0719618374
C  C947  1  0.61426000  0.67100000  0.91298000  1.0 0.0719618374
C  C948  1  0.91298000  0.80176000  0.61426000  1.0 0.0719618374
C  C949  1  0.57900000  0.44824000  0.63574000  1.0 0.0719618374
C  C950  1  0.44824000  0.57900000  0.33702000  1.0 0.0719618374
C  C951  1  0.33702000  0.63574000  0.44824000  1.0 0.0719618374
C  C952  1  0.63574000  0.33702000  0.57900000  1.0 0.0719618374
C  C953  1  0.33702000  0.57900000  0.63574000  1.0 0.0719618374
C  C954  1  0.63574000  0.44824000  0.33702000  1.0 0.0719618374
C  C955  1  0.57900000  0.33702000  0.44824000  1.0 0.0719618374
C  C956  1  0.44824000  0.63574000  0.57900000  1.0 0.0719618374
C  C957  1  0.44824000  0.33702000  0.63574000  1.0 0.0719618374
C  C958  1  0.57900000  0.63574000  0.33702000  1.0 0.0719618374
C  C959  1  0.63574000  0.57900000  0.44824000  1.0 0.0719618374
C  C960  1  0.33702000  0.44824000  0.57900000  1.0 0.0719618374
C  C961  1  0.04934000  0.97734000  0.83146000  1.0 -0.1298392827
C  C962  1  0.97734000  0.04934000  0.14186000  1.0 -0.1298392827
C  C963  1  0.83146000  0.14186000  0.04934000  1.0 -0.1298392827
C  C964  1  0.14186000  0.83146000  0.97734000  1.0 -0.1298392827
C  C965  1  0.83146000  0.04934000  0.97734000  1.0 -0.1298392827
C  C966  1  0.14186000  0.97734000  0.04934000  1.0 -0.1298392827
C  C967  1  0.04934000  0.83146000  0.14186000  1.0 -0.1298392827
C  C968  1  0.97734000  0.14186000  0.83146000  1.0 -0.1298392827
C  C969  1  0.97734000  0.83146000  0.04934000  1.0 -0.1298392827
C  C970  1  0.04934000  0.14186000  0.97734000  1.0 -0.1298392827
C  C971  1  0.14186000  0.04934000  0.83146000  1.0 -0.1298392827
C  C972  1  0.83146000  0.97734000  0.14186000  1.0 -0.1298392827
C  C973  1  0.20066000  0.27266000  0.10814000  1.0 -0.1298392827
C  C974  1  0.27266000  0.20066000  0.41854000  1.0 -0.1298392827
C  C975  1  0.41854000  0.10814000  0.27266000  1.0 -0.1298392827
C  C976  1  0.10814000  0.41854000  0.20066000  1.0 -0.1298392827
C  C977  1  0.41854000  0.20066000  0.10814000  1.0 -0.1298392827
C  C978  1  0.10814000  0.27266000  0.41854000  1.0 -0.1298392827
C  C979  1  0.20066000  0.41854000  0.27266000  1.0 -0.1298392827
C  C980  1  0.27266000  0.10814000  0.20066000  1.0 -0.1298392827
C  C981  1  0.27266000  0.41854000  0.10814000  1.0 -0.1298392827
C  C982  1  0.20066000  0.10814000  0.41854000  1.0 -0.1298392827
C  C983  1  0.10814000  0.20066000  0.27266000  1.0 -0.1298392827
C  C984  1  0.41854000  0.27266000  0.20066000  1.0 -0.1298392827
C  C985  1  0.70066000  0.77266000  0.91854000  1.0 -0.1298392827
C  C986  1  0.77266000  0.70066000  0.60814000  1.0 -0.1298392827
C  C987  1  0.91854000  0.60814000  0.70066000  1.0 -0.1298392827
C  C988  1  0.60814000  0.91854000  0.77266000  1.0 -0.1298392827
C  C989  1  0.91854000  0.70066000  0.77266000  1.0 -0.1298392827
C  C990  1  0.60814000  0.77266000  0.70066000  1.0 -0.1298392827
C  C991  1  0.70066000  0.91854000  0.60814000  1.0 -0.1298392827
C  C992  1  0.77266000  0.60814000  0.91854000  1.0 -0.1298392827
C  C993  1  0.77266000  0.91854000  0.70066000  1.0 -0.1298392827
C  C994  1  0.70066000  0.60814000  0.77266000  1.0 -0.1298392827
C  C995  1  0.60814000  0.70066000  0.91854000  1.0 -0.1298392827
C  C996  1  0.91854000  0.77266000  0.60814000  1.0 -0.1298392827
C  C997  1  0.54934000  0.47734000  0.64186000  1.0 -0.1298392827
C  C998  1  0.47734000  0.54934000  0.33146000  1.0 -0.1298392827
C  C999  1  0.33146000  0.64186000  0.47734000  1.0 -0.1298392827
C  C1000  1  0.64186000  0.33146000  0.54934000  1.0 -0.1298392827
C  C1001  1  0.33146000  0.54934000  0.64186000  1.0 -0.1298392827
C  C1002  1  0.64186000  0.47734000  0.33146000  1.0 -0.1298392827
C  C1003  1  0.54934000  0.33146000  0.47734000  1.0 -0.1298392827
C  C1004  1  0.47734000  0.64186000  0.54934000  1.0 -0.1298392827
C  C1005  1  0.47734000  0.33146000  0.64186000  1.0 -0.1298392827
C  C1006  1  0.54934000  0.64186000  0.33146000  1.0 -0.1298392827
C  C1007  1  0.64186000  0.54934000  0.47734000  1.0 -0.1298392827
C  C1008  1  0.33146000  0.47734000  0.54934000  1.0 -0.1298392827
C  C1009  1  0.01663000  0.98003000  0.86057000  1.0 -0.0559787778
C  C1010  1  0.98003000  0.01663000  0.14277000  1.0 -0.0559787778
C  C1011  1  0.86057000  0.14277000  0.01663000  1.0 -0.0535059017
C  C1012  1  0.14277000  0.86057000  0.98003000  1.0 -0.0559787778
C  C1013  1  0.86057000  0.01663000  0.98003000  1.0 -0.0559787778
C  C1014  1  0.14277000  0.98003000  0.01663000  1.0 -0.0559787778
C  C1015  1  0.01663000  0.86057000  0.14277000  1.0 -0.0535059017
C  C1016  1  0.98003000  0.14277000  0.86057000  1.0 -0.0559787778
C  C1017  1  0.98003000  0.86057000  0.01663000  1.0 -0.0559787778
C  C1018  1  0.01663000  0.14277000  0.98003000  1.0 -0.0559787778
C  C1019  1  0.14277000  0.01663000  0.86057000  1.0 -0.0559787778
C  C1020  1  0.86057000  0.98003000  0.14277000  1.0 -0.0535059017
C  C1021  1  0.23337000  0.26997000  0.10723000  1.0 -0.0559787778
C  C1022  1  0.26997000  0.23337000  0.38943000  1.0 -0.0535059017
C  C1023  1  0.38943000  0.10723000  0.26997000  1.0 -0.0535059017
C  C1024  1  0.10723000  0.38943000  0.23337000  1.0 -0.0559787778
C  C1025  1  0.38943000  0.23337000  0.10723000  1.0 -0.0559787778
C  C1026  1  0.10723000  0.26997000  0.38943000  1.0 -0.0559787778
C  C1027  1  0.23337000  0.38943000  0.26997000  1.0 -0.0535059017
C  C1028  1  0.26997000  0.10723000  0.23337000  1.0 -0.0535059017
C  C1029  1  0.26997000  0.38943000  0.10723000  1.0 -0.0535059017
C  C1030  1  0.23337000  0.10723000  0.38943000  1.0 -0.0559787778
C  C1031  1  0.10723000  0.23337000  0.26997000  1.0 -0.0535059017
C  C1032  1  0.38943000  0.26997000  0.23337000  1.0 -0.0559787778
C  C1033  1  0.73337000  0.76997000  0.88943000  1.0 -0.0559787778
C  C1034  1  0.76997000  0.73337000  0.60723000  1.0 -0.0559787778
C  C1035  1  0.88943000  0.60723000  0.73337000  1.0 -0.0535059017
C  C1036  1  0.60723000  0.88943000  0.76997000  1.0 -0.0559787778
C  C1037  1  0.88943000  0.73337000  0.76997000  1.0 -0.0559787778
C  C1038  1  0.60723000  0.76997000  0.73337000  1.0 -0.0559787778
C  C1039  1  0.73337000  0.88943000  0.60723000  1.0 -0.0535059017
C  C1040  1  0.76997000  0.60723000  0.88943000  1.0 -0.0535059017
C  C1041  1  0.76997000  0.88943000  0.73337000  1.0 -0.0559787778
C  C1042  1  0.73337000  0.60723000  0.76997000  1.0 -0.0559787778
C  C1043  1  0.60723000  0.73337000  0.88943000  1.0 -0.0559787778
C  C1044  1  0.88943000  0.76997000  0.60723000  1.0 -0.0559787778
C  C1045  1  0.51663000  0.48003000  0.64277000  1.0 -0.0559787778
C  C1046  1  0.48003000  0.51663000  0.36057000  1.0 -0.0559787778
C  C1047  1  0.36057000  0.64277000  0.48003000  1.0 -0.0559787778
C  C1048  1  0.64277000  0.36057000  0.51663000  1.0 -0.0559787778
C  C1049  1  0.36057000  0.51663000  0.64277000  1.0 -0.0559787778
C  C1050  1  0.64277000  0.48003000  0.36057000  1.0 -0.0559787778
C  C1051  1  0.51663000  0.36057000  0.48003000  1.0 -0.0535059017
C  C1052  1  0.48003000  0.64277000  0.51663000  1.0 -0.0559787778
C  C1053  1  0.48003000  0.36057000  0.64277000  1.0 -0.0559787778
C  C1054  1  0.51663000  0.64277000  0.36057000  1.0 -0.0535059017
C  C1055  1  0.64277000  0.51663000  0.48003000  1.0 -0.0559787778
C  C1056  1  0.36057000  0.48003000  0.51663000  1.0 -0.0559787778
C  C1057  1  0.01625000  0.95223000  0.89343000  1.0 -0.0201390426
C  C1058  1  0.95223000  0.01625000  0.13809000  1.0 -0.0201390426
C  C1059  1  0.89343000  0.13809000  0.01625000  1.0 -0.0201390426
C  C1060  1  0.13809000  0.89343000  0.95223000  1.0 -0.0201390426
C  C1061  1  0.89343000  0.01625000  0.95223000  1.0 -0.0201390426
C  C1062  1  0.13809000  0.95223000  0.01625000  1.0 -0.0201390426
C  C1063  1  0.01625000  0.89343000  0.13809000  1.0 -0.0201390426
C  C1064  1  0.95223000  0.13809000  0.89343000  1.0 -0.0201390426
C  C1065  1  0.95223000  0.89343000  0.01625000  1.0 -0.0201390426
C  C1066  1  0.01625000  0.13809000  0.95223000  1.0 -0.0201390426
C  C1067  1  0.13809000  0.01625000  0.89343000  1.0 -0.0201390426
C  C1068  1  0.89343000  0.95223000  0.13809000  1.0 -0.0201390426
C  C1069  1  0.23375000  0.29777000  0.11191000  1.0 -0.0201390426
C  C1070  1  0.29777000  0.23375000  0.35657000  1.0 -0.0201390426
C  C1071  1  0.35657000  0.11191000  0.29777000  1.0 -0.0201390426
C  C1072  1  0.11191000  0.35657000  0.23375000  1.0 -0.0201390426
C  C1073  1  0.35657000  0.23375000  0.11191000  1.0 -0.0201390426
C  C1074  1  0.11191000  0.29777000  0.35657000  1.0 -0.0201390426
C  C1075  1  0.23375000  0.35657000  0.29777000  1.0 -0.0201390426
C  C1076  1  0.29777000  0.11191000  0.23375000  1.0 -0.0201390426
C  C1077  1  0.29777000  0.35657000  0.11191000  1.0 -0.0201390426
C  C1078  1  0.23375000  0.11191000  0.35657000  1.0 -0.0201390426
C  C1079  1  0.11191000  0.23375000  0.29777000  1.0 -0.0201390426
C  C1080  1  0.35657000  0.29777000  0.23375000  1.0 -0.0201390426
C  C1081  1  0.73375000  0.79777000  0.85657000  1.0 -0.0201390426
C  C1082  1  0.79777000  0.73375000  0.61191000  1.0 -0.0201390426
C  C1083  1  0.85657000  0.61191000  0.73375000  1.0 -0.0201390426
C  C1084  1  0.61191000  0.85657000  0.79777000  1.0 -0.0201390426
C  C1085  1  0.85657000  0.73375000  0.79777000  1.0 -0.0201390426
C  C1086  1  0.61191000  0.79777000  0.73375000  1.0 -0.0201390426
C  C1087  1  0.73375000  0.85657000  0.61191000  1.0 -0.0201390426
C  C1088  1  0.79777000  0.61191000  0.85657000  1.0 -0.0201390426
C  C1089  1  0.79777000  0.85657000  0.73375000  1.0 -0.0201390426
C  C1090  1  0.73375000  0.61191000  0.79777000  1.0 -0.0201390426
C  C1091  1  0.61191000  0.73375000  0.85657000  1.0 -0.0201390426
C  C1092  1  0.85657000  0.79777000  0.61191000  1.0 -0.0201390426
C  C1093  1  0.51625000  0.45223000  0.63809000  1.0 -0.0201390426
C  C1094  1  0.45223000  0.51625000  0.39343000  1.0 -0.0201390426
C  C1095  1  0.39343000  0.63809000  0.45223000  1.0 -0.0201390426
C  C1096  1  0.63809000  0.39343000  0.51625000  1.0 -0.0201390426
C  C1097  1  0.39343000  0.51625000  0.63809000  1.0 -0.0201390426
C  C1098  1  0.63809000  0.45223000  0.39343000  1.0 -0.0201390426
C  C1099  1  0.51625000  0.39343000  0.45223000  1.0 -0.0201390426
C  C1100  1  0.45223000  0.63809000  0.51625000  1.0 -0.0201390426
C  C1101  1  0.45223000  0.39343000  0.63809000  1.0 -0.0201390426
C  C1102  1  0.51625000  0.63809000  0.39343000  1.0 -0.0201390426
C  C1103  1  0.63809000  0.51625000  0.45223000  1.0 -0.0201390426
C  C1104  1  0.39343000  0.45223000  0.51625000  1.0 -0.0201390426
C  C1105  1  0.04814000  0.92356000  0.89648000  1.0 0.0606174449
C  C1106  1  0.92356000  0.04814000  0.13182000  1.0 0.0606174449
C  C1107  1  0.89648000  0.13182000  0.04814000  1.0 0.0606174449
C  C1108  1  0.13182000  0.89648000  0.92356000  1.0 0.0606174449
C  C1109  1  0.89648000  0.04814000  0.92356000  1.0 0.0606174449
C  C1110  1  0.13182000  0.92356000  0.04814000  1.0 0.0606174449
C  C1111  1  0.04814000  0.89648000  0.13182000  1.0 0.0606174449
C  C1112  1  0.92356000  0.13182000  0.89648000  1.0 0.0606174449
C  C1113  1  0.92356000  0.89648000  0.04814000  1.0 0.0606174449
C  C1114  1  0.04814000  0.13182000  0.92356000  1.0 0.0606174449
C  C1115  1  0.13182000  0.04814000  0.89648000  1.0 0.0606174449
C  C1116  1  0.89648000  0.92356000  0.13182000  1.0 0.0606174449
C  C1117  1  0.20186000  0.32644000  0.11818000  1.0 0.0606174449
C  C1118  1  0.32644000  0.20186000  0.35352000  1.0 0.0606174449
C  C1119  1  0.35352000  0.11818000  0.32644000  1.0 0.0606174449
C  C1120  1  0.11818000  0.35352000  0.20186000  1.0 0.0606174449
C  C1121  1  0.35352000  0.20186000  0.11818000  1.0 0.0606174449
C  C1122  1  0.11818000  0.32644000  0.35352000  1.0 0.0606174449
C  C1123  1  0.20186000  0.35352000  0.32644000  1.0 0.0606174449
C  C1124  1  0.32644000  0.11818000  0.20186000  1.0 0.0606174449
C  C1125  1  0.32644000  0.35352000  0.11818000  1.0 0.0606174449
C  C1126  1  0.20186000  0.11818000  0.35352000  1.0 0.0606174449
C  C1127  1  0.11818000  0.20186000  0.32644000  1.0 0.0606174449
C  C1128  1  0.35352000  0.32644000  0.20186000  1.0 0.0606174449
C  C1129  1  0.70186000  0.82644000  0.85352000  1.0 0.0606174449
C  C1130  1  0.82644000  0.70186000  0.61818000  1.0 0.0606174449
C  C1131  1  0.85352000  0.61818000  0.70186000  1.0 0.0606174449
C  C1132  1  0.61818000  0.85352000  0.82644000  1.0 0.0606174449
C  C1133  1  0.85352000  0.70186000  0.82644000  1.0 0.0606174449
C  C1134  1  0.61818000  0.82644000  0.70186000  1.0 0.0606174449
C  C1135  1  0.70186000  0.85352000  0.61818000  1.0 0.0606174449
C  C1136  1  0.82644000  0.61818000  0.85352000  1.0 0.0606174449
C  C1137  1  0.82644000  0.85352000  0.70186000  1.0 0.0606174449
C  C1138  1  0.70186000  0.61818000  0.82644000  1.0 0.0606174449
C  C1139  1  0.61818000  0.70186000  0.85352000  1.0 0.0606174449
C  C1140  1  0.85352000  0.82644000  0.61818000  1.0 0.0606174449
C  C1141  1  0.54814000  0.42356000  0.63182000  1.0 0.0606174449
C  C1142  1  0.42356000  0.54814000  0.39648000  1.0 0.0606174449
C  C1143  1  0.39648000  0.63182000  0.42356000  1.0 0.0606174449
C  C1144  1  0.63182000  0.39648000  0.54814000  1.0 0.0606174449
C  C1145  1  0.39648000  0.54814000  0.63182000  1.0 0.0606174449
C  C1146  1  0.63182000  0.42356000  0.39648000  1.0 0.0606174449
C  C1147  1  0.54814000  0.39648000  0.42356000  1.0 0.0606174449
C  C1148  1  0.42356000  0.63182000  0.54814000  1.0 0.0606174449
C  C1149  1  0.42356000  0.39648000  0.63182000  1.0 0.0606174449
C  C1150  1  0.54814000  0.63182000  0.39648000  1.0 0.0606174449
C  C1151  1  0.63182000  0.54814000  0.42356000  1.0 0.0606174449
C  C1152  1  0.39648000  0.42356000  0.54814000  1.0 0.0606174449
C  C1153  1  0.98269000  0.95335000  0.92547000  1.0 0.3648184476
C  C1154  1  0.95335000  0.98269000  0.13849000  1.0 0.3705836802
C  C1155  1  0.92547000  0.13849000  0.98269000  1.0 0.3648184476
C  C1156  1  0.13849000  0.92547000  0.95335000  1.0 0.3648184476
C  C1157  1  0.92547000  0.98269000  0.95335000  1.0 0.3648184476
C  C1158  1  0.13849000  0.95335000  0.98269000  1.0 0.3705836802
C  C1159  1  0.98269000  0.92547000  0.13849000  1.0 0.3705836802
C  C1160  1  0.95335000  0.13849000  0.92547000  1.0 0.3648184476
C  C1161  1  0.95335000  0.92547000  0.98269000  1.0 0.3648184476
C  C1162  1  0.98269000  0.13849000  0.95335000  1.0 0.3648184476
C  C1163  1  0.13849000  0.98269000  0.92547000  1.0 0.3705836802
C  C1164  1  0.92547000  0.95335000  0.13849000  1.0 0.3648184476
C  C1165  1  0.26731000  0.29665000  0.11151000  1.0 0.3648184476
C  C1166  1  0.29665000  0.26731000  0.32453000  1.0 0.3705836802
C  C1167  1  0.32453000  0.11151000  0.29665000  1.0 0.3705836802
C  C1168  1  0.11151000  0.32453000  0.26731000  1.0 0.3705836802
C  C1169  1  0.32453000  0.26731000  0.11151000  1.0 0.3648184476
C  C1170  1  0.11151000  0.29665000  0.32453000  1.0 0.3705836802
C  C1171  1  0.26731000  0.32453000  0.29665000  1.0 0.3705836802
C  C1172  1  0.29665000  0.11151000  0.26731000  1.0 0.3705836802
C  C1173  1  0.29665000  0.32453000  0.11151000  1.0 0.3648184476
C  C1174  1  0.26731000  0.11151000  0.32453000  1.0 0.3705836802
C  C1175  1  0.11151000  0.26731000  0.29665000  1.0 0.3705836802
C  C1176  1  0.32453000  0.29665000  0.26731000  1.0 0.3705836802
C  C1177  1  0.76731000  0.79665000  0.82453000  1.0 0.3648184476
C  C1178  1  0.79665000  0.76731000  0.61151000  1.0 0.3705836802
C  C1179  1  0.82453000  0.61151000  0.76731000  1.0 0.3705836802
C  C1180  1  0.61151000  0.82453000  0.79665000  1.0 0.3648184476
C  C1181  1  0.82453000  0.76731000  0.79665000  1.0 0.3648184476
C  C1182  1  0.61151000  0.79665000  0.76731000  1.0 0.3648184476
C  C1183  1  0.76731000  0.82453000  0.61151000  1.0 0.3705836802
C  C1184  1  0.79665000  0.61151000  0.82453000  1.0 0.3705836802
C  C1185  1  0.79665000  0.82453000  0.76731000  1.0 0.3648184476
C  C1186  1  0.76731000  0.61151000  0.79665000  1.0 0.3705836802
C  C1187  1  0.61151000  0.76731000  0.82453000  1.0 0.3648184476
C  C1188  1  0.82453000  0.79665000  0.61151000  1.0 0.3648184476
C  C1189  1  0.48269000  0.45335000  0.63849000  1.0 0.3648184476
C  C1190  1  0.45335000  0.48269000  0.42547000  1.0 0.3705836802
C  C1191  1  0.42547000  0.63849000  0.45335000  1.0 0.3705836802
C  C1192  1  0.63849000  0.42547000  0.48269000  1.0 0.3648184476
C  C1193  1  0.42547000  0.48269000  0.63849000  1.0 0.3705836802
C  C1194  1  0.63849000  0.45335000  0.42547000  1.0 0.3648184476
C  C1195  1  0.48269000  0.42547000  0.45335000  1.0 0.3705836802
C  C1196  1  0.45335000  0.63849000  0.48269000  1.0 0.3648184476
C  C1197  1  0.45335000  0.42547000  0.63849000  1.0 0.3705836802
C  C1198  1  0.48269000  0.63849000  0.42547000  1.0 0.3705836802
C  C1199  1  0.63849000  0.48269000  0.45335000  1.0 0.3648184476
C  C1200  1  0.42547000  0.45335000  0.48269000  1.0 0.3705836802
C  C1201  1  0.07530000  0.82426000  0.92692000  1.0 0.2432035349
C  C1202  1  0.82426000  0.07530000  0.17352000  1.0 0.2432035349
C  C1203  1  0.92692000  0.17352000  0.07530000  1.0 0.2432035349
C  C1204  1  0.17352000  0.92692000  0.82426000  1.0 0.2432035349
C  C1205  1  0.92692000  0.07530000  0.82426000  1.0 0.2432035349
C  C1206  1  0.17352000  0.82426000  0.07530000  1.0 0.2432035349
C  C1207  1  0.07530000  0.92692000  0.17352000  1.0 0.2432035349
C  C1208  1  0.82426000  0.17352000  0.92692000  1.0 0.2432035349
C  C1209  1  0.82426000  0.92692000  0.07530000  1.0 0.2432035349
C  C1210  1  0.07530000  0.17352000  0.82426000  1.0 0.2432035349
C  C1211  1  0.17352000  0.07530000  0.92692000  1.0 0.2432035349
C  C1212  1  0.92692000  0.82426000  0.17352000  1.0 0.2432035349
C  C1213  1  0.17470000  0.42574000  0.07648000  1.0 0.2432035349
C  C1214  1  0.42574000  0.17470000  0.32308000  1.0 0.2432035349
C  C1215  1  0.32308000  0.07648000  0.42574000  1.0 0.2432035349
C  C1216  1  0.07648000  0.32308000  0.17470000  1.0 0.2432035349
C  C1217  1  0.32308000  0.17470000  0.07648000  1.0 0.2432035349
C  C1218  1  0.07648000  0.42574000  0.32308000  1.0 0.2432035349
C  C1219  1  0.17470000  0.32308000  0.42574000  1.0 0.2432035349
C  C1220  1  0.42574000  0.07648000  0.17470000  1.0 0.2432035349
C  C1221  1  0.42574000  0.32308000  0.07648000  1.0 0.2432035349
C  C1222  1  0.17470000  0.07648000  0.32308000  1.0 0.2432035349
C  C1223  1  0.07648000  0.17470000  0.42574000  1.0 0.2432035349
C  C1224  1  0.32308000  0.42574000  0.17470000  1.0 0.2432035349
C  C1225  1  0.67470000  0.92574000  0.82308000  1.0 0.2432035349
C  C1226  1  0.92574000  0.67470000  0.57648000  1.0 0.2432035349
C  C1227  1  0.82308000  0.57648000  0.67470000  1.0 0.2432035349
C  C1228  1  0.57648000  0.82308000  0.92574000  1.0 0.2432035349
C  C1229  1  0.82308000  0.67470000  0.92574000  1.0 0.2432035349
C  C1230  1  0.57648000  0.92574000  0.67470000  1.0 0.2432035349
C  C1231  1  0.67470000  0.82308000  0.57648000  1.0 0.2432035349
C  C1232  1  0.92574000  0.57648000  0.82308000  1.0 0.2432035349
C  C1233  1  0.92574000  0.82308000  0.67470000  1.0 0.2432035349
C  C1234  1  0.67470000  0.57648000  0.92574000  1.0 0.2432035349
C  C1235  1  0.57648000  0.67470000  0.82308000  1.0 0.2432035349
C  C1236  1  0.82308000  0.92574000  0.57648000  1.0 0.2432035349
C  C1237  1  0.57530000  0.32426000  0.67352000  1.0 0.2432035349
C  C1238  1  0.32426000  0.57530000  0.42692000  1.0 0.2432035349
C  C1239  1  0.42692000  0.67352000  0.32426000  1.0 0.2432035349
C  C1240  1  0.67352000  0.42692000  0.57530000  1.0 0.2432035349
C  C1241  1  0.42692000  0.57530000  0.67352000  1.0 0.2432035349
C  C1242  1  0.67352000  0.32426000  0.42692000  1.0 0.2432035349
C  C1243  1  0.57530000  0.42692000  0.32426000  1.0 0.2432035349
C  C1244  1  0.32426000  0.67352000  0.57530000  1.0 0.2432035349
C  C1245  1  0.32426000  0.42692000  0.67352000  1.0 0.2432035349
C  C1246  1  0.57530000  0.67352000  0.42692000  1.0 0.2432035349
C  C1247  1  0.67352000  0.57530000  0.32426000  1.0 0.2432035349
C  C1248  1  0.42692000  0.32426000  0.57530000  1.0 0.2432035349
S  S1  1  0.08471000  0.82153000  0.75455000  1.0 -0.4008880193
S  S2  1  0.82153000  0.08471000  0.33921000  1.0 -0.4008880193
S  S3  1  0.75455000  0.33921000  0.08471000  1.0 -0.4008880193
S  S4  1  0.33921000  0.75455000  0.82153000  1.0 -0.4008880193
S  S5  1  0.75455000  0.08471000  0.82153000  1.0 -0.4008880193
S  S6  1  0.33921000  0.82153000  0.08471000  1.0 -0.4008880193
S  S7  1  0.08471000  0.75455000  0.33921000  1.0 -0.393072408
S  S8  1  0.82153000  0.33921000  0.75455000  1.0 -0.393072408
S  S9  1  0.82153000  0.75455000  0.08471000  1.0 -0.4008880193
S  S10  1  0.08471000  0.33921000  0.82153000  1.0 -0.393072408
S  S11  1  0.33921000  0.08471000  0.75455000  1.0 -0.393072408
S  S12  1  0.75455000  0.82153000  0.33921000  1.0 -0.393072408
S  S13  1  0.16529000  0.42847000  0.91079000  1.0 -0.393072408
S  S14  1  0.42847000  0.16529000  0.49545000  1.0 -0.393072408
S  S15  1  0.49545000  0.91079000  0.42847000  1.0 -0.393072408
S  S16  1  0.91079000  0.49545000  0.16529000  1.0 -0.4008880193
S  S17  1  0.49545000  0.16529000  0.91079000  1.0 -0.393072408
S  S18  1  0.91079000  0.42847000  0.49545000  1.0 -0.4008880193
S  S19  1  0.16529000  0.49545000  0.42847000  1.0 -0.4008880193
S  S20  1  0.42847000  0.91079000  0.16529000  1.0 -0.393072408
S  S21  1  0.42847000  0.49545000  0.91079000  1.0 -0.393072408
S  S22  1  0.16529000  0.91079000  0.49545000  1.0 -0.4008880193
S  S23  1  0.91079000  0.16529000  0.42847000  1.0 -0.393072408
S  S24  1  0.49545000  0.42847000  0.16529000  1.0 -0.4008880193
S  S25  1  0.66529000  0.92847000  0.99545000  1.0 -0.393072408
S  S26  1  0.92847000  0.66529000  0.41079000  1.0 -0.4008880193
S  S27  1  0.99545000  0.41079000  0.66529000  1.0 -0.393072408
S  S28  1  0.41079000  0.99545000  0.92847000  1.0 -0.393072408
S  S29  1  0.99545000  0.66529000  0.92847000  1.0 -0.4008880193
S  S30  1  0.41079000  0.92847000  0.66529000  1.0 -0.4008880193
S  S31  1  0.66529000  0.99545000  0.41079000  1.0 -0.4008880193
S  S32  1  0.92847000  0.41079000  0.99545000  1.0 -0.4008880193
S  S33  1  0.92847000  0.99545000  0.66529000  1.0 -0.393072408
S  S34  1  0.66529000  0.41079000  0.92847000  1.0 -0.393072408
S  S35  1  0.41079000  0.66529000  0.99545000  1.0 -0.4008880193
S  S36  1  0.99545000  0.92847000  0.41079000  1.0 -0.393072408
S  S37  1  0.58471000  0.32153000  0.83921000  1.0 -0.393072408
S  S38  1  0.32153000  0.58471000  0.25455000  1.0 -0.393072408
S  S39  1  0.25455000  0.83921000  0.32153000  1.0 -0.4008880193
S  S40  1  0.83921000  0.25455000  0.58471000  1.0 -0.4008880193
S  S41  1  0.25455000  0.58471000  0.83921000  1.0 -0.393072408
S  S42  1  0.83921000  0.32153000  0.25455000  1.0 -0.4008880193
S  S43  1  0.58471000  0.25455000  0.32153000  1.0 -0.4008880193
S  S44  1  0.32153000  0.83921000  0.58471000  1.0 -0.393072408
S  S45  1  0.32153000  0.25455000  0.83921000  1.0 -0.393072408
S  S46  1  0.58471000  0.83921000  0.25455000  1.0 -0.4008880193
S  S47  1  0.83921000  0.58471000  0.32153000  1.0 -0.4008880193
S  S48  1  0.25455000  0.32153000  0.58471000  1.0 -0.4008880193
S  S49  1  0.04558000  0.80298000  0.95134000  1.0 -0.4008880193
S  S50  1  0.80298000  0.04558000  0.20010000  1.0 -0.4008880193
S  S51  1  0.95134000  0.20010000  0.04558000  1.0 -0.410122393
S  S52  1  0.20010000  0.95134000  0.80298000  1.0 -0.4008880193
S  S53  1  0.95134000  0.04558000  0.80298000  1.0 -0.4008880193
S  S54  1  0.20010000  0.80298000  0.04558000  1.0 -0.4008880193
S  S55  1  0.04558000  0.95134000  0.20010000  1.0 -0.4008880193
S  S56  1  0.80298000  0.20010000  0.95134000  1.0 -0.4008880193
S  S57  1  0.80298000  0.95134000  0.04558000  1.0 -0.410122393
S  S58  1  0.04558000  0.20010000  0.80298000  1.0 -0.4008880193
S  S59  1  0.20010000  0.04558000  0.95134000  1.0 -0.4008880193
S  S60  1  0.95134000  0.80298000  0.20010000  1.0 -0.4008880193
S  S61  1  0.20442000  0.44702000  0.04990000  1.0 -0.4008880193
S  S62  1  0.44702000  0.20442000  0.29866000  1.0 -0.410122393
S  S63  1  0.29866000  0.04990000  0.44702000  1.0 -0.4008880193
S  S64  1  0.04990000  0.29866000  0.20442000  1.0 -0.4008880193
S  S65  1  0.29866000  0.20442000  0.04990000  1.0 -0.4008880193
S  S66  1  0.04990000  0.44702000  0.29866000  1.0 -0.410122393
S  S67  1  0.20442000  0.29866000  0.44702000  1.0 -0.4008880193
S  S68  1  0.44702000  0.04990000  0.20442000  1.0 -0.410122393
S  S69  1  0.44702000  0.29866000  0.04990000  1.0 -0.410122393
S  S70  1  0.20442000  0.04990000  0.29866000  1.0 -0.4008880193
S  S71  1  0.04990000  0.20442000  0.44702000  1.0 -0.4008880193
S  S72  1  0.29866000  0.44702000  0.20442000  1.0 -0.4008880193
S  S73  1  0.70442000  0.94702000  0.79866000  1.0 -0.410122393
S  S74  1  0.94702000  0.70442000  0.54990000  1.0 -0.4008880193
S  S75  1  0.79866000  0.54990000  0.70442000  1.0 -0.4008880193
S  S76  1  0.54990000  0.79866000  0.94702000  1.0 -0.4008880193
S  S77  1  0.79866000  0.70442000  0.94702000  1.0 -0.4008880193
S  S78  1  0.54990000  0.94702000  0.70442000  1.0 -0.4008880193
S  S79  1  0.70442000  0.79866000  0.54990000  1.0 -0.410122393
S  S80  1  0.94702000  0.54990000  0.79866000  1.0 -0.410122393
S  S81  1  0.94702000  0.79866000  0.70442000  1.0 -0.410122393
S  S82  1  0.70442000  0.54990000  0.94702000  1.0 -0.410122393
S  S83  1  0.54990000  0.70442000  0.79866000  1.0 -0.4008880193
S  S84  1  0.79866000  0.94702000  0.54990000  1.0 -0.4008880193
S  S85  1  0.54558000  0.30298000  0.70010000  1.0 -0.4008880193
S  S86  1  0.30298000  0.54558000  0.45134000  1.0 -0.410122393
S  S87  1  0.45134000  0.70010000  0.30298000  1.0 -0.4008880193
S  S88  1  0.70010000  0.45134000  0.54558000  1.0 -0.4008880193
S  S89  1  0.45134000  0.54558000  0.70010000  1.0 -0.410122393
S  S90  1  0.70010000  0.30298000  0.45134000  1.0 -0.4008880193
S  S91  1  0.54558000  0.45134000  0.30298000  1.0 -0.4008880193
S  S92  1  0.30298000  0.70010000  0.54558000  1.0 -0.410122393
S  S93  1  0.30298000  0.45134000  0.70010000  1.0 -0.4008880193
S  S94  1  0.54558000  0.70010000  0.45134000  1.0 -0.410122393
S  S95  1  0.70010000  0.54558000  0.30298000  1.0 -0.4008880193
S  S96  1  0.45134000  0.30298000  0.54558000  1.0 -0.4008880193
N  N1  1  0.31813000  0.90237000  0.66571000  1.0 -0.2105150598
N  N2  1  0.90237000  0.31813000  0.11379000  1.0 -0.2105150598
N  N3  1  0.66571000  0.11379000  0.31813000  1.0 -0.2105150598
N  N4  1  0.11379000  0.66571000  0.90237000  1.0 -0.2105150598
N  N5  1  0.66571000  0.31813000  0.90237000  1.0 -0.2105150598
N  N6  1  0.11379000  0.90237000  0.31813000  1.0 -0.2105150598
N  N7  1  0.31813000  0.66571000  0.11379000  1.0 -0.2105150598
N  N8  1  0.90237000  0.11379000  0.66571000  1.0 -0.2105150598
N  N9  1  0.90237000  0.66571000  0.31813000  1.0 -0.2105150598
N  N10  1  0.31813000  0.11379000  0.90237000  1.0 -0.2105150598
N  N11  1  0.11379000  0.31813000  0.66571000  1.0 -0.2105150598
N  N12  1  0.66571000  0.90237000  0.11379000  1.0 -0.2105150598
N  N13  1  0.93187000  0.34763000  0.13621000  1.0 -0.2105150598
N  N14  1  0.34763000  0.93187000  0.58429000  1.0 -0.2105150598
N  N15  1  0.58429000  0.13621000  0.34763000  1.0 -0.2105150598
N  N16  1  0.13621000  0.58429000  0.93187000  1.0 -0.2105150598
N  N17  1  0.58429000  0.93187000  0.13621000  1.0 -0.2105150598
N  N18  1  0.13621000  0.34763000  0.58429000  1.0 -0.2105150598
N  N19  1  0.93187000  0.58429000  0.34763000  1.0 -0.2105150598
N  N20  1  0.34763000  0.13621000  0.93187000  1.0 -0.2105150598
N  N21  1  0.34763000  0.58429000  0.13621000  1.0 -0.2105150598
N  N22  1  0.93187000  0.13621000  0.58429000  1.0 -0.2105150598
N  N23  1  0.13621000  0.93187000  0.34763000  1.0 -0.2105150598
N  N24  1  0.58429000  0.34763000  0.93187000  1.0 -0.2105150598
N  N25  1  0.43187000  0.84763000  0.08429000  1.0 -0.2105150598
N  N26  1  0.84763000  0.43187000  0.63621000  1.0 -0.2105150598
N  N27  1  0.08429000  0.63621000  0.43187000  1.0 -0.2105150598
N  N28  1  0.63621000  0.08429000  0.84763000  1.0 -0.2105150598
N  N29  1  0.08429000  0.43187000  0.84763000  1.0 -0.2105150598
N  N30  1  0.63621000  0.84763000  0.43187000  1.0 -0.2105150598
N  N31  1  0.43187000  0.08429000  0.63621000  1.0 -0.2105150598
N  N32  1  0.84763000  0.63621000  0.08429000  1.0 -0.2105150598
N  N33  1  0.84763000  0.08429000  0.43187000  1.0 -0.2105150598
N  N34  1  0.43187000  0.63621000  0.84763000  1.0 -0.2105150598
N  N35  1  0.63621000  0.43187000  0.08429000  1.0 -0.2105150598
N  N36  1  0.08429000  0.84763000  0.63621000  1.0 -0.2105150598
N  N37  1  0.81813000  0.40237000  0.61379000  1.0 -0.2105150598
N  N38  1  0.40237000  0.81813000  0.16571000  1.0 -0.2105150598
N  N39  1  0.16571000  0.61379000  0.40237000  1.0 -0.2105150598
N  N40  1  0.61379000  0.16571000  0.81813000  1.0 -0.2105150598
N  N41  1  0.16571000  0.81813000  0.61379000  1.0 -0.2105150598
N  N42  1  0.61379000  0.40237000  0.16571000  1.0 -0.2105150598
N  N43  1  0.81813000  0.16571000  0.40237000  1.0 -0.2105150598
N  N44  1  0.40237000  0.61379000  0.81813000  1.0 -0.2105150598
N  N45  1  0.40237000  0.16571000  0.61379000  1.0 -0.2105150598
N  N46  1  0.81813000  0.61379000  0.16571000  1.0 -0.2105150598
N  N47  1  0.61379000  0.81813000  0.40237000  1.0 -0.2105150598
N  N48  1  0.16571000  0.40237000  0.81813000  1.0 -0.2105150598
N  N49  1  0.11930000  0.84468000  0.67962000  1.0 -0.4702476298
N  N50  1  0.84468000  0.11930000  0.35640000  1.0 -0.4702476298
N  N51  1  0.67962000  0.35640000  0.11930000  1.0 -0.4702476298
N  N52  1  0.35640000  0.67962000  0.84468000  1.0 -0.4702476298
N  N53  1  0.67962000  0.11930000  0.84468000  1.0 -0.4702476298
N  N54  1  0.35640000  0.84468000  0.11930000  1.0 -0.4702476298
N  N55  1  0.11930000  0.67962000  0.35640000  1.0 -0.4702476298
N  N56  1  0.84468000  0.35640000  0.67962000  1.0 -0.4702476298
N  N57  1  0.84468000  0.67962000  0.11930000  1.0 -0.4702476298
N  N58  1  0.11930000  0.35640000  0.84468000  1.0 -0.4702476298
N  N59  1  0.35640000  0.11930000  0.67962000  1.0 -0.4702476298
N  N60  1  0.67962000  0.84468000  0.35640000  1.0 -0.4702476298
N  N61  1  0.13070000  0.40532000  0.89360000  1.0 -0.4702476298
N  N62  1  0.40532000  0.13070000  0.57038000  1.0 -0.4702476298
N  N63  1  0.57038000  0.89360000  0.40532000  1.0 -0.4702476298
N  N64  1  0.89360000  0.57038000  0.13070000  1.0 -0.4702476298
N  N65  1  0.57038000  0.13070000  0.89360000  1.0 -0.4702476298
N  N66  1  0.89360000  0.40532000  0.57038000  1.0 -0.4702476298
N  N67  1  0.13070000  0.57038000  0.40532000  1.0 -0.4702476298
N  N68  1  0.40532000  0.89360000  0.13070000  1.0 -0.4702476298
N  N69  1  0.40532000  0.57038000  0.89360000  1.0 -0.4702476298
N  N70  1  0.13070000  0.89360000  0.57038000  1.0 -0.4702476298
N  N71  1  0.89360000  0.13070000  0.40532000  1.0 -0.4702476298
N  N72  1  0.57038000  0.40532000  0.13070000  1.0 -0.4702476298
N  N73  1  0.63070000  0.90532000  0.07038000  1.0 -0.4702476298
N  N74  1  0.90532000  0.63070000  0.39360000  1.0 -0.4702476298
N  N75  1  0.07038000  0.39360000  0.63070000  1.0 -0.4702476298
N  N76  1  0.39360000  0.07038000  0.90532000  1.0 -0.4702476298
N  N77  1  0.07038000  0.63070000  0.90532000  1.0 -0.4702476298
N  N78  1  0.39360000  0.90532000  0.63070000  1.0 -0.4702476298
N  N79  1  0.63070000  0.07038000  0.39360000  1.0 -0.4702476298
N  N80  1  0.90532000  0.39360000  0.07038000  1.0 -0.4702476298
N  N81  1  0.90532000  0.07038000  0.63070000  1.0 -0.4702476298
N  N82  1  0.63070000  0.39360000  0.90532000  1.0 -0.4702476298
N  N83  1  0.39360000  0.63070000  0.07038000  1.0 -0.4702476298
N  N84  1  0.07038000  0.90532000  0.39360000  1.0 -0.4702476298
N  N85  1  0.61930000  0.34468000  0.85640000  1.0 -0.4702476298
N  N86  1  0.34468000  0.61930000  0.17962000  1.0 -0.4702476298
N  N87  1  0.17962000  0.85640000  0.34468000  1.0 -0.4702476298
N  N88  1  0.85640000  0.17962000  0.61930000  1.0 -0.4702476298
N  N89  1  0.17962000  0.61930000  0.85640000  1.0 -0.4702476298
N  N90  1  0.85640000  0.34468000  0.17962000  1.0 -0.4702476298
N  N91  1  0.61930000  0.17962000  0.34468000  1.0 -0.4702476298
N  N92  1  0.34468000  0.85640000  0.61930000  1.0 -0.4702476298
N  N93  1  0.34468000  0.17962000  0.85640000  1.0 -0.4702476298
N  N94  1  0.61930000  0.85640000  0.17962000  1.0 -0.4702476298
N  N95  1  0.85640000  0.61930000  0.34468000  1.0 -0.4702476298
N  N96  1  0.17962000  0.34468000  0.61930000  1.0 -0.4702476298
N  N97  1  0.16796000  0.88688000  0.61306000  1.0 -0.2105150598
N  N98  1  0.88688000  0.16796000  0.33210000  1.0 -0.2105150598
N  N99  1  0.61306000  0.33210000  0.16796000  1.0 -0.2105150598
N  N100  1  0.33210000  0.61306000  0.88688000  1.0 -0.2105150598
N  N101  1  0.61306000  0.16796000  0.88688000  1.0 -0.2105150598
N  N102  1  0.33210000  0.88688000  0.16796000  1.0 -0.2105150598
N  N103  1  0.16796000  0.61306000  0.33210000  1.0 -0.2105150598
N  N104  1  0.88688000  0.33210000  0.61306000  1.0 -0.2105150598
N  N105  1  0.88688000  0.61306000  0.16796000  1.0 -0.2105150598
N  N106  1  0.16796000  0.33210000  0.88688000  1.0 -0.2105150598
N  N107  1  0.33210000  0.16796000  0.61306000  1.0 -0.2105150598
N  N108  1  0.61306000  0.88688000  0.33210000  1.0 -0.2105150598
N  N109  1  0.08204000  0.36312000  0.91790000  1.0 -0.2105150598
N  N110  1  0.36312000  0.08204000  0.63694000  1.0 -0.2105150598
N  N111  1  0.63694000  0.91790000  0.36312000  1.0 -0.2105150598
N  N112  1  0.91790000  0.63694000  0.08204000  1.0 -0.2105150598
N  N113  1  0.63694000  0.08204000  0.91790000  1.0 -0.2105150598
N  N114  1  0.91790000  0.36312000  0.63694000  1.0 -0.2105150598
N  N115  1  0.08204000  0.63694000  0.36312000  1.0 -0.2105150598
N  N116  1  0.36312000  0.91790000  0.08204000  1.0 -0.2105150598
N  N117  1  0.36312000  0.63694000  0.91790000  1.0 -0.2105150598
N  N118  1  0.08204000  0.91790000  0.63694000  1.0 -0.2105150598
N  N119  1  0.91790000  0.08204000  0.36312000  1.0 -0.2105150598
N  N120  1  0.63694000  0.36312000  0.08204000  1.0 -0.2105150598
N  N121  1  0.58204000  0.86312000  0.13694000  1.0 -0.2105150598
N  N122  1  0.86312000  0.58204000  0.41790000  1.0 -0.2105150598
N  N123  1  0.13694000  0.41790000  0.58204000  1.0 -0.2105150598
N  N124  1  0.41790000  0.13694000  0.86312000  1.0 -0.2105150598
N  N125  1  0.13694000  0.58204000  0.86312000  1.0 -0.2105150598
N  N126  1  0.41790000  0.86312000  0.58204000  1.0 -0.2105150598
N  N127  1  0.58204000  0.13694000  0.41790000  1.0 -0.2105150598
N  N128  1  0.86312000  0.41790000  0.13694000  1.0 -0.2105150598
N  N129  1  0.86312000  0.13694000  0.58204000  1.0 -0.2105150598
N  N130  1  0.58204000  0.41790000  0.86312000  1.0 -0.2105150598
N  N131  1  0.41790000  0.58204000  0.13694000  1.0 -0.2105150598
N  N132  1  0.13694000  0.86312000  0.41790000  1.0 -0.2105150598
N  N133  1  0.66796000  0.38688000  0.83210000  1.0 -0.2105150598
N  N134  1  0.38688000  0.66796000  0.11306000  1.0 -0.2105150598
N  N135  1  0.11306000  0.83210000  0.38688000  1.0 -0.2105150598
N  N136  1  0.83210000  0.11306000  0.66796000  1.0 -0.2105150598
N  N137  1  0.11306000  0.66796000  0.83210000  1.0 -0.2105150598
N  N138  1  0.83210000  0.38688000  0.11306000  1.0 -0.2105150598
N  N139  1  0.66796000  0.11306000  0.38688000  1.0 -0.2105150598
N  N140  1  0.38688000  0.83210000  0.66796000  1.0 -0.2105150598
N  N141  1  0.38688000  0.11306000  0.83210000  1.0 -0.2105150598
N  N142  1  0.66796000  0.83210000  0.11306000  1.0 -0.2105150598
N  N143  1  0.83210000  0.66796000  0.38688000  1.0 -0.2105150598
N  N144  1  0.11306000  0.38688000  0.66796000  1.0 -0.2105150598
N  N145  1  0.17133000  0.89031000  0.70049000  1.0 -0.410122393
N  N146  1  0.89031000  0.17133000  0.23787000  1.0 -0.410122393
N  N147  1  0.70049000  0.23787000  0.17133000  1.0 -0.410122393
N  N148  1  0.23787000  0.70049000  0.89031000  1.0 -0.410122393
N  N149  1  0.70049000  0.17133000  0.89031000  1.0 -0.410122393
N  N150  1  0.23787000  0.89031000  0.17133000  1.0 -0.410122393
N  N151  1  0.17133000  0.70049000  0.23787000  1.0 -0.410122393
N  N152  1  0.89031000  0.23787000  0.70049000  1.0 -0.410122393
N  N153  1  0.89031000  0.70049000  0.17133000  1.0 -0.410122393
N  N154  1  0.17133000  0.23787000  0.89031000  1.0 -0.410122393
N  N155  1  0.23787000  0.17133000  0.70049000  1.0 -0.410122393
N  N156  1  0.70049000  0.89031000  0.23787000  1.0 -0.410122393
N  N157  1  0.07867000  0.35969000  0.01213000  1.0 -0.410122393
N  N158  1  0.35969000  0.07867000  0.54951000  1.0 -0.410122393
N  N159  1  0.54951000  0.01213000  0.35969000  1.0 -0.410122393
N  N160  1  0.01213000  0.54951000  0.07867000  1.0 -0.410122393
N  N161  1  0.54951000  0.07867000  0.01213000  1.0 -0.410122393
N  N162  1  0.01213000  0.35969000  0.54951000  1.0 -0.410122393
N  N163  1  0.07867000  0.54951000  0.35969000  1.0 -0.410122393
N  N164  1  0.35969000  0.01213000  0.07867000  1.0 -0.410122393
N  N165  1  0.35969000  0.54951000  0.01213000  1.0 -0.410122393
N  N166  1  0.07867000  0.01213000  0.54951000  1.0 -0.410122393
N  N167  1  0.01213000  0.07867000  0.35969000  1.0 -0.410122393
N  N168  1  0.54951000  0.35969000  0.07867000  1.0 -0.410122393
N  N169  1  0.57867000  0.85969000  0.04951000  1.0 -0.410122393
N  N170  1  0.85969000  0.57867000  0.51213000  1.0 -0.410122393
N  N171  1  0.04951000  0.51213000  0.57867000  1.0 -0.410122393
N  N172  1  0.51213000  0.04951000  0.85969000  1.0 -0.410122393
N  N173  1  0.04951000  0.57867000  0.85969000  1.0 -0.410122393
N  N174  1  0.51213000  0.85969000  0.57867000  1.0 -0.410122393
N  N175  1  0.57867000  0.04951000  0.51213000  1.0 -0.410122393
N  N176  1  0.85969000  0.51213000  0.04951000  1.0 -0.410122393
N  N177  1  0.85969000  0.04951000  0.57867000  1.0 -0.410122393
N  N178  1  0.57867000  0.51213000  0.85969000  1.0 -0.410122393
N  N179  1  0.51213000  0.57867000  0.04951000  1.0 -0.410122393
N  N180  1  0.04951000  0.85969000  0.51213000  1.0 -0.410122393
N  N181  1  0.67133000  0.39031000  0.73787000  1.0 -0.410122393
N  N182  1  0.39031000  0.67133000  0.20049000  1.0 -0.410122393
N  N183  1  0.20049000  0.73787000  0.39031000  1.0 -0.410122393
N  N184  1  0.73787000  0.20049000  0.67133000  1.0 -0.410122393
N  N185  1  0.20049000  0.67133000  0.73787000  1.0 -0.410122393
N  N186  1  0.73787000  0.39031000  0.20049000  1.0 -0.410122393
N  N187  1  0.67133000  0.20049000  0.39031000  1.0 -0.410122393
N  N188  1  0.39031000  0.73787000  0.67133000  1.0 -0.410122393
N  N189  1  0.39031000  0.20049000  0.73787000  1.0 -0.410122393
N  N190  1  0.67133000  0.73787000  0.20049000  1.0 -0.410122393
N  N191  1  0.73787000  0.67133000  0.39031000  1.0 -0.410122393
N  N192  1  0.20049000  0.39031000  0.67133000  1.0 -0.410122393
N  N193  1  0.22520000  0.90538000  0.66530000  1.0 -0.410122393
N  N194  1  0.90538000  0.22520000  0.20412000  1.0 -0.410122393
N  N195  1  0.66530000  0.20412000  0.22520000  1.0 -0.410122393
N  N196  1  0.20412000  0.66530000  0.90538000  1.0 -0.410122393
N  N197  1  0.66530000  0.22520000  0.90538000  1.0 -0.410122393
N  N198  1  0.20412000  0.90538000  0.22520000  1.0 -0.4151280445
N  N199  1  0.22520000  0.66530000  0.20412000  1.0 -0.410122393
N  N200  1  0.90538000  0.20412000  0.66530000  1.0 -0.410122393
N  N201  1  0.90538000  0.66530000  0.22520000  1.0 -0.410122393
N  N202  1  0.22520000  0.20412000  0.90538000  1.0 -0.410122393
N  N203  1  0.20412000  0.22520000  0.66530000  1.0 -0.410122393
N  N204  1  0.66530000  0.90538000  0.20412000  1.0 -0.410122393
N  N205  1  0.02480000  0.34462000  0.04588000  1.0 -0.410122393
N  N206  1  0.34462000  0.02480000  0.58470000  1.0 -0.410122393
N  N207  1  0.58470000  0.04588000  0.34462000  1.0 -0.410122393
N  N208  1  0.04588000  0.58470000  0.02480000  1.0 -0.410122393
N  N209  1  0.58470000  0.02480000  0.04588000  1.0 -0.4151280445
N  N210  1  0.04588000  0.34462000  0.58470000  1.0 -0.410122393
N  N211  1  0.02480000  0.58470000  0.34462000  1.0 -0.410122393
N  N212  1  0.34462000  0.04588000  0.02480000  1.0 -0.4151280445
N  N213  1  0.34462000  0.58470000  0.04588000  1.0 -0.410122393
N  N214  1  0.02480000  0.04588000  0.58470000  1.0 -0.410122393
N  N215  1  0.04588000  0.02480000  0.34462000  1.0 -0.410122393
N  N216  1  0.58470000  0.34462000  0.02480000  1.0 -0.4151280445
N  N217  1  0.52480000  0.84462000  0.08470000  1.0 -0.410122393
N  N218  1  0.84462000  0.52480000  0.54588000  1.0 -0.410122393
N  N219  1  0.08470000  0.54588000  0.52480000  1.0 -0.410122393
N  N220  1  0.54588000  0.08470000  0.84462000  1.0 -0.410122393
N  N221  1  0.08470000  0.52480000  0.84462000  1.0 -0.410122393
N  N222  1  0.54588000  0.84462000  0.52480000  1.0 -0.410122393
N  N223  1  0.52480000  0.08470000  0.54588000  1.0 -0.410122393
N  N224  1  0.84462000  0.54588000  0.08470000  1.0 -0.410122393
N  N225  1  0.84462000  0.08470000  0.52480000  1.0 -0.410122393
N  N226  1  0.52480000  0.54588000  0.84462000  1.0 -0.410122393
N  N227  1  0.54588000  0.52480000  0.08470000  1.0 -0.410122393
N  N228  1  0.08470000  0.84462000  0.54588000  1.0 -0.410122393
N  N229  1  0.72520000  0.40538000  0.70412000  1.0 -0.410122393
N  N230  1  0.40538000  0.72520000  0.16530000  1.0 -0.410122393
N  N231  1  0.16530000  0.70412000  0.40538000  1.0 -0.4151280445
N  N232  1  0.70412000  0.16530000  0.72520000  1.0 -0.410122393
N  N233  1  0.16530000  0.72520000  0.70412000  1.0 -0.410122393
N  N234  1  0.70412000  0.40538000  0.16530000  1.0 -0.4151280445
N  N235  1  0.72520000  0.16530000  0.40538000  1.0 -0.4151280445
N  N236  1  0.40538000  0.70412000  0.72520000  1.0 -0.410122393
N  N237  1  0.40538000  0.16530000  0.70412000  1.0 -0.410122393
N  N238  1  0.72520000  0.70412000  0.16530000  1.0 -0.4151280445
N  N239  1  0.70412000  0.72520000  0.40538000  1.0 -0.410122393
N  N240  1  0.16530000  0.40538000  0.72520000  1.0 -0.410122393
N  N241  1  0.19763000  0.90011000  0.72763000  1.0 -0.410122393
N  N242  1  0.90011000  0.19763000  0.17463000  1.0 -0.410122393
N  N243  1  0.72763000  0.17463000  0.19763000  1.0 -0.410122393
N  N244  1  0.17463000  0.72763000  0.90011000  1.0 -0.410122393
N  N245  1  0.72763000  0.19763000  0.90011000  1.0 -0.410122393
N  N246  1  0.17463000  0.90011000  0.19763000  1.0 -0.410122393
N  N247  1  0.19763000  0.72763000  0.17463000  1.0 -0.410122393
N  N248  1  0.90011000  0.17463000  0.72763000  1.0 -0.410122393
N  N249  1  0.90011000  0.72763000  0.19763000  1.0 -0.410122393
N  N250  1  0.19763000  0.17463000  0.90011000  1.0 -0.410122393
N  N251  1  0.17463000  0.19763000  0.72763000  1.0 -0.410122393
N  N252  1  0.72763000  0.90011000  0.17463000  1.0 -0.410122393
N  N253  1  0.05237000  0.34989000  0.07537000  1.0 -0.410122393
N  N254  1  0.34989000  0.05237000  0.52237000  1.0 -0.410122393
N  N255  1  0.52237000  0.07537000  0.34989000  1.0 -0.410122393
N  N256  1  0.07537000  0.52237000  0.05237000  1.0 -0.410122393
N  N257  1  0.52237000  0.05237000  0.07537000  1.0 -0.410122393
N  N258  1  0.07537000  0.34989000  0.52237000  1.0 -0.410122393
N  N259  1  0.05237000  0.52237000  0.34989000  1.0 -0.410122393
N  N260  1  0.34989000  0.07537000  0.05237000  1.0 -0.410122393
N  N261  1  0.34989000  0.52237000  0.07537000  1.0 -0.410122393
N  N262  1  0.05237000  0.07537000  0.52237000  1.0 -0.410122393
N  N263  1  0.07537000  0.05237000  0.34989000  1.0 -0.410122393
N  N264  1  0.52237000  0.34989000  0.05237000  1.0 -0.410122393
N  N265  1  0.55237000  0.84989000  0.02237000  1.0 -0.410122393
N  N266  1  0.84989000  0.55237000  0.57537000  1.0 -0.410122393
N  N267  1  0.02237000  0.57537000  0.55237000  1.0 -0.410122393
N  N268  1  0.57537000  0.02237000  0.84989000  1.0 -0.410122393
N  N269  1  0.02237000  0.55237000  0.84989000  1.0 -0.410122393
N  N270  1  0.57537000  0.84989000  0.55237000  1.0 -0.410122393
N  N271  1  0.55237000  0.02237000  0.57537000  1.0 -0.410122393
N  N272  1  0.84989000  0.57537000  0.02237000  1.0 -0.410122393
N  N273  1  0.84989000  0.02237000  0.55237000  1.0 -0.410122393
N  N274  1  0.55237000  0.57537000  0.84989000  1.0 -0.410122393
N  N275  1  0.57537000  0.55237000  0.02237000  1.0 -0.410122393
N  N276  1  0.02237000  0.84989000  0.57537000  1.0 -0.410122393
N  N277  1  0.69763000  0.40011000  0.67463000  1.0 -0.410122393
N  N278  1  0.40011000  0.69763000  0.22763000  1.0 -0.410122393
N  N279  1  0.22763000  0.67463000  0.40011000  1.0 -0.410122393
N  N280  1  0.67463000  0.22763000  0.69763000  1.0 -0.410122393
N  N281  1  0.22763000  0.69763000  0.67463000  1.0 -0.410122393
N  N282  1  0.67463000  0.40011000  0.22763000  1.0 -0.410122393
N  N283  1  0.69763000  0.22763000  0.40011000  1.0 -0.410122393
N  N284  1  0.40011000  0.67463000  0.69763000  1.0 -0.410122393
N  N285  1  0.40011000  0.22763000  0.67463000  1.0 -0.410122393
N  N286  1  0.69763000  0.67463000  0.22763000  1.0 -0.410122393
N  N287  1  0.67463000  0.69763000  0.40011000  1.0 -0.410122393
N  N288  1  0.22763000  0.40011000  0.69763000  1.0 -0.410122393
N  N289  1  0.12328000  0.87042000  0.82822000  1.0 -0.2105150598
N  N290  1  0.87042000  0.12328000  0.17808000  1.0 -0.2105150598
N  N291  1  0.82822000  0.17808000  0.12328000  1.0 -0.2105150598
N  N292  1  0.17808000  0.82822000  0.87042000  1.0 -0.2105150598
N  N293  1  0.82822000  0.12328000  0.87042000  1.0 -0.2105150598
N  N294  1  0.17808000  0.87042000  0.12328000  1.0 -0.2105150598
N  N295  1  0.12328000  0.82822000  0.17808000  1.0 -0.2105150598
N  N296  1  0.87042000  0.17808000  0.82822000  1.0 -0.2105150598
N  N297  1  0.87042000  0.82822000  0.12328000  1.0 -0.2105150598
N  N298  1  0.12328000  0.17808000  0.87042000  1.0 -0.2105150598
N  N299  1  0.17808000  0.12328000  0.82822000  1.0 -0.2105150598
N  N300  1  0.82822000  0.87042000  0.17808000  1.0 -0.2105150598
N  N301  1  0.12672000  0.37958000  0.07192000  1.0 -0.2105150598
N  N302  1  0.37958000  0.12672000  0.42178000  1.0 -0.2105150598
N  N303  1  0.42178000  0.07192000  0.37958000  1.0 -0.2105150598
N  N304  1  0.07192000  0.42178000  0.12672000  1.0 -0.2105150598
N  N305  1  0.42178000  0.12672000  0.07192000  1.0 -0.2105150598
N  N306  1  0.07192000  0.37958000  0.42178000  1.0 -0.2105150598
N  N307  1  0.12672000  0.42178000  0.37958000  1.0 -0.2105150598
N  N308  1  0.37958000  0.07192000  0.12672000  1.0 -0.2105150598
N  N309  1  0.37958000  0.42178000  0.07192000  1.0 -0.2105150598
N  N310  1  0.12672000  0.07192000  0.42178000  1.0 -0.2105150598
N  N311  1  0.07192000  0.12672000  0.37958000  1.0 -0.2105150598
N  N312  1  0.42178000  0.37958000  0.12672000  1.0 -0.2105150598
N  N313  1  0.62672000  0.87958000  0.92178000  1.0 -0.2105150598
N  N314  1  0.87958000  0.62672000  0.57192000  1.0 -0.2105150598
N  N315  1  0.92178000  0.57192000  0.62672000  1.0 -0.2105150598
N  N316  1  0.57192000  0.92178000  0.87958000  1.0 -0.2105150598
N  N317  1  0.92178000  0.62672000  0.87958000  1.0 -0.2105150598
N  N318  1  0.57192000  0.87958000  0.62672000  1.0 -0.2105150598
N  N319  1  0.62672000  0.92178000  0.57192000  1.0 -0.2105150598
N  N320  1  0.87958000  0.57192000  0.92178000  1.0 -0.2105150598
N  N321  1  0.87958000  0.92178000  0.62672000  1.0 -0.2105150598
N  N322  1  0.62672000  0.57192000  0.87958000  1.0 -0.2105150598
N  N323  1  0.57192000  0.62672000  0.92178000  1.0 -0.2105150598
N  N324  1  0.92178000  0.87958000  0.57192000  1.0 -0.2105150598
N  N325  1  0.62328000  0.37042000  0.67808000  1.0 -0.2105150598
N  N326  1  0.37042000  0.62328000  0.32822000  1.0 -0.2105150598
N  N327  1  0.32822000  0.67808000  0.37042000  1.0 -0.2105150598
N  N328  1  0.67808000  0.32822000  0.62328000  1.0 -0.2105150598
N  N329  1  0.32822000  0.62328000  0.67808000  1.0 -0.2105150598
N  N330  1  0.67808000  0.37042000  0.32822000  1.0 -0.2105150598
N  N331  1  0.62328000  0.32822000  0.37042000  1.0 -0.2105150598
N  N332  1  0.37042000  0.67808000  0.62328000  1.0 -0.2105150598
N  N333  1  0.37042000  0.32822000  0.67808000  1.0 -0.2105150598
N  N334  1  0.62328000  0.67808000  0.32822000  1.0 -0.2105150598
N  N335  1  0.67808000  0.62328000  0.37042000  1.0 -0.2105150598
N  N336  1  0.32822000  0.37042000  0.62328000  1.0 -0.2105150598
N  N337  1  0.09533000  0.83943000  0.90819000  1.0 -0.4622451388
N  N338  1  0.83943000  0.09533000  0.15705000  1.0 -0.4622451388
N  N339  1  0.90819000  0.15705000  0.09533000  1.0 -0.4622451388
N  N340  1  0.15705000  0.90819000  0.83943000  1.0 -0.4622451388
N  N341  1  0.90819000  0.09533000  0.83943000  1.0 -0.4622451388
N  N342  1  0.15705000  0.83943000  0.09533000  1.0 -0.4622451388
N  N343  1  0.09533000  0.90819000  0.15705000  1.0 -0.4622451388
N  N344  1  0.83943000  0.15705000  0.90819000  1.0 -0.4622451388
N  N345  1  0.83943000  0.90819000  0.09533000  1.0 -0.4622451388
N  N346  1  0.09533000  0.15705000  0.83943000  1.0 -0.4622451388
N  N347  1  0.15705000  0.09533000  0.90819000  1.0 -0.4622451388
N  N348  1  0.90819000  0.83943000  0.15705000  1.0 -0.4622451388
N  N349  1  0.15467000  0.41057000  0.09295000  1.0 -0.4622451388
N  N350  1  0.41057000  0.15467000  0.34181000  1.0 -0.4622451388
N  N351  1  0.34181000  0.09295000  0.41057000  1.0 -0.4622451388
N  N352  1  0.09295000  0.34181000  0.15467000  1.0 -0.4622451388
N  N353  1  0.34181000  0.15467000  0.09295000  1.0 -0.4622451388
N  N354  1  0.09295000  0.41057000  0.34181000  1.0 -0.4622451388
N  N355  1  0.15467000  0.34181000  0.41057000  1.0 -0.4622451388
N  N356  1  0.41057000  0.09295000  0.15467000  1.0 -0.4622451388
N  N357  1  0.41057000  0.34181000  0.09295000  1.0 -0.4622451388
N  N358  1  0.15467000  0.09295000  0.34181000  1.0 -0.4622451388
N  N359  1  0.09295000  0.15467000  0.41057000  1.0 -0.4622451388
N  N360  1  0.34181000  0.41057000  0.15467000  1.0 -0.4622451388
N  N361  1  0.65467000  0.91057000  0.84181000  1.0 -0.4622451388
N  N362  1  0.91057000  0.65467000  0.59295000  1.0 -0.4622451388
N  N363  1  0.84181000  0.59295000  0.65467000  1.0 -0.4622451388
N  N364  1  0.59295000  0.84181000  0.91057000  1.0 -0.4622451388
N  N365  1  0.84181000  0.65467000  0.91057000  1.0 -0.4622451388
N  N366  1  0.59295000  0.91057000  0.65467000  1.0 -0.4622451388
N  N367  1  0.65467000  0.84181000  0.59295000  1.0 -0.4622451388
N  N368  1  0.91057000  0.59295000  0.84181000  1.0 -0.4622451388
N  N369  1  0.91057000  0.84181000  0.65467000  1.0 -0.4622451388
N  N370  1  0.65467000  0.59295000  0.91057000  1.0 -0.4622451388
N  N371  1  0.59295000  0.65467000  0.84181000  1.0 -0.4622451388
N  N372  1  0.84181000  0.91057000  0.59295000  1.0 -0.4622451388
N  N373  1  0.59533000  0.33943000  0.65705000  1.0 -0.4622451388
N  N374  1  0.33943000  0.59533000  0.40819000  1.0 -0.4622451388
N  N375  1  0.40819000  0.65705000  0.33943000  1.0 -0.4622451388
N  N376  1  0.65705000  0.40819000  0.59533000  1.0 -0.4622451388
N  N377  1  0.40819000  0.59533000  0.65705000  1.0 -0.4622451388
N  N378  1  0.65705000  0.33943000  0.40819000  1.0 -0.4622451388
N  N379  1  0.59533000  0.40819000  0.33943000  1.0 -0.4622451388
N  N380  1  0.33943000  0.65705000  0.59533000  1.0 -0.4622451388
N  N381  1  0.33943000  0.40819000  0.65705000  1.0 -0.4622451388
N  N382  1  0.59533000  0.65705000  0.40819000  1.0 -0.4622451388
N  N383  1  0.65705000  0.59533000  0.33943000  1.0 -0.4622451388
N  N384  1  0.40819000  0.33943000  0.59533000  1.0 -0.4622451388
N  N385  1  0.07912000  0.92136000  0.86882000  1.0 -0.2018057404
N  N386  1  0.92136000  0.07912000  0.13070000  1.0 -0.2018057404
N  N387  1  0.86882000  0.13070000  0.07912000  1.0 -0.2018057404
N  N388  1  0.13070000  0.86882000  0.92136000  1.0 -0.2018057404
N  N389  1  0.86882000  0.07912000  0.92136000  1.0 -0.2018057404
N  N390  1  0.13070000  0.92136000  0.07912000  1.0 -0.2018057404
N  N391  1  0.07912000  0.86882000  0.13070000  1.0 -0.2018057404
N  N392  1  0.92136000  0.13070000  0.86882000  1.0 -0.2018057404
N  N393  1  0.92136000  0.86882000  0.07912000  1.0 -0.2018057404
N  N394  1  0.07912000  0.13070000  0.92136000  1.0 -0.2018057404
N  N395  1  0.13070000  0.07912000  0.86882000  1.0 -0.2018057404
N  N396  1  0.86882000  0.92136000  0.13070000  1.0 -0.2018057404
N  N397  1  0.17088000  0.32864000  0.11930000  1.0 -0.2018057404
N  N398  1  0.32864000  0.17088000  0.38118000  1.0 -0.2018057404
N  N399  1  0.38118000  0.11930000  0.32864000  1.0 -0.2018057404
N  N400  1  0.11930000  0.38118000  0.17088000  1.0 -0.2018057404
N  N401  1  0.38118000  0.17088000  0.11930000  1.0 -0.2018057404
N  N402  1  0.11930000  0.32864000  0.38118000  1.0 -0.2018057404
N  N403  1  0.17088000  0.38118000  0.32864000  1.0 -0.2018057404
N  N404  1  0.32864000  0.11930000  0.17088000  1.0 -0.2018057404
N  N405  1  0.32864000  0.38118000  0.11930000  1.0 -0.2018057404
N  N406  1  0.17088000  0.11930000  0.38118000  1.0 -0.2018057404
N  N407  1  0.11930000  0.17088000  0.32864000  1.0 -0.2018057404
N  N408  1  0.38118000  0.32864000  0.17088000  1.0 -0.2018057404
N  N409  1  0.67088000  0.82864000  0.88118000  1.0 -0.2018057404
N  N410  1  0.82864000  0.67088000  0.61930000  1.0 -0.2018057404
N  N411  1  0.88118000  0.61930000  0.67088000  1.0 -0.2018057404
N  N412  1  0.61930000  0.88118000  0.82864000  1.0 -0.2018057404
N  N413  1  0.88118000  0.67088000  0.82864000  1.0 -0.2018057404
N  N414  1  0.61930000  0.82864000  0.67088000  1.0 -0.2018057404
N  N415  1  0.67088000  0.88118000  0.61930000  1.0 -0.2018057404
N  N416  1  0.82864000  0.61930000  0.88118000  1.0 -0.2018057404
N  N417  1  0.82864000  0.88118000  0.67088000  1.0 -0.2018057404
N  N418  1  0.67088000  0.61930000  0.82864000  1.0 -0.2018057404
N  N419  1  0.61930000  0.67088000  0.88118000  1.0 -0.2018057404
N  N420  1  0.88118000  0.82864000  0.61930000  1.0 -0.2018057404
N  N421  1  0.57912000  0.42136000  0.63070000  1.0 -0.2018057404
N  N422  1  0.42136000  0.57912000  0.36882000  1.0 -0.2018057404
N  N423  1  0.36882000  0.63070000  0.42136000  1.0 -0.2018057404
N  N424  1  0.63070000  0.36882000  0.57912000  1.0 -0.2018057404
N  N425  1  0.36882000  0.57912000  0.63070000  1.0 -0.2018057404
N  N426  1  0.63070000  0.42136000  0.36882000  1.0 -0.2018057404
N  N427  1  0.57912000  0.36882000  0.42136000  1.0 -0.2018057404
N  N428  1  0.42136000  0.63070000  0.57912000  1.0 -0.2018057404
N  N429  1  0.42136000  0.36882000  0.63070000  1.0 -0.2018057404
N  N430  1  0.57912000  0.63070000  0.36882000  1.0 -0.2018057404
N  N431  1  0.63070000  0.57912000  0.42136000  1.0 -0.2018057404
N  N432  1  0.36882000  0.42136000  0.57912000  1.0 -0.2018057404
N  N433  1  0.95494000  0.98362000  0.92300000  1.0 -0.4008880193
N  N434  1  0.98362000  0.95494000  0.13844000  1.0 -0.410122393
N  N435  1  0.92300000  0.13844000  0.95494000  1.0 -0.4008880193
N  N436  1  0.13844000  0.92300000  0.98362000  1.0 -0.410122393
N  N437  1  0.92300000  0.95494000  0.98362000  1.0 -0.4008880193
N  N438  1  0.13844000  0.98362000  0.95494000  1.0 -0.410122393
N  N439  1  0.95494000  0.92300000  0.13844000  1.0 -0.410122393
N  N440  1  0.98362000  0.13844000  0.92300000  1.0 -0.4008880193
N  N441  1  0.98362000  0.92300000  0.95494000  1.0 -0.4008880193
N  N442  1  0.95494000  0.13844000  0.98362000  1.0 -0.4008880193
N  N443  1  0.13844000  0.95494000  0.92300000  1.0 -0.4008880193
N  N444  1  0.92300000  0.98362000  0.13844000  1.0 -0.4008880193
N  N445  1  0.29506000  0.26638000  0.11156000  1.0 -0.4008880193
N  N446  1  0.26638000  0.29506000  0.32700000  1.0 -0.4008880193
N  N447  1  0.32700000  0.11156000  0.26638000  1.0 -0.410122393
N  N448  1  0.11156000  0.32700000  0.29506000  1.0 -0.410122393
N  N449  1  0.32700000  0.29506000  0.11156000  1.0 -0.4008880193
N  N450  1  0.11156000  0.26638000  0.32700000  1.0 -0.410122393
N  N451  1  0.29506000  0.32700000  0.26638000  1.0 -0.4008880193
N  N452  1  0.26638000  0.11156000  0.29506000  1.0 -0.410122393
N  N453  1  0.26638000  0.32700000  0.11156000  1.0 -0.4008880193
N  N454  1  0.29506000  0.11156000  0.32700000  1.0 -0.410122393
N  N455  1  0.11156000  0.29506000  0.26638000  1.0 -0.410122393
N  N456  1  0.32700000  0.26638000  0.29506000  1.0 -0.4008880193
N  N457  1  0.79506000  0.76638000  0.82700000  1.0 -0.4008880193
N  N458  1  0.76638000  0.79506000  0.61156000  1.0 -0.410122393
N  N459  1  0.82700000  0.61156000  0.79506000  1.0 -0.410122393
N  N460  1  0.61156000  0.82700000  0.76638000  1.0 -0.4008880193
N  N461  1  0.82700000  0.79506000  0.76638000  1.0 -0.4008880193
N  N462  1  0.61156000  0.76638000  0.79506000  1.0 -0.4008880193
N  N463  1  0.79506000  0.82700000  0.61156000  1.0 -0.410122393
N  N464  1  0.76638000  0.61156000  0.82700000  1.0 -0.410122393
N  N465  1  0.76638000  0.82700000  0.79506000  1.0 -0.4008880193
N  N466  1  0.79506000  0.61156000  0.76638000  1.0 -0.410122393
N  N467  1  0.61156000  0.79506000  0.82700000  1.0 -0.4008880193
N  N468  1  0.82700000  0.76638000  0.61156000  1.0 -0.410122393
N  N469  1  0.45494000  0.48362000  0.63844000  1.0 -0.410122393
N  N470  1  0.48362000  0.45494000  0.42300000  1.0 -0.4008880193
N  N471  1  0.42300000  0.63844000  0.48362000  1.0 -0.4008880193
N  N472  1  0.63844000  0.42300000  0.45494000  1.0 -0.4008880193
N  N473  1  0.42300000  0.45494000  0.63844000  1.0 -0.410122393
N  N474  1  0.63844000  0.48362000  0.42300000  1.0 -0.4008880193
N  N475  1  0.45494000  0.42300000  0.48362000  1.0 -0.4008880193
N  N476  1  0.48362000  0.63844000  0.45494000  1.0 -0.4008880193
N  N477  1  0.48362000  0.42300000  0.63844000  1.0 -0.410122393
N  N478  1  0.45494000  0.63844000  0.42300000  1.0 -0.410122393
N  N479  1  0.63844000  0.45494000  0.48362000  1.0 -0.4008880193
N  N480  1  0.42300000  0.48362000  0.45494000  1.0 -0.4008880193
