# DDEC6 charges by PACMAN v1.1 (https://github.com/mtap-research/PACMAN-charge/)
data_LAFRER_FSR_pacman
_symmetry_space_group_name_H-M   'P 1'
_cell_length_a   45.54620000
_cell_length_b   45.54620000
_cell_length_c   45.54620000
_cell_angle_alpha   60.00000000
_cell_angle_beta   60.00000000
_cell_angle_gamma   60.00000000
_symmetry_Int_Tables_number   1
_chemical_formula_structural   CoH16C26(SN5)2
_chemical_formula_sum   'Co48 H768 C1248 S96 N480'
_cell_volume   66809.99646272
_cell_formula_units_Z   48
loop_
 _symmetry_equiv_pos_site_id
 _symmetry_equiv_pos_as_xyz
  1  'x, y, z'
loop_
 _atom_site_type_symbol
 _atom_site_label
 _atom_site_symmetry_multiplicity
 _atom_site_fract_x
 _atom_site_fract_y
 _atom_site_fract_z
 _atom_site_occupancy
 _atom_site_charge
Co  Co1  1  0.38286000  0.12500000  0.86714000  1.0 0.6764920457
Co  Co2  1  0.86714000  0.12500000  0.62500000  1.0 0.6764920457
Co  Co3  1  0.12500000  0.62500000  0.86714000  1.0 0.6748962692
Co  Co4  1  0.62500000  0.86714000  0.12500000  1.0 0.6764920457
Co  Co5  1  0.12500000  0.38286000  0.62500000  1.0 0.6748962692
Co  Co6  1  0.38286000  0.86714000  0.62500000  1.0 0.6764920457
Co  Co7  1  0.62500000  0.38286000  0.86714000  1.0 0.6764920457
Co  Co8  1  0.38286000  0.62500000  0.12500000  1.0 0.6748962692
Co  Co9  1  0.12500000  0.86714000  0.38286000  1.0 0.6748962692
Co  Co10  1  0.62500000  0.12500000  0.38286000  1.0 0.6764920457
Co  Co11  1  0.86714000  0.38286000  0.12500000  1.0 0.6764920457
Co  Co12  1  0.86714000  0.62500000  0.38286000  1.0 0.6764920457
Co  Co13  1  0.36714000  0.62500000  0.88286000  1.0 0.6748962692
Co  Co14  1  0.88286000  0.62500000  0.12500000  1.0 0.6764920457
Co  Co15  1  0.62500000  0.12500000  0.88286000  1.0 0.6764920457
Co  Co16  1  0.12500000  0.88286000  0.62500000  1.0 0.6764920457
Co  Co17  1  0.62500000  0.36714000  0.12500000  1.0 0.6764920457
Co  Co18  1  0.36714000  0.88286000  0.12500000  1.0 0.6748962692
Co  Co19  1  0.12500000  0.36714000  0.88286000  1.0 0.6748962692
Co  Co20  1  0.36714000  0.12500000  0.62500000  1.0 0.6764920457
Co  Co21  1  0.62500000  0.88286000  0.36714000  1.0 0.6764920457
Co  Co22  1  0.12500000  0.62500000  0.36714000  1.0 0.6748962692
Co  Co23  1  0.88286000  0.36714000  0.62500000  1.0 0.6764920457
Co  Co24  1  0.88286000  0.12500000  0.36714000  1.0 0.6764920457
Co  Co25  1  0.12644000  0.12644000  0.87356000  1.0 0.6568356147
Co  Co26  1  0.12356000  0.12356000  0.37644000  1.0 0.6568356147
Co  Co27  1  0.12356000  0.37644000  0.12356000  1.0 0.6568356147
Co  Co28  1  0.37644000  0.12356000  0.12356000  1.0 0.6568356147
Co  Co29  1  0.12356000  0.37644000  0.37644000  1.0 0.6568356147
Co  Co30  1  0.12644000  0.87356000  0.87356000  1.0 0.6568356147
Co  Co31  1  0.37644000  0.12356000  0.37644000  1.0 0.6568356147
Co  Co32  1  0.87356000  0.12644000  0.87356000  1.0 0.6568356147
Co  Co33  1  0.37644000  0.37644000  0.12356000  1.0 0.6568356147
Co  Co34  1  0.87356000  0.87356000  0.12644000  1.0 0.6568356147
Co  Co35  1  0.87356000  0.12644000  0.12644000  1.0 0.6568356147
Co  Co36  1  0.12644000  0.87356000  0.12644000  1.0 0.6568356147
Co  Co37  1  0.62356000  0.62356000  0.87644000  1.0 0.6568356147
Co  Co38  1  0.62644000  0.62644000  0.37356000  1.0 0.6568356147
Co  Co39  1  0.62644000  0.37356000  0.62644000  1.0 0.6568356147
Co  Co40  1  0.37356000  0.62644000  0.62644000  1.0 0.6568356147
Co  Co41  1  0.62644000  0.37356000  0.37356000  1.0 0.6568356147
Co  Co42  1  0.62356000  0.87644000  0.87644000  1.0 0.6568356147
Co  Co43  1  0.37356000  0.62644000  0.37356000  1.0 0.6568356147
Co  Co44  1  0.87644000  0.62356000  0.87644000  1.0 0.6568356147
Co  Co45  1  0.37356000  0.37356000  0.62644000  1.0 0.6568356147
Co  Co46  1  0.87644000  0.87644000  0.62356000  1.0 0.6568356147
Co  Co47  1  0.87644000  0.62356000  0.62356000  1.0 0.6568356147
Co  Co48  1  0.62356000  0.87644000  0.62356000  1.0 0.6568356147
H  H1  1  0.16730000  0.28690000  0.89570000  1.0 0.1085502716
H  H2  1  0.08270000  0.96310000  0.59990000  1.0 0.1085502716
H  H3  1  0.96310000  0.59990000  0.08270000  1.0 0.1085502716
H  H4  1  0.59990000  0.08270000  0.96310000  1.0 0.1085502716
H  H5  1  0.96310000  0.35430000  0.59990000  1.0 0.1085502716
H  H6  1  0.28690000  0.65010000  0.89570000  1.0 0.1085502716
H  H7  1  0.35430000  0.08270000  0.59990000  1.0 0.1085502716
H  H8  1  0.65010000  0.16730000  0.89570000  1.0 0.1085502716
H  H9  1  0.35430000  0.59990000  0.96310000  1.0 0.1085502716
H  H10  1  0.65010000  0.89570000  0.28690000  1.0 0.1085502716
H  H11  1  0.28690000  0.16730000  0.65010000  1.0 0.1085502716
H  H12  1  0.96310000  0.08270000  0.35430000  1.0 0.1085502716
H  H13  1  0.35430000  0.96310000  0.08270000  1.0 0.1085502716
H  H14  1  0.65010000  0.28690000  0.16730000  1.0 0.1085502716
H  H15  1  0.08270000  0.35430000  0.96310000  1.0 0.1085502716
H  H16  1  0.16730000  0.65010000  0.28690000  1.0 0.1085502716
H  H17  1  0.16730000  0.89570000  0.65010000  1.0 0.1085502716
H  H18  1  0.89570000  0.28690000  0.65010000  1.0 0.1085502716
H  H19  1  0.59990000  0.96310000  0.35430000  1.0 0.1085502716
H  H20  1  0.08270000  0.59990000  0.35430000  1.0 0.1085502716
H  H21  1  0.89570000  0.65010000  0.16730000  1.0 0.1085502716
H  H22  1  0.59990000  0.35430000  0.08270000  1.0 0.1085502716
H  H23  1  0.28690000  0.89570000  0.16730000  1.0 0.1085502716
H  H24  1  0.89570000  0.16730000  0.28690000  1.0 0.1085502716
H  H25  1  0.58270000  0.46310000  0.85430000  1.0 0.1085502716
H  H26  1  0.66730000  0.78690000  0.15010000  1.0 0.1085502716
H  H27  1  0.78690000  0.15010000  0.66730000  1.0 0.1085502716
H  H28  1  0.15010000  0.66730000  0.78690000  1.0 0.1085502716
H  H29  1  0.78690000  0.39570000  0.15010000  1.0 0.1085502716
H  H30  1  0.46310000  0.09990000  0.85430000  1.0 0.1085502716
H  H31  1  0.39570000  0.66730000  0.15010000  1.0 0.1085502716
H  H32  1  0.09990000  0.58270000  0.85430000  1.0 0.1085502716
H  H33  1  0.39570000  0.15010000  0.78690000  1.0 0.1085502716
H  H34  1  0.09990000  0.85430000  0.46310000  1.0 0.1085502716
H  H35  1  0.46310000  0.58270000  0.09990000  1.0 0.1085502716
H  H36  1  0.78690000  0.66730000  0.39570000  1.0 0.1085502716
H  H37  1  0.39570000  0.78690000  0.66730000  1.0 0.1085502716
H  H38  1  0.09990000  0.46310000  0.58270000  1.0 0.1085502716
H  H39  1  0.66730000  0.39570000  0.78690000  1.0 0.1085502716
H  H40  1  0.58270000  0.09990000  0.46310000  1.0 0.1085502716
H  H41  1  0.58270000  0.85430000  0.09990000  1.0 0.1085502716
H  H42  1  0.85430000  0.46310000  0.09990000  1.0 0.1085502716
H  H43  1  0.15010000  0.78690000  0.39570000  1.0 0.1085502716
H  H44  1  0.66730000  0.15010000  0.39570000  1.0 0.1085502716
H  H45  1  0.85430000  0.09990000  0.58270000  1.0 0.1085502716
H  H46  1  0.15010000  0.39570000  0.66730000  1.0 0.1085502716
H  H47  1  0.46310000  0.85430000  0.58270000  1.0 0.1085502716
H  H48  1  0.85430000  0.58270000  0.46310000  1.0 0.1085502716
H  H49  1  0.10670000  0.22870000  0.92710000  1.0 0.1232048484
H  H50  1  0.14330000  0.02130000  0.51250000  1.0 0.1232048484
H  H51  1  0.02130000  0.51250000  0.14330000  1.0 0.1232048484
H  H52  1  0.51250000  0.14330000  0.02130000  1.0 0.1232048484
H  H53  1  0.02130000  0.32290000  0.51250000  1.0 0.1232048484
H  H54  1  0.22870000  0.73750000  0.92710000  1.0 0.1232048484
H  H55  1  0.32290000  0.14330000  0.51250000  1.0 0.1232048484
H  H56  1  0.73750000  0.10670000  0.92710000  1.0 0.1232048484
H  H57  1  0.32290000  0.51250000  0.02130000  1.0 0.1232048484
H  H58  1  0.73750000  0.92710000  0.22870000  1.0 0.1232048484
H  H59  1  0.22870000  0.10670000  0.73750000  1.0 0.1232048484
H  H60  1  0.02130000  0.14330000  0.32290000  1.0 0.1232048484
H  H61  1  0.32290000  0.02130000  0.14330000  1.0 0.1232048484
H  H62  1  0.73750000  0.22870000  0.10670000  1.0 0.1232048484
H  H63  1  0.14330000  0.32290000  0.02130000  1.0 0.1232048484
H  H64  1  0.10670000  0.73750000  0.22870000  1.0 0.1232048484
H  H65  1  0.10670000  0.92710000  0.73750000  1.0 0.1232048484
H  H66  1  0.92710000  0.22870000  0.73750000  1.0 0.1232048484
H  H67  1  0.51250000  0.02130000  0.32290000  1.0 0.1232048484
H  H68  1  0.14330000  0.51250000  0.32290000  1.0 0.1232048484
H  H69  1  0.92710000  0.73750000  0.10670000  1.0 0.1232048484
H  H70  1  0.51250000  0.32290000  0.14330000  1.0 0.1232048484
H  H71  1  0.22870000  0.92710000  0.10670000  1.0 0.1232048484
H  H72  1  0.92710000  0.10670000  0.22870000  1.0 0.1232048484
H  H73  1  0.64330000  0.52130000  0.82290000  1.0 0.1232048484
H  H74  1  0.60670000  0.72870000  0.23750000  1.0 0.1232048484
H  H75  1  0.72870000  0.23750000  0.60670000  1.0 0.1232048484
H  H76  1  0.23750000  0.60670000  0.72870000  1.0 0.1232048484
H  H77  1  0.72870000  0.42710000  0.23750000  1.0 0.1232048484
H  H78  1  0.52130000  0.01250000  0.82290000  1.0 0.1232048484
H  H79  1  0.42710000  0.60670000  0.23750000  1.0 0.1232048484
H  H80  1  0.01250000  0.64330000  0.82290000  1.0 0.1232048484
H  H81  1  0.42710000  0.23750000  0.72870000  1.0 0.1232048484
H  H82  1  0.01250000  0.82290000  0.52130000  1.0 0.1232048484
H  H83  1  0.52130000  0.64330000  0.01250000  1.0 0.1232048484
H  H84  1  0.72870000  0.60670000  0.42710000  1.0 0.1232048484
H  H85  1  0.42710000  0.72870000  0.60670000  1.0 0.1232048484
H  H86  1  0.01250000  0.52130000  0.64330000  1.0 0.1232048484
H  H87  1  0.60670000  0.42710000  0.72870000  1.0 0.1232048484
H  H88  1  0.64330000  0.01250000  0.52130000  1.0 0.1232048484
H  H89  1  0.64330000  0.82290000  0.01250000  1.0 0.1232048484
H  H90  1  0.82290000  0.52130000  0.01250000  1.0 0.1232048484
H  H91  1  0.23750000  0.72870000  0.42710000  1.0 0.1232048484
H  H92  1  0.60670000  0.23750000  0.42710000  1.0 0.1232048484
H  H93  1  0.82290000  0.01250000  0.64330000  1.0 0.1232048484
H  H94  1  0.23750000  0.42710000  0.60670000  1.0 0.1232048484
H  H95  1  0.52130000  0.82290000  0.64330000  1.0 0.1232048484
H  H96  1  0.82290000  0.64330000  0.52130000  1.0 0.1232048484
H  H97  1  0.05630000  0.28030000  0.93230000  1.0 0.1378277233
H  H98  1  0.19370000  0.96970000  0.51890000  1.0 0.1378277233
H  H99  1  0.96970000  0.51890000  0.19370000  1.0 0.1378277233
H  H100  1  0.51890000  0.19370000  0.96970000  1.0 0.1378277233
H  H101  1  0.96970000  0.31770000  0.51890000  1.0 0.1378277233
H  H102  1  0.28030000  0.73110000  0.93230000  1.0 0.1378277233
H  H103  1  0.31770000  0.19370000  0.51890000  1.0 0.1378277233
H  H104  1  0.73110000  0.05630000  0.93230000  1.0 0.1378277233
H  H105  1  0.31770000  0.51890000  0.96970000  1.0 0.1378277233
H  H106  1  0.73110000  0.93230000  0.28030000  1.0 0.1378277233
H  H107  1  0.28030000  0.05630000  0.73110000  1.0 0.1378277233
H  H108  1  0.96970000  0.19370000  0.31770000  1.0 0.1378277233
H  H109  1  0.31770000  0.96970000  0.19370000  1.0 0.1378277233
H  H110  1  0.73110000  0.28030000  0.05630000  1.0 0.1378277233
H  H111  1  0.19370000  0.31770000  0.96970000  1.0 0.1378277233
H  H112  1  0.05630000  0.73110000  0.28030000  1.0 0.1378277233
H  H113  1  0.05630000  0.93230000  0.73110000  1.0 0.1378277233
H  H114  1  0.93230000  0.28030000  0.73110000  1.0 0.1378277233
H  H115  1  0.51890000  0.96970000  0.31770000  1.0 0.1378277233
H  H116  1  0.19370000  0.51890000  0.31770000  1.0 0.1378277233
H  H117  1  0.93230000  0.73110000  0.05630000  1.0 0.1378277233
H  H118  1  0.51890000  0.31770000  0.19370000  1.0 0.1378277233
H  H119  1  0.28030000  0.93230000  0.05630000  1.0 0.1378277233
H  H120  1  0.93230000  0.05630000  0.28030000  1.0 0.1378277233
H  H121  1  0.69370000  0.46970000  0.81770000  1.0 0.1378277233
H  H122  1  0.55630000  0.78030000  0.23110000  1.0 0.1378277233
H  H123  1  0.78030000  0.23110000  0.55630000  1.0 0.1378277233
H  H124  1  0.23110000  0.55630000  0.78030000  1.0 0.1378277233
H  H125  1  0.78030000  0.43230000  0.23110000  1.0 0.1378277233
H  H126  1  0.46970000  0.01890000  0.81770000  1.0 0.1378277233
H  H127  1  0.43230000  0.55630000  0.23110000  1.0 0.1378277233
H  H128  1  0.01890000  0.69370000  0.81770000  1.0 0.1378277233
H  H129  1  0.43230000  0.23110000  0.78030000  1.0 0.1378277233
H  H130  1  0.01890000  0.81770000  0.46970000  1.0 0.1378277233
H  H131  1  0.46970000  0.69370000  0.01890000  1.0 0.1378277233
H  H132  1  0.78030000  0.55630000  0.43230000  1.0 0.1378277233
H  H133  1  0.43230000  0.78030000  0.55630000  1.0 0.1378277233
H  H134  1  0.01890000  0.46970000  0.69370000  1.0 0.1378277233
H  H135  1  0.55630000  0.43230000  0.78030000  1.0 0.1378277233
H  H136  1  0.69370000  0.01890000  0.46970000  1.0 0.1378277233
H  H137  1  0.69370000  0.81770000  0.01890000  1.0 0.1378277233
H  H138  1  0.81770000  0.46970000  0.01890000  1.0 0.1378277233
H  H139  1  0.23110000  0.78030000  0.43230000  1.0 0.1378277233
H  H140  1  0.55630000  0.23110000  0.43230000  1.0 0.1378277233
H  H141  1  0.81770000  0.01890000  0.69370000  1.0 0.1378277233
H  H142  1  0.23110000  0.43230000  0.55630000  1.0 0.1378277233
H  H143  1  0.46970000  0.81770000  0.69370000  1.0 0.1378277233
H  H144  1  0.81770000  0.69370000  0.46970000  1.0 0.1378277233
H  H145  1  0.06260000  0.33340000  0.91600000  1.0 0.1010447246
H  H146  1  0.18740000  0.91660000  0.56200000  1.0 0.1010447246
H  H147  1  0.91660000  0.56200000  0.18740000  1.0 0.1010447246
H  H148  1  0.56200000  0.18740000  0.91660000  1.0 0.1010447246
H  H149  1  0.91660000  0.33400000  0.56200000  1.0 0.1010447246
H  H150  1  0.33340000  0.68800000  0.91600000  1.0 0.1010447246
H  H151  1  0.33400000  0.18740000  0.56200000  1.0 0.1010447246
H  H152  1  0.68800000  0.06260000  0.91600000  1.0 0.1010447246
H  H153  1  0.33400000  0.56200000  0.91660000  1.0 0.1010447246
H  H154  1  0.68800000  0.91600000  0.33340000  1.0 0.1010447246
H  H155  1  0.33340000  0.06260000  0.68800000  1.0 0.1010447246
H  H156  1  0.91660000  0.18740000  0.33400000  1.0 0.1010447246
H  H157  1  0.33400000  0.91660000  0.18740000  1.0 0.1010447246
H  H158  1  0.68800000  0.33340000  0.06260000  1.0 0.1010447246
H  H159  1  0.18740000  0.33400000  0.91660000  1.0 0.1010447246
H  H160  1  0.06260000  0.68800000  0.33340000  1.0 0.1010447246
H  H161  1  0.06260000  0.91600000  0.68800000  1.0 0.1010447246
H  H162  1  0.91600000  0.33340000  0.68800000  1.0 0.1010447246
H  H163  1  0.56200000  0.91660000  0.33400000  1.0 0.1010447246
H  H164  1  0.18740000  0.56200000  0.33400000  1.0 0.1010447246
H  H165  1  0.91600000  0.68800000  0.06260000  1.0 0.1010447246
H  H166  1  0.56200000  0.33400000  0.18740000  1.0 0.1010447246
H  H167  1  0.33340000  0.91600000  0.06260000  1.0 0.1010447246
H  H168  1  0.91600000  0.06260000  0.33340000  1.0 0.1010447246
H  H169  1  0.68740000  0.41660000  0.83400000  1.0 0.1010447246
H  H170  1  0.56260000  0.83340000  0.18800000  1.0 0.1010447246
H  H171  1  0.83340000  0.18800000  0.56260000  1.0 0.1010447246
H  H172  1  0.18800000  0.56260000  0.83340000  1.0 0.1010447246
H  H173  1  0.83340000  0.41600000  0.18800000  1.0 0.1010447246
H  H174  1  0.41660000  0.06200000  0.83400000  1.0 0.1010447246
H  H175  1  0.41600000  0.56260000  0.18800000  1.0 0.1010447246
H  H176  1  0.06200000  0.68740000  0.83400000  1.0 0.1010447246
H  H177  1  0.41600000  0.18800000  0.83340000  1.0 0.1010447246
H  H178  1  0.06200000  0.83400000  0.41660000  1.0 0.1010447246
H  H179  1  0.41660000  0.68740000  0.06200000  1.0 0.1010447246
H  H180  1  0.83340000  0.56260000  0.41600000  1.0 0.1010447246
H  H181  1  0.41600000  0.83340000  0.56260000  1.0 0.1010447246
H  H182  1  0.06200000  0.41660000  0.68740000  1.0 0.1010447246
H  H183  1  0.56260000  0.41600000  0.83340000  1.0 0.1010447246
H  H184  1  0.68740000  0.06200000  0.41660000  1.0 0.1010447246
H  H185  1  0.68740000  0.83400000  0.06200000  1.0 0.1010447246
H  H186  1  0.83400000  0.41660000  0.06200000  1.0 0.1010447246
H  H187  1  0.18800000  0.83340000  0.41600000  1.0 0.1010447246
H  H188  1  0.56260000  0.18800000  0.41600000  1.0 0.1010447246
H  H189  1  0.83400000  0.06200000  0.68740000  1.0 0.1010447246
H  H190  1  0.18800000  0.41600000  0.56260000  1.0 0.1010447246
H  H191  1  0.41660000  0.83400000  0.68740000  1.0 0.1010447246
H  H192  1  0.83400000  0.68740000  0.41660000  1.0 0.1010447246
H  H193  1  0.35430000  0.19550000  0.88530000  1.0 0.1085502716
H  H194  1  0.89570000  0.05450000  0.68510000  1.0 0.1085502716
H  H195  1  0.05450000  0.68510000  0.89570000  1.0 0.1085502716
H  H196  1  0.68510000  0.89570000  0.05450000  1.0 0.1085502716
H  H197  1  0.05450000  0.36470000  0.68510000  1.0 0.1085502716
H  H198  1  0.19550000  0.56490000  0.88530000  1.0 0.1085502716
H  H199  1  0.36470000  0.89570000  0.68510000  1.0 0.1085502716
H  H200  1  0.56490000  0.35430000  0.88530000  1.0 0.1085502716
H  H201  1  0.36470000  0.68510000  0.05450000  1.0 0.1085502716
H  H202  1  0.56490000  0.88530000  0.19550000  1.0 0.1085502716
H  H203  1  0.19550000  0.35430000  0.56490000  1.0 0.1085502716
H  H204  1  0.05450000  0.89570000  0.36470000  1.0 0.1085502716
H  H205  1  0.36470000  0.05450000  0.89570000  1.0 0.1085502716
H  H206  1  0.56490000  0.19550000  0.35430000  1.0 0.1085502716
H  H207  1  0.89570000  0.36470000  0.05450000  1.0 0.1085502716
H  H208  1  0.35430000  0.56490000  0.19550000  1.0 0.1085502716
H  H209  1  0.35430000  0.88530000  0.56490000  1.0 0.1085502716
H  H210  1  0.88530000  0.19550000  0.56490000  1.0 0.1085502716
H  H211  1  0.68510000  0.05450000  0.36470000  1.0 0.1085502716
H  H212  1  0.89570000  0.68510000  0.36470000  1.0 0.1085502716
H  H213  1  0.88530000  0.56490000  0.35430000  1.0 0.1085502716
H  H214  1  0.68510000  0.36470000  0.89570000  1.0 0.1085502716
H  H215  1  0.19550000  0.88530000  0.35430000  1.0 0.1085502716
H  H216  1  0.88530000  0.35430000  0.19550000  1.0 0.1085502716
H  H217  1  0.39570000  0.55450000  0.86470000  1.0 0.1085502716
H  H218  1  0.85430000  0.69550000  0.06490000  1.0 0.1085502716
H  H219  1  0.69550000  0.06490000  0.85430000  1.0 0.1085502716
H  H220  1  0.06490000  0.85430000  0.69550000  1.0 0.1085502716
H  H221  1  0.69550000  0.38530000  0.06490000  1.0 0.1085502716
H  H222  1  0.55450000  0.18510000  0.86470000  1.0 0.1085502716
H  H223  1  0.38530000  0.85430000  0.06490000  1.0 0.1085502716
H  H224  1  0.18510000  0.39570000  0.86470000  1.0 0.1085502716
H  H225  1  0.38530000  0.06490000  0.69550000  1.0 0.1085502716
H  H226  1  0.18510000  0.86470000  0.55450000  1.0 0.1085502716
H  H227  1  0.55450000  0.39570000  0.18510000  1.0 0.1085502716
H  H228  1  0.69550000  0.85430000  0.38530000  1.0 0.1085502716
H  H229  1  0.38530000  0.69550000  0.85430000  1.0 0.1085502716
H  H230  1  0.18510000  0.55450000  0.39570000  1.0 0.1085502716
H  H231  1  0.85430000  0.38530000  0.69550000  1.0 0.1085502716
H  H232  1  0.39570000  0.18510000  0.55450000  1.0 0.1085502716
H  H233  1  0.39570000  0.86470000  0.18510000  1.0 0.1085502716
H  H234  1  0.86470000  0.55450000  0.18510000  1.0 0.1085502716
H  H235  1  0.06490000  0.69550000  0.38530000  1.0 0.1085502716
H  H236  1  0.85430000  0.06490000  0.38530000  1.0 0.1085502716
H  H237  1  0.86470000  0.18510000  0.39570000  1.0 0.1085502716
H  H238  1  0.06490000  0.38530000  0.85430000  1.0 0.1085502716
H  H239  1  0.55450000  0.86470000  0.39570000  1.0 0.1085502716
H  H240  1  0.86470000  0.39570000  0.55450000  1.0 0.1085502716
H  H241  1  0.30400000  0.24440000  0.89160000  1.0 0.1378277233
H  H242  1  0.94600000  0.00560000  0.69000000  1.0 0.1378277233
H  H243  1  0.00560000  0.69000000  0.94600000  1.0 0.1378277233
H  H244  1  0.69000000  0.94600000  0.00560000  1.0 0.1378277233
H  H245  1  0.00560000  0.35840000  0.69000000  1.0 0.1378277233
H  H246  1  0.24440000  0.56000000  0.89160000  1.0 0.1378277233
H  H247  1  0.35840000  0.94600000  0.69000000  1.0 0.1378277233
H  H248  1  0.56000000  0.30400000  0.89160000  1.0 0.1378277233
H  H249  1  0.35840000  0.69000000  0.00560000  1.0 0.1378277233
H  H250  1  0.56000000  0.89160000  0.24440000  1.0 0.1378277233
H  H251  1  0.24440000  0.30400000  0.56000000  1.0 0.1378277233
H  H252  1  0.00560000  0.94600000  0.35840000  1.0 0.1378277233
H  H253  1  0.35840000  0.00560000  0.94600000  1.0 0.1378277233
H  H254  1  0.56000000  0.24440000  0.30400000  1.0 0.1378277233
H  H255  1  0.94600000  0.35840000  0.00560000  1.0 0.1378277233
H  H256  1  0.30400000  0.56000000  0.24440000  1.0 0.1378277233
H  H257  1  0.30400000  0.89160000  0.56000000  1.0 0.1378277233
H  H258  1  0.89160000  0.24440000  0.56000000  1.0 0.1378277233
H  H259  1  0.69000000  0.00560000  0.35840000  1.0 0.1378277233
H  H260  1  0.94600000  0.69000000  0.35840000  1.0 0.1378277233
H  H261  1  0.89160000  0.56000000  0.30400000  1.0 0.1378277233
H  H262  1  0.69000000  0.35840000  0.94600000  1.0 0.1378277233
H  H263  1  0.24440000  0.89160000  0.30400000  1.0 0.1378277233
H  H264  1  0.89160000  0.30400000  0.24440000  1.0 0.1378277233
H  H265  1  0.44600000  0.50560000  0.85840000  1.0 0.1378277233
H  H266  1  0.80400000  0.74440000  0.06000000  1.0 0.1378277233
H  H267  1  0.74440000  0.06000000  0.80400000  1.0 0.1378277233
H  H268  1  0.06000000  0.80400000  0.74440000  1.0 0.1378277233
H  H269  1  0.74440000  0.39160000  0.06000000  1.0 0.1378277233
H  H270  1  0.50560000  0.19000000  0.85840000  1.0 0.1378277233
H  H271  1  0.39160000  0.80400000  0.06000000  1.0 0.1378277233
H  H272  1  0.19000000  0.44600000  0.85840000  1.0 0.1378277233
H  H273  1  0.39160000  0.06000000  0.74440000  1.0 0.1378277233
H  H274  1  0.19000000  0.85840000  0.50560000  1.0 0.1378277233
H  H275  1  0.50560000  0.44600000  0.19000000  1.0 0.1378277233
H  H276  1  0.74440000  0.80400000  0.39160000  1.0 0.1378277233
H  H277  1  0.39160000  0.74440000  0.80400000  1.0 0.1378277233
H  H278  1  0.19000000  0.50560000  0.44600000  1.0 0.1378277233
H  H279  1  0.80400000  0.39160000  0.74440000  1.0 0.1378277233
H  H280  1  0.44600000  0.19000000  0.50560000  1.0 0.1378277233
H  H281  1  0.44600000  0.85840000  0.19000000  1.0 0.1378277233
H  H282  1  0.85840000  0.50560000  0.19000000  1.0 0.1378277233
H  H283  1  0.06000000  0.74440000  0.39160000  1.0 0.1378277233
H  H284  1  0.80400000  0.06000000  0.39160000  1.0 0.1378277233
H  H285  1  0.85840000  0.19000000  0.44600000  1.0 0.1378277233
H  H286  1  0.06000000  0.39160000  0.80400000  1.0 0.1378277233
H  H287  1  0.50560000  0.85840000  0.44600000  1.0 0.1378277233
H  H288  1  0.85840000  0.44600000  0.50560000  1.0 0.1378277233
H  H289  1  0.25000000  0.24580000  0.89800000  1.0 0.1232048484
H  H290  1  0.00000000  0.00420000  0.64380000  1.0 0.1232048484
H  H291  1  0.00420000  0.64380000  0.00000000  1.0 0.1232048484
H  H292  1  0.64380000  0.00000000  0.00420000  1.0 0.1232048484
H  H293  1  0.00420000  0.35200000  0.64380000  1.0 0.1232048484
H  H294  1  0.24580000  0.60620000  0.89800000  1.0 0.1232048484
H  H295  1  0.35200000  0.00000000  0.64380000  1.0 0.1232048484
H  H296  1  0.60620000  0.25000000  0.89800000  1.0 0.1232048484
H  H297  1  0.35200000  0.64380000  0.00420000  1.0 0.1232048484
H  H298  1  0.60620000  0.89800000  0.24580000  1.0 0.1232048484
H  H299  1  0.24580000  0.25000000  0.60620000  1.0 0.1232048484
H  H300  1  0.00420000  0.00000000  0.35200000  1.0 0.1232048484
H  H301  1  0.35200000  0.00420000  0.00000000  1.0 0.1232048484
H  H302  1  0.60620000  0.24580000  0.25000000  1.0 0.1232048484
H  H303  1  0.00000000  0.35200000  0.00420000  1.0 0.1232048484
H  H304  1  0.25000000  0.60620000  0.24580000  1.0 0.1232048484
H  H305  1  0.25000000  0.89800000  0.60620000  1.0 0.1232048484
H  H306  1  0.89800000  0.24580000  0.60620000  1.0 0.1232048484
H  H307  1  0.64380000  0.00420000  0.35200000  1.0 0.1232048484
H  H308  1  0.00000000  0.64380000  0.35200000  1.0 0.1232048484
H  H309  1  0.89800000  0.60620000  0.25000000  1.0 0.1232048484
H  H310  1  0.64380000  0.35200000  0.00000000  1.0 0.1232048484
H  H311  1  0.24580000  0.89800000  0.25000000  1.0 0.1232048484
H  H312  1  0.89800000  0.25000000  0.24580000  1.0 0.1232048484
H  H313  1  0.50000000  0.50420000  0.85200000  1.0 0.1232048484
H  H314  1  0.75000000  0.74580000  0.10620000  1.0 0.1232048484
H  H315  1  0.74580000  0.10620000  0.75000000  1.0 0.1232048484
H  H316  1  0.10620000  0.75000000  0.74580000  1.0 0.1232048484
H  H317  1  0.74580000  0.39800000  0.10620000  1.0 0.1232048484
H  H318  1  0.50420000  0.14380000  0.85200000  1.0 0.1232048484
H  H319  1  0.39800000  0.75000000  0.10620000  1.0 0.1232048484
H  H320  1  0.14380000  0.50000000  0.85200000  1.0 0.1232048484
H  H321  1  0.39800000  0.10620000  0.74580000  1.0 0.1232048484
H  H322  1  0.14380000  0.85200000  0.50420000  1.0 0.1232048484
H  H323  1  0.50420000  0.50000000  0.14380000  1.0 0.1232048484
H  H324  1  0.74580000  0.75000000  0.39800000  1.0 0.1232048484
H  H325  1  0.39800000  0.74580000  0.75000000  1.0 0.1232048484
H  H326  1  0.14380000  0.50420000  0.50000000  1.0 0.1232048484
H  H327  1  0.75000000  0.39800000  0.74580000  1.0 0.1232048484
H  H328  1  0.50000000  0.14380000  0.50420000  1.0 0.1232048484
H  H329  1  0.50000000  0.85200000  0.14380000  1.0 0.1232048484
H  H330  1  0.85200000  0.50420000  0.14380000  1.0 0.1232048484
H  H331  1  0.10620000  0.74580000  0.39800000  1.0 0.1232048484
H  H332  1  0.75000000  0.10620000  0.39800000  1.0 0.1232048484
H  H333  1  0.85200000  0.14380000  0.50000000  1.0 0.1232048484
H  H334  1  0.10620000  0.39800000  0.75000000  1.0 0.1232048484
H  H335  1  0.50420000  0.85200000  0.50000000  1.0 0.1232048484
H  H336  1  0.85200000  0.50000000  0.50420000  1.0 0.1232048484
H  H337  1  0.30030000  0.14870000  0.88590000  1.0 0.1085502716
H  H338  1  0.94970000  0.10130000  0.58490000  1.0 0.1085502716
H  H339  1  0.10130000  0.58490000  0.94970000  1.0 0.1085502716
H  H340  1  0.58490000  0.94970000  0.10130000  1.0 0.1085502716
H  H341  1  0.10130000  0.36410000  0.58490000  1.0 0.1085502716
H  H342  1  0.14870000  0.66510000  0.88590000  1.0 0.1085502716
H  H343  1  0.36410000  0.94970000  0.58490000  1.0 0.1085502716
H  H344  1  0.66510000  0.30030000  0.88590000  1.0 0.1085502716
H  H345  1  0.36410000  0.58490000  0.10130000  1.0 0.1085502716
H  H346  1  0.66510000  0.88590000  0.14870000  1.0 0.1085502716
H  H347  1  0.14870000  0.30030000  0.66510000  1.0 0.1085502716
H  H348  1  0.10130000  0.94970000  0.36410000  1.0 0.1085502716
H  H349  1  0.36410000  0.10130000  0.94970000  1.0 0.1085502716
H  H350  1  0.66510000  0.14870000  0.30030000  1.0 0.1085502716
H  H351  1  0.94970000  0.36410000  0.10130000  1.0 0.1085502716
H  H352  1  0.30030000  0.66510000  0.14870000  1.0 0.1085502716
H  H353  1  0.30030000  0.88590000  0.66510000  1.0 0.1085502716
H  H354  1  0.88590000  0.14870000  0.66510000  1.0 0.1085502716
H  H355  1  0.58490000  0.10130000  0.36410000  1.0 0.1085502716
H  H356  1  0.94970000  0.58490000  0.36410000  1.0 0.1085502716
H  H357  1  0.88590000  0.66510000  0.30030000  1.0 0.1085502716
H  H358  1  0.58490000  0.36410000  0.94970000  1.0 0.1085502716
H  H359  1  0.14870000  0.88590000  0.30030000  1.0 0.1085502716
H  H360  1  0.88590000  0.30030000  0.14870000  1.0 0.1085502716
H  H361  1  0.44970000  0.60130000  0.86410000  1.0 0.1085502716
H  H362  1  0.80030000  0.64870000  0.16510000  1.0 0.1085502716
H  H363  1  0.64870000  0.16510000  0.80030000  1.0 0.1085502716
H  H364  1  0.16510000  0.80030000  0.64870000  1.0 0.1085502716
H  H365  1  0.64870000  0.38590000  0.16510000  1.0 0.1085502716
H  H366  1  0.60130000  0.08490000  0.86410000  1.0 0.1085502716
H  H367  1  0.38590000  0.80030000  0.16510000  1.0 0.1085502716
H  H368  1  0.08490000  0.44970000  0.86410000  1.0 0.1085502716
H  H369  1  0.38590000  0.16510000  0.64870000  1.0 0.1085502716
H  H370  1  0.08490000  0.86410000  0.60130000  1.0 0.1085502716
H  H371  1  0.60130000  0.44970000  0.08490000  1.0 0.1085502716
H  H372  1  0.64870000  0.80030000  0.38590000  1.0 0.1085502716
H  H373  1  0.38590000  0.64870000  0.80030000  1.0 0.1085502716
H  H374  1  0.08490000  0.60130000  0.44970000  1.0 0.1085502716
H  H375  1  0.80030000  0.38590000  0.64870000  1.0 0.1085502716
H  H376  1  0.44970000  0.08490000  0.60130000  1.0 0.1085502716
H  H377  1  0.44970000  0.86410000  0.08490000  1.0 0.1085502716
H  H378  1  0.86410000  0.60130000  0.08490000  1.0 0.1085502716
H  H379  1  0.16510000  0.64870000  0.38590000  1.0 0.1085502716
H  H380  1  0.80030000  0.16510000  0.38590000  1.0 0.1085502716
H  H381  1  0.86410000  0.08490000  0.44970000  1.0 0.1085502716
H  H382  1  0.16510000  0.38590000  0.80030000  1.0 0.1085502716
H  H383  1  0.60130000  0.86410000  0.44970000  1.0 0.1085502716
H  H384  1  0.86410000  0.44970000  0.60130000  1.0 0.1085502716
H  H385  1  0.20590000  0.07670000  0.86270000  1.0 0.1085502716
H  H386  1  0.04410000  0.17330000  0.39530000  1.0 0.1085502716
H  H387  1  0.17330000  0.39530000  0.04410000  1.0 0.1085502716
H  H388  1  0.39530000  0.04410000  0.17330000  1.0 0.1085502716
H  H389  1  0.17330000  0.38730000  0.39530000  1.0 0.1085502716
H  H390  1  0.07670000  0.85470000  0.86270000  1.0 0.1085502716
H  H391  1  0.38730000  0.04410000  0.39530000  1.0 0.1085502716
H  H392  1  0.85470000  0.20590000  0.86270000  1.0 0.1085502716
H  H393  1  0.38730000  0.39530000  0.17330000  1.0 0.1085502716
H  H394  1  0.85470000  0.86270000  0.07670000  1.0 0.1085502716
H  H395  1  0.07670000  0.20590000  0.85470000  1.0 0.1085502716
H  H396  1  0.17330000  0.04410000  0.38730000  1.0 0.1085502716
H  H397  1  0.38730000  0.17330000  0.04410000  1.0 0.1085502716
H  H398  1  0.85470000  0.07670000  0.20590000  1.0 0.1085502716
H  H399  1  0.04410000  0.38730000  0.17330000  1.0 0.1085502716
H  H400  1  0.20590000  0.85470000  0.07670000  1.0 0.1085502716
H  H401  1  0.20590000  0.86270000  0.85470000  1.0 0.1085502716
H  H402  1  0.86270000  0.07670000  0.85470000  1.0 0.1085502716
H  H403  1  0.39530000  0.17330000  0.38730000  1.0 0.1085502716
H  H404  1  0.04410000  0.39530000  0.38730000  1.0 0.1085502716
H  H405  1  0.86270000  0.85470000  0.20590000  1.0 0.1085502716
H  H406  1  0.39530000  0.38730000  0.04410000  1.0 0.1085502716
H  H407  1  0.07670000  0.86270000  0.20590000  1.0 0.1085502716
H  H408  1  0.86270000  0.20590000  0.07670000  1.0 0.1085502716
H  H409  1  0.54410000  0.67330000  0.88730000  1.0 0.1085502716
H  H410  1  0.70590000  0.57670000  0.35470000  1.0 0.1085502716
H  H411  1  0.57670000  0.35470000  0.70590000  1.0 0.1085502716
H  H412  1  0.35470000  0.70590000  0.57670000  1.0 0.1085502716
H  H413  1  0.57670000  0.36270000  0.35470000  1.0 0.1085502716
H  H414  1  0.67330000  0.89530000  0.88730000  1.0 0.1085502716
H  H415  1  0.36270000  0.70590000  0.35470000  1.0 0.1085502716
H  H416  1  0.89530000  0.54410000  0.88730000  1.0 0.1085502716
H  H417  1  0.36270000  0.35470000  0.57670000  1.0 0.1085502716
H  H418  1  0.89530000  0.88730000  0.67330000  1.0 0.1085502716
H  H419  1  0.67330000  0.54410000  0.89530000  1.0 0.1085502716
H  H420  1  0.57670000  0.70590000  0.36270000  1.0 0.1085502716
H  H421  1  0.36270000  0.57670000  0.70590000  1.0 0.1085502716
H  H422  1  0.89530000  0.67330000  0.54410000  1.0 0.1085502716
H  H423  1  0.70590000  0.36270000  0.57670000  1.0 0.1085502716
H  H424  1  0.54410000  0.89530000  0.67330000  1.0 0.1085502716
H  H425  1  0.54410000  0.88730000  0.89530000  1.0 0.1085502716
H  H426  1  0.88730000  0.67330000  0.89530000  1.0 0.1085502716
H  H427  1  0.35470000  0.57670000  0.36270000  1.0 0.1085502716
H  H428  1  0.70590000  0.35470000  0.36270000  1.0 0.1085502716
H  H429  1  0.88730000  0.89530000  0.54410000  1.0 0.1085502716
H  H430  1  0.35470000  0.36270000  0.70590000  1.0 0.1085502716
H  H431  1  0.67330000  0.88730000  0.54410000  1.0 0.1085502716
H  H432  1  0.88730000  0.54410000  0.67330000  1.0 0.1085502716
H  H433  1  0.25880000  0.06960000  0.86460000  1.0 0.1378277233
H  H434  1  0.99120000  0.18040000  0.44300000  1.0 0.1378277233
H  H435  1  0.18040000  0.44300000  0.99120000  1.0 0.1378277233
H  H436  1  0.44300000  0.99120000  0.18040000  1.0 0.1378277233
H  H437  1  0.18040000  0.38540000  0.44300000  1.0 0.1378277233
H  H438  1  0.06960000  0.80700000  0.86460000  1.0 0.1378277233
H  H439  1  0.38540000  0.99120000  0.44300000  1.0 0.1378277233
H  H440  1  0.80700000  0.25880000  0.86460000  1.0 0.1378277233
H  H441  1  0.38540000  0.44300000  0.18040000  1.0 0.1378277233
H  H442  1  0.80700000  0.86460000  0.06960000  1.0 0.1378277233
H  H443  1  0.06960000  0.25880000  0.80700000  1.0 0.1378277233
H  H444  1  0.18040000  0.99120000  0.38540000  1.0 0.1378277233
H  H445  1  0.38540000  0.18040000  0.99120000  1.0 0.1378277233
H  H446  1  0.80700000  0.06960000  0.25880000  1.0 0.1378277233
H  H447  1  0.99120000  0.38540000  0.18040000  1.0 0.1378277233
H  H448  1  0.25880000  0.80700000  0.06960000  1.0 0.1378277233
H  H449  1  0.25880000  0.86460000  0.80700000  1.0 0.1378277233
H  H450  1  0.86460000  0.06960000  0.80700000  1.0 0.1378277233
H  H451  1  0.44300000  0.18040000  0.38540000  1.0 0.1378277233
H  H452  1  0.99120000  0.44300000  0.38540000  1.0 0.1378277233
H  H453  1  0.86460000  0.80700000  0.25880000  1.0 0.1378277233
H  H454  1  0.44300000  0.38540000  0.99120000  1.0 0.1378277233
H  H455  1  0.06960000  0.86460000  0.25880000  1.0 0.1378277233
H  H456  1  0.86460000  0.25880000  0.06960000  1.0 0.1378277233
H  H457  1  0.49120000  0.68040000  0.88540000  1.0 0.1378277233
H  H458  1  0.75880000  0.56960000  0.30700000  1.0 0.1378277233
H  H459  1  0.56960000  0.30700000  0.75880000  1.0 0.1378277233
H  H460  1  0.30700000  0.75880000  0.56960000  1.0 0.1378277233
H  H461  1  0.56960000  0.36460000  0.30700000  1.0 0.1378277233
H  H462  1  0.68040000  0.94300000  0.88540000  1.0 0.1378277233
H  H463  1  0.36460000  0.75880000  0.30700000  1.0 0.1378277233
H  H464  1  0.94300000  0.49120000  0.88540000  1.0 0.1378277233
H  H465  1  0.36460000  0.30700000  0.56960000  1.0 0.1378277233
H  H466  1  0.94300000  0.88540000  0.68040000  1.0 0.1378277233
H  H467  1  0.68040000  0.49120000  0.94300000  1.0 0.1378277233
H  H468  1  0.56960000  0.75880000  0.36460000  1.0 0.1378277233
H  H469  1  0.36460000  0.56960000  0.75880000  1.0 0.1378277233
H  H470  1  0.94300000  0.68040000  0.49120000  1.0 0.1378277233
H  H471  1  0.75880000  0.36460000  0.56960000  1.0 0.1378277233
H  H472  1  0.49120000  0.94300000  0.68040000  1.0 0.1378277233
H  H473  1  0.49120000  0.88540000  0.94300000  1.0 0.1378277233
H  H474  1  0.88540000  0.68040000  0.94300000  1.0 0.1378277233
H  H475  1  0.30700000  0.56960000  0.36460000  1.0 0.1378277233
H  H476  1  0.75880000  0.30700000  0.36460000  1.0 0.1378277233
H  H477  1  0.88540000  0.94300000  0.49120000  1.0 0.1378277233
H  H478  1  0.30700000  0.36460000  0.75880000  1.0 0.1378277233
H  H479  1  0.68040000  0.88540000  0.49120000  1.0 0.1378277233
H  H480  1  0.88540000  0.49120000  0.68040000  1.0 0.1378277233
H  H481  1  0.26000000  0.11300000  0.87760000  1.0 0.1232048484
H  H482  1  0.99000000  0.13700000  0.50060000  1.0 0.1232048484
H  H483  1  0.13700000  0.50060000  0.99000000  1.0 0.1232048484
H  H484  1  0.50060000  0.99000000  0.13700000  1.0 0.1232048484
H  H485  1  0.13700000  0.37240000  0.50060000  1.0 0.1232048484
H  H486  1  0.11300000  0.74940000  0.87760000  1.0 0.1232048484
H  H487  1  0.37240000  0.99000000  0.50060000  1.0 0.1232048484
H  H488  1  0.74940000  0.26000000  0.87760000  1.0 0.1232048484
H  H489  1  0.37240000  0.50060000  0.13700000  1.0 0.1232048484
H  H490  1  0.74940000  0.87760000  0.11300000  1.0 0.1232048484
H  H491  1  0.11300000  0.26000000  0.74940000  1.0 0.1232048484
H  H492  1  0.13700000  0.99000000  0.37240000  1.0 0.1232048484
H  H493  1  0.37240000  0.13700000  0.99000000  1.0 0.1232048484
H  H494  1  0.74940000  0.11300000  0.26000000  1.0 0.1232048484
H  H495  1  0.99000000  0.37240000  0.13700000  1.0 0.1232048484
H  H496  1  0.26000000  0.74940000  0.11300000  1.0 0.1232048484
H  H497  1  0.26000000  0.87760000  0.74940000  1.0 0.1232048484
H  H498  1  0.87760000  0.11300000  0.74940000  1.0 0.1232048484
H  H499  1  0.50060000  0.13700000  0.37240000  1.0 0.1232048484
H  H500  1  0.99000000  0.50060000  0.37240000  1.0 0.1232048484
H  H501  1  0.87760000  0.74940000  0.26000000  1.0 0.1232048484
H  H502  1  0.50060000  0.37240000  0.99000000  1.0 0.1232048484
H  H503  1  0.11300000  0.87760000  0.26000000  1.0 0.1232048484
H  H504  1  0.87760000  0.26000000  0.11300000  1.0 0.1232048484
H  H505  1  0.49000000  0.63700000  0.87240000  1.0 0.1232048484
H  H506  1  0.76000000  0.61300000  0.24940000  1.0 0.1232048484
H  H507  1  0.61300000  0.24940000  0.76000000  1.0 0.1232048484
H  H508  1  0.24940000  0.76000000  0.61300000  1.0 0.1232048484
H  H509  1  0.61300000  0.37760000  0.24940000  1.0 0.1232048484
H  H510  1  0.63700000  0.00060000  0.87240000  1.0 0.1232048484
H  H511  1  0.37760000  0.76000000  0.24940000  1.0 0.1232048484
H  H512  1  0.00060000  0.49000000  0.87240000  1.0 0.1232048484
H  H513  1  0.37760000  0.24940000  0.61300000  1.0 0.1232048484
H  H514  1  0.00060000  0.87240000  0.63700000  1.0 0.1232048484
H  H515  1  0.63700000  0.49000000  0.00060000  1.0 0.1232048484
H  H516  1  0.61300000  0.76000000  0.37760000  1.0 0.1232048484
H  H517  1  0.37760000  0.61300000  0.76000000  1.0 0.1232048484
H  H518  1  0.00060000  0.63700000  0.49000000  1.0 0.1232048484
H  H519  1  0.76000000  0.37760000  0.61300000  1.0 0.1232048484
H  H520  1  0.49000000  0.00060000  0.63700000  1.0 0.1232048484
H  H521  1  0.49000000  0.87240000  0.00060000  1.0 0.1232048484
H  H522  1  0.87240000  0.63700000  0.00060000  1.0 0.1232048484
H  H523  1  0.24940000  0.61300000  0.37760000  1.0 0.1232048484
H  H524  1  0.76000000  0.24940000  0.37760000  1.0 0.1232048484
H  H525  1  0.87240000  0.00060000  0.49000000  1.0 0.1232048484
H  H526  1  0.24940000  0.37760000  0.76000000  1.0 0.1232048484
H  H527  1  0.63700000  0.87240000  0.49000000  1.0 0.1232048484
H  H528  1  0.87240000  0.49000000  0.63700000  1.0 0.1232048484
H  H529  1  0.15650000  0.16810000  0.88190000  1.0 0.1010447246
H  H530  1  0.09350000  0.08190000  0.45650000  1.0 0.1010447246
H  H531  1  0.08190000  0.45650000  0.09350000  1.0 0.1010447246
H  H532  1  0.45650000  0.09350000  0.08190000  1.0 0.1010447246
H  H533  1  0.08190000  0.36810000  0.45650000  1.0 0.1010447246
H  H534  1  0.16810000  0.79350000  0.88190000  1.0 0.1010447246
H  H535  1  0.36810000  0.09350000  0.45650000  1.0 0.1010447246
H  H536  1  0.79350000  0.15650000  0.88190000  1.0 0.1010447246
H  H537  1  0.36810000  0.45650000  0.08190000  1.0 0.1010447246
H  H538  1  0.79350000  0.88190000  0.16810000  1.0 0.1010447246
H  H539  1  0.16810000  0.15650000  0.79350000  1.0 0.1010447246
H  H540  1  0.08190000  0.09350000  0.36810000  1.0 0.1010447246
H  H541  1  0.36810000  0.08190000  0.09350000  1.0 0.1010447246
H  H542  1  0.79350000  0.16810000  0.15650000  1.0 0.1010447246
H  H543  1  0.09350000  0.36810000  0.08190000  1.0 0.1010447246
H  H544  1  0.15650000  0.79350000  0.16810000  1.0 0.1010447246
H  H545  1  0.15650000  0.88190000  0.79350000  1.0 0.1010447246
H  H546  1  0.88190000  0.16810000  0.79350000  1.0 0.1010447246
H  H547  1  0.45650000  0.08190000  0.36810000  1.0 0.1010447246
H  H548  1  0.09350000  0.45650000  0.36810000  1.0 0.1010447246
H  H549  1  0.88190000  0.79350000  0.15650000  1.0 0.1010447246
H  H550  1  0.45650000  0.36810000  0.09350000  1.0 0.1010447246
H  H551  1  0.16810000  0.88190000  0.15650000  1.0 0.1010447246
H  H552  1  0.88190000  0.15650000  0.16810000  1.0 0.1010447246
H  H553  1  0.59350000  0.58190000  0.86810000  1.0 0.1010447246
H  H554  1  0.65650000  0.66810000  0.29350000  1.0 0.1010447246
H  H555  1  0.66810000  0.29350000  0.65650000  1.0 0.1010447246
H  H556  1  0.29350000  0.65650000  0.66810000  1.0 0.1010447246
H  H557  1  0.66810000  0.38190000  0.29350000  1.0 0.1010447246
H  H558  1  0.58190000  0.95650000  0.86810000  1.0 0.1010447246
H  H559  1  0.38190000  0.65650000  0.29350000  1.0 0.1010447246
H  H560  1  0.95650000  0.59350000  0.86810000  1.0 0.1010447246
H  H561  1  0.38190000  0.29350000  0.66810000  1.0 0.1010447246
H  H562  1  0.95650000  0.86810000  0.58190000  1.0 0.1010447246
H  H563  1  0.58190000  0.59350000  0.95650000  1.0 0.1010447246
H  H564  1  0.66810000  0.65650000  0.38190000  1.0 0.1010447246
H  H565  1  0.38190000  0.66810000  0.65650000  1.0 0.1010447246
H  H566  1  0.95650000  0.58190000  0.59350000  1.0 0.1010447246
H  H567  1  0.65650000  0.38190000  0.66810000  1.0 0.1010447246
H  H568  1  0.59350000  0.95650000  0.58190000  1.0 0.1010447246
H  H569  1  0.59350000  0.86810000  0.95650000  1.0 0.1010447246
H  H570  1  0.86810000  0.58190000  0.95650000  1.0 0.1010447246
H  H571  1  0.29350000  0.66810000  0.38190000  1.0 0.1010447246
H  H572  1  0.65650000  0.29350000  0.38190000  1.0 0.1010447246
H  H573  1  0.86810000  0.95650000  0.59350000  1.0 0.1010447246
H  H574  1  0.29350000  0.38190000  0.65650000  1.0 0.1010447246
H  H575  1  0.58190000  0.86810000  0.59350000  1.0 0.1010447246
H  H576  1  0.86810000  0.59350000  0.58190000  1.0 0.1010447246
H  H577  1  0.10120000  0.13200000  0.81960000  1.0 0.1010447246
H  H578  1  0.14880000  0.11800000  0.30280000  1.0 0.1010447246
H  H579  1  0.11800000  0.30280000  0.14880000  1.0 0.1010447246
H  H580  1  0.30280000  0.14880000  0.11800000  1.0 0.1010447246
H  H581  1  0.11800000  0.43040000  0.30280000  1.0 0.1010447246
H  H582  1  0.13200000  0.94720000  0.81960000  1.0 0.1010447246
H  H583  1  0.43040000  0.14880000  0.30280000  1.0 0.1010447246
H  H584  1  0.94720000  0.10120000  0.81960000  1.0 0.1010447246
H  H585  1  0.43040000  0.30280000  0.11800000  1.0 0.1010447246
H  H586  1  0.94720000  0.81960000  0.13200000  1.0 0.1010447246
H  H587  1  0.13200000  0.10120000  0.94720000  1.0 0.1010447246
H  H588  1  0.11800000  0.14880000  0.43040000  1.0 0.1010447246
H  H589  1  0.43040000  0.11800000  0.14880000  1.0 0.1010447246
H  H590  1  0.94720000  0.13200000  0.10120000  1.0 0.1010447246
H  H591  1  0.14880000  0.43040000  0.11800000  1.0 0.1010447246
H  H592  1  0.10120000  0.94720000  0.13200000  1.0 0.1010447246
H  H593  1  0.10120000  0.81960000  0.94720000  1.0 0.1010447246
H  H594  1  0.81960000  0.13200000  0.94720000  1.0 0.1010447246
H  H595  1  0.30280000  0.11800000  0.43040000  1.0 0.1010447246
H  H596  1  0.14880000  0.30280000  0.43040000  1.0 0.1010447246
H  H597  1  0.81960000  0.94720000  0.10120000  1.0 0.1010447246
H  H598  1  0.30280000  0.43040000  0.14880000  1.0 0.1010447246
H  H599  1  0.13200000  0.81960000  0.10120000  1.0 0.1010447246
H  H600  1  0.81960000  0.10120000  0.13200000  1.0 0.1010447246
H  H601  1  0.64880000  0.61800000  0.93040000  1.0 0.1010447246
H  H602  1  0.60120000  0.63200000  0.44720000  1.0 0.1010447246
H  H603  1  0.63200000  0.44720000  0.60120000  1.0 0.1010447246
H  H604  1  0.44720000  0.60120000  0.63200000  1.0 0.1010447246
H  H605  1  0.63200000  0.31960000  0.44720000  1.0 0.1010447246
H  H606  1  0.61800000  0.80280000  0.93040000  1.0 0.1010447246
H  H607  1  0.31960000  0.60120000  0.44720000  1.0 0.1010447246
H  H608  1  0.80280000  0.64880000  0.93040000  1.0 0.1010447246
H  H609  1  0.31960000  0.44720000  0.63200000  1.0 0.1010447246
H  H610  1  0.80280000  0.93040000  0.61800000  1.0 0.1010447246
H  H611  1  0.61800000  0.64880000  0.80280000  1.0 0.1010447246
H  H612  1  0.63200000  0.60120000  0.31960000  1.0 0.1010447246
H  H613  1  0.31960000  0.63200000  0.60120000  1.0 0.1010447246
H  H614  1  0.80280000  0.61800000  0.64880000  1.0 0.1010447246
H  H615  1  0.60120000  0.31960000  0.63200000  1.0 0.1010447246
H  H616  1  0.64880000  0.80280000  0.61800000  1.0 0.1010447246
H  H617  1  0.64880000  0.93040000  0.80280000  1.0 0.1010447246
H  H618  1  0.93040000  0.61800000  0.80280000  1.0 0.1010447246
H  H619  1  0.44720000  0.63200000  0.31960000  1.0 0.1010447246
H  H620  1  0.60120000  0.44720000  0.31960000  1.0 0.1010447246
H  H621  1  0.93040000  0.80280000  0.64880000  1.0 0.1010447246
H  H622  1  0.44720000  0.31960000  0.60120000  1.0 0.1010447246
H  H623  1  0.61800000  0.93040000  0.64880000  1.0 0.1010447246
H  H624  1  0.93040000  0.64880000  0.61800000  1.0 0.1010447246
H  H625  1  0.04880000  0.14700000  0.80960000  1.0 0.1378277233
H  H626  1  0.20120000  0.10300000  0.25540000  1.0 0.1378277233
H  H627  1  0.10300000  0.25540000  0.20120000  1.0 0.1378277233
H  H628  1  0.25540000  0.20120000  0.10300000  1.0 0.1378277233
H  H629  1  0.10300000  0.44040000  0.25540000  1.0 0.1378277233
H  H630  1  0.14700000  0.99460000  0.80960000  1.0 0.1378277233
H  H631  1  0.44040000  0.20120000  0.25540000  1.0 0.1378277233
H  H632  1  0.99460000  0.04880000  0.80960000  1.0 0.1378277233
H  H633  1  0.44040000  0.25540000  0.10300000  1.0 0.1378277233
H  H634  1  0.99460000  0.80960000  0.14700000  1.0 0.1378277233
H  H635  1  0.14700000  0.04880000  0.99460000  1.0 0.1378277233
H  H636  1  0.10300000  0.20120000  0.44040000  1.0 0.1378277233
H  H637  1  0.44040000  0.10300000  0.20120000  1.0 0.1378277233
H  H638  1  0.99460000  0.14700000  0.04880000  1.0 0.1378277233
H  H639  1  0.20120000  0.44040000  0.10300000  1.0 0.1378277233
H  H640  1  0.04880000  0.99460000  0.14700000  1.0 0.1378277233
H  H641  1  0.04880000  0.80960000  0.99460000  1.0 0.1378277233
H  H642  1  0.80960000  0.14700000  0.99460000  1.0 0.1378277233
H  H643  1  0.25540000  0.10300000  0.44040000  1.0 0.1378277233
H  H644  1  0.20120000  0.25540000  0.44040000  1.0 0.1378277233
H  H645  1  0.80960000  0.99460000  0.04880000  1.0 0.1378277233
H  H646  1  0.25540000  0.44040000  0.20120000  1.0 0.1378277233
H  H647  1  0.14700000  0.80960000  0.04880000  1.0 0.1378277233
H  H648  1  0.80960000  0.04880000  0.14700000  1.0 0.1378277233
H  H649  1  0.70120000  0.60300000  0.94040000  1.0 0.1378277233
H  H650  1  0.54880000  0.64700000  0.49460000  1.0 0.1378277233
H  H651  1  0.64700000  0.49460000  0.54880000  1.0 0.1378277233
H  H652  1  0.49460000  0.54880000  0.64700000  1.0 0.1378277233
H  H653  1  0.64700000  0.30960000  0.49460000  1.0 0.1378277233
H  H654  1  0.60300000  0.75540000  0.94040000  1.0 0.1378277233
H  H655  1  0.30960000  0.54880000  0.49460000  1.0 0.1378277233
H  H656  1  0.75540000  0.70120000  0.94040000  1.0 0.1378277233
H  H657  1  0.30960000  0.49460000  0.64700000  1.0 0.1378277233
H  H658  1  0.75540000  0.94040000  0.60300000  1.0 0.1378277233
H  H659  1  0.60300000  0.70120000  0.75540000  1.0 0.1378277233
H  H660  1  0.64700000  0.54880000  0.30960000  1.0 0.1378277233
H  H661  1  0.30960000  0.64700000  0.54880000  1.0 0.1378277233
H  H662  1  0.75540000  0.60300000  0.70120000  1.0 0.1378277233
H  H663  1  0.54880000  0.30960000  0.64700000  1.0 0.1378277233
H  H664  1  0.70120000  0.75540000  0.60300000  1.0 0.1378277233
H  H665  1  0.70120000  0.94040000  0.75540000  1.0 0.1378277233
H  H666  1  0.94040000  0.60300000  0.75540000  1.0 0.1378277233
H  H667  1  0.49460000  0.64700000  0.30960000  1.0 0.1378277233
H  H668  1  0.54880000  0.49460000  0.30960000  1.0 0.1378277233
H  H669  1  0.94040000  0.75540000  0.70120000  1.0 0.1378277233
H  H670  1  0.49460000  0.30960000  0.54880000  1.0 0.1378277233
H  H671  1  0.60300000  0.94040000  0.70120000  1.0 0.1378277233
H  H672  1  0.94040000  0.70120000  0.60300000  1.0 0.1378277233
H  H673  1  0.99500000  0.14780000  0.85860000  1.0 0.1232048484
H  H674  1  0.25500000  0.10220000  0.25140000  1.0 0.1232048484
H  H675  1  0.10220000  0.25140000  0.25500000  1.0 0.1232048484
H  H676  1  0.25140000  0.25500000  0.10220000  1.0 0.1232048484
H  H677  1  0.10220000  0.39140000  0.25140000  1.0 0.1232048484
H  H678  1  0.14780000  0.99860000  0.85860000  1.0 0.1232048484
H  H679  1  0.39140000  0.25500000  0.25140000  1.0 0.1232048484
H  H680  1  0.99860000  0.99500000  0.85860000  1.0 0.1232048484
H  H681  1  0.39140000  0.25140000  0.10220000  1.0 0.1232048484
H  H682  1  0.99860000  0.85860000  0.14780000  1.0 0.1232048484
H  H683  1  0.14780000  0.99500000  0.99860000  1.0 0.1232048484
H  H684  1  0.10220000  0.25500000  0.39140000  1.0 0.1232048484
H  H685  1  0.39140000  0.10220000  0.25500000  1.0 0.1232048484
H  H686  1  0.99860000  0.14780000  0.99500000  1.0 0.1232048484
H  H687  1  0.25500000  0.39140000  0.10220000  1.0 0.1232048484
H  H688  1  0.99500000  0.99860000  0.14780000  1.0 0.1232048484
H  H689  1  0.99500000  0.85860000  0.99860000  1.0 0.1232048484
H  H690  1  0.85860000  0.14780000  0.99860000  1.0 0.1232048484
H  H691  1  0.25140000  0.10220000  0.39140000  1.0 0.1232048484
H  H692  1  0.25500000  0.25140000  0.39140000  1.0 0.1232048484
H  H693  1  0.85860000  0.99860000  0.99500000  1.0 0.1232048484
H  H694  1  0.25140000  0.39140000  0.25500000  1.0 0.1232048484
H  H695  1  0.14780000  0.85860000  0.99500000  1.0 0.1232048484
H  H696  1  0.85860000  0.99500000  0.14780000  1.0 0.1232048484
H  H697  1  0.75500000  0.60220000  0.89140000  1.0 0.1232048484
H  H698  1  0.49500000  0.64780000  0.49860000  1.0 0.1232048484
H  H699  1  0.64780000  0.49860000  0.49500000  1.0 0.1232048484
H  H700  1  0.49860000  0.49500000  0.64780000  1.0 0.1232048484
H  H701  1  0.64780000  0.35860000  0.49860000  1.0 0.1232048484
H  H702  1  0.60220000  0.75140000  0.89140000  1.0 0.1232048484
H  H703  1  0.35860000  0.49500000  0.49860000  1.0 0.1232048484
H  H704  1  0.75140000  0.75500000  0.89140000  1.0 0.1232048484
H  H705  1  0.35860000  0.49860000  0.64780000  1.0 0.1232048484
H  H706  1  0.75140000  0.89140000  0.60220000  1.0 0.1232048484
H  H707  1  0.60220000  0.75500000  0.75140000  1.0 0.1232048484
H  H708  1  0.64780000  0.49500000  0.35860000  1.0 0.1232048484
H  H709  1  0.35860000  0.64780000  0.49500000  1.0 0.1232048484
H  H710  1  0.75140000  0.60220000  0.75500000  1.0 0.1232048484
H  H711  1  0.49500000  0.35860000  0.64780000  1.0 0.1232048484
H  H712  1  0.75500000  0.75140000  0.60220000  1.0 0.1232048484
H  H713  1  0.75500000  0.89140000  0.75140000  1.0 0.1232048484
H  H714  1  0.89140000  0.60220000  0.75140000  1.0 0.1232048484
H  H715  1  0.49860000  0.64780000  0.35860000  1.0 0.1232048484
H  H716  1  0.49500000  0.49860000  0.35860000  1.0 0.1232048484
H  H717  1  0.89140000  0.75140000  0.75500000  1.0 0.1232048484
H  H718  1  0.49860000  0.35860000  0.49500000  1.0 0.1232048484
H  H719  1  0.60220000  0.89140000  0.75500000  1.0 0.1232048484
H  H720  1  0.89140000  0.75500000  0.60220000  1.0 0.1232048484
H  H721  1  0.04760000  0.12780000  0.91960000  1.0 0.1010447246
H  H722  1  0.20240000  0.12220000  0.34500000  1.0 0.1010447246
H  H723  1  0.12220000  0.34500000  0.20240000  1.0 0.1010447246
H  H724  1  0.34500000  0.20240000  0.12220000  1.0 0.1010447246
H  H725  1  0.12220000  0.33040000  0.34500000  1.0 0.1010447246
H  H726  1  0.12780000  0.90500000  0.91960000  1.0 0.1010447246
H  H727  1  0.33040000  0.20240000  0.34500000  1.0 0.1010447246
H  H728  1  0.90500000  0.04760000  0.91960000  1.0 0.1010447246
H  H729  1  0.33040000  0.34500000  0.12220000  1.0 0.1010447246
H  H730  1  0.90500000  0.91960000  0.12780000  1.0 0.1010447246
H  H731  1  0.12780000  0.04760000  0.90500000  1.0 0.1010447246
H  H732  1  0.12220000  0.20240000  0.33040000  1.0 0.1010447246
H  H733  1  0.33040000  0.12220000  0.20240000  1.0 0.1010447246
H  H734  1  0.90500000  0.12780000  0.04760000  1.0 0.1010447246
H  H735  1  0.20240000  0.33040000  0.12220000  1.0 0.1010447246
H  H736  1  0.04760000  0.90500000  0.12780000  1.0 0.1010447246
H  H737  1  0.04760000  0.91960000  0.90500000  1.0 0.1010447246
H  H738  1  0.91960000  0.12780000  0.90500000  1.0 0.1010447246
H  H739  1  0.34500000  0.12220000  0.33040000  1.0 0.1010447246
H  H740  1  0.20240000  0.34500000  0.33040000  1.0 0.1010447246
H  H741  1  0.91960000  0.90500000  0.04760000  1.0 0.1010447246
H  H742  1  0.34500000  0.33040000  0.20240000  1.0 0.1010447246
H  H743  1  0.12780000  0.91960000  0.04760000  1.0 0.1010447246
H  H744  1  0.91960000  0.04760000  0.12780000  1.0 0.1010447246
H  H745  1  0.70240000  0.62220000  0.83040000  1.0 0.1010447246
H  H746  1  0.54760000  0.62780000  0.40500000  1.0 0.1010447246
H  H747  1  0.62780000  0.40500000  0.54760000  1.0 0.1010447246
H  H748  1  0.40500000  0.54760000  0.62780000  1.0 0.1010447246
H  H749  1  0.62780000  0.41960000  0.40500000  1.0 0.1010447246
H  H750  1  0.62220000  0.84500000  0.83040000  1.0 0.1010447246
H  H751  1  0.41960000  0.54760000  0.40500000  1.0 0.1010447246
H  H752  1  0.84500000  0.70240000  0.83040000  1.0 0.1010447246
H  H753  1  0.41960000  0.40500000  0.62780000  1.0 0.1010447246
H  H754  1  0.84500000  0.83040000  0.62220000  1.0 0.1010447246
H  H755  1  0.62220000  0.70240000  0.84500000  1.0 0.1010447246
H  H756  1  0.62780000  0.54760000  0.41960000  1.0 0.1010447246
H  H757  1  0.41960000  0.62780000  0.54760000  1.0 0.1010447246
H  H758  1  0.84500000  0.62220000  0.70240000  1.0 0.1010447246
H  H759  1  0.54760000  0.41960000  0.62780000  1.0 0.1010447246
H  H760  1  0.70240000  0.84500000  0.62220000  1.0 0.1010447246
H  H761  1  0.70240000  0.83040000  0.84500000  1.0 0.1010447246
H  H762  1  0.83040000  0.62220000  0.84500000  1.0 0.1010447246
H  H763  1  0.40500000  0.62780000  0.41960000  1.0 0.1010447246
H  H764  1  0.54760000  0.40500000  0.41960000  1.0 0.1010447246
H  H765  1  0.83040000  0.84500000  0.70240000  1.0 0.1010447246
H  H766  1  0.40500000  0.41960000  0.54760000  1.0 0.1010447246
H  H767  1  0.62220000  0.83040000  0.70240000  1.0 0.1010447246
H  H768  1  0.83040000  0.70240000  0.62220000  1.0 0.1010447246
C  C1  1  0.41596000  0.14316000  0.90166000  1.0 0.2458386734
C  C2  1  0.83404000  0.10684000  0.71078000  1.0 0.2458386734
C  C3  1  0.10684000  0.71078000  0.83404000  1.0 0.2458386734
C  C4  1  0.71078000  0.83404000  0.10684000  1.0 0.2443700604
C  C5  1  0.10684000  0.34834000  0.71078000  1.0 0.2458386734
C  C6  1  0.14316000  0.53922000  0.90166000  1.0 0.2458386734
C  C7  1  0.34834000  0.83404000  0.71078000  1.0 0.2458386734
C  C8  1  0.53922000  0.41596000  0.90166000  1.0 0.2458386734
C  C9  1  0.34834000  0.71078000  0.10684000  1.0 0.2458386734
C  C10  1  0.53922000  0.90166000  0.14316000  1.0 0.2443700604
C  C11  1  0.14316000  0.41596000  0.53922000  1.0 0.2458386734
C  C12  1  0.10684000  0.83404000  0.34834000  1.0 0.2443700604
C  C13  1  0.34834000  0.10684000  0.83404000  1.0 0.2458386734
C  C14  1  0.53922000  0.14316000  0.41596000  1.0 0.2458386734
C  C15  1  0.83404000  0.34834000  0.10684000  1.0 0.2458386734
C  C16  1  0.41596000  0.53922000  0.14316000  1.0 0.2443700604
C  C17  1  0.41596000  0.90166000  0.53922000  1.0 0.2443700604
C  C18  1  0.90166000  0.14316000  0.53922000  1.0 0.2458386734
C  C19  1  0.71078000  0.10684000  0.34834000  1.0 0.2458386734
C  C20  1  0.83404000  0.71078000  0.34834000  1.0 0.2458386734
C  C21  1  0.90166000  0.53922000  0.41596000  1.0 0.2458386734
C  C22  1  0.71078000  0.34834000  0.83404000  1.0 0.2458386734
C  C23  1  0.14316000  0.90166000  0.41596000  1.0 0.2443700604
C  C24  1  0.90166000  0.41596000  0.14316000  1.0 0.2443700604
C  C25  1  0.33404000  0.60684000  0.84834000  1.0 0.2458386734
C  C26  1  0.91596000  0.64316000  0.03922000  1.0 0.2458386734
C  C27  1  0.64316000  0.03922000  0.91596000  1.0 0.2458386734
C  C28  1  0.03922000  0.91596000  0.64316000  1.0 0.2458386734
C  C29  1  0.64316000  0.40166000  0.03922000  1.0 0.2458386734
C  C30  1  0.60684000  0.21078000  0.84834000  1.0 0.2458386734
C  C31  1  0.40166000  0.91596000  0.03922000  1.0 0.2458386734
C  C32  1  0.21078000  0.33404000  0.84834000  1.0 0.2458386734
C  C33  1  0.40166000  0.03922000  0.64316000  1.0 0.2458386734
C  C34  1  0.21078000  0.84834000  0.60684000  1.0 0.2458386734
C  C35  1  0.60684000  0.33404000  0.21078000  1.0 0.2458386734
C  C36  1  0.64316000  0.91596000  0.40166000  1.0 0.2458386734
C  C37  1  0.40166000  0.64316000  0.91596000  1.0 0.2458386734
C  C38  1  0.21078000  0.60684000  0.33404000  1.0 0.2443700604
C  C39  1  0.91596000  0.40166000  0.64316000  1.0 0.2458386734
C  C40  1  0.33404000  0.21078000  0.60684000  1.0 0.2458386734
C  C41  1  0.33404000  0.84834000  0.21078000  1.0 0.2458386734
C  C42  1  0.84834000  0.60684000  0.21078000  1.0 0.2443700604
C  C43  1  0.03922000  0.64316000  0.40166000  1.0 0.2443700604
C  C44  1  0.91596000  0.03922000  0.40166000  1.0 0.2458386734
C  C45  1  0.84834000  0.21078000  0.33404000  1.0 0.2458386734
C  C46  1  0.03922000  0.40166000  0.91596000  1.0 0.2458386734
C  C47  1  0.60684000  0.84834000  0.33404000  1.0 0.2458386734
C  C48  1  0.84834000  0.33404000  0.60684000  1.0 0.2458386734
C  C49  1  0.14450000  0.28586000  0.90218000  1.0 0.0458963467
C  C50  1  0.10550000  0.96414000  0.58254000  1.0 0.0458963467
C  C51  1  0.96414000  0.58254000  0.10550000  1.0 0.0458963467
C  C52  1  0.58254000  0.10550000  0.96414000  1.0 0.0458963467
C  C53  1  0.96414000  0.34782000  0.58254000  1.0 0.0458963467
C  C54  1  0.28586000  0.66746000  0.90218000  1.0 0.0458963467
C  C55  1  0.34782000  0.10550000  0.58254000  1.0 0.0458963467
C  C56  1  0.66746000  0.14450000  0.90218000  1.0 0.0458963467
C  C57  1  0.34782000  0.58254000  0.96414000  1.0 0.0458963467
C  C58  1  0.66746000  0.90218000  0.28586000  1.0 0.0458963467
C  C59  1  0.28586000  0.14450000  0.66746000  1.0 0.0458963467
C  C60  1  0.96414000  0.10550000  0.34782000  1.0 0.0458963467
C  C61  1  0.34782000  0.96414000  0.10550000  1.0 0.0458963467
C  C62  1  0.66746000  0.28586000  0.14450000  1.0 0.0458963467
C  C63  1  0.10550000  0.34782000  0.96414000  1.0 0.0458963467
C  C64  1  0.14450000  0.66746000  0.28586000  1.0 0.0458963467
C  C65  1  0.14450000  0.90218000  0.66746000  1.0 0.0458963467
C  C66  1  0.90218000  0.28586000  0.66746000  1.0 0.0458963467
C  C67  1  0.58254000  0.96414000  0.34782000  1.0 0.0458963467
C  C68  1  0.10550000  0.58254000  0.34782000  1.0 0.0458963467
C  C69  1  0.90218000  0.66746000  0.14450000  1.0 0.0458963467
C  C70  1  0.58254000  0.34782000  0.10550000  1.0 0.0458963467
C  C71  1  0.28586000  0.90218000  0.14450000  1.0 0.0458963467
C  C72  1  0.90218000  0.14450000  0.28586000  1.0 0.0458963467
C  C73  1  0.60550000  0.46414000  0.84782000  1.0 0.0458963467
C  C74  1  0.64450000  0.78586000  0.16746000  1.0 0.0458963467
C  C75  1  0.78586000  0.16746000  0.64450000  1.0 0.0458963467
C  C76  1  0.16746000  0.64450000  0.78586000  1.0 0.0458963467
C  C77  1  0.78586000  0.40218000  0.16746000  1.0 0.0458963467
C  C78  1  0.46414000  0.08254000  0.84782000  1.0 0.0458963467
C  C79  1  0.40218000  0.64450000  0.16746000  1.0 0.0458963467
C  C80  1  0.08254000  0.60550000  0.84782000  1.0 0.0458963467
C  C81  1  0.40218000  0.16746000  0.78586000  1.0 0.0458963467
C  C82  1  0.08254000  0.84782000  0.46414000  1.0 0.0458963467
C  C83  1  0.46414000  0.60550000  0.08254000  1.0 0.0458963467
C  C84  1  0.78586000  0.64450000  0.40218000  1.0 0.0458963467
C  C85  1  0.40218000  0.78586000  0.64450000  1.0 0.0458963467
C  C86  1  0.08254000  0.46414000  0.60550000  1.0 0.0458963467
C  C87  1  0.64450000  0.40218000  0.78586000  1.0 0.0458963467
C  C88  1  0.60550000  0.08254000  0.46414000  1.0 0.0458963467
C  C89  1  0.60550000  0.84782000  0.08254000  1.0 0.0458963467
C  C90  1  0.84782000  0.46414000  0.08254000  1.0 0.0458963467
C  C91  1  0.16746000  0.78586000  0.40218000  1.0 0.0458963467
C  C92  1  0.64450000  0.16746000  0.40218000  1.0 0.0458963467
C  C93  1  0.84782000  0.08254000  0.60550000  1.0 0.0458963467
C  C94  1  0.16746000  0.40218000  0.64450000  1.0 0.0458963467
C  C95  1  0.46414000  0.84782000  0.60550000  1.0 0.0458963467
C  C96  1  0.84782000  0.60550000  0.46414000  1.0 0.0458963467
C  C97  1  0.14242000  0.25386000  0.91010000  1.0 -0.0134750447
C  C98  1  0.10758000  0.99614000  0.55638000  1.0 -0.0134750447
C  C99  1  0.99614000  0.55638000  0.10758000  1.0 -0.0134750447
C  C100  1  0.55638000  0.10758000  0.99614000  1.0 -0.0134750447
C  C101  1  0.99614000  0.33990000  0.55638000  1.0 -0.0134750447
C  C102  1  0.25386000  0.69362000  0.91010000  1.0 -0.0134750447
C  C103  1  0.33990000  0.10758000  0.55638000  1.0 -0.0134750447
C  C104  1  0.69362000  0.14242000  0.91010000  1.0 -0.0134750447
C  C105  1  0.33990000  0.55638000  0.99614000  1.0 -0.0134750447
C  C106  1  0.69362000  0.91010000  0.25386000  1.0 -0.0134750447
C  C107  1  0.25386000  0.14242000  0.69362000  1.0 -0.0134750447
C  C108  1  0.99614000  0.10758000  0.33990000  1.0 -0.0134750447
C  C109  1  0.33990000  0.99614000  0.10758000  1.0 -0.0134750447
C  C110  1  0.69362000  0.25386000  0.14242000  1.0 -0.0134750447
C  C111  1  0.10758000  0.33990000  0.99614000  1.0 -0.0134750447
C  C112  1  0.14242000  0.69362000  0.25386000  1.0 -0.0134750447
C  C113  1  0.14242000  0.91010000  0.69362000  1.0 -0.0134750447
C  C114  1  0.91010000  0.25386000  0.69362000  1.0 -0.0134750447
C  C115  1  0.55638000  0.99614000  0.33990000  1.0 -0.0134750447
C  C116  1  0.10758000  0.55638000  0.33990000  1.0 -0.0134750447
C  C117  1  0.91010000  0.69362000  0.14242000  1.0 -0.0134750447
C  C118  1  0.55638000  0.33990000  0.10758000  1.0 -0.0134750447
C  C119  1  0.25386000  0.91010000  0.14242000  1.0 -0.0134750447
C  C120  1  0.91010000  0.14242000  0.25386000  1.0 -0.0134750447
C  C121  1  0.60758000  0.49614000  0.83990000  1.0 -0.0134750447
C  C122  1  0.64242000  0.75386000  0.19362000  1.0 -0.0134750447
C  C123  1  0.75386000  0.19362000  0.64242000  1.0 -0.0134750447
C  C124  1  0.19362000  0.64242000  0.75386000  1.0 -0.0134750447
C  C125  1  0.75386000  0.41010000  0.19362000  1.0 -0.0134750447
C  C126  1  0.49614000  0.05638000  0.83990000  1.0 -0.0134750447
C  C127  1  0.41010000  0.64242000  0.19362000  1.0 -0.0134750447
C  C128  1  0.05638000  0.60758000  0.83990000  1.0 -0.0134750447
C  C129  1  0.41010000  0.19362000  0.75386000  1.0 -0.0134750447
C  C130  1  0.05638000  0.83990000  0.49614000  1.0 -0.0134750447
C  C131  1  0.49614000  0.60758000  0.05638000  1.0 -0.0134750447
C  C132  1  0.75386000  0.64242000  0.41010000  1.0 -0.0134750447
C  C133  1  0.41010000  0.75386000  0.64242000  1.0 -0.0134750447
C  C134  1  0.05638000  0.49614000  0.60758000  1.0 -0.0134750447
C  C135  1  0.64242000  0.41010000  0.75386000  1.0 -0.0134750447
C  C136  1  0.60758000  0.05638000  0.49614000  1.0 -0.0134750447
C  C137  1  0.60758000  0.83990000  0.05638000  1.0 -0.0134750447
C  C138  1  0.83990000  0.49614000  0.05638000  1.0 -0.0134750447
C  C139  1  0.19362000  0.75386000  0.41010000  1.0 -0.0134750447
C  C140  1  0.64242000  0.19362000  0.41010000  1.0 -0.0134750447
C  C141  1  0.83990000  0.05638000  0.60758000  1.0 -0.0134750447
C  C142  1  0.19362000  0.41010000  0.64242000  1.0 -0.0134750447
C  C143  1  0.49614000  0.83990000  0.60758000  1.0 -0.0134750447
C  C144  1  0.83990000  0.60758000  0.49614000  1.0 -0.0134750447
C  C145  1  0.10887000  0.25077000  0.92147000  1.0 -0.0590072557
C  C146  1  0.14113000  0.99923000  0.53111000  1.0 -0.0590072557
C  C147  1  0.99923000  0.53111000  0.14113000  1.0 -0.0590072557
C  C148  1  0.53111000  0.14113000  0.99923000  1.0 -0.0590072557
C  C149  1  0.99923000  0.32853000  0.53111000  1.0 -0.0590072557
C  C150  1  0.25077000  0.71889000  0.92147000  1.0 -0.0590072557
C  C151  1  0.32853000  0.14113000  0.53111000  1.0 -0.0590072557
C  C152  1  0.71889000  0.10887000  0.92147000  1.0 -0.0590072557
C  C153  1  0.32853000  0.53111000  0.99923000  1.0 -0.0590072557
C  C154  1  0.71889000  0.92147000  0.25077000  1.0 -0.0590072557
C  C155  1  0.25077000  0.10887000  0.71889000  1.0 -0.0590072557
C  C156  1  0.99923000  0.14113000  0.32853000  1.0 -0.0590072557
C  C157  1  0.32853000  0.99923000  0.14113000  1.0 -0.0590072557
C  C158  1  0.71889000  0.25077000  0.10887000  1.0 -0.0590072557
C  C159  1  0.14113000  0.32853000  0.99923000  1.0 -0.0590072557
C  C160  1  0.10887000  0.71889000  0.25077000  1.0 -0.0590072557
C  C161  1  0.10887000  0.92147000  0.71889000  1.0 -0.0590072557
C  C162  1  0.92147000  0.25077000  0.71889000  1.0 -0.0590072557
C  C163  1  0.53111000  0.99923000  0.32853000  1.0 -0.0590072557
C  C164  1  0.14113000  0.53111000  0.32853000  1.0 -0.0590072557
C  C165  1  0.92147000  0.71889000  0.10887000  1.0 -0.0590072557
C  C166  1  0.53111000  0.32853000  0.14113000  1.0 -0.0590072557
C  C167  1  0.25077000  0.92147000  0.10887000  1.0 -0.0590072557
C  C168  1  0.92147000  0.10887000  0.25077000  1.0 -0.0590072557
C  C169  1  0.64113000  0.49923000  0.82853000  1.0 -0.0590072557
C  C170  1  0.60887000  0.75077000  0.21889000  1.0 -0.0590072557
C  C171  1  0.75077000  0.21889000  0.60887000  1.0 -0.0590072557
C  C172  1  0.21889000  0.60887000  0.75077000  1.0 -0.0590072557
C  C173  1  0.75077000  0.42147000  0.21889000  1.0 -0.0590072557
C  C174  1  0.49923000  0.03111000  0.82853000  1.0 -0.0590072557
C  C175  1  0.42147000  0.60887000  0.21889000  1.0 -0.0590072557
C  C176  1  0.03111000  0.64113000  0.82853000  1.0 -0.0590072557
C  C177  1  0.42147000  0.21889000  0.75077000  1.0 -0.0590072557
C  C178  1  0.03111000  0.82853000  0.49923000  1.0 -0.0590072557
C  C179  1  0.49923000  0.64113000  0.03111000  1.0 -0.0590072557
C  C180  1  0.75077000  0.60887000  0.42147000  1.0 -0.0590072557
C  C181  1  0.42147000  0.75077000  0.60887000  1.0 -0.0590072557
C  C182  1  0.03111000  0.49923000  0.64113000  1.0 -0.0590072557
C  C183  1  0.60887000  0.42147000  0.75077000  1.0 -0.0590072557
C  C184  1  0.64113000  0.03111000  0.49923000  1.0 -0.0590072557
C  C185  1  0.64113000  0.82853000  0.03111000  1.0 -0.0590072557
C  C186  1  0.82853000  0.49923000  0.03111000  1.0 -0.0590072557
C  C187  1  0.21889000  0.75077000  0.42147000  1.0 -0.0590072557
C  C188  1  0.60887000  0.21889000  0.42147000  1.0 -0.0590072557
C  C189  1  0.82853000  0.03111000  0.64113000  1.0 -0.0590072557
C  C190  1  0.21889000  0.42147000  0.60887000  1.0 -0.0590072557
C  C191  1  0.49923000  0.82853000  0.64113000  1.0 -0.0590072557
C  C192  1  0.82853000  0.64113000  0.49923000  1.0 -0.0590072557
C  C193  1  0.07960000  0.28120000  0.92394000  1.0 -0.1360457539
C  C194  1  0.17040000  0.96880000  0.53474000  1.0 -0.1360457539
C  C195  1  0.96880000  0.53474000  0.17040000  1.0 -0.1360457539
C  C196  1  0.53474000  0.17040000  0.96880000  1.0 -0.1360457539
C  C197  1  0.96880000  0.32606000  0.53474000  1.0 -0.1360457539
C  C198  1  0.28120000  0.71526000  0.92394000  1.0 -0.1360457539
C  C199  1  0.32606000  0.17040000  0.53474000  1.0 -0.1360457539
C  C200  1  0.71526000  0.07960000  0.92394000  1.0 -0.1360457539
C  C201  1  0.32606000  0.53474000  0.96880000  1.0 -0.1360457539
C  C202  1  0.71526000  0.92394000  0.28120000  1.0 -0.1360457539
C  C203  1  0.28120000  0.07960000  0.71526000  1.0 -0.1360457539
C  C204  1  0.96880000  0.17040000  0.32606000  1.0 -0.1360457539
C  C205  1  0.32606000  0.96880000  0.17040000  1.0 -0.1360457539
C  C206  1  0.71526000  0.28120000  0.07960000  1.0 -0.1360457539
C  C207  1  0.17040000  0.32606000  0.96880000  1.0 -0.1360457539
C  C208  1  0.07960000  0.71526000  0.28120000  1.0 -0.1360457539
C  C209  1  0.07960000  0.92394000  0.71526000  1.0 -0.1360457539
C  C210  1  0.92394000  0.28120000  0.71526000  1.0 -0.1360457539
C  C211  1  0.53474000  0.96880000  0.32606000  1.0 -0.1360457539
C  C212  1  0.17040000  0.53474000  0.32606000  1.0 -0.1360457539
C  C213  1  0.92394000  0.71526000  0.07960000  1.0 -0.1360457539
C  C214  1  0.53474000  0.32606000  0.17040000  1.0 -0.1360457539
C  C215  1  0.28120000  0.92394000  0.07960000  1.0 -0.1360457539
C  C216  1  0.92394000  0.07960000  0.28120000  1.0 -0.1360457539
C  C217  1  0.67040000  0.46880000  0.82606000  1.0 -0.1360457539
C  C218  1  0.57960000  0.78120000  0.21526000  1.0 -0.1360457539
C  C219  1  0.78120000  0.21526000  0.57960000  1.0 -0.1360457539
C  C220  1  0.21526000  0.57960000  0.78120000  1.0 -0.1360457539
C  C221  1  0.78120000  0.42394000  0.21526000  1.0 -0.1360457539
C  C222  1  0.46880000  0.03474000  0.82606000  1.0 -0.1360457539
C  C223  1  0.42394000  0.57960000  0.21526000  1.0 -0.1360457539
C  C224  1  0.03474000  0.67040000  0.82606000  1.0 -0.1360457539
C  C225  1  0.42394000  0.21526000  0.78120000  1.0 -0.1360457539
C  C226  1  0.03474000  0.82606000  0.46880000  1.0 -0.1360457539
C  C227  1  0.46880000  0.67040000  0.03474000  1.0 -0.1360457539
C  C228  1  0.78120000  0.57960000  0.42394000  1.0 -0.1360457539
C  C229  1  0.42394000  0.78120000  0.57960000  1.0 -0.1360457539
C  C230  1  0.03474000  0.46880000  0.67040000  1.0 -0.1360457539
C  C231  1  0.57960000  0.42394000  0.78120000  1.0 -0.1360457539
C  C232  1  0.67040000  0.03474000  0.46880000  1.0 -0.1360457539
C  C233  1  0.67040000  0.82606000  0.03474000  1.0 -0.1360457539
C  C234  1  0.82606000  0.46880000  0.03474000  1.0 -0.1360457539
C  C235  1  0.21526000  0.78120000  0.42394000  1.0 -0.1360457539
C  C236  1  0.57960000  0.21526000  0.42394000  1.0 -0.1360457539
C  C237  1  0.82606000  0.03474000  0.67040000  1.0 -0.1360457539
C  C238  1  0.21526000  0.42394000  0.57960000  1.0 -0.1360457539
C  C239  1  0.46880000  0.82606000  0.67040000  1.0 -0.1360457539
C  C240  1  0.82606000  0.67040000  0.46880000  1.0 -0.1360457539
C  C241  1  0.08355000  0.31273000  0.91453000  1.0 0.0604640456
C  C242  1  0.16645000  0.93727000  0.56081000  1.0 0.0604640456
C  C243  1  0.93727000  0.56081000  0.16645000  1.0 0.0604640456
C  C244  1  0.56081000  0.16645000  0.93727000  1.0 0.0604640456
C  C245  1  0.93727000  0.33547000  0.56081000  1.0 0.0604640456
C  C246  1  0.31273000  0.68919000  0.91453000  1.0 0.0604640456
C  C247  1  0.33547000  0.16645000  0.56081000  1.0 0.0604640456
C  C248  1  0.68919000  0.08355000  0.91453000  1.0 0.0604640456
C  C249  1  0.33547000  0.56081000  0.93727000  1.0 0.0604640456
C  C250  1  0.68919000  0.91453000  0.31273000  1.0 0.0604640456
C  C251  1  0.31273000  0.08355000  0.68919000  1.0 0.0604640456
C  C252  1  0.93727000  0.16645000  0.33547000  1.0 0.0604640456
C  C253  1  0.33547000  0.93727000  0.16645000  1.0 0.0604640456
C  C254  1  0.68919000  0.31273000  0.08355000  1.0 0.0604640456
C  C255  1  0.16645000  0.33547000  0.93727000  1.0 0.0604640456
C  C256  1  0.08355000  0.68919000  0.31273000  1.0 0.0604640456
C  C257  1  0.08355000  0.91453000  0.68919000  1.0 0.0604640456
C  C258  1  0.91453000  0.31273000  0.68919000  1.0 0.0604640456
C  C259  1  0.56081000  0.93727000  0.33547000  1.0 0.0604640456
C  C260  1  0.16645000  0.56081000  0.33547000  1.0 0.0604640456
C  C261  1  0.91453000  0.68919000  0.08355000  1.0 0.0604640456
C  C262  1  0.56081000  0.33547000  0.16645000  1.0 0.0604640456
C  C263  1  0.31273000  0.91453000  0.08355000  1.0 0.0604640456
C  C264  1  0.91453000  0.08355000  0.31273000  1.0 0.0604640456
C  C265  1  0.66645000  0.43727000  0.83547000  1.0 0.0604640456
C  C266  1  0.58355000  0.81273000  0.18919000  1.0 0.0604640456
C  C267  1  0.81273000  0.18919000  0.58355000  1.0 0.0604640456
C  C268  1  0.18919000  0.58355000  0.81273000  1.0 0.0604640456
C  C269  1  0.81273000  0.41453000  0.18919000  1.0 0.0604640456
C  C270  1  0.43727000  0.06081000  0.83547000  1.0 0.0604640456
C  C271  1  0.41453000  0.58355000  0.18919000  1.0 0.0604640456
C  C272  1  0.06081000  0.66645000  0.83547000  1.0 0.0604640456
C  C273  1  0.41453000  0.18919000  0.81273000  1.0 0.0604640456
C  C274  1  0.06081000  0.83547000  0.43727000  1.0 0.0604640456
C  C275  1  0.43727000  0.66645000  0.06081000  1.0 0.0604640456
C  C276  1  0.81273000  0.58355000  0.41453000  1.0 0.0604640456
C  C277  1  0.41453000  0.81273000  0.58355000  1.0 0.0604640456
C  C278  1  0.06081000  0.43727000  0.66645000  1.0 0.0604640456
C  C279  1  0.58355000  0.41453000  0.81273000  1.0 0.0604640456
C  C280  1  0.66645000  0.06081000  0.43727000  1.0 0.0604640456
C  C281  1  0.66645000  0.83547000  0.06081000  1.0 0.0604640456
C  C282  1  0.83547000  0.43727000  0.06081000  1.0 0.0604640456
C  C283  1  0.18919000  0.81273000  0.41453000  1.0 0.0604640456
C  C284  1  0.58355000  0.18919000  0.41453000  1.0 0.0604640456
C  C285  1  0.83547000  0.06081000  0.66645000  1.0 0.0604640456
C  C286  1  0.18919000  0.41453000  0.58355000  1.0 0.0604640456
C  C287  1  0.43727000  0.83547000  0.66645000  1.0 0.0604640456
C  C288  1  0.83547000  0.66645000  0.43727000  1.0 0.0604640456
C  C289  1  0.33261000  0.19585000  0.88669000  1.0 0.0604640456
C  C290  1  0.91739000  0.05415000  0.66515000  1.0 0.0604640456
C  C291  1  0.05415000  0.66515000  0.91739000  1.0 0.0604640456
C  C292  1  0.66515000  0.91739000  0.05415000  1.0 0.0604640456
C  C293  1  0.05415000  0.36331000  0.66515000  1.0 0.0604640456
C  C294  1  0.19585000  0.58485000  0.88669000  1.0 0.0604640456
C  C295  1  0.36331000  0.91739000  0.66515000  1.0 0.0604640456
C  C296  1  0.58485000  0.33261000  0.88669000  1.0 0.0604640456
C  C297  1  0.36331000  0.66515000  0.05415000  1.0 0.0604640456
C  C298  1  0.58485000  0.88669000  0.19585000  1.0 0.0604640456
C  C299  1  0.19585000  0.33261000  0.58485000  1.0 0.0604640456
C  C300  1  0.05415000  0.91739000  0.36331000  1.0 0.0604640456
C  C301  1  0.36331000  0.05415000  0.91739000  1.0 0.0604640456
C  C302  1  0.58485000  0.19585000  0.33261000  1.0 0.0604640456
C  C303  1  0.91739000  0.36331000  0.05415000  1.0 0.0604640456
C  C304  1  0.33261000  0.58485000  0.19585000  1.0 0.0604640456
C  C305  1  0.33261000  0.88669000  0.58485000  1.0 0.0604640456
C  C306  1  0.88669000  0.19585000  0.58485000  1.0 0.0604640456
C  C307  1  0.66515000  0.05415000  0.36331000  1.0 0.0604640456
C  C308  1  0.91739000  0.66515000  0.36331000  1.0 0.0604640456
C  C309  1  0.88669000  0.58485000  0.33261000  1.0 0.0604640456
C  C310  1  0.66515000  0.36331000  0.91739000  1.0 0.0604640456
C  C311  1  0.19585000  0.88669000  0.33261000  1.0 0.0604640456
C  C312  1  0.88669000  0.33261000  0.19585000  1.0 0.0604640456
C  C313  1  0.41739000  0.55415000  0.86331000  1.0 0.0604640456
C  C314  1  0.83261000  0.69585000  0.08485000  1.0 0.0604640456
C  C315  1  0.69585000  0.08485000  0.83261000  1.0 0.0604640456
C  C316  1  0.08485000  0.83261000  0.69585000  1.0 0.0604640456
C  C317  1  0.69585000  0.38669000  0.08485000  1.0 0.0604640456
C  C318  1  0.55415000  0.16515000  0.86331000  1.0 0.0604640456
C  C319  1  0.38669000  0.83261000  0.08485000  1.0 0.0604640456
C  C320  1  0.16515000  0.41739000  0.86331000  1.0 0.0604640456
C  C321  1  0.38669000  0.08485000  0.69585000  1.0 0.0604640456
C  C322  1  0.16515000  0.86331000  0.55415000  1.0 0.0604640456
C  C323  1  0.55415000  0.41739000  0.16515000  1.0 0.0604640456
C  C324  1  0.69585000  0.83261000  0.38669000  1.0 0.0604640456
C  C325  1  0.38669000  0.69585000  0.83261000  1.0 0.0604640456
C  C326  1  0.16515000  0.55415000  0.41739000  1.0 0.0604640456
C  C327  1  0.83261000  0.38669000  0.69585000  1.0 0.0604640456
C  C328  1  0.41739000  0.16515000  0.55415000  1.0 0.0604640456
C  C329  1  0.41739000  0.86331000  0.16515000  1.0 0.0604640456
C  C330  1  0.86331000  0.55415000  0.16515000  1.0 0.0604640456
C  C331  1  0.08485000  0.69585000  0.38669000  1.0 0.0604640456
C  C332  1  0.83261000  0.08485000  0.38669000  1.0 0.0604640456
C  C333  1  0.86331000  0.16515000  0.41739000  1.0 0.0604640456
C  C334  1  0.08485000  0.38669000  0.83261000  1.0 0.0604640456
C  C335  1  0.55415000  0.86331000  0.41739000  1.0 0.0604640456
C  C336  1  0.86331000  0.41739000  0.55415000  1.0 0.0604640456
C  C337  1  0.30278000  0.22452000  0.89102000  1.0 -0.1289549629
C  C338  1  0.94722000  0.02548000  0.66832000  1.0 -0.1289549629
C  C339  1  0.02548000  0.66832000  0.94722000  1.0 -0.1289549629
C  C340  1  0.66832000  0.94722000  0.02548000  1.0 -0.1289549629
C  C341  1  0.02548000  0.35898000  0.66832000  1.0 -0.1289549629
C  C342  1  0.22452000  0.58168000  0.89102000  1.0 -0.1289549629
C  C343  1  0.35898000  0.94722000  0.66832000  1.0 -0.1289549629
C  C344  1  0.58168000  0.30278000  0.89102000  1.0 -0.1289549629
C  C345  1  0.35898000  0.66832000  0.02548000  1.0 -0.1289549629
C  C346  1  0.58168000  0.89102000  0.22452000  1.0 -0.1289549629
C  C347  1  0.22452000  0.30278000  0.58168000  1.0 -0.1289549629
C  C348  1  0.02548000  0.94722000  0.35898000  1.0 -0.1289549629
C  C349  1  0.35898000  0.02548000  0.94722000  1.0 -0.1289549629
C  C350  1  0.58168000  0.22452000  0.30278000  1.0 -0.1289549629
C  C351  1  0.94722000  0.35898000  0.02548000  1.0 -0.1289549629
C  C352  1  0.30278000  0.58168000  0.22452000  1.0 -0.1289549629
C  C353  1  0.30278000  0.89102000  0.58168000  1.0 -0.1289549629
C  C354  1  0.89102000  0.22452000  0.58168000  1.0 -0.1289549629
C  C355  1  0.66832000  0.02548000  0.35898000  1.0 -0.1289549629
C  C356  1  0.94722000  0.66832000  0.35898000  1.0 -0.1289549629
C  C357  1  0.89102000  0.58168000  0.30278000  1.0 -0.1289549629
C  C358  1  0.66832000  0.35898000  0.94722000  1.0 -0.1289549629
C  C359  1  0.22452000  0.89102000  0.30278000  1.0 -0.1289549629
C  C360  1  0.89102000  0.30278000  0.22452000  1.0 -0.1289549629
C  C361  1  0.44722000  0.52548000  0.85898000  1.0 -0.1289549629
C  C362  1  0.80278000  0.72452000  0.08168000  1.0 -0.1289549629
C  C363  1  0.72452000  0.08168000  0.80278000  1.0 -0.1289549629
C  C364  1  0.08168000  0.80278000  0.72452000  1.0 -0.1289549629
C  C365  1  0.72452000  0.39102000  0.08168000  1.0 -0.1289549629
C  C366  1  0.52548000  0.16832000  0.85898000  1.0 -0.1289549629
C  C367  1  0.39102000  0.80278000  0.08168000  1.0 -0.1289549629
C  C368  1  0.16832000  0.44722000  0.85898000  1.0 -0.1289549629
C  C369  1  0.39102000  0.08168000  0.72452000  1.0 -0.1289549629
C  C370  1  0.16832000  0.85898000  0.52548000  1.0 -0.1289549629
C  C371  1  0.52548000  0.44722000  0.16832000  1.0 -0.1289549629
C  C372  1  0.72452000  0.80278000  0.39102000  1.0 -0.1289549629
C  C373  1  0.39102000  0.72452000  0.80278000  1.0 -0.1289549629
C  C374  1  0.16832000  0.52548000  0.44722000  1.0 -0.1289549629
C  C375  1  0.80278000  0.39102000  0.72452000  1.0 -0.1289549629
C  C376  1  0.44722000  0.16832000  0.52548000  1.0 -0.1289549629
C  C377  1  0.44722000  0.85898000  0.16832000  1.0 -0.1289549629
C  C378  1  0.85898000  0.52548000  0.16832000  1.0 -0.1289549629
C  C379  1  0.08168000  0.72452000  0.39102000  1.0 -0.1289549629
C  C380  1  0.80278000  0.08168000  0.39102000  1.0 -0.1289549629
C  C381  1  0.85898000  0.16832000  0.44722000  1.0 -0.1289549629
C  C382  1  0.08168000  0.39102000  0.80278000  1.0 -0.1289549629
C  C383  1  0.52548000  0.85898000  0.44722000  1.0 -0.1289549629
C  C384  1  0.85898000  0.44722000  0.52548000  1.0 -0.1289549629
C  C385  1  0.27102000  0.22550000  0.89458000  1.0 -0.0655490581
C  C386  1  0.97898000  0.02450000  0.64110000  1.0 -0.0655490581
C  C387  1  0.02450000  0.64110000  0.97898000  1.0 -0.0655490581
C  C388  1  0.64110000  0.97898000  0.02450000  1.0 -0.0655490581
C  C389  1  0.02450000  0.35542000  0.64110000  1.0 -0.0655490581
C  C390  1  0.22550000  0.60890000  0.89458000  1.0 -0.0655490581
C  C391  1  0.35542000  0.97898000  0.64110000  1.0 -0.0655490581
C  C392  1  0.60890000  0.27102000  0.89458000  1.0 -0.0655490581
C  C393  1  0.35542000  0.64110000  0.02450000  1.0 -0.0655490581
C  C394  1  0.60890000  0.89458000  0.22550000  1.0 -0.0655490581
C  C395  1  0.22550000  0.27102000  0.60890000  1.0 -0.0655490581
C  C396  1  0.02450000  0.97898000  0.35542000  1.0 -0.0655490581
C  C397  1  0.35542000  0.02450000  0.97898000  1.0 -0.0655490581
C  C398  1  0.60890000  0.22550000  0.27102000  1.0 -0.0655490581
C  C399  1  0.97898000  0.35542000  0.02450000  1.0 -0.0655490581
C  C400  1  0.27102000  0.60890000  0.22550000  1.0 -0.0655490581
C  C401  1  0.27102000  0.89458000  0.60890000  1.0 -0.0655490581
C  C402  1  0.89458000  0.22550000  0.60890000  1.0 -0.0655490581
C  C403  1  0.64110000  0.02450000  0.35542000  1.0 -0.0655490581
C  C404  1  0.97898000  0.64110000  0.35542000  1.0 -0.0655490581
C  C405  1  0.89458000  0.60890000  0.27102000  1.0 -0.0655490581
C  C406  1  0.64110000  0.35542000  0.97898000  1.0 -0.0655490581
C  C407  1  0.22550000  0.89458000  0.27102000  1.0 -0.0655490581
C  C408  1  0.89458000  0.27102000  0.22550000  1.0 -0.0655490581
C  C409  1  0.47898000  0.52450000  0.85542000  1.0 -0.0655490581
C  C410  1  0.77102000  0.72550000  0.10890000  1.0 -0.0655490581
C  C411  1  0.72550000  0.10890000  0.77102000  1.0 -0.0655490581
C  C412  1  0.10890000  0.77102000  0.72550000  1.0 -0.0655490581
C  C413  1  0.72550000  0.39458000  0.10890000  1.0 -0.0655490581
C  C414  1  0.52450000  0.14110000  0.85542000  1.0 -0.0655490581
C  C415  1  0.39458000  0.77102000  0.10890000  1.0 -0.0655490581
C  C416  1  0.14110000  0.47898000  0.85542000  1.0 -0.0655490581
C  C417  1  0.39458000  0.10890000  0.72550000  1.0 -0.0655490581
C  C418  1  0.14110000  0.85542000  0.52450000  1.0 -0.0655490581
C  C419  1  0.52450000  0.47898000  0.14110000  1.0 -0.0655490581
C  C420  1  0.72550000  0.77102000  0.39458000  1.0 -0.0655490581
C  C421  1  0.39458000  0.72550000  0.77102000  1.0 -0.0655490581
C  C422  1  0.14110000  0.52450000  0.47898000  1.0 -0.0655490581
C  C423  1  0.77102000  0.39458000  0.72550000  1.0 -0.0655490581
C  C424  1  0.47898000  0.14110000  0.52450000  1.0 -0.0655490581
C  C425  1  0.47898000  0.85542000  0.14110000  1.0 -0.0655490581
C  C426  1  0.85542000  0.52450000  0.14110000  1.0 -0.0655490581
C  C427  1  0.10890000  0.72550000  0.39458000  1.0 -0.0655490581
C  C428  1  0.77102000  0.10890000  0.39458000  1.0 -0.0655490581
C  C429  1  0.85542000  0.14110000  0.47898000  1.0 -0.0655490581
C  C430  1  0.10890000  0.39458000  0.77102000  1.0 -0.0655490581
C  C431  1  0.52450000  0.85542000  0.47898000  1.0 -0.0655490581
C  C432  1  0.85542000  0.47898000  0.52450000  1.0 -0.0655490581
C  C433  1  0.26932000  0.19670000  0.89320000  1.0 -0.0277897449
C  C434  1  0.98068000  0.05330000  0.60922000  1.0 -0.0277897449
C  C435  1  0.05330000  0.60922000  0.98068000  1.0 -0.0277897449
C  C436  1  0.60922000  0.98068000  0.05330000  1.0 -0.0277897449
C  C437  1  0.05330000  0.35680000  0.60922000  1.0 -0.0277897449
C  C438  1  0.19670000  0.64078000  0.89320000  1.0 -0.0277897449
C  C439  1  0.35680000  0.98068000  0.60922000  1.0 -0.0277897449
C  C440  1  0.64078000  0.26932000  0.89320000  1.0 -0.0277897449
C  C441  1  0.35680000  0.60922000  0.05330000  1.0 -0.0277897449
C  C442  1  0.64078000  0.89320000  0.19670000  1.0 -0.0277897449
C  C443  1  0.19670000  0.26932000  0.64078000  1.0 -0.0277897449
C  C444  1  0.05330000  0.98068000  0.35680000  1.0 -0.0277897449
C  C445  1  0.35680000  0.05330000  0.98068000  1.0 -0.0277897449
C  C446  1  0.64078000  0.19670000  0.26932000  1.0 -0.0277897449
C  C447  1  0.98068000  0.35680000  0.05330000  1.0 -0.0277897449
C  C448  1  0.26932000  0.64078000  0.19670000  1.0 -0.0277897449
C  C449  1  0.26932000  0.89320000  0.64078000  1.0 -0.0277897449
C  C450  1  0.89320000  0.19670000  0.64078000  1.0 -0.0277897449
C  C451  1  0.60922000  0.05330000  0.35680000  1.0 -0.0277897449
C  C452  1  0.98068000  0.60922000  0.35680000  1.0 -0.0277897449
C  C453  1  0.89320000  0.64078000  0.26932000  1.0 -0.0277897449
C  C454  1  0.60922000  0.35680000  0.98068000  1.0 -0.0277897449
C  C455  1  0.19670000  0.89320000  0.26932000  1.0 -0.0277897449
C  C456  1  0.89320000  0.26932000  0.19670000  1.0 -0.0277897449
C  C457  1  0.48068000  0.55330000  0.85680000  1.0 -0.0277897449
C  C458  1  0.76932000  0.69670000  0.14078000  1.0 -0.0277897449
C  C459  1  0.69670000  0.14078000  0.76932000  1.0 -0.0277897449
C  C460  1  0.14078000  0.76932000  0.69670000  1.0 -0.0277897449
C  C461  1  0.69670000  0.39320000  0.14078000  1.0 -0.0277897449
C  C462  1  0.55330000  0.10922000  0.85680000  1.0 -0.0277897449
C  C463  1  0.39320000  0.76932000  0.14078000  1.0 -0.0277897449
C  C464  1  0.10922000  0.48068000  0.85680000  1.0 -0.0277897449
C  C465  1  0.39320000  0.14078000  0.69670000  1.0 -0.0277897449
C  C466  1  0.10922000  0.85680000  0.55330000  1.0 -0.0277897449
C  C467  1  0.55330000  0.48068000  0.10922000  1.0 -0.0277897449
C  C468  1  0.69670000  0.76932000  0.39320000  1.0 -0.0277897449
C  C469  1  0.39320000  0.69670000  0.76932000  1.0 -0.0277897449
C  C470  1  0.10922000  0.55330000  0.48068000  1.0 -0.0277897449
C  C471  1  0.76932000  0.39320000  0.69670000  1.0 -0.0277897449
C  C472  1  0.48068000  0.10922000  0.55330000  1.0 -0.0277897449
C  C473  1  0.48068000  0.85680000  0.10922000  1.0 -0.0277897449
C  C474  1  0.85680000  0.55330000  0.10922000  1.0 -0.0277897449
C  C475  1  0.14078000  0.69670000  0.39320000  1.0 -0.0277897449
C  C476  1  0.76932000  0.14078000  0.39320000  1.0 -0.0277897449
C  C477  1  0.85680000  0.10922000  0.48068000  1.0 -0.0277897449
C  C478  1  0.14078000  0.39320000  0.76932000  1.0 -0.0277897449
C  C479  1  0.55330000  0.85680000  0.48068000  1.0 -0.0277897449
C  C480  1  0.85680000  0.48068000  0.55330000  1.0 -0.0277897449
C  C481  1  0.30082000  0.16838000  0.88754000  1.0 0.0604640456
C  C482  1  0.94918000  0.08162000  0.60674000  1.0 0.0604640456
C  C483  1  0.08162000  0.60674000  0.94918000  1.0 0.0604640456
C  C484  1  0.60674000  0.94918000  0.08162000  1.0 0.0604640456
C  C485  1  0.08162000  0.36246000  0.60674000  1.0 0.0604640456
C  C486  1  0.16838000  0.64326000  0.88754000  1.0 0.0604640456
C  C487  1  0.36246000  0.94918000  0.60674000  1.0 0.0604640456
C  C488  1  0.64326000  0.30082000  0.88754000  1.0 0.0604640456
C  C489  1  0.36246000  0.60674000  0.08162000  1.0 0.0604640456
C  C490  1  0.64326000  0.88754000  0.16838000  1.0 0.0604640456
C  C491  1  0.16838000  0.30082000  0.64326000  1.0 0.0604640456
C  C492  1  0.08162000  0.94918000  0.36246000  1.0 0.0604640456
C  C493  1  0.36246000  0.08162000  0.94918000  1.0 0.0604640456
C  C494  1  0.64326000  0.16838000  0.30082000  1.0 0.0604640456
C  C495  1  0.94918000  0.36246000  0.08162000  1.0 0.0604640456
C  C496  1  0.30082000  0.64326000  0.16838000  1.0 0.0604640456
C  C497  1  0.30082000  0.88754000  0.64326000  1.0 0.0604640456
C  C498  1  0.88754000  0.16838000  0.64326000  1.0 0.0604640456
C  C499  1  0.60674000  0.08162000  0.36246000  1.0 0.0604640456
C  C500  1  0.94918000  0.60674000  0.36246000  1.0 0.0604640456
C  C501  1  0.88754000  0.64326000  0.30082000  1.0 0.0604640456
C  C502  1  0.60674000  0.36246000  0.94918000  1.0 0.0604640456
C  C503  1  0.16838000  0.88754000  0.30082000  1.0 0.0604640456
C  C504  1  0.88754000  0.30082000  0.16838000  1.0 0.0604640456
C  C505  1  0.44918000  0.58162000  0.86246000  1.0 0.0604640456
C  C506  1  0.80082000  0.66838000  0.14326000  1.0 0.0604640456
C  C507  1  0.66838000  0.14326000  0.80082000  1.0 0.0604640456
C  C508  1  0.14326000  0.80082000  0.66838000  1.0 0.0604640456
C  C509  1  0.66838000  0.38754000  0.14326000  1.0 0.0604640456
C  C510  1  0.58162000  0.10674000  0.86246000  1.0 0.0604640456
C  C511  1  0.38754000  0.80082000  0.14326000  1.0 0.0604640456
C  C512  1  0.10674000  0.44918000  0.86246000  1.0 0.0604640456
C  C513  1  0.38754000  0.14326000  0.66838000  1.0 0.0604640456
C  C514  1  0.10674000  0.86246000  0.58162000  1.0 0.0604640456
C  C515  1  0.58162000  0.44918000  0.10674000  1.0 0.0604640456
C  C516  1  0.66838000  0.80082000  0.38754000  1.0 0.0604640456
C  C517  1  0.38754000  0.66838000  0.80082000  1.0 0.0604640456
C  C518  1  0.10674000  0.58162000  0.44918000  1.0 0.0604640456
C  C519  1  0.80082000  0.38754000  0.66838000  1.0 0.0604640456
C  C520  1  0.44918000  0.10674000  0.58162000  1.0 0.0604640456
C  C521  1  0.44918000  0.86246000  0.10674000  1.0 0.0604640456
C  C522  1  0.86246000  0.58162000  0.10674000  1.0 0.0604640456
C  C523  1  0.14326000  0.66838000  0.38754000  1.0 0.0604640456
C  C524  1  0.80082000  0.14326000  0.38754000  1.0 0.0604640456
C  C525  1  0.86246000  0.10674000  0.44918000  1.0 0.0604640456
C  C526  1  0.14326000  0.38754000  0.80082000  1.0 0.0604640456
C  C527  1  0.58162000  0.86246000  0.44918000  1.0 0.0604640456
C  C528  1  0.86246000  0.44918000  0.58162000  1.0 0.0604640456
C  C529  1  0.23561000  0.19729000  0.89521000  1.0 0.3757698595
C  C530  1  0.01439000  0.05271000  0.57811000  1.0 0.3757698595
C  C531  1  0.05271000  0.57811000  0.01439000  1.0 0.3757698595
C  C532  1  0.57811000  0.01439000  0.05271000  1.0 0.3757698595
C  C533  1  0.05271000  0.35479000  0.57811000  1.0 0.3757698595
C  C534  1  0.19729000  0.67189000  0.89521000  1.0 0.3757698595
C  C535  1  0.35479000  0.01439000  0.57811000  1.0 0.3757698595
C  C536  1  0.67189000  0.23561000  0.89521000  1.0 0.3757698595
C  C537  1  0.35479000  0.57811000  0.05271000  1.0 0.3757698595
C  C538  1  0.67189000  0.89521000  0.19729000  1.0 0.3757698595
C  C539  1  0.19729000  0.23561000  0.67189000  1.0 0.3757698595
C  C540  1  0.05271000  0.01439000  0.35479000  1.0 0.3757698595
C  C541  1  0.35479000  0.05271000  0.01439000  1.0 0.3757698595
C  C542  1  0.67189000  0.19729000  0.23561000  1.0 0.3757698595
C  C543  1  0.01439000  0.35479000  0.05271000  1.0 0.3757698595
C  C544  1  0.23561000  0.67189000  0.19729000  1.0 0.3757698595
C  C545  1  0.23561000  0.89521000  0.67189000  1.0 0.3757698595
C  C546  1  0.89521000  0.19729000  0.67189000  1.0 0.3757698595
C  C547  1  0.57811000  0.05271000  0.35479000  1.0 0.3757698595
C  C548  1  0.01439000  0.57811000  0.35479000  1.0 0.3757698595
C  C549  1  0.89521000  0.67189000  0.23561000  1.0 0.3757698595
C  C550  1  0.57811000  0.35479000  0.01439000  1.0 0.3757698595
C  C551  1  0.19729000  0.89521000  0.23561000  1.0 0.3757698595
C  C552  1  0.89521000  0.23561000  0.19729000  1.0 0.3757698595
C  C553  1  0.51439000  0.55271000  0.85479000  1.0 0.3757698595
C  C554  1  0.73561000  0.69729000  0.17189000  1.0 0.3757698595
C  C555  1  0.69729000  0.17189000  0.73561000  1.0 0.3757698595
C  C556  1  0.17189000  0.73561000  0.69729000  1.0 0.3757698595
C  C557  1  0.69729000  0.39521000  0.17189000  1.0 0.3757698595
C  C558  1  0.55271000  0.07811000  0.85479000  1.0 0.3757698595
C  C559  1  0.39521000  0.73561000  0.17189000  1.0 0.3757698595
C  C560  1  0.07811000  0.51439000  0.85479000  1.0 0.3757698595
C  C561  1  0.39521000  0.17189000  0.69729000  1.0 0.3757698595
C  C562  1  0.07811000  0.85479000  0.55271000  1.0 0.3757698595
C  C563  1  0.55271000  0.51439000  0.07811000  1.0 0.3757698595
C  C564  1  0.69729000  0.73561000  0.39521000  1.0 0.3757698595
C  C565  1  0.39521000  0.69729000  0.73561000  1.0 0.3757698595
C  C566  1  0.07811000  0.55271000  0.51439000  1.0 0.3757698595
C  C567  1  0.73561000  0.39521000  0.69729000  1.0 0.3757698595
C  C568  1  0.51439000  0.07811000  0.55271000  1.0 0.3757698595
C  C569  1  0.51439000  0.85479000  0.07811000  1.0 0.3757698595
C  C570  1  0.85479000  0.55271000  0.07811000  1.0 0.3757698595
C  C571  1  0.17189000  0.69729000  0.39521000  1.0 0.3757698595
C  C572  1  0.73561000  0.17189000  0.39521000  1.0 0.3757698595
C  C573  1  0.85479000  0.07811000  0.51439000  1.0 0.3757698595
C  C574  1  0.17189000  0.39521000  0.73561000  1.0 0.3757698595
C  C575  1  0.55271000  0.85479000  0.51439000  1.0 0.3757698595
C  C576  1  0.85479000  0.51439000  0.55271000  1.0 0.3757698595
C  C577  1  0.17679000  0.22263000  0.90411000  1.0 0.3684335023
C  C578  1  0.07321000  0.02737000  0.55353000  1.0 0.3684335023
C  C579  1  0.02737000  0.55353000  0.07321000  1.0 0.3684335023
C  C580  1  0.55353000  0.07321000  0.02737000  1.0 0.3684335023
C  C581  1  0.02737000  0.34589000  0.55353000  1.0 0.3684335023
C  C582  1  0.22263000  0.69647000  0.90411000  1.0 0.3684335023
C  C583  1  0.34589000  0.07321000  0.55353000  1.0 0.3684335023
C  C584  1  0.69647000  0.17679000  0.90411000  1.0 0.3684335023
C  C585  1  0.34589000  0.55353000  0.02737000  1.0 0.3684335023
C  C586  1  0.69647000  0.90411000  0.22263000  1.0 0.3684335023
C  C587  1  0.22263000  0.17679000  0.69647000  1.0 0.3684335023
C  C588  1  0.02737000  0.07321000  0.34589000  1.0 0.3684335023
C  C589  1  0.34589000  0.02737000  0.07321000  1.0 0.3684335023
C  C590  1  0.69647000  0.22263000  0.17679000  1.0 0.3684335023
C  C591  1  0.07321000  0.34589000  0.02737000  1.0 0.3684335023
C  C592  1  0.17679000  0.69647000  0.22263000  1.0 0.3684335023
C  C593  1  0.17679000  0.90411000  0.69647000  1.0 0.3684335023
C  C594  1  0.90411000  0.22263000  0.69647000  1.0 0.3684335023
C  C595  1  0.55353000  0.02737000  0.34589000  1.0 0.3684335023
C  C596  1  0.07321000  0.55353000  0.34589000  1.0 0.3684335023
C  C597  1  0.90411000  0.69647000  0.17679000  1.0 0.3684335023
C  C598  1  0.55353000  0.34589000  0.07321000  1.0 0.3684335023
C  C599  1  0.22263000  0.90411000  0.17679000  1.0 0.3684335023
C  C600  1  0.90411000  0.17679000  0.22263000  1.0 0.3684335023
C  C601  1  0.57321000  0.52737000  0.84589000  1.0 0.3684335023
C  C602  1  0.67679000  0.72263000  0.19647000  1.0 0.3684335023
C  C603  1  0.72263000  0.19647000  0.67679000  1.0 0.3684335023
C  C604  1  0.19647000  0.67679000  0.72263000  1.0 0.3684335023
C  C605  1  0.72263000  0.40411000  0.19647000  1.0 0.3684335023
C  C606  1  0.52737000  0.05353000  0.84589000  1.0 0.3684335023
C  C607  1  0.40411000  0.67679000  0.19647000  1.0 0.3684335023
C  C608  1  0.05353000  0.57321000  0.84589000  1.0 0.3684335023
C  C609  1  0.40411000  0.19647000  0.72263000  1.0 0.3684335023
C  C610  1  0.05353000  0.84589000  0.52737000  1.0 0.3684335023
C  C611  1  0.52737000  0.57321000  0.05353000  1.0 0.3684335023
C  C612  1  0.72263000  0.67679000  0.40411000  1.0 0.3684335023
C  C613  1  0.40411000  0.72263000  0.67679000  1.0 0.3684335023
C  C614  1  0.05353000  0.52737000  0.57321000  1.0 0.3684335023
C  C615  1  0.67679000  0.40411000  0.72263000  1.0 0.3684335023
C  C616  1  0.57321000  0.05353000  0.52737000  1.0 0.3684335023
C  C617  1  0.57321000  0.84589000  0.05353000  1.0 0.3684335023
C  C618  1  0.84589000  0.52737000  0.05353000  1.0 0.3684335023
C  C619  1  0.19647000  0.72263000  0.40411000  1.0 0.3684335023
C  C620  1  0.67679000  0.19647000  0.40411000  1.0 0.3684335023
C  C621  1  0.84589000  0.05353000  0.57321000  1.0 0.3684335023
C  C622  1  0.19647000  0.40411000  0.67679000  1.0 0.3684335023
C  C623  1  0.52737000  0.84589000  0.57321000  1.0 0.3684335023
C  C624  1  0.84589000  0.57321000  0.52737000  1.0 0.3684335023
C  C625  1  0.20650000  0.17220000  0.89120000  1.0 0.3684335023
C  C626  1  0.04350000  0.07780000  0.51990000  1.0 0.3684335023
C  C627  1  0.07780000  0.51990000  0.04350000  1.0 0.3643490124
C  C628  1  0.51990000  0.04350000  0.07780000  1.0 0.3643490124
C  C629  1  0.07780000  0.35880000  0.51990000  1.0 0.3643490124
C  C630  1  0.17220000  0.73010000  0.89120000  1.0 0.3643490124
C  C631  1  0.35880000  0.04350000  0.51990000  1.0 0.3684335023
C  C632  1  0.73010000  0.20650000  0.89120000  1.0 0.3684335023
C  C633  1  0.35880000  0.51990000  0.07780000  1.0 0.3643490124
C  C634  1  0.73010000  0.89120000  0.17220000  1.0 0.3684335023
C  C635  1  0.17220000  0.20650000  0.73010000  1.0 0.3643490124
C  C636  1  0.07780000  0.04350000  0.35880000  1.0 0.3643490124
C  C637  1  0.35880000  0.07780000  0.04350000  1.0 0.3684335023
C  C638  1  0.73010000  0.17220000  0.20650000  1.0 0.3684335023
C  C639  1  0.04350000  0.35880000  0.07780000  1.0 0.3643490124
C  C640  1  0.20650000  0.73010000  0.17220000  1.0 0.3643490124
C  C641  1  0.20650000  0.89120000  0.73010000  1.0 0.3643490124
C  C642  1  0.89120000  0.17220000  0.73010000  1.0 0.3643490124
C  C643  1  0.51990000  0.07780000  0.35880000  1.0 0.3684335023
C  C644  1  0.04350000  0.51990000  0.35880000  1.0 0.3643490124
C  C645  1  0.89120000  0.73010000  0.20650000  1.0 0.3643490124
C  C646  1  0.51990000  0.35880000  0.04350000  1.0 0.3643490124
C  C647  1  0.17220000  0.89120000  0.20650000  1.0 0.3643490124
C  C648  1  0.89120000  0.20650000  0.17220000  1.0 0.3684335023
C  C649  1  0.54350000  0.57780000  0.85880000  1.0 0.3643490124
C  C650  1  0.70650000  0.67220000  0.23010000  1.0 0.3643490124
C  C651  1  0.67220000  0.23010000  0.70650000  1.0 0.3643490124
C  C652  1  0.23010000  0.70650000  0.67220000  1.0 0.3643490124
C  C653  1  0.67220000  0.39120000  0.23010000  1.0 0.3643490124
C  C654  1  0.57780000  0.01990000  0.85880000  1.0 0.3643490124
C  C655  1  0.39120000  0.70650000  0.23010000  1.0 0.3684335023
C  C656  1  0.01990000  0.54350000  0.85880000  1.0 0.3643490124
C  C657  1  0.39120000  0.23010000  0.67220000  1.0 0.3643490124
C  C658  1  0.01990000  0.85880000  0.57780000  1.0 0.3643490124
C  C659  1  0.57780000  0.54350000  0.01990000  1.0 0.3643490124
C  C660  1  0.67220000  0.70650000  0.39120000  1.0 0.3643490124
C  C661  1  0.39120000  0.67220000  0.70650000  1.0 0.3643490124
C  C662  1  0.01990000  0.57780000  0.54350000  1.0 0.3643490124
C  C663  1  0.70650000  0.39120000  0.67220000  1.0 0.3643490124
C  C664  1  0.54350000  0.01990000  0.57780000  1.0 0.3643490124
C  C665  1  0.54350000  0.85880000  0.01990000  1.0 0.3643490124
C  C666  1  0.85880000  0.57780000  0.01990000  1.0 0.3643490124
C  C667  1  0.23010000  0.67220000  0.39120000  1.0 0.3643490124
C  C668  1  0.70650000  0.23010000  0.39120000  1.0 0.3643490124
C  C669  1  0.85880000  0.01990000  0.54350000  1.0 0.3643490124
C  C670  1  0.23010000  0.39120000  0.70650000  1.0 0.3643490124
C  C671  1  0.57780000  0.85880000  0.54350000  1.0 0.3643490124
C  C672  1  0.85880000  0.54350000  0.57780000  1.0 0.3684335023
C  C673  1  0.20646000  0.09452000  0.86736000  1.0 0.0684681559
C  C674  1  0.04354000  0.15548000  0.41834000  1.0 0.0684681559
C  C675  1  0.15548000  0.41834000  0.04354000  1.0 0.0684681559
C  C676  1  0.41834000  0.04354000  0.15548000  1.0 0.0684681559
C  C677  1  0.15548000  0.38264000  0.41834000  1.0 0.0684681559
C  C678  1  0.09452000  0.83166000  0.86736000  1.0 0.0684681559
C  C679  1  0.38264000  0.04354000  0.41834000  1.0 0.0684681559
C  C680  1  0.83166000  0.20646000  0.86736000  1.0 0.0684681559
C  C681  1  0.38264000  0.41834000  0.15548000  1.0 0.0684681559
C  C682  1  0.83166000  0.86736000  0.09452000  1.0 0.0684681559
C  C683  1  0.09452000  0.20646000  0.83166000  1.0 0.0684681559
C  C684  1  0.15548000  0.04354000  0.38264000  1.0 0.0684681559
C  C685  1  0.38264000  0.15548000  0.04354000  1.0 0.0684681559
C  C686  1  0.83166000  0.09452000  0.20646000  1.0 0.0684681559
C  C687  1  0.04354000  0.38264000  0.15548000  1.0 0.0684681559
C  C688  1  0.20646000  0.83166000  0.09452000  1.0 0.0684681559
C  C689  1  0.20646000  0.86736000  0.83166000  1.0 0.0684681559
C  C690  1  0.86736000  0.09452000  0.83166000  1.0 0.0684681559
C  C691  1  0.41834000  0.15548000  0.38264000  1.0 0.0684681559
C  C692  1  0.04354000  0.41834000  0.38264000  1.0 0.0684681559
C  C693  1  0.86736000  0.83166000  0.20646000  1.0 0.0684681559
C  C694  1  0.41834000  0.38264000  0.04354000  1.0 0.0684681559
C  C695  1  0.09452000  0.86736000  0.20646000  1.0 0.0684681559
C  C696  1  0.86736000  0.20646000  0.09452000  1.0 0.0684681559
C  C697  1  0.54354000  0.65548000  0.88264000  1.0 0.0684681559
C  C698  1  0.70646000  0.59452000  0.33166000  1.0 0.0684681559
C  C699  1  0.59452000  0.33166000  0.70646000  1.0 0.0684681559
C  C700  1  0.33166000  0.70646000  0.59452000  1.0 0.0684681559
C  C701  1  0.59452000  0.36736000  0.33166000  1.0 0.0684681559
C  C702  1  0.65548000  0.91834000  0.88264000  1.0 0.0684681559
C  C703  1  0.36736000  0.70646000  0.33166000  1.0 0.0684681559
C  C704  1  0.91834000  0.54354000  0.88264000  1.0 0.0684681559
C  C705  1  0.36736000  0.33166000  0.59452000  1.0 0.0684681559
C  C706  1  0.91834000  0.88264000  0.65548000  1.0 0.0684681559
C  C707  1  0.65548000  0.54354000  0.91834000  1.0 0.0684681559
C  C708  1  0.59452000  0.70646000  0.36736000  1.0 0.0684681559
C  C709  1  0.36736000  0.59452000  0.70646000  1.0 0.0684681559
C  C710  1  0.91834000  0.65548000  0.54354000  1.0 0.0684681559
C  C711  1  0.70646000  0.36736000  0.59452000  1.0 0.0684681559
C  C712  1  0.54354000  0.91834000  0.65548000  1.0 0.0684681559
C  C713  1  0.54354000  0.88264000  0.91834000  1.0 0.0684681559
C  C714  1  0.88264000  0.65548000  0.91834000  1.0 0.0684681559
C  C715  1  0.33166000  0.59452000  0.36736000  1.0 0.0684681559
C  C716  1  0.70646000  0.33166000  0.36736000  1.0 0.0684681559
C  C717  1  0.88264000  0.91834000  0.54354000  1.0 0.0684681559
C  C718  1  0.33166000  0.36736000  0.70646000  1.0 0.0684681559
C  C719  1  0.65548000  0.88264000  0.54354000  1.0 0.0684681559
C  C720  1  0.88264000  0.54354000  0.65548000  1.0 0.0684681559
C  C721  1  0.23800000  0.08980000  0.86872000  1.0 -0.1289549629
C  C722  1  0.01200000  0.16020000  0.44652000  1.0 -0.1289549629
C  C723  1  0.16020000  0.44652000  0.01200000  1.0 -0.1289549629
C  C724  1  0.44652000  0.01200000  0.16020000  1.0 -0.1289549629
C  C725  1  0.16020000  0.38128000  0.44652000  1.0 -0.1289549629
C  C726  1  0.08980000  0.80348000  0.86872000  1.0 -0.1289549629
C  C727  1  0.38128000  0.01200000  0.44652000  1.0 -0.1289549629
C  C728  1  0.80348000  0.23800000  0.86872000  1.0 -0.1289549629
C  C729  1  0.38128000  0.44652000  0.16020000  1.0 -0.1289549629
C  C730  1  0.80348000  0.86872000  0.08980000  1.0 -0.1289549629
C  C731  1  0.08980000  0.23800000  0.80348000  1.0 -0.1289549629
C  C732  1  0.16020000  0.01200000  0.38128000  1.0 -0.1289549629
C  C733  1  0.38128000  0.16020000  0.01200000  1.0 -0.1289549629
C  C734  1  0.80348000  0.08980000  0.23800000  1.0 -0.1289549629
C  C735  1  0.01200000  0.38128000  0.16020000  1.0 -0.1289549629
C  C736  1  0.23800000  0.80348000  0.08980000  1.0 -0.1289549629
C  C737  1  0.23800000  0.86872000  0.80348000  1.0 -0.1289549629
C  C738  1  0.86872000  0.08980000  0.80348000  1.0 -0.1289549629
C  C739  1  0.44652000  0.16020000  0.38128000  1.0 -0.1289549629
C  C740  1  0.01200000  0.44652000  0.38128000  1.0 -0.1289549629
C  C741  1  0.86872000  0.80348000  0.23800000  1.0 -0.1289549629
C  C742  1  0.44652000  0.38128000  0.01200000  1.0 -0.1289549629
C  C743  1  0.08980000  0.86872000  0.23800000  1.0 -0.1289549629
C  C744  1  0.86872000  0.23800000  0.08980000  1.0 -0.1289549629
C  C745  1  0.51200000  0.66020000  0.88128000  1.0 -0.1289549629
C  C746  1  0.73800000  0.58980000  0.30348000  1.0 -0.1289549629
C  C747  1  0.58980000  0.30348000  0.73800000  1.0 -0.1289549629
C  C748  1  0.30348000  0.73800000  0.58980000  1.0 -0.1289549629
C  C749  1  0.58980000  0.36872000  0.30348000  1.0 -0.1289549629
C  C750  1  0.66020000  0.94652000  0.88128000  1.0 -0.1289549629
C  C751  1  0.36872000  0.73800000  0.30348000  1.0 -0.1289549629
C  C752  1  0.94652000  0.51200000  0.88128000  1.0 -0.1289549629
C  C753  1  0.36872000  0.30348000  0.58980000  1.0 -0.1289549629
C  C754  1  0.94652000  0.88128000  0.66020000  1.0 -0.1289549629
C  C755  1  0.66020000  0.51200000  0.94652000  1.0 -0.1289549629
C  C756  1  0.58980000  0.73800000  0.36872000  1.0 -0.1289549629
C  C757  1  0.36872000  0.58980000  0.73800000  1.0 -0.1289549629
C  C758  1  0.94652000  0.66020000  0.51200000  1.0 -0.1289549629
C  C759  1  0.73800000  0.36872000  0.58980000  1.0 -0.1289549629
C  C760  1  0.51200000  0.94652000  0.66020000  1.0 -0.1289549629
C  C761  1  0.51200000  0.88128000  0.94652000  1.0 -0.1289549629
C  C762  1  0.88128000  0.66020000  0.94652000  1.0 -0.1289549629
C  C763  1  0.30348000  0.58980000  0.36872000  1.0 -0.1289549629
C  C764  1  0.73800000  0.30348000  0.36872000  1.0 -0.1289549629
C  C765  1  0.88128000  0.94652000  0.51200000  1.0 -0.1289549629
C  C766  1  0.30348000  0.36872000  0.73800000  1.0 -0.1289549629
C  C767  1  0.66020000  0.88128000  0.51200000  1.0 -0.1289549629
C  C768  1  0.88128000  0.51200000  0.66020000  1.0 -0.1289549629
C  C769  1  0.23857000  0.11547000  0.87645000  1.0 -0.0542221903
C  C770  1  0.01143000  0.13453000  0.48049000  1.0 -0.0542221903
C  C771  1  0.13453000  0.48049000  0.01143000  1.0 -0.0542221903
C  C772  1  0.48049000  0.01143000  0.13453000  1.0 -0.0542221903
C  C773  1  0.13453000  0.37355000  0.48049000  1.0 -0.0542221903
C  C774  1  0.11547000  0.76951000  0.87645000  1.0 -0.0590072557
C  C775  1  0.37355000  0.01143000  0.48049000  1.0 -0.0542221903
C  C776  1  0.76951000  0.23857000  0.87645000  1.0 -0.0542221903
C  C777  1  0.37355000  0.48049000  0.13453000  1.0 -0.0542221903
C  C778  1  0.76951000  0.87645000  0.11547000  1.0 -0.0542221903
C  C779  1  0.11547000  0.23857000  0.76951000  1.0 -0.0542221903
C  C780  1  0.13453000  0.01143000  0.37355000  1.0 -0.0542221903
C  C781  1  0.37355000  0.13453000  0.01143000  1.0 -0.0542221903
C  C782  1  0.76951000  0.11547000  0.23857000  1.0 -0.0542221903
C  C783  1  0.01143000  0.37355000  0.13453000  1.0 -0.0542221903
C  C784  1  0.23857000  0.76951000  0.11547000  1.0 -0.0542221903
C  C785  1  0.23857000  0.87645000  0.76951000  1.0 -0.0590072557
C  C786  1  0.87645000  0.11547000  0.76951000  1.0 -0.0542221903
C  C787  1  0.48049000  0.13453000  0.37355000  1.0 -0.0542221903
C  C788  1  0.01143000  0.48049000  0.37355000  1.0 -0.0542221903
C  C789  1  0.87645000  0.76951000  0.23857000  1.0 -0.0542221903
C  C790  1  0.48049000  0.37355000  0.01143000  1.0 -0.0542221903
C  C791  1  0.11547000  0.87645000  0.23857000  1.0 -0.0542221903
C  C792  1  0.87645000  0.23857000  0.11547000  1.0 -0.0542221903
C  C793  1  0.51143000  0.63453000  0.87355000  1.0 -0.0590072557
C  C794  1  0.73857000  0.61547000  0.26951000  1.0 -0.0542221903
C  C795  1  0.61547000  0.26951000  0.73857000  1.0 -0.0542221903
C  C796  1  0.26951000  0.73857000  0.61547000  1.0 -0.0590072557
C  C797  1  0.61547000  0.37645000  0.26951000  1.0 -0.0542221903
C  C798  1  0.63453000  0.98049000  0.87355000  1.0 -0.0590072557
C  C799  1  0.37645000  0.73857000  0.26951000  1.0 -0.0542221903
C  C800  1  0.98049000  0.51143000  0.87355000  1.0 -0.0590072557
C  C801  1  0.37645000  0.26951000  0.61547000  1.0 -0.0542221903
C  C802  1  0.98049000  0.87355000  0.63453000  1.0 -0.0590072557
C  C803  1  0.63453000  0.51143000  0.98049000  1.0 -0.0590072557
C  C804  1  0.61547000  0.73857000  0.37645000  1.0 -0.0590072557
C  C805  1  0.37645000  0.61547000  0.73857000  1.0 -0.0590072557
C  C806  1  0.98049000  0.63453000  0.51143000  1.0 -0.0542221903
C  C807  1  0.73857000  0.37645000  0.61547000  1.0 -0.0542221903
C  C808  1  0.51143000  0.98049000  0.63453000  1.0 -0.0542221903
C  C809  1  0.51143000  0.87355000  0.98049000  1.0 -0.0590072557
C  C810  1  0.87355000  0.63453000  0.98049000  1.0 -0.0590072557
C  C811  1  0.26951000  0.61547000  0.37645000  1.0 -0.0542221903
C  C812  1  0.73857000  0.26951000  0.37645000  1.0 -0.0542221903
C  C813  1  0.87355000  0.98049000  0.51143000  1.0 -0.0590072557
C  C814  1  0.26951000  0.37645000  0.73857000  1.0 -0.0542221903
C  C815  1  0.63453000  0.87355000  0.51143000  1.0 -0.0590072557
C  C816  1  0.87355000  0.51143000  0.63453000  1.0 -0.0542221903
C  C817  1  0.20866000  0.14372000  0.88236000  1.0 -0.0172874154
C  C818  1  0.04134000  0.10628000  0.48474000  1.0 -0.0172874154
C  C819  1  0.10628000  0.48474000  0.04134000  1.0 -0.0172874154
C  C820  1  0.48474000  0.04134000  0.10628000  1.0 -0.0172874154
C  C821  1  0.10628000  0.36764000  0.48474000  1.0 -0.0172874154
C  C822  1  0.14372000  0.76526000  0.88236000  1.0 -0.0172874154
C  C823  1  0.36764000  0.04134000  0.48474000  1.0 -0.0172874154
C  C824  1  0.76526000  0.20866000  0.88236000  1.0 -0.0172874154
C  C825  1  0.36764000  0.48474000  0.10628000  1.0 -0.0172874154
C  C826  1  0.76526000  0.88236000  0.14372000  1.0 -0.0172874154
C  C827  1  0.14372000  0.20866000  0.76526000  1.0 -0.0172874154
C  C828  1  0.10628000  0.04134000  0.36764000  1.0 -0.0172874154
C  C829  1  0.36764000  0.10628000  0.04134000  1.0 -0.0172874154
C  C830  1  0.76526000  0.14372000  0.20866000  1.0 -0.0172874154
C  C831  1  0.04134000  0.36764000  0.10628000  1.0 -0.0172874154
C  C832  1  0.20866000  0.76526000  0.14372000  1.0 -0.0172874154
C  C833  1  0.20866000  0.88236000  0.76526000  1.0 -0.0172874154
C  C834  1  0.88236000  0.14372000  0.76526000  1.0 -0.0172874154
C  C835  1  0.48474000  0.10628000  0.36764000  1.0 -0.0172874154
C  C836  1  0.04134000  0.48474000  0.36764000  1.0 -0.0172874154
C  C837  1  0.88236000  0.76526000  0.20866000  1.0 -0.0172874154
C  C838  1  0.48474000  0.36764000  0.04134000  1.0 -0.0172874154
C  C839  1  0.14372000  0.88236000  0.20866000  1.0 -0.0172874154
C  C840  1  0.88236000  0.20866000  0.14372000  1.0 -0.0172874154
C  C841  1  0.54134000  0.60628000  0.86764000  1.0 -0.0172874154
C  C842  1  0.70866000  0.64372000  0.26526000  1.0 -0.0172874154
C  C843  1  0.64372000  0.26526000  0.70866000  1.0 -0.0172874154
C  C844  1  0.26526000  0.70866000  0.64372000  1.0 -0.0172874154
C  C845  1  0.64372000  0.38236000  0.26526000  1.0 -0.0172874154
C  C846  1  0.60628000  0.98474000  0.86764000  1.0 -0.0172874154
C  C847  1  0.38236000  0.70866000  0.26526000  1.0 -0.0172874154
C  C848  1  0.98474000  0.54134000  0.86764000  1.0 -0.0172874154
C  C849  1  0.38236000  0.26526000  0.64372000  1.0 -0.0172874154
C  C850  1  0.98474000  0.86764000  0.60628000  1.0 -0.0172874154
C  C851  1  0.60628000  0.54134000  0.98474000  1.0 -0.0172874154
C  C852  1  0.64372000  0.70866000  0.38236000  1.0 -0.0172874154
C  C853  1  0.38236000  0.64372000  0.70866000  1.0 -0.0172874154
C  C854  1  0.98474000  0.60628000  0.54134000  1.0 -0.0172874154
C  C855  1  0.70866000  0.38236000  0.64372000  1.0 -0.0172874154
C  C856  1  0.54134000  0.98474000  0.60628000  1.0 -0.0172874154
C  C857  1  0.54134000  0.86764000  0.98474000  1.0 -0.0172874154
C  C858  1  0.86764000  0.60628000  0.98474000  1.0 -0.0172874154
C  C859  1  0.26526000  0.64372000  0.38236000  1.0 -0.0172874154
C  C860  1  0.70866000  0.26526000  0.38236000  1.0 -0.0172874154
C  C861  1  0.86764000  0.98474000  0.54134000  1.0 -0.0172874154
C  C862  1  0.26526000  0.38236000  0.70866000  1.0 -0.0172874154
C  C863  1  0.60628000  0.86764000  0.54134000  1.0 -0.0172874154
C  C864  1  0.86764000  0.54134000  0.60628000  1.0 -0.0172874154
C  C865  1  0.17730000  0.14740000  0.87912000  1.0 0.0604640456
C  C866  1  0.07270000  0.10260000  0.45382000  1.0 0.0604640456
C  C867  1  0.10260000  0.45382000  0.07270000  1.0 0.0604640456
C  C868  1  0.45382000  0.07270000  0.10260000  1.0 0.0604640456
C  C869  1  0.10260000  0.37088000  0.45382000  1.0 0.0604640456
C  C870  1  0.14740000  0.79618000  0.87912000  1.0 0.0604640456
C  C871  1  0.37088000  0.07270000  0.45382000  1.0 0.0604640456
C  C872  1  0.79618000  0.17730000  0.87912000  1.0 0.0604640456
C  C873  1  0.37088000  0.45382000  0.10260000  1.0 0.0604640456
C  C874  1  0.79618000  0.87912000  0.14740000  1.0 0.0604640456
C  C875  1  0.14740000  0.17730000  0.79618000  1.0 0.0604640456
C  C876  1  0.10260000  0.07270000  0.37088000  1.0 0.0604640456
C  C877  1  0.37088000  0.10260000  0.07270000  1.0 0.0604640456
C  C878  1  0.79618000  0.14740000  0.17730000  1.0 0.0604640456
C  C879  1  0.07270000  0.37088000  0.10260000  1.0 0.0604640456
C  C880  1  0.17730000  0.79618000  0.14740000  1.0 0.0604640456
C  C881  1  0.17730000  0.87912000  0.79618000  1.0 0.0604640456
C  C882  1  0.87912000  0.14740000  0.79618000  1.0 0.0604640456
C  C883  1  0.45382000  0.10260000  0.37088000  1.0 0.0604640456
C  C884  1  0.07270000  0.45382000  0.37088000  1.0 0.0604640456
C  C885  1  0.87912000  0.79618000  0.17730000  1.0 0.0604640456
C  C886  1  0.45382000  0.37088000  0.07270000  1.0 0.0604640456
C  C887  1  0.14740000  0.87912000  0.17730000  1.0 0.0604640456
C  C888  1  0.87912000  0.17730000  0.14740000  1.0 0.0604640456
C  C889  1  0.57270000  0.60260000  0.87088000  1.0 0.0604640456
C  C890  1  0.67730000  0.64740000  0.29618000  1.0 0.0604640456
C  C891  1  0.64740000  0.29618000  0.67730000  1.0 0.0604640456
C  C892  1  0.29618000  0.67730000  0.64740000  1.0 0.0604640456
C  C893  1  0.64740000  0.37912000  0.29618000  1.0 0.0604640456
C  C894  1  0.60260000  0.95382000  0.87088000  1.0 0.0604640456
C  C895  1  0.37912000  0.67730000  0.29618000  1.0 0.0604640456
C  C896  1  0.95382000  0.57270000  0.87088000  1.0 0.0604640456
C  C897  1  0.37912000  0.29618000  0.64740000  1.0 0.0604640456
C  C898  1  0.95382000  0.87088000  0.60260000  1.0 0.0604640456
C  C899  1  0.60260000  0.57270000  0.95382000  1.0 0.0604640456
C  C900  1  0.64740000  0.67730000  0.37912000  1.0 0.0604640456
C  C901  1  0.37912000  0.64740000  0.67730000  1.0 0.0604640456
C  C902  1  0.95382000  0.60260000  0.57270000  1.0 0.0604640456
C  C903  1  0.67730000  0.37912000  0.64740000  1.0 0.0604640456
C  C904  1  0.57270000  0.95382000  0.60260000  1.0 0.0604640456
C  C905  1  0.57270000  0.87088000  0.95382000  1.0 0.0604640456
C  C906  1  0.87088000  0.60260000  0.95382000  1.0 0.0604640456
C  C907  1  0.29618000  0.64740000  0.37912000  1.0 0.0604640456
C  C908  1  0.67730000  0.29618000  0.37912000  1.0 0.0604640456
C  C909  1  0.87088000  0.95382000  0.57270000  1.0 0.0604640456
C  C910  1  0.29618000  0.37912000  0.67730000  1.0 0.0604640456
C  C911  1  0.60260000  0.87088000  0.57270000  1.0 0.0604640456
C  C912  1  0.87088000  0.57270000  0.60260000  1.0 0.0604640456
C  C913  1  0.07878000  0.13454000  0.83876000  1.0 0.0842073488
C  C914  1  0.17122000  0.11546000  0.30208000  1.0 0.0842073488
C  C915  1  0.11546000  0.30208000  0.17122000  1.0 0.0842073488
C  C916  1  0.30208000  0.17122000  0.11546000  1.0 0.0842073488
C  C917  1  0.11546000  0.41124000  0.30208000  1.0 0.0842073488
C  C918  1  0.13454000  0.94792000  0.83876000  1.0 0.0842073488
C  C919  1  0.41124000  0.17122000  0.30208000  1.0 0.0842073488
C  C920  1  0.94792000  0.07878000  0.83876000  1.0 0.0842073488
C  C921  1  0.41124000  0.30208000  0.11546000  1.0 0.0842073488
C  C922  1  0.94792000  0.83876000  0.13454000  1.0 0.0842073488
C  C923  1  0.13454000  0.07878000  0.94792000  1.0 0.0842073488
C  C924  1  0.11546000  0.17122000  0.41124000  1.0 0.0842073488
C  C925  1  0.41124000  0.11546000  0.17122000  1.0 0.0842073488
C  C926  1  0.94792000  0.13454000  0.07878000  1.0 0.0842073488
C  C927  1  0.17122000  0.41124000  0.11546000  1.0 0.0842073488
C  C928  1  0.07878000  0.94792000  0.13454000  1.0 0.0842073488
C  C929  1  0.07878000  0.83876000  0.94792000  1.0 0.0842073488
C  C930  1  0.83876000  0.13454000  0.94792000  1.0 0.0842073488
C  C931  1  0.30208000  0.11546000  0.41124000  1.0 0.0842073488
C  C932  1  0.17122000  0.30208000  0.41124000  1.0 0.0842073488
C  C933  1  0.83876000  0.94792000  0.07878000  1.0 0.0842073488
C  C934  1  0.30208000  0.41124000  0.17122000  1.0 0.0842073488
C  C935  1  0.13454000  0.83876000  0.07878000  1.0 0.0842073488
C  C936  1  0.83876000  0.07878000  0.13454000  1.0 0.0842073488
C  C937  1  0.67122000  0.61546000  0.91124000  1.0 0.0842073488
C  C938  1  0.57878000  0.63454000  0.44792000  1.0 0.0842073488
C  C939  1  0.63454000  0.44792000  0.57878000  1.0 0.0842073488
C  C940  1  0.44792000  0.57878000  0.63454000  1.0 0.0842073488
C  C941  1  0.63454000  0.33876000  0.44792000  1.0 0.0842073488
C  C942  1  0.61546000  0.80208000  0.91124000  1.0 0.0842073488
C  C943  1  0.33876000  0.57878000  0.44792000  1.0 0.0842073488
C  C944  1  0.80208000  0.67122000  0.91124000  1.0 0.0842073488
C  C945  1  0.33876000  0.44792000  0.63454000  1.0 0.0842073488
C  C946  1  0.80208000  0.91124000  0.61546000  1.0 0.0842073488
C  C947  1  0.61546000  0.67122000  0.80208000  1.0 0.0842073488
C  C948  1  0.63454000  0.57878000  0.33876000  1.0 0.0842073488
C  C949  1  0.33876000  0.63454000  0.57878000  1.0 0.0842073488
C  C950  1  0.80208000  0.61546000  0.67122000  1.0 0.0842073488
C  C951  1  0.57878000  0.33876000  0.63454000  1.0 0.0842073488
C  C952  1  0.67122000  0.80208000  0.61546000  1.0 0.0842073488
C  C953  1  0.67122000  0.91124000  0.80208000  1.0 0.0842073488
C  C954  1  0.91124000  0.61546000  0.80208000  1.0 0.0842073488
C  C955  1  0.44792000  0.63454000  0.33876000  1.0 0.0842073488
C  C956  1  0.57878000  0.44792000  0.33876000  1.0 0.0842073488
C  C957  1  0.91124000  0.80208000  0.67122000  1.0 0.0842073488
C  C958  1  0.44792000  0.33876000  0.57878000  1.0 0.0842073488
C  C959  1  0.61546000  0.91124000  0.67122000  1.0 0.0842073488
C  C960  1  0.91124000  0.67122000  0.61546000  1.0 0.0842073488
C  C961  1  0.04791000  0.14249000  0.83271000  1.0 -0.1289549629
C  C962  1  0.20209000  0.10751000  0.27311000  1.0 -0.1289549629
C  C963  1  0.10751000  0.27311000  0.20209000  1.0 -0.1289549629
C  C964  1  0.27311000  0.20209000  0.10751000  1.0 -0.1289549629
C  C965  1  0.10751000  0.41729000  0.27311000  1.0 -0.1289549629
C  C966  1  0.14249000  0.97689000  0.83271000  1.0 -0.1289549629
C  C967  1  0.41729000  0.20209000  0.27311000  1.0 -0.1289549629
C  C968  1  0.97689000  0.04791000  0.83271000  1.0 -0.1289549629
C  C969  1  0.41729000  0.27311000  0.10751000  1.0 -0.1289549629
C  C970  1  0.97689000  0.83271000  0.14249000  1.0 -0.1289549629
C  C971  1  0.14249000  0.04791000  0.97689000  1.0 -0.1289549629
C  C972  1  0.10751000  0.20209000  0.41729000  1.0 -0.1289549629
C  C973  1  0.41729000  0.10751000  0.20209000  1.0 -0.1289549629
C  C974  1  0.97689000  0.14249000  0.04791000  1.0 -0.1289549629
C  C975  1  0.20209000  0.41729000  0.10751000  1.0 -0.1289549629
C  C976  1  0.04791000  0.97689000  0.14249000  1.0 -0.1289549629
C  C977  1  0.04791000  0.83271000  0.97689000  1.0 -0.1289549629
C  C978  1  0.83271000  0.14249000  0.97689000  1.0 -0.1289549629
C  C979  1  0.27311000  0.10751000  0.41729000  1.0 -0.1289549629
C  C980  1  0.20209000  0.27311000  0.41729000  1.0 -0.1289549629
C  C981  1  0.83271000  0.97689000  0.04791000  1.0 -0.1289549629
C  C982  1  0.27311000  0.41729000  0.20209000  1.0 -0.1289549629
C  C983  1  0.14249000  0.83271000  0.04791000  1.0 -0.1289549629
C  C984  1  0.83271000  0.04791000  0.14249000  1.0 -0.1289549629
C  C985  1  0.70209000  0.60751000  0.91729000  1.0 -0.1289549629
C  C986  1  0.54791000  0.64249000  0.47689000  1.0 -0.1289549629
C  C987  1  0.64249000  0.47689000  0.54791000  1.0 -0.1289549629
C  C988  1  0.47689000  0.54791000  0.64249000  1.0 -0.1289549629
C  C989  1  0.64249000  0.33271000  0.47689000  1.0 -0.1289549629
C  C990  1  0.60751000  0.77311000  0.91729000  1.0 -0.1289549629
C  C991  1  0.33271000  0.54791000  0.47689000  1.0 -0.1289549629
C  C992  1  0.77311000  0.70209000  0.91729000  1.0 -0.1289549629
C  C993  1  0.33271000  0.47689000  0.64249000  1.0 -0.1289549629
C  C994  1  0.77311000  0.91729000  0.60751000  1.0 -0.1289549629
C  C995  1  0.60751000  0.70209000  0.77311000  1.0 -0.1289549629
C  C996  1  0.64249000  0.54791000  0.33271000  1.0 -0.1289549629
C  C997  1  0.33271000  0.64249000  0.54791000  1.0 -0.1289549629
C  C998  1  0.77311000  0.60751000  0.70209000  1.0 -0.1289549629
C  C999  1  0.54791000  0.33271000  0.64249000  1.0 -0.1289549629
C  C1000  1  0.70209000  0.77311000  0.60751000  1.0 -0.1289549629
C  C1001  1  0.70209000  0.91729000  0.77311000  1.0 -0.1289549629
C  C1002  1  0.91729000  0.60751000  0.77311000  1.0 -0.1289549629
C  C1003  1  0.47689000  0.64249000  0.33271000  1.0 -0.1289549629
C  C1004  1  0.54791000  0.47689000  0.33271000  1.0 -0.1289549629
C  C1005  1  0.91729000  0.77311000  0.70209000  1.0 -0.1289549629
C  C1006  1  0.47689000  0.33271000  0.54791000  1.0 -0.1289549629
C  C1007  1  0.60751000  0.91729000  0.70209000  1.0 -0.1289549629
C  C1008  1  0.91729000  0.70209000  0.60751000  1.0 -0.1289549629
C  C1009  1  0.01615000  0.14355000  0.86145000  1.0 -0.0542221903
C  C1010  1  0.23385000  0.10645000  0.27115000  1.0 -0.0542221903
C  C1011  1  0.10645000  0.27115000  0.23385000  1.0 -0.0542221903
C  C1012  1  0.27115000  0.23385000  0.10645000  1.0 -0.0542221903
C  C1013  1  0.10645000  0.38855000  0.27115000  1.0 -0.0542221903
C  C1014  1  0.14355000  0.97885000  0.86145000  1.0 -0.0542221903
C  C1015  1  0.38855000  0.23385000  0.27115000  1.0 -0.0542221903
C  C1016  1  0.97885000  0.01615000  0.86145000  1.0 -0.0590072557
C  C1017  1  0.38855000  0.27115000  0.10645000  1.0 -0.0590072557
C  C1018  1  0.97885000  0.86145000  0.14355000  1.0 -0.0542221903
C  C1019  1  0.14355000  0.01615000  0.97885000  1.0 -0.0542221903
C  C1020  1  0.10645000  0.23385000  0.38855000  1.0 -0.0542221903
C  C1021  1  0.38855000  0.10645000  0.23385000  1.0 -0.0542221903
C  C1022  1  0.97885000  0.14355000  0.01615000  1.0 -0.0542221903
C  C1023  1  0.23385000  0.38855000  0.10645000  1.0 -0.0542221903
C  C1024  1  0.01615000  0.97885000  0.14355000  1.0 -0.0542221903
C  C1025  1  0.01615000  0.86145000  0.97885000  1.0 -0.0542221903
C  C1026  1  0.86145000  0.14355000  0.97885000  1.0 -0.0542221903
C  C1027  1  0.27115000  0.10645000  0.38855000  1.0 -0.0590072557
C  C1028  1  0.23385000  0.27115000  0.38855000  1.0 -0.0542221903
C  C1029  1  0.86145000  0.97885000  0.01615000  1.0 -0.0542221903
C  C1030  1  0.27115000  0.38855000  0.23385000  1.0 -0.0542221903
C  C1031  1  0.14355000  0.86145000  0.01615000  1.0 -0.0542221903
C  C1032  1  0.86145000  0.01615000  0.14355000  1.0 -0.0542221903
C  C1033  1  0.73385000  0.60645000  0.88855000  1.0 -0.0542221903
C  C1034  1  0.51615000  0.64355000  0.47885000  1.0 -0.0542221903
C  C1035  1  0.64355000  0.47885000  0.51615000  1.0 -0.0542221903
C  C1036  1  0.47885000  0.51615000  0.64355000  1.0 -0.0542221903
C  C1037  1  0.64355000  0.36145000  0.47885000  1.0 -0.0542221903
C  C1038  1  0.60645000  0.77115000  0.88855000  1.0 -0.0590072557
C  C1039  1  0.36145000  0.51615000  0.47885000  1.0 -0.0542221903
C  C1040  1  0.77115000  0.73385000  0.88855000  1.0 -0.0542221903
C  C1041  1  0.36145000  0.47885000  0.64355000  1.0 -0.0542221903
C  C1042  1  0.77115000  0.88855000  0.60645000  1.0 -0.0542221903
C  C1043  1  0.60645000  0.73385000  0.77115000  1.0 -0.0542221903
C  C1044  1  0.64355000  0.51615000  0.36145000  1.0 -0.0542221903
C  C1045  1  0.36145000  0.64355000  0.51615000  1.0 -0.0542221903
C  C1046  1  0.77115000  0.60645000  0.73385000  1.0 -0.0590072557
C  C1047  1  0.51615000  0.36145000  0.64355000  1.0 -0.0542221903
C  C1048  1  0.73385000  0.77115000  0.60645000  1.0 -0.0542221903
C  C1049  1  0.73385000  0.88855000  0.77115000  1.0 -0.0542221903
C  C1050  1  0.88855000  0.60645000  0.77115000  1.0 -0.0542221903
C  C1051  1  0.47885000  0.64355000  0.36145000  1.0 -0.0542221903
C  C1052  1  0.51615000  0.47885000  0.36145000  1.0 -0.0542221903
C  C1053  1  0.88855000  0.77115000  0.73385000  1.0 -0.0542221903
C  C1054  1  0.47885000  0.36145000  0.51615000  1.0 -0.0542221903
C  C1055  1  0.60645000  0.88855000  0.73385000  1.0 -0.0590072557
C  C1056  1  0.88855000  0.73385000  0.60645000  1.0 -0.0590072557
C  C1057  1  0.01544000  0.13838000  0.89424000  1.0 -0.0277897449
C  C1058  1  0.23456000  0.11162000  0.29806000  1.0 -0.0277897449
C  C1059  1  0.11162000  0.29806000  0.23456000  1.0 -0.0277897449
C  C1060  1  0.29806000  0.23456000  0.11162000  1.0 -0.0277897449
C  C1061  1  0.11162000  0.35576000  0.29806000  1.0 -0.0277897449
C  C1062  1  0.13838000  0.95194000  0.89424000  1.0 -0.0277897449
C  C1063  1  0.35576000  0.23456000  0.29806000  1.0 -0.0277897449
C  C1064  1  0.95194000  0.01544000  0.89424000  1.0 -0.0277897449
C  C1065  1  0.35576000  0.29806000  0.11162000  1.0 -0.0277897449
C  C1066  1  0.95194000  0.89424000  0.13838000  1.0 -0.0277897449
C  C1067  1  0.13838000  0.01544000  0.95194000  1.0 -0.0277897449
C  C1068  1  0.11162000  0.23456000  0.35576000  1.0 -0.0277897449
C  C1069  1  0.35576000  0.11162000  0.23456000  1.0 -0.0277897449
C  C1070  1  0.95194000  0.13838000  0.01544000  1.0 -0.0277897449
C  C1071  1  0.23456000  0.35576000  0.11162000  1.0 -0.0277897449
C  C1072  1  0.01544000  0.95194000  0.13838000  1.0 -0.0277897449
C  C1073  1  0.01544000  0.89424000  0.95194000  1.0 -0.0277897449
C  C1074  1  0.89424000  0.13838000  0.95194000  1.0 -0.0277897449
C  C1075  1  0.29806000  0.11162000  0.35576000  1.0 -0.0277897449
C  C1076  1  0.23456000  0.29806000  0.35576000  1.0 -0.0277897449
C  C1077  1  0.89424000  0.95194000  0.01544000  1.0 -0.0277897449
C  C1078  1  0.29806000  0.35576000  0.23456000  1.0 -0.0277897449
C  C1079  1  0.13838000  0.89424000  0.01544000  1.0 -0.0277897449
C  C1080  1  0.89424000  0.01544000  0.13838000  1.0 -0.0277897449
C  C1081  1  0.73456000  0.61162000  0.85576000  1.0 -0.0277897449
C  C1082  1  0.51544000  0.63838000  0.45194000  1.0 -0.0277897449
C  C1083  1  0.63838000  0.45194000  0.51544000  1.0 -0.0277897449
C  C1084  1  0.45194000  0.51544000  0.63838000  1.0 -0.0277897449
C  C1085  1  0.63838000  0.39424000  0.45194000  1.0 -0.0277897449
C  C1086  1  0.61162000  0.79806000  0.85576000  1.0 -0.0277897449
C  C1087  1  0.39424000  0.51544000  0.45194000  1.0 -0.0277897449
C  C1088  1  0.79806000  0.73456000  0.85576000  1.0 -0.0277897449
C  C1089  1  0.39424000  0.45194000  0.63838000  1.0 -0.0277897449
C  C1090  1  0.79806000  0.85576000  0.61162000  1.0 -0.0277897449
C  C1091  1  0.61162000  0.73456000  0.79806000  1.0 -0.0277897449
C  C1092  1  0.63838000  0.51544000  0.39424000  1.0 -0.0277897449
C  C1093  1  0.39424000  0.63838000  0.51544000  1.0 -0.0277897449
C  C1094  1  0.79806000  0.61162000  0.73456000  1.0 -0.0277897449
C  C1095  1  0.51544000  0.39424000  0.63838000  1.0 -0.0277897449
C  C1096  1  0.73456000  0.79806000  0.61162000  1.0 -0.0277897449
C  C1097  1  0.73456000  0.85576000  0.79806000  1.0 -0.0277897449
C  C1098  1  0.85576000  0.61162000  0.79806000  1.0 -0.0277897449
C  C1099  1  0.45194000  0.63838000  0.39424000  1.0 -0.0277897449
C  C1100  1  0.51544000  0.45194000  0.39424000  1.0 -0.0277897449
C  C1101  1  0.85576000  0.79806000  0.73456000  1.0 -0.0277897449
C  C1102  1  0.45194000  0.39424000  0.51544000  1.0 -0.0277897449
C  C1103  1  0.61162000  0.85576000  0.73456000  1.0 -0.0277897449
C  C1104  1  0.85576000  0.73456000  0.61162000  1.0 -0.0277897449
C  C1105  1  0.04779000  0.13165000  0.89697000  1.0 0.0684681559
C  C1106  1  0.20221000  0.11835000  0.32641000  1.0 0.0684681559
C  C1107  1  0.11835000  0.32641000  0.20221000  1.0 0.0684681559
C  C1108  1  0.32641000  0.20221000  0.11835000  1.0 0.0684681559
C  C1109  1  0.11835000  0.35303000  0.32641000  1.0 0.0684681559
C  C1110  1  0.13165000  0.92359000  0.89697000  1.0 0.0684681559
C  C1111  1  0.35303000  0.20221000  0.32641000  1.0 0.0684681559
C  C1112  1  0.92359000  0.04779000  0.89697000  1.0 0.0684681559
C  C1113  1  0.35303000  0.32641000  0.11835000  1.0 0.0684681559
C  C1114  1  0.92359000  0.89697000  0.13165000  1.0 0.0684681559
C  C1115  1  0.13165000  0.04779000  0.92359000  1.0 0.0684681559
C  C1116  1  0.11835000  0.20221000  0.35303000  1.0 0.0684681559
C  C1117  1  0.35303000  0.11835000  0.20221000  1.0 0.0684681559
C  C1118  1  0.92359000  0.13165000  0.04779000  1.0 0.0684681559
C  C1119  1  0.20221000  0.35303000  0.11835000  1.0 0.0684681559
C  C1120  1  0.04779000  0.92359000  0.13165000  1.0 0.0684681559
C  C1121  1  0.04779000  0.89697000  0.92359000  1.0 0.0684681559
C  C1122  1  0.89697000  0.13165000  0.92359000  1.0 0.0684681559
C  C1123  1  0.32641000  0.11835000  0.35303000  1.0 0.0684681559
C  C1124  1  0.20221000  0.32641000  0.35303000  1.0 0.0684681559
C  C1125  1  0.89697000  0.92359000  0.04779000  1.0 0.0684681559
C  C1126  1  0.32641000  0.35303000  0.20221000  1.0 0.0684681559
C  C1127  1  0.13165000  0.89697000  0.04779000  1.0 0.0684681559
C  C1128  1  0.89697000  0.04779000  0.13165000  1.0 0.0684681559
C  C1129  1  0.70221000  0.61835000  0.85303000  1.0 0.0684681559
C  C1130  1  0.54779000  0.63165000  0.42359000  1.0 0.0684681559
C  C1131  1  0.63165000  0.42359000  0.54779000  1.0 0.0684681559
C  C1132  1  0.42359000  0.54779000  0.63165000  1.0 0.0684681559
C  C1133  1  0.63165000  0.39697000  0.42359000  1.0 0.0684681559
C  C1134  1  0.61835000  0.82641000  0.85303000  1.0 0.0684681559
C  C1135  1  0.39697000  0.54779000  0.42359000  1.0 0.0684681559
C  C1136  1  0.82641000  0.70221000  0.85303000  1.0 0.0684681559
C  C1137  1  0.39697000  0.42359000  0.63165000  1.0 0.0684681559
C  C1138  1  0.82641000  0.85303000  0.61835000  1.0 0.0684681559
C  C1139  1  0.61835000  0.70221000  0.82641000  1.0 0.0684681559
C  C1140  1  0.63165000  0.54779000  0.39697000  1.0 0.0684681559
C  C1141  1  0.39697000  0.63165000  0.54779000  1.0 0.0684681559
C  C1142  1  0.82641000  0.61835000  0.70221000  1.0 0.0684681559
C  C1143  1  0.54779000  0.39697000  0.63165000  1.0 0.0684681559
C  C1144  1  0.70221000  0.82641000  0.61835000  1.0 0.0684681559
C  C1145  1  0.70221000  0.85303000  0.82641000  1.0 0.0684681559
C  C1146  1  0.85303000  0.61835000  0.82641000  1.0 0.0684681559
C  C1147  1  0.42359000  0.63165000  0.39697000  1.0 0.0684681559
C  C1148  1  0.54779000  0.42359000  0.39697000  1.0 0.0684681559
C  C1149  1  0.85303000  0.82641000  0.70221000  1.0 0.0684681559
C  C1150  1  0.42359000  0.39697000  0.54779000  1.0 0.0684681559
C  C1151  1  0.61835000  0.85303000  0.70221000  1.0 0.0684681559
C  C1152  1  0.85303000  0.70221000  0.61835000  1.0 0.0684681559
C  C1153  1  0.98265000  0.13873000  0.92577000  1.0 0.3643490124
C  C1154  1  0.26735000  0.11127000  0.29715000  1.0 0.3684335023
C  C1155  1  0.11127000  0.29715000  0.26735000  1.0 0.3643490124
C  C1156  1  0.29715000  0.26735000  0.11127000  1.0 0.3684335023
C  C1157  1  0.11127000  0.32423000  0.29715000  1.0 0.3643490124
C  C1158  1  0.13873000  0.95285000  0.92577000  1.0 0.3643490124
C  C1159  1  0.32423000  0.26735000  0.29715000  1.0 0.3643490124
C  C1160  1  0.95285000  0.98265000  0.92577000  1.0 0.3643490124
C  C1161  1  0.32423000  0.29715000  0.11127000  1.0 0.3643490124
C  C1162  1  0.95285000  0.92577000  0.13873000  1.0 0.3684335023
C  C1163  1  0.13873000  0.98265000  0.95285000  1.0 0.3643490124
C  C1164  1  0.11127000  0.26735000  0.32423000  1.0 0.3643490124
C  C1165  1  0.32423000  0.11127000  0.26735000  1.0 0.3643490124
C  C1166  1  0.95285000  0.13873000  0.98265000  1.0 0.3643490124
C  C1167  1  0.26735000  0.32423000  0.11127000  1.0 0.3643490124
C  C1168  1  0.98265000  0.95285000  0.13873000  1.0 0.3643490124
C  C1169  1  0.98265000  0.92577000  0.95285000  1.0 0.3643490124
C  C1170  1  0.92577000  0.13873000  0.95285000  1.0 0.3684335023
C  C1171  1  0.29715000  0.11127000  0.32423000  1.0 0.3643490124
C  C1172  1  0.26735000  0.29715000  0.32423000  1.0 0.3643490124
C  C1173  1  0.92577000  0.95285000  0.98265000  1.0 0.3643490124
C  C1174  1  0.29715000  0.32423000  0.26735000  1.0 0.3643490124
C  C1175  1  0.13873000  0.92577000  0.98265000  1.0 0.3643490124
C  C1176  1  0.92577000  0.98265000  0.13873000  1.0 0.3684335023
C  C1177  1  0.76735000  0.61127000  0.82423000  1.0 0.3684335023
C  C1178  1  0.48265000  0.63873000  0.45285000  1.0 0.3643490124
C  C1179  1  0.63873000  0.45285000  0.48265000  1.0 0.3684335023
C  C1180  1  0.45285000  0.48265000  0.63873000  1.0 0.3643490124
C  C1181  1  0.63873000  0.42577000  0.45285000  1.0 0.3643490124
C  C1182  1  0.61127000  0.79715000  0.82423000  1.0 0.3643490124
C  C1183  1  0.42577000  0.48265000  0.45285000  1.0 0.3643490124
C  C1184  1  0.79715000  0.76735000  0.82423000  1.0 0.3684335023
C  C1185  1  0.42577000  0.45285000  0.63873000  1.0 0.3643490124
C  C1186  1  0.79715000  0.82423000  0.61127000  1.0 0.3643490124
C  C1187  1  0.61127000  0.76735000  0.79715000  1.0 0.3643490124
C  C1188  1  0.63873000  0.48265000  0.42577000  1.0 0.3684335023
C  C1189  1  0.42577000  0.63873000  0.48265000  1.0 0.3643490124
C  C1190  1  0.79715000  0.61127000  0.76735000  1.0 0.3643490124
C  C1191  1  0.48265000  0.42577000  0.63873000  1.0 0.3684335023
C  C1192  1  0.76735000  0.79715000  0.61127000  1.0 0.3684335023
C  C1193  1  0.76735000  0.82423000  0.79715000  1.0 0.3643490124
C  C1194  1  0.82423000  0.61127000  0.79715000  1.0 0.3643490124
C  C1195  1  0.45285000  0.63873000  0.42577000  1.0 0.3643490124
C  C1196  1  0.48265000  0.45285000  0.42577000  1.0 0.3643490124
C  C1197  1  0.82423000  0.79715000  0.76735000  1.0 0.3643490124
C  C1198  1  0.45285000  0.42577000  0.48265000  1.0 0.3643490124
C  C1199  1  0.61127000  0.82423000  0.76735000  1.0 0.3643490124
C  C1200  1  0.82423000  0.76735000  0.61127000  1.0 0.3643490124
C  C1201  1  0.16987000  0.07715000  0.82373000  1.0 0.2443700604
C  C1202  1  0.08013000  0.17285000  0.32075000  1.0 0.2443700604
C  C1203  1  0.17285000  0.32075000  0.08013000  1.0 0.2443700604
C  C1204  1  0.32075000  0.08013000  0.17285000  1.0 0.2443700604
C  C1205  1  0.17285000  0.42627000  0.32075000  1.0 0.2443700604
C  C1206  1  0.07715000  0.92925000  0.82373000  1.0 0.2443700604
C  C1207  1  0.42627000  0.08013000  0.32075000  1.0 0.2443700604
C  C1208  1  0.92925000  0.16987000  0.82373000  1.0 0.2443700604
C  C1209  1  0.42627000  0.32075000  0.17285000  1.0 0.2443700604
C  C1210  1  0.92925000  0.82373000  0.07715000  1.0 0.2443700604
C  C1211  1  0.07715000  0.16987000  0.92925000  1.0 0.2443700604
C  C1212  1  0.17285000  0.08013000  0.42627000  1.0 0.2443700604
C  C1213  1  0.42627000  0.17285000  0.08013000  1.0 0.2443700604
C  C1214  1  0.92925000  0.07715000  0.16987000  1.0 0.2443700604
C  C1215  1  0.08013000  0.42627000  0.17285000  1.0 0.2443700604
C  C1216  1  0.16987000  0.92925000  0.07715000  1.0 0.2443700604
C  C1217  1  0.16987000  0.82373000  0.92925000  1.0 0.2443700604
C  C1218  1  0.82373000  0.07715000  0.92925000  1.0 0.2443700604
C  C1219  1  0.32075000  0.17285000  0.42627000  1.0 0.2443700604
C  C1220  1  0.08013000  0.32075000  0.42627000  1.0 0.2443700604
C  C1221  1  0.82373000  0.92925000  0.16987000  1.0 0.2443700604
C  C1222  1  0.32075000  0.42627000  0.08013000  1.0 0.2443700604
C  C1223  1  0.07715000  0.82373000  0.16987000  1.0 0.2443700604
C  C1224  1  0.82373000  0.16987000  0.07715000  1.0 0.2443700604
C  C1225  1  0.58013000  0.67285000  0.92627000  1.0 0.2443700604
C  C1226  1  0.66987000  0.57715000  0.42925000  1.0 0.2443700604
C  C1227  1  0.57715000  0.42925000  0.66987000  1.0 0.2443700604
C  C1228  1  0.42925000  0.66987000  0.57715000  1.0 0.2443700604
C  C1229  1  0.57715000  0.32373000  0.42925000  1.0 0.2443700604
C  C1230  1  0.67285000  0.82075000  0.92627000  1.0 0.2443700604
C  C1231  1  0.32373000  0.66987000  0.42925000  1.0 0.2443700604
C  C1232  1  0.82075000  0.58013000  0.92627000  1.0 0.2443700604
C  C1233  1  0.32373000  0.42925000  0.57715000  1.0 0.2443700604
C  C1234  1  0.82075000  0.92627000  0.67285000  1.0 0.2443700604
C  C1235  1  0.67285000  0.58013000  0.82075000  1.0 0.2443700604
C  C1236  1  0.57715000  0.66987000  0.32373000  1.0 0.2443700604
C  C1237  1  0.32373000  0.57715000  0.66987000  1.0 0.2443700604
C  C1238  1  0.82075000  0.67285000  0.58013000  1.0 0.2443700604
C  C1239  1  0.66987000  0.32373000  0.57715000  1.0 0.2443700604
C  C1240  1  0.58013000  0.82075000  0.67285000  1.0 0.2443700604
C  C1241  1  0.58013000  0.92627000  0.82075000  1.0 0.2443700604
C  C1242  1  0.92627000  0.67285000  0.82075000  1.0 0.2443700604
C  C1243  1  0.42925000  0.57715000  0.32373000  1.0 0.2443700604
C  C1244  1  0.66987000  0.42925000  0.32373000  1.0 0.2443700604
C  C1245  1  0.92627000  0.82075000  0.58013000  1.0 0.2443700604
C  C1246  1  0.42925000  0.32373000  0.66987000  1.0 0.2443700604
C  C1247  1  0.67285000  0.92627000  0.58013000  1.0 0.2443700604
C  C1248  1  0.92627000  0.58013000  0.67285000  1.0 0.2443700604
S  S1  1  0.42962000  0.15998000  0.91434000  1.0 -0.3903302268
S  S2  1  0.82038000  0.09002000  0.75394000  1.0 -0.3903302268
S  S3  1  0.09002000  0.75394000  0.82038000  1.0 -0.3992983419
S  S4  1  0.75394000  0.82038000  0.09002000  1.0 -0.3903302268
S  S5  1  0.09002000  0.33566000  0.75394000  1.0 -0.3903302268
S  S6  1  0.15998000  0.49606000  0.91434000  1.0 -0.3903302268
S  S7  1  0.33566000  0.82038000  0.75394000  1.0 -0.3903302268
S  S8  1  0.49606000  0.42962000  0.91434000  1.0 -0.3903302268
S  S9  1  0.33566000  0.75394000  0.09002000  1.0 -0.3903302268
S  S10  1  0.49606000  0.91434000  0.15998000  1.0 -0.3903302268
S  S11  1  0.15998000  0.42962000  0.49606000  1.0 -0.3903302268
S  S12  1  0.09002000  0.82038000  0.33566000  1.0 -0.3903302268
S  S13  1  0.33566000  0.09002000  0.82038000  1.0 -0.3903302268
S  S14  1  0.49606000  0.15998000  0.42962000  1.0 -0.3903302268
S  S15  1  0.82038000  0.33566000  0.09002000  1.0 -0.3903302268
S  S16  1  0.42962000  0.49606000  0.15998000  1.0 -0.3903302268
S  S17  1  0.42962000  0.91434000  0.49606000  1.0 -0.3903302268
S  S18  1  0.91434000  0.15998000  0.49606000  1.0 -0.3903302268
S  S19  1  0.75394000  0.09002000  0.33566000  1.0 -0.3992983419
S  S20  1  0.82038000  0.75394000  0.33566000  1.0 -0.3903302268
S  S21  1  0.91434000  0.49606000  0.42962000  1.0 -0.3903302268
S  S22  1  0.75394000  0.33566000  0.82038000  1.0 -0.3992983419
S  S23  1  0.15998000  0.91434000  0.42962000  1.0 -0.3903302268
S  S24  1  0.91434000  0.42962000  0.15998000  1.0 -0.3903302268
S  S25  1  0.32038000  0.59002000  0.83566000  1.0 -0.3903302268
S  S26  1  0.92962000  0.65998000  0.99606000  1.0 -0.3903302268
S  S27  1  0.65998000  0.99606000  0.92962000  1.0 -0.3903302268
S  S28  1  0.99606000  0.92962000  0.65998000  1.0 -0.3903302268
S  S29  1  0.65998000  0.41434000  0.99606000  1.0 -0.3903302268
S  S30  1  0.59002000  0.25394000  0.83566000  1.0 -0.3903302268
S  S31  1  0.41434000  0.92962000  0.99606000  1.0 -0.3992983419
S  S32  1  0.25394000  0.32038000  0.83566000  1.0 -0.3903302268
S  S33  1  0.41434000  0.99606000  0.65998000  1.0 -0.3903302268
S  S34  1  0.25394000  0.83566000  0.59002000  1.0 -0.3903302268
S  S35  1  0.59002000  0.32038000  0.25394000  1.0 -0.3903302268
S  S36  1  0.65998000  0.92962000  0.41434000  1.0 -0.3903302268
S  S37  1  0.41434000  0.65998000  0.92962000  1.0 -0.3903302268
S  S38  1  0.25394000  0.59002000  0.32038000  1.0 -0.3903302268
S  S39  1  0.92962000  0.41434000  0.65998000  1.0 -0.3903302268
S  S40  1  0.32038000  0.25394000  0.59002000  1.0 -0.3903302268
S  S41  1  0.32038000  0.83566000  0.25394000  1.0 -0.3903302268
S  S42  1  0.83566000  0.59002000  0.25394000  1.0 -0.3903302268
S  S43  1  0.99606000  0.65998000  0.41434000  1.0 -0.3903302268
S  S44  1  0.92962000  0.99606000  0.41434000  1.0 -0.3903302268
S  S45  1  0.83566000  0.25394000  0.32038000  1.0 -0.3903302268
S  S46  1  0.99606000  0.41434000  0.92962000  1.0 -0.3903302268
S  S47  1  0.59002000  0.83566000  0.32038000  1.0 -0.3903302268
S  S48  1  0.83566000  0.32038000  0.59002000  1.0 -0.3903302268
S  S49  1  0.18854000  0.05264000  0.79858000  1.0 -0.3992983419
S  S50  1  0.06146000  0.19736000  0.28976000  1.0 -0.3992983419
S  S51  1  0.19736000  0.28976000  0.06146000  1.0 -0.4066026125
S  S52  1  0.28976000  0.06146000  0.19736000  1.0 -0.4066026125
S  S53  1  0.19736000  0.45142000  0.28976000  1.0 -0.3992983419
S  S54  1  0.05264000  0.96024000  0.79858000  1.0 -0.3992983419
S  S55  1  0.45142000  0.06146000  0.28976000  1.0 -0.4066026125
S  S56  1  0.96024000  0.18854000  0.79858000  1.0 -0.4066026125
S  S57  1  0.45142000  0.28976000  0.19736000  1.0 -0.4066026125
S  S58  1  0.96024000  0.79858000  0.05264000  1.0 -0.4066026125
S  S59  1  0.05264000  0.18854000  0.96024000  1.0 -0.3992983419
S  S60  1  0.19736000  0.06146000  0.45142000  1.0 -0.3992983419
S  S61  1  0.45142000  0.19736000  0.06146000  1.0 -0.4066026125
S  S62  1  0.96024000  0.05264000  0.18854000  1.0 -0.4066026125
S  S63  1  0.06146000  0.45142000  0.19736000  1.0 -0.3992983419
S  S64  1  0.18854000  0.96024000  0.05264000  1.0 -0.3992983419
S  S65  1  0.18854000  0.79858000  0.96024000  1.0 -0.3992983419
S  S66  1  0.79858000  0.05264000  0.96024000  1.0 -0.3992983419
S  S67  1  0.28976000  0.19736000  0.45142000  1.0 -0.3992983419
S  S68  1  0.06146000  0.28976000  0.45142000  1.0 -0.3992983419
S  S69  1  0.79858000  0.96024000  0.18854000  1.0 -0.3992983419
S  S70  1  0.28976000  0.45142000  0.06146000  1.0 -0.3992983419
S  S71  1  0.05264000  0.79858000  0.18854000  1.0 -0.3992983419
S  S72  1  0.79858000  0.18854000  0.05264000  1.0 -0.3992983419
S  S73  1  0.56146000  0.69736000  0.95142000  1.0 -0.3992983419
S  S74  1  0.68854000  0.55264000  0.46024000  1.0 -0.3992983419
S  S75  1  0.55264000  0.46024000  0.68854000  1.0 -0.3992983419
S  S76  1  0.46024000  0.68854000  0.55264000  1.0 -0.3992983419
S  S77  1  0.55264000  0.29858000  0.46024000  1.0 -0.3992983419
S  S78  1  0.69736000  0.78976000  0.95142000  1.0 -0.3992983419
S  S79  1  0.29858000  0.68854000  0.46024000  1.0 -0.3992983419
S  S80  1  0.78976000  0.56146000  0.95142000  1.0 -0.4066026125
S  S81  1  0.29858000  0.46024000  0.55264000  1.0 -0.3992983419
S  S82  1  0.78976000  0.95142000  0.69736000  1.0 -0.3992983419
S  S83  1  0.69736000  0.56146000  0.78976000  1.0 -0.3992983419
S  S84  1  0.55264000  0.68854000  0.29858000  1.0 -0.3992983419
S  S85  1  0.29858000  0.55264000  0.68854000  1.0 -0.3992983419
S  S86  1  0.78976000  0.69736000  0.56146000  1.0 -0.4066026125
S  S87  1  0.68854000  0.29858000  0.55264000  1.0 -0.3992983419
S  S88  1  0.56146000  0.78976000  0.69736000  1.0 -0.3992983419
S  S89  1  0.56146000  0.95142000  0.78976000  1.0 -0.4066026125
S  S90  1  0.95142000  0.69736000  0.78976000  1.0 -0.4066026125
S  S91  1  0.46024000  0.55264000  0.29858000  1.0 -0.4066026125
S  S92  1  0.68854000  0.46024000  0.29858000  1.0 -0.3992983419
S  S93  1  0.95142000  0.78976000  0.56146000  1.0 -0.3992983419
S  S94  1  0.46024000  0.29858000  0.68854000  1.0 -0.3992983419
S  S95  1  0.69736000  0.95142000  0.56146000  1.0 -0.3992983419
S  S96  1  0.95142000  0.56146000  0.69736000  1.0 -0.4066026125
N  N1  1  0.40506000  0.13282000  0.89134000  1.0 -0.4835329598
N  N2  1  0.84494000  0.11718000  0.67922000  1.0 -0.4835329598
N  N3  1  0.11718000  0.67922000  0.84494000  1.0 -0.4835329598
N  N4  1  0.67922000  0.84494000  0.11718000  1.0 -0.4835329598
N  N5  1  0.11718000  0.35866000  0.67922000  1.0 -0.4835329598
N  N6  1  0.13282000  0.57078000  0.89134000  1.0 -0.4835329598
N  N7  1  0.35866000  0.84494000  0.67922000  1.0 -0.4835329598
N  N8  1  0.57078000  0.40506000  0.89134000  1.0 -0.4835329598
N  N9  1  0.35866000  0.67922000  0.11718000  1.0 -0.4835329598
N  N10  1  0.57078000  0.89134000  0.13282000  1.0 -0.4835329598
N  N11  1  0.13282000  0.40506000  0.57078000  1.0 -0.4835329598
N  N12  1  0.11718000  0.84494000  0.35866000  1.0 -0.4835329598
N  N13  1  0.35866000  0.11718000  0.84494000  1.0 -0.4835329598
N  N14  1  0.57078000  0.13282000  0.40506000  1.0 -0.4835329598
N  N15  1  0.84494000  0.35866000  0.11718000  1.0 -0.4835329598
N  N16  1  0.40506000  0.57078000  0.13282000  1.0 -0.4835329598
N  N17  1  0.40506000  0.89134000  0.57078000  1.0 -0.4835329598
N  N18  1  0.89134000  0.13282000  0.57078000  1.0 -0.4835329598
N  N19  1  0.67922000  0.11718000  0.35866000  1.0 -0.4835329598
N  N20  1  0.84494000  0.67922000  0.35866000  1.0 -0.4835329598
N  N21  1  0.89134000  0.57078000  0.40506000  1.0 -0.4835329598
N  N22  1  0.67922000  0.35866000  0.84494000  1.0 -0.4835329598
N  N23  1  0.13282000  0.89134000  0.40506000  1.0 -0.4835329598
N  N24  1  0.89134000  0.40506000  0.13282000  1.0 -0.4835329598
N  N25  1  0.34494000  0.61718000  0.85866000  1.0 -0.4835329598
N  N26  1  0.90506000  0.63282000  0.07078000  1.0 -0.4835329598
N  N27  1  0.63282000  0.07078000  0.90506000  1.0 -0.4835329598
N  N28  1  0.07078000  0.90506000  0.63282000  1.0 -0.4835329598
N  N29  1  0.63282000  0.39134000  0.07078000  1.0 -0.4835329598
N  N30  1  0.61718000  0.17922000  0.85866000  1.0 -0.4835329598
N  N31  1  0.39134000  0.90506000  0.07078000  1.0 -0.4835329598
N  N32  1  0.17922000  0.34494000  0.85866000  1.0 -0.4835329598
N  N33  1  0.39134000  0.07078000  0.63282000  1.0 -0.4835329598
N  N34  1  0.17922000  0.85866000  0.61718000  1.0 -0.4835329598
N  N35  1  0.61718000  0.34494000  0.17922000  1.0 -0.4835329598
N  N36  1  0.63282000  0.90506000  0.39134000  1.0 -0.4835329598
N  N37  1  0.39134000  0.63282000  0.90506000  1.0 -0.4835329598
N  N38  1  0.17922000  0.61718000  0.34494000  1.0 -0.4835329598
N  N39  1  0.90506000  0.39134000  0.63282000  1.0 -0.4835329598
N  N40  1  0.34494000  0.17922000  0.61718000  1.0 -0.4835329598
N  N41  1  0.34494000  0.85866000  0.17922000  1.0 -0.4835329598
N  N42  1  0.85866000  0.61718000  0.17922000  1.0 -0.4835329598
N  N43  1  0.07078000  0.63282000  0.39134000  1.0 -0.4835329598
N  N44  1  0.90506000  0.07078000  0.39134000  1.0 -0.4835329598
N  N45  1  0.85866000  0.17922000  0.34494000  1.0 -0.4835329598
N  N46  1  0.07078000  0.39134000  0.90506000  1.0 -0.4835329598
N  N47  1  0.61718000  0.85866000  0.34494000  1.0 -0.4835329598
N  N48  1  0.85866000  0.34494000  0.61718000  1.0 -0.4835329598
N  N49  1  0.15594000  0.09522000  0.84064000  1.0 -0.4717127839
N  N50  1  0.09406000  0.15478000  0.34180000  1.0 -0.4717127839
N  N51  1  0.15478000  0.34180000  0.09406000  1.0 -0.4717127839
N  N52  1  0.34180000  0.09406000  0.15478000  1.0 -0.4717127839
N  N53  1  0.15478000  0.40936000  0.34180000  1.0 -0.4717127839
N  N54  1  0.09522000  0.90820000  0.84064000  1.0 -0.4717127839
N  N55  1  0.40936000  0.09406000  0.34180000  1.0 -0.4717127839
N  N56  1  0.90820000  0.15594000  0.84064000  1.0 -0.4717127839
N  N57  1  0.40936000  0.34180000  0.15478000  1.0 -0.4717127839
N  N58  1  0.90820000  0.84064000  0.09522000  1.0 -0.4717127839
N  N59  1  0.09522000  0.15594000  0.90820000  1.0 -0.4717127839
N  N60  1  0.15478000  0.09406000  0.40936000  1.0 -0.4717127839
N  N61  1  0.40936000  0.15478000  0.09406000  1.0 -0.4717127839
N  N62  1  0.90820000  0.09522000  0.15594000  1.0 -0.4717127839
N  N63  1  0.09406000  0.40936000  0.15478000  1.0 -0.4717127839
N  N64  1  0.15594000  0.90820000  0.09522000  1.0 -0.4717127839
N  N65  1  0.15594000  0.84064000  0.90820000  1.0 -0.4717127839
N  N66  1  0.84064000  0.09522000  0.90820000  1.0 -0.4717127839
N  N67  1  0.34180000  0.15478000  0.40936000  1.0 -0.4717127839
N  N68  1  0.09406000  0.34180000  0.40936000  1.0 -0.4717127839
N  N69  1  0.84064000  0.90820000  0.15594000  1.0 -0.4717127839
N  N70  1  0.34180000  0.40936000  0.09406000  1.0 -0.4717127839
N  N71  1  0.09522000  0.84064000  0.15594000  1.0 -0.4717127839
N  N72  1  0.84064000  0.15594000  0.09522000  1.0 -0.4717127839
N  N73  1  0.59406000  0.65478000  0.90936000  1.0 -0.4717127839
N  N74  1  0.65594000  0.59522000  0.40820000  1.0 -0.4717127839
N  N75  1  0.59522000  0.40820000  0.65594000  1.0 -0.4717127839
N  N76  1  0.40820000  0.65594000  0.59522000  1.0 -0.4717127839
N  N77  1  0.59522000  0.34064000  0.40820000  1.0 -0.4717127839
N  N78  1  0.65478000  0.84180000  0.90936000  1.0 -0.4717127839
N  N79  1  0.34064000  0.65594000  0.40820000  1.0 -0.4717127839
N  N80  1  0.84180000  0.59406000  0.90936000  1.0 -0.4717127839
N  N81  1  0.34064000  0.40820000  0.59522000  1.0 -0.4717127839
N  N82  1  0.84180000  0.90936000  0.65478000  1.0 -0.4717127839
N  N83  1  0.65478000  0.59406000  0.84180000  1.0 -0.4717127839
N  N84  1  0.59522000  0.65594000  0.34064000  1.0 -0.4717127839
N  N85  1  0.34064000  0.59522000  0.65594000  1.0 -0.4717127839
N  N86  1  0.84180000  0.65478000  0.59406000  1.0 -0.4717127839
N  N87  1  0.65594000  0.34064000  0.59522000  1.0 -0.4717127839
N  N88  1  0.59406000  0.84180000  0.65478000  1.0 -0.4717127839
N  N89  1  0.59406000  0.90936000  0.84180000  1.0 -0.4717127839
N  N90  1  0.90936000  0.65478000  0.84180000  1.0 -0.4717127839
N  N91  1  0.40820000  0.59522000  0.34064000  1.0 -0.4717127839
N  N92  1  0.65594000  0.40820000  0.34064000  1.0 -0.4717127839
N  N93  1  0.90936000  0.84180000  0.59406000  1.0 -0.4717127839
N  N94  1  0.40820000  0.34064000  0.65594000  1.0 -0.4717127839
N  N95  1  0.65478000  0.90936000  0.59406000  1.0 -0.4717127839
N  N96  1  0.90936000  0.59406000  0.65478000  1.0 -0.4717127839
N  N97  1  0.11562000  0.31640000  0.90308000  1.0 -0.2076098043
N  N98  1  0.13438000  0.93360000  0.58510000  1.0 -0.2076098043
N  N99  1  0.93360000  0.58510000  0.13438000  1.0 -0.2076098043
N  N100  1  0.58510000  0.13438000  0.93360000  1.0 -0.2076098043
N  N101  1  0.93360000  0.34692000  0.58510000  1.0 -0.2076098043
N  N102  1  0.31640000  0.66490000  0.90308000  1.0 -0.2076098043
N  N103  1  0.34692000  0.13438000  0.58510000  1.0 -0.2076098043
N  N104  1  0.66490000  0.11562000  0.90308000  1.0 -0.2076098043
N  N105  1  0.34692000  0.58510000  0.93360000  1.0 -0.2076098043
N  N106  1  0.66490000  0.90308000  0.31640000  1.0 -0.2076098043
N  N107  1  0.31640000  0.11562000  0.66490000  1.0 -0.2076098043
N  N108  1  0.93360000  0.13438000  0.34692000  1.0 -0.2076098043
N  N109  1  0.34692000  0.93360000  0.13438000  1.0 -0.2076098043
N  N110  1  0.66490000  0.31640000  0.11562000  1.0 -0.2076098043
N  N111  1  0.13438000  0.34692000  0.93360000  1.0 -0.2076098043
N  N112  1  0.11562000  0.66490000  0.31640000  1.0 -0.2076098043
N  N113  1  0.11562000  0.90308000  0.66490000  1.0 -0.2076098043
N  N114  1  0.90308000  0.31640000  0.66490000  1.0 -0.2076098043
N  N115  1  0.58510000  0.93360000  0.34692000  1.0 -0.2076098043
N  N116  1  0.13438000  0.58510000  0.34692000  1.0 -0.2076098043
N  N117  1  0.90308000  0.66490000  0.11562000  1.0 -0.2076098043
N  N118  1  0.58510000  0.34692000  0.13438000  1.0 -0.2076098043
N  N119  1  0.31640000  0.90308000  0.11562000  1.0 -0.2076098043
N  N120  1  0.90308000  0.11562000  0.31640000  1.0 -0.2076098043
N  N121  1  0.63438000  0.43360000  0.84692000  1.0 -0.2076098043
N  N122  1  0.61562000  0.81640000  0.16490000  1.0 -0.2076098043
N  N123  1  0.81640000  0.16490000  0.61562000  1.0 -0.2076098043
N  N124  1  0.16490000  0.61562000  0.81640000  1.0 -0.2076098043
N  N125  1  0.81640000  0.40308000  0.16490000  1.0 -0.2076098043
N  N126  1  0.43360000  0.08510000  0.84692000  1.0 -0.2076098043
N  N127  1  0.40308000  0.61562000  0.16490000  1.0 -0.2076098043
N  N128  1  0.08510000  0.63438000  0.84692000  1.0 -0.2076098043
N  N129  1  0.40308000  0.16490000  0.81640000  1.0 -0.2076098043
N  N130  1  0.08510000  0.84692000  0.43360000  1.0 -0.2076098043
N  N131  1  0.43360000  0.63438000  0.08510000  1.0 -0.2076098043
N  N132  1  0.81640000  0.61562000  0.40308000  1.0 -0.2076098043
N  N133  1  0.40308000  0.81640000  0.61562000  1.0 -0.2076098043
N  N134  1  0.08510000  0.43360000  0.63438000  1.0 -0.2076098043
N  N135  1  0.61562000  0.40308000  0.81640000  1.0 -0.2076098043
N  N136  1  0.63438000  0.08510000  0.43360000  1.0 -0.2076098043
N  N137  1  0.63438000  0.84692000  0.08510000  1.0 -0.2076098043
N  N138  1  0.84692000  0.43360000  0.08510000  1.0 -0.2076098043
N  N139  1  0.16490000  0.81640000  0.40308000  1.0 -0.2076098043
N  N140  1  0.61562000  0.16490000  0.40308000  1.0 -0.2076098043
N  N141  1  0.84692000  0.08510000  0.63438000  1.0 -0.2076098043
N  N142  1  0.16490000  0.40308000  0.61562000  1.0 -0.2076098043
N  N143  1  0.43360000  0.84692000  0.63438000  1.0 -0.2076098043
N  N144  1  0.84692000  0.63438000  0.43360000  1.0 -0.2076098043
N  N145  1  0.33273000  0.16729000  0.88415000  1.0 -0.2076098043
N  N146  1  0.91727000  0.08271000  0.63417000  1.0 -0.2076098043
N  N147  1  0.08271000  0.63417000  0.91727000  1.0 -0.2076098043
N  N148  1  0.63417000  0.91727000  0.08271000  1.0 -0.2076098043
N  N149  1  0.08271000  0.36585000  0.63417000  1.0 -0.2076098043
N  N150  1  0.16729000  0.61583000  0.88415000  1.0 -0.2076098043
N  N151  1  0.36585000  0.91727000  0.63417000  1.0 -0.2076098043
N  N152  1  0.61583000  0.33273000  0.88415000  1.0 -0.2076098043
N  N153  1  0.36585000  0.63417000  0.08271000  1.0 -0.2076098043
N  N154  1  0.61583000  0.88415000  0.16729000  1.0 -0.2076098043
N  N155  1  0.16729000  0.33273000  0.61583000  1.0 -0.2076098043
N  N156  1  0.08271000  0.91727000  0.36585000  1.0 -0.2076098043
N  N157  1  0.36585000  0.08271000  0.91727000  1.0 -0.2076098043
N  N158  1  0.61583000  0.16729000  0.33273000  1.0 -0.2076098043
N  N159  1  0.91727000  0.36585000  0.08271000  1.0 -0.2076098043
N  N160  1  0.33273000  0.61583000  0.16729000  1.0 -0.2076098043
N  N161  1  0.33273000  0.88415000  0.61583000  1.0 -0.2076098043
N  N162  1  0.88415000  0.16729000  0.61583000  1.0 -0.2076098043
N  N163  1  0.63417000  0.08271000  0.36585000  1.0 -0.2076098043
N  N164  1  0.91727000  0.63417000  0.36585000  1.0 -0.2076098043
N  N165  1  0.88415000  0.61583000  0.33273000  1.0 -0.2076098043
N  N166  1  0.63417000  0.36585000  0.91727000  1.0 -0.2076098043
N  N167  1  0.16729000  0.88415000  0.33273000  1.0 -0.2076098043
N  N168  1  0.88415000  0.33273000  0.16729000  1.0 -0.2076098043
N  N169  1  0.41727000  0.58271000  0.86585000  1.0 -0.2076098043
N  N170  1  0.83273000  0.66729000  0.11583000  1.0 -0.2076098043
N  N171  1  0.66729000  0.11583000  0.83273000  1.0 -0.2076098043
N  N172  1  0.11583000  0.83273000  0.66729000  1.0 -0.2076098043
N  N173  1  0.66729000  0.38415000  0.11583000  1.0 -0.2076098043
N  N174  1  0.58271000  0.13417000  0.86585000  1.0 -0.2076098043
N  N175  1  0.38415000  0.83273000  0.11583000  1.0 -0.2076098043
N  N176  1  0.13417000  0.41727000  0.86585000  1.0 -0.2076098043
N  N177  1  0.38415000  0.11583000  0.66729000  1.0 -0.2076098043
N  N178  1  0.13417000  0.86585000  0.58271000  1.0 -0.2076098043
N  N179  1  0.58271000  0.41727000  0.13417000  1.0 -0.2076098043
N  N180  1  0.66729000  0.83273000  0.38415000  1.0 -0.2076098043
N  N181  1  0.38415000  0.66729000  0.83273000  1.0 -0.2076098043
N  N182  1  0.13417000  0.58271000  0.41727000  1.0 -0.2076098043
N  N183  1  0.83273000  0.38415000  0.66729000  1.0 -0.2076098043
N  N184  1  0.41727000  0.13417000  0.58271000  1.0 -0.2076098043
N  N185  1  0.41727000  0.86585000  0.13417000  1.0 -0.2076098043
N  N186  1  0.86585000  0.58271000  0.13417000  1.0 -0.2076098043
N  N187  1  0.11583000  0.66729000  0.38415000  1.0 -0.2076098043
N  N188  1  0.83273000  0.11583000  0.38415000  1.0 -0.2076098043
N  N189  1  0.86585000  0.13417000  0.41727000  1.0 -0.2076098043
N  N190  1  0.11583000  0.38415000  0.83273000  1.0 -0.2076098043
N  N191  1  0.58271000  0.86585000  0.41727000  1.0 -0.2076098043
N  N192  1  0.86585000  0.41727000  0.58271000  1.0 -0.2076098043
N  N193  1  0.23822000  0.17072000  0.88874000  1.0 -0.3992983419
N  N194  1  0.01178000  0.07928000  0.54768000  1.0 -0.3992983419
N  N195  1  0.07928000  0.54768000  0.01178000  1.0 -0.3992983419
N  N196  1  0.54768000  0.01178000  0.07928000  1.0 -0.3992983419
N  N197  1  0.07928000  0.36126000  0.54768000  1.0 -0.3992983419
N  N198  1  0.17072000  0.70232000  0.88874000  1.0 -0.3992983419
N  N199  1  0.36126000  0.01178000  0.54768000  1.0 -0.3992983419
N  N200  1  0.70232000  0.23822000  0.88874000  1.0 -0.3992983419
N  N201  1  0.36126000  0.54768000  0.07928000  1.0 -0.3992983419
N  N202  1  0.70232000  0.88874000  0.17072000  1.0 -0.3992983419
N  N203  1  0.17072000  0.23822000  0.70232000  1.0 -0.3992983419
N  N204  1  0.07928000  0.01178000  0.36126000  1.0 -0.3992983419
N  N205  1  0.36126000  0.07928000  0.01178000  1.0 -0.3992983419
N  N206  1  0.70232000  0.17072000  0.23822000  1.0 -0.3992983419
N  N207  1  0.01178000  0.36126000  0.07928000  1.0 -0.3992983419
N  N208  1  0.23822000  0.70232000  0.17072000  1.0 -0.3992983419
N  N209  1  0.23822000  0.88874000  0.70232000  1.0 -0.3992983419
N  N210  1  0.88874000  0.17072000  0.70232000  1.0 -0.3992983419
N  N211  1  0.54768000  0.07928000  0.36126000  1.0 -0.3992983419
N  N212  1  0.01178000  0.54768000  0.36126000  1.0 -0.3992983419
N  N213  1  0.88874000  0.70232000  0.23822000  1.0 -0.3992983419
N  N214  1  0.54768000  0.36126000  0.01178000  1.0 -0.3992983419
N  N215  1  0.17072000  0.88874000  0.23822000  1.0 -0.3992983419
N  N216  1  0.88874000  0.23822000  0.17072000  1.0 -0.3992983419
N  N217  1  0.51178000  0.57928000  0.86126000  1.0 -0.3992983419
N  N218  1  0.73822000  0.67072000  0.20232000  1.0 -0.3992983419
N  N219  1  0.67072000  0.20232000  0.73822000  1.0 -0.3992983419
N  N220  1  0.20232000  0.73822000  0.67072000  1.0 -0.3992983419
N  N221  1  0.67072000  0.38874000  0.20232000  1.0 -0.3992983419
N  N222  1  0.57928000  0.04768000  0.86126000  1.0 -0.3992983419
N  N223  1  0.38874000  0.73822000  0.20232000  1.0 -0.3992983419
N  N224  1  0.04768000  0.51178000  0.86126000  1.0 -0.3992983419
N  N225  1  0.38874000  0.20232000  0.67072000  1.0 -0.3992983419
N  N226  1  0.04768000  0.86126000  0.57928000  1.0 -0.3992983419
N  N227  1  0.57928000  0.51178000  0.04768000  1.0 -0.3992983419
N  N228  1  0.67072000  0.73822000  0.38874000  1.0 -0.3992983419
N  N229  1  0.38874000  0.67072000  0.73822000  1.0 -0.3992983419
N  N230  1  0.04768000  0.57928000  0.51178000  1.0 -0.3992983419
N  N231  1  0.73822000  0.38874000  0.67072000  1.0 -0.3992983419
N  N232  1  0.51178000  0.04768000  0.57928000  1.0 -0.3992983419
N  N233  1  0.51178000  0.86126000  0.04768000  1.0 -0.3992983419
N  N234  1  0.86126000  0.57928000  0.04768000  1.0 -0.3992983419
N  N235  1  0.20232000  0.67072000  0.38874000  1.0 -0.3992983419
N  N236  1  0.73822000  0.20232000  0.38874000  1.0 -0.3992983419
N  N237  1  0.86126000  0.04768000  0.51178000  1.0 -0.3992983419
N  N238  1  0.20232000  0.38874000  0.73822000  1.0 -0.3992983419
N  N239  1  0.57928000  0.86126000  0.51178000  1.0 -0.3992983419
N  N240  1  0.86126000  0.51178000  0.57928000  1.0 -0.3992983419
N  N241  1  0.20564000  0.22430000  0.90274000  1.0 -0.3992983419
N  N242  1  0.04436000  0.02570000  0.58268000  1.0 -0.3992983419
N  N243  1  0.02570000  0.58268000  0.04436000  1.0 -0.3992983419
N  N244  1  0.58268000  0.04436000  0.02570000  1.0 -0.3992983419
N  N245  1  0.02570000  0.34726000  0.58268000  1.0 -0.3992983419
N  N246  1  0.22430000  0.66732000  0.90274000  1.0 -0.3992983419
N  N247  1  0.34726000  0.04436000  0.58268000  1.0 -0.3992983419
N  N248  1  0.66732000  0.20564000  0.90274000  1.0 -0.3992983419
N  N249  1  0.34726000  0.58268000  0.02570000  1.0 -0.3992983419
N  N250  1  0.66732000  0.90274000  0.22430000  1.0 -0.3992983419
N  N251  1  0.22430000  0.20564000  0.66732000  1.0 -0.3992983419
N  N252  1  0.02570000  0.04436000  0.34726000  1.0 -0.3992983419
N  N253  1  0.34726000  0.02570000  0.04436000  1.0 -0.3992983419
N  N254  1  0.66732000  0.22430000  0.20564000  1.0 -0.3992983419
N  N255  1  0.04436000  0.34726000  0.02570000  1.0 -0.3992983419
N  N256  1  0.20564000  0.66732000  0.22430000  1.0 -0.3992983419
N  N257  1  0.20564000  0.90274000  0.66732000  1.0 -0.3992983419
N  N258  1  0.90274000  0.22430000  0.66732000  1.0 -0.3992983419
N  N259  1  0.58268000  0.02570000  0.34726000  1.0 -0.3992983419
N  N260  1  0.04436000  0.58268000  0.34726000  1.0 -0.3992983419
N  N261  1  0.90274000  0.66732000  0.20564000  1.0 -0.3992983419
N  N262  1  0.58268000  0.34726000  0.04436000  1.0 -0.3992983419
N  N263  1  0.22430000  0.90274000  0.20564000  1.0 -0.3992983419
N  N264  1  0.90274000  0.20564000  0.22430000  1.0 -0.3992983419
N  N265  1  0.54436000  0.52570000  0.84726000  1.0 -0.3992983419
N  N266  1  0.70564000  0.72430000  0.16732000  1.0 -0.3992983419
N  N267  1  0.72430000  0.16732000  0.70564000  1.0 -0.3992983419
N  N268  1  0.16732000  0.70564000  0.72430000  1.0 -0.3992983419
N  N269  1  0.72430000  0.40274000  0.16732000  1.0 -0.3992983419
N  N270  1  0.52570000  0.08268000  0.84726000  1.0 -0.3992983419
N  N271  1  0.40274000  0.70564000  0.16732000  1.0 -0.3992983419
N  N272  1  0.08268000  0.54436000  0.84726000  1.0 -0.3992983419
N  N273  1  0.40274000  0.16732000  0.72430000  1.0 -0.3992983419
N  N274  1  0.08268000  0.84726000  0.52570000  1.0 -0.3992983419
N  N275  1  0.52570000  0.54436000  0.08268000  1.0 -0.3992983419
N  N276  1  0.72430000  0.70564000  0.40274000  1.0 -0.3992983419
N  N277  1  0.40274000  0.72430000  0.70564000  1.0 -0.3992983419
N  N278  1  0.08268000  0.52570000  0.54436000  1.0 -0.3992983419
N  N279  1  0.70564000  0.40274000  0.72430000  1.0 -0.3992983419
N  N280  1  0.54436000  0.08268000  0.52570000  1.0 -0.3992983419
N  N281  1  0.54436000  0.84726000  0.08268000  1.0 -0.3992983419
N  N282  1  0.84726000  0.52570000  0.08268000  1.0 -0.3992983419
N  N283  1  0.16732000  0.72430000  0.40274000  1.0 -0.3992983419
N  N284  1  0.70564000  0.16732000  0.40274000  1.0 -0.3992983419
N  N285  1  0.84726000  0.08268000  0.54436000  1.0 -0.3992983419
N  N286  1  0.16732000  0.40274000  0.70564000  1.0 -0.3992983419
N  N287  1  0.52570000  0.84726000  0.54436000  1.0 -0.3992983419
N  N288  1  0.84726000  0.54436000  0.52570000  1.0 -0.3992983419
N  N289  1  0.17529000  0.19709000  0.89919000  1.0 -0.3992983419
N  N290  1  0.07471000  0.05291000  0.52157000  1.0 -0.3992983419
N  N291  1  0.05291000  0.52157000  0.07471000  1.0 -0.3992983419
N  N292  1  0.52157000  0.07471000  0.05291000  1.0 -0.3992983419
N  N293  1  0.05291000  0.35081000  0.52157000  1.0 -0.3992983419
N  N294  1  0.19709000  0.72843000  0.89919000  1.0 -0.3992983419
N  N295  1  0.35081000  0.07471000  0.52157000  1.0 -0.3992983419
N  N296  1  0.72843000  0.17529000  0.89919000  1.0 -0.3992983419
N  N297  1  0.35081000  0.52157000  0.05291000  1.0 -0.3992983419
N  N298  1  0.72843000  0.89919000  0.19709000  1.0 -0.3992983419
N  N299  1  0.19709000  0.17529000  0.72843000  1.0 -0.3992983419
N  N300  1  0.05291000  0.07471000  0.35081000  1.0 -0.3992983419
N  N301  1  0.35081000  0.05291000  0.07471000  1.0 -0.3992983419
N  N302  1  0.72843000  0.19709000  0.17529000  1.0 -0.3992983419
N  N303  1  0.07471000  0.35081000  0.05291000  1.0 -0.3992983419
N  N304  1  0.17529000  0.72843000  0.19709000  1.0 -0.3992983419
N  N305  1  0.17529000  0.89919000  0.72843000  1.0 -0.3992983419
N  N306  1  0.89919000  0.19709000  0.72843000  1.0 -0.3992983419
N  N307  1  0.52157000  0.05291000  0.35081000  1.0 -0.3992983419
N  N308  1  0.07471000  0.52157000  0.35081000  1.0 -0.3992983419
N  N309  1  0.89919000  0.72843000  0.17529000  1.0 -0.3992983419
N  N310  1  0.52157000  0.35081000  0.07471000  1.0 -0.3992983419
N  N311  1  0.19709000  0.89919000  0.17529000  1.0 -0.3992983419
N  N312  1  0.89919000  0.17529000  0.19709000  1.0 -0.3992983419
N  N313  1  0.57471000  0.55291000  0.85081000  1.0 -0.3992983419
N  N314  1  0.67529000  0.69709000  0.22843000  1.0 -0.3992983419
N  N315  1  0.69709000  0.22843000  0.67529000  1.0 -0.3992983419
N  N316  1  0.22843000  0.67529000  0.69709000  1.0 -0.3992983419
N  N317  1  0.69709000  0.39919000  0.22843000  1.0 -0.3992983419
N  N318  1  0.55291000  0.02157000  0.85081000  1.0 -0.3992983419
N  N319  1  0.39919000  0.67529000  0.22843000  1.0 -0.3992983419
N  N320  1  0.02157000  0.57471000  0.85081000  1.0 -0.3992983419
N  N321  1  0.39919000  0.22843000  0.69709000  1.0 -0.3992983419
N  N322  1  0.02157000  0.85081000  0.55291000  1.0 -0.3992983419
N  N323  1  0.55291000  0.57471000  0.02157000  1.0 -0.3992983419
N  N324  1  0.69709000  0.67529000  0.39919000  1.0 -0.3992983419
N  N325  1  0.39919000  0.69709000  0.67529000  1.0 -0.3992983419
N  N326  1  0.02157000  0.55291000  0.57471000  1.0 -0.3992983419
N  N327  1  0.67529000  0.39919000  0.69709000  1.0 -0.3992983419
N  N328  1  0.57471000  0.02157000  0.55291000  1.0 -0.3992983419
N  N329  1  0.57471000  0.85081000  0.02157000  1.0 -0.3992983419
N  N330  1  0.85081000  0.55291000  0.02157000  1.0 -0.3992983419
N  N331  1  0.22843000  0.69709000  0.39919000  1.0 -0.3992983419
N  N332  1  0.67529000  0.22843000  0.39919000  1.0 -0.3992983419
N  N333  1  0.85081000  0.02157000  0.57471000  1.0 -0.3992983419
N  N334  1  0.22843000  0.39919000  0.67529000  1.0 -0.3992983419
N  N335  1  0.55291000  0.85081000  0.57471000  1.0 -0.3992983419
N  N336  1  0.85081000  0.57471000  0.55291000  1.0 -0.3992983419
N  N337  1  0.17631000  0.12275000  0.87221000  1.0 -0.2076098043
N  N338  1  0.07369000  0.12725000  0.42127000  1.0 -0.2076098043
N  N339  1  0.12725000  0.42127000  0.07369000  1.0 -0.2038929699
N  N340  1  0.42127000  0.07369000  0.12725000  1.0 -0.2076098043
N  N341  1  0.12725000  0.37779000  0.42127000  1.0 -0.2076098043
N  N342  1  0.12275000  0.82873000  0.87221000  1.0 -0.2076098043
N  N343  1  0.37779000  0.07369000  0.42127000  1.0 -0.2076098043
N  N344  1  0.82873000  0.17631000  0.87221000  1.0 -0.2076098043
N  N345  1  0.37779000  0.42127000  0.12725000  1.0 -0.2076098043
N  N346  1  0.82873000  0.87221000  0.12275000  1.0 -0.2076098043
N  N347  1  0.12275000  0.17631000  0.82873000  1.0 -0.2076098043
N  N348  1  0.12725000  0.07369000  0.37779000  1.0 -0.2076098043
N  N349  1  0.37779000  0.12725000  0.07369000  1.0 -0.2076098043
N  N350  1  0.82873000  0.12275000  0.17631000  1.0 -0.2076098043
N  N351  1  0.07369000  0.37779000  0.12725000  1.0 -0.2076098043
N  N352  1  0.17631000  0.82873000  0.12275000  1.0 -0.2076098043
N  N353  1  0.17631000  0.87221000  0.82873000  1.0 -0.2076098043
N  N354  1  0.87221000  0.12275000  0.82873000  1.0 -0.2076098043
N  N355  1  0.42127000  0.12725000  0.37779000  1.0 -0.2076098043
N  N356  1  0.07369000  0.42127000  0.37779000  1.0 -0.2076098043
N  N357  1  0.87221000  0.82873000  0.17631000  1.0 -0.2038929699
N  N358  1  0.42127000  0.37779000  0.07369000  1.0 -0.2076098043
N  N359  1  0.12275000  0.87221000  0.17631000  1.0 -0.2076098043
N  N360  1  0.87221000  0.17631000  0.12275000  1.0 -0.2076098043
N  N361  1  0.57369000  0.62725000  0.87779000  1.0 -0.2076098043
N  N362  1  0.67631000  0.62275000  0.32873000  1.0 -0.2076098043
N  N363  1  0.62275000  0.32873000  0.67631000  1.0 -0.2076098043
N  N364  1  0.32873000  0.67631000  0.62275000  1.0 -0.2076098043
N  N365  1  0.62275000  0.37221000  0.32873000  1.0 -0.2076098043
N  N366  1  0.62725000  0.92127000  0.87779000  1.0 -0.2076098043
N  N367  1  0.37221000  0.67631000  0.32873000  1.0 -0.2076098043
N  N368  1  0.92127000  0.57369000  0.87779000  1.0 -0.2076098043
N  N369  1  0.37221000  0.32873000  0.62275000  1.0 -0.2076098043
N  N370  1  0.92127000  0.87779000  0.62725000  1.0 -0.2076098043
N  N371  1  0.62725000  0.57369000  0.92127000  1.0 -0.2076098043
N  N372  1  0.62275000  0.67631000  0.37221000  1.0 -0.2076098043
N  N373  1  0.37221000  0.62275000  0.67631000  1.0 -0.2076098043
N  N374  1  0.92127000  0.62725000  0.57369000  1.0 -0.2076098043
N  N375  1  0.67631000  0.37221000  0.62275000  1.0 -0.2076098043
N  N376  1  0.57369000  0.92127000  0.62725000  1.0 -0.2076098043
N  N377  1  0.57369000  0.87779000  0.92127000  1.0 -0.2076098043
N  N378  1  0.87779000  0.62725000  0.92127000  1.0 -0.2076098043
N  N379  1  0.32873000  0.62275000  0.37221000  1.0 -0.2076098043
N  N380  1  0.67631000  0.32873000  0.37221000  1.0 -0.2076098043
N  N381  1  0.87779000  0.92127000  0.57369000  1.0 -0.2076098043
N  N382  1  0.32873000  0.37221000  0.67631000  1.0 -0.2076098043
N  N383  1  0.62725000  0.87779000  0.57369000  1.0 -0.2076098043
N  N384  1  0.87779000  0.57369000  0.62725000  1.0 -0.2076098043
N  N385  1  0.07827000  0.13029000  0.87003000  1.0 -0.2038929699
N  N386  1  0.17173000  0.11971000  0.32859000  1.0 -0.2038929699
N  N387  1  0.11971000  0.32859000  0.17173000  1.0 -0.2038929699
N  N388  1  0.32859000  0.17173000  0.11971000  1.0 -0.2038929699
N  N389  1  0.11971000  0.37997000  0.32859000  1.0 -0.2038929699
N  N390  1  0.13029000  0.92141000  0.87003000  1.0 -0.2038929699
N  N391  1  0.37997000  0.17173000  0.32859000  1.0 -0.2038929699
N  N392  1  0.92141000  0.07827000  0.87003000  1.0 -0.2038929699
N  N393  1  0.37997000  0.32859000  0.11971000  1.0 -0.2038929699
N  N394  1  0.92141000  0.87003000  0.13029000  1.0 -0.2038929699
N  N395  1  0.13029000  0.07827000  0.92141000  1.0 -0.2038929699
N  N396  1  0.11971000  0.17173000  0.37997000  1.0 -0.2038929699
N  N397  1  0.37997000  0.11971000  0.17173000  1.0 -0.2038929699
N  N398  1  0.92141000  0.13029000  0.07827000  1.0 -0.2038929699
N  N399  1  0.17173000  0.37997000  0.11971000  1.0 -0.2038929699
N  N400  1  0.07827000  0.92141000  0.13029000  1.0 -0.2038929699
N  N401  1  0.07827000  0.87003000  0.92141000  1.0 -0.2038929699
N  N402  1  0.87003000  0.13029000  0.92141000  1.0 -0.2038929699
N  N403  1  0.32859000  0.11971000  0.37997000  1.0 -0.2038929699
N  N404  1  0.17173000  0.32859000  0.37997000  1.0 -0.2038929699
N  N405  1  0.87003000  0.92141000  0.07827000  1.0 -0.2038929699
N  N406  1  0.32859000  0.37997000  0.17173000  1.0 -0.2038929699
N  N407  1  0.13029000  0.87003000  0.07827000  1.0 -0.2038929699
N  N408  1  0.87003000  0.07827000  0.13029000  1.0 -0.2038929699
N  N409  1  0.67173000  0.61971000  0.87997000  1.0 -0.2038929699
N  N410  1  0.57827000  0.63029000  0.42141000  1.0 -0.2038929699
N  N411  1  0.63029000  0.42141000  0.57827000  1.0 -0.2038929699
N  N412  1  0.42141000  0.57827000  0.63029000  1.0 -0.2038929699
N  N413  1  0.63029000  0.37003000  0.42141000  1.0 -0.2038929699
N  N414  1  0.61971000  0.82859000  0.87997000  1.0 -0.2038929699
N  N415  1  0.37003000  0.57827000  0.42141000  1.0 -0.2038929699
N  N416  1  0.82859000  0.67173000  0.87997000  1.0 -0.2038929699
N  N417  1  0.37003000  0.42141000  0.63029000  1.0 -0.2038929699
N  N418  1  0.82859000  0.87997000  0.61971000  1.0 -0.2038929699
N  N419  1  0.61971000  0.67173000  0.82859000  1.0 -0.2038929699
N  N420  1  0.63029000  0.57827000  0.37003000  1.0 -0.2038929699
N  N421  1  0.37003000  0.63029000  0.57827000  1.0 -0.2038929699
N  N422  1  0.82859000  0.61971000  0.67173000  1.0 -0.2038929699
N  N423  1  0.57827000  0.37003000  0.63029000  1.0 -0.2038929699
N  N424  1  0.67173000  0.82859000  0.61971000  1.0 -0.2038929699
N  N425  1  0.67173000  0.87997000  0.82859000  1.0 -0.2038929699
N  N426  1  0.87997000  0.61971000  0.82859000  1.0 -0.2038929699
N  N427  1  0.42141000  0.63029000  0.37003000  1.0 -0.2038929699
N  N428  1  0.57827000  0.42141000  0.37003000  1.0 -0.2038929699
N  N429  1  0.87997000  0.82859000  0.67173000  1.0 -0.2038929699
N  N430  1  0.42141000  0.37003000  0.57827000  1.0 -0.2038929699
N  N431  1  0.61971000  0.87997000  0.67173000  1.0 -0.2038929699
N  N432  1  0.87997000  0.67173000  0.61971000  1.0 -0.2076098043
N  N433  1  0.98333000  0.13887000  0.95485000  1.0 -0.4066026125
N  N434  1  0.26667000  0.11113000  0.32705000  1.0 -0.4066026125
N  N435  1  0.11113000  0.32705000  0.26667000  1.0 -0.4066026125
N  N436  1  0.32705000  0.26667000  0.11113000  1.0 -0.4066026125
N  N437  1  0.11113000  0.29515000  0.32705000  1.0 -0.4066026125
N  N438  1  0.13887000  0.92295000  0.95485000  1.0 -0.3992983419
N  N439  1  0.29515000  0.26667000  0.32705000  1.0 -0.4066026125
N  N440  1  0.92295000  0.98333000  0.95485000  1.0 -0.4066026125
N  N441  1  0.29515000  0.32705000  0.11113000  1.0 -0.4066026125
N  N442  1  0.92295000  0.95485000  0.13887000  1.0 -0.4066026125
N  N443  1  0.13887000  0.98333000  0.92295000  1.0 -0.4066026125
N  N444  1  0.11113000  0.26667000  0.29515000  1.0 -0.4066026125
N  N445  1  0.29515000  0.11113000  0.26667000  1.0 -0.4066026125
N  N446  1  0.92295000  0.13887000  0.98333000  1.0 -0.4066026125
N  N447  1  0.26667000  0.29515000  0.11113000  1.0 -0.4066026125
N  N448  1  0.98333000  0.92295000  0.13887000  1.0 -0.4066026125
N  N449  1  0.98333000  0.95485000  0.92295000  1.0 -0.4066026125
N  N450  1  0.95485000  0.13887000  0.92295000  1.0 -0.4066026125
N  N451  1  0.32705000  0.11113000  0.29515000  1.0 -0.4066026125
N  N452  1  0.26667000  0.32705000  0.29515000  1.0 -0.3992983419
N  N453  1  0.95485000  0.92295000  0.98333000  1.0 -0.4066026125
N  N454  1  0.32705000  0.29515000  0.26667000  1.0 -0.3992983419
N  N455  1  0.13887000  0.95485000  0.98333000  1.0 -0.3992983419
N  N456  1  0.95485000  0.98333000  0.13887000  1.0 -0.4066026125
N  N457  1  0.76667000  0.61113000  0.79515000  1.0 -0.4066026125
N  N458  1  0.48333000  0.63887000  0.42295000  1.0 -0.4066026125
N  N459  1  0.63887000  0.42295000  0.48333000  1.0 -0.4066026125
N  N460  1  0.42295000  0.48333000  0.63887000  1.0 -0.4066026125
N  N461  1  0.63887000  0.45485000  0.42295000  1.0 -0.4066026125
N  N462  1  0.61113000  0.82705000  0.79515000  1.0 -0.3992983419
N  N463  1  0.45485000  0.48333000  0.42295000  1.0 -0.4066026125
N  N464  1  0.82705000  0.76667000  0.79515000  1.0 -0.4066026125
N  N465  1  0.45485000  0.42295000  0.63887000  1.0 -0.4066026125
N  N466  1  0.82705000  0.79515000  0.61113000  1.0 -0.4066026125
N  N467  1  0.61113000  0.76667000  0.82705000  1.0 -0.4066026125
N  N468  1  0.63887000  0.48333000  0.45485000  1.0 -0.4066026125
N  N469  1  0.45485000  0.63887000  0.48333000  1.0 -0.4066026125
N  N470  1  0.82705000  0.61113000  0.76667000  1.0 -0.4066026125
N  N471  1  0.48333000  0.45485000  0.63887000  1.0 -0.4066026125
N  N472  1  0.76667000  0.82705000  0.61113000  1.0 -0.4066026125
N  N473  1  0.76667000  0.79515000  0.82705000  1.0 -0.4066026125
N  N474  1  0.79515000  0.61113000  0.82705000  1.0 -0.4066026125
N  N475  1  0.42295000  0.63887000  0.45485000  1.0 -0.4066026125
N  N476  1  0.48333000  0.42295000  0.45485000  1.0 -0.4066026125
N  N477  1  0.79515000  0.82705000  0.76667000  1.0 -0.4066026125
N  N478  1  0.42295000  0.45485000  0.48333000  1.0 -0.4066026125
N  N479  1  0.61113000  0.79515000  0.76667000  1.0 -0.4066026125
N  N480  1  0.79515000  0.76667000  0.61113000  1.0 -0.4066026125
