# DDEC6 charges by PACMAN v1.1 (https://github.com/mtap-research/PACMAN-charge/)
data_LAFROB_FSR_pacman
_symmetry_space_group_name_H-M   'P 1'
_cell_length_a   45.39410000
_cell_length_b   45.39410000
_cell_length_c   45.39410000
_cell_angle_alpha   60.00000000
_cell_angle_beta   60.00000000
_cell_angle_gamma   60.00000000
_symmetry_Int_Tables_number   1
_chemical_formula_structural   CoH16C26(SN5)2
_chemical_formula_sum   'Co48 H768 C1248 S96 N480'
_cell_volume   66142.89998178
_cell_formula_units_Z   48
loop_
 _symmetry_equiv_pos_site_id
 _symmetry_equiv_pos_as_xyz
  1  'x, y, z'
loop_
 _atom_site_type_symbol
 _atom_site_label
 _atom_site_symmetry_multiplicity
 _atom_site_fract_x
 _atom_site_fract_y
 _atom_site_fract_z
 _atom_site_occupancy
 _atom_site_charge
Co  Co1  1  0.12500000  0.36202000  0.62500000  1.0 0.6702680316
Co  Co2  1  0.12500000  0.88798000  0.36202000  1.0 0.6702680316
Co  Co3  1  0.88798000  0.36202000  0.12500000  1.0 0.6702680316
Co  Co4  1  0.36202000  0.12500000  0.88798000  1.0 0.6702680316
Co  Co5  1  0.88798000  0.62500000  0.36202000  1.0 0.6702680316
Co  Co6  1  0.36202000  0.88798000  0.62500000  1.0 0.6702680316
Co  Co7  1  0.62500000  0.12500000  0.36202000  1.0 0.6702680316
Co  Co8  1  0.88798000  0.12500000  0.62500000  1.0 0.6702680316
Co  Co9  1  0.62500000  0.36202000  0.88798000  1.0 0.6702680316
Co  Co10  1  0.62500000  0.88798000  0.12500000  1.0 0.6702680316
Co  Co11  1  0.12500000  0.62500000  0.88798000  1.0 0.6702680316
Co  Co12  1  0.36202000  0.62500000  0.12500000  1.0 0.6702680316
Co  Co13  1  0.62500000  0.38798000  0.12500000  1.0 0.6702680316
Co  Co14  1  0.62500000  0.86202000  0.38798000  1.0 0.6702680316
Co  Co15  1  0.86202000  0.38798000  0.62500000  1.0 0.6702680316
Co  Co16  1  0.38798000  0.62500000  0.86202000  1.0 0.6702680316
Co  Co17  1  0.86202000  0.12500000  0.38798000  1.0 0.6702680316
Co  Co18  1  0.38798000  0.86202000  0.12500000  1.0 0.6702680316
Co  Co19  1  0.12500000  0.62500000  0.38798000  1.0 0.6702680316
Co  Co20  1  0.86202000  0.62500000  0.12500000  1.0 0.6702680316
Co  Co21  1  0.12500000  0.38798000  0.86202000  1.0 0.6702680316
Co  Co22  1  0.12500000  0.86202000  0.62500000  1.0 0.6702680316
Co  Co23  1  0.62500000  0.12500000  0.86202000  1.0 0.6702680316
Co  Co24  1  0.38798000  0.12500000  0.62500000  1.0 0.6702680316
Co  Co25  1  0.12312000  0.37688000  0.37688000  1.0 0.6640189056
Co  Co26  1  0.12688000  0.87312000  0.12688000  1.0 0.6640189056
Co  Co27  1  0.87312000  0.12688000  0.12688000  1.0 0.6702680316
Co  Co28  1  0.12688000  0.12688000  0.87312000  1.0 0.6640189056
Co  Co29  1  0.87312000  0.87312000  0.12688000  1.0 0.6640189056
Co  Co30  1  0.37688000  0.12312000  0.37688000  1.0 0.6640189056
Co  Co31  1  0.12312000  0.12312000  0.37688000  1.0 0.6640189056
Co  Co32  1  0.87312000  0.12688000  0.87312000  1.0 0.6640189056
Co  Co33  1  0.37688000  0.12312000  0.12312000  1.0 0.6702680316
Co  Co34  1  0.12312000  0.37688000  0.12312000  1.0 0.6640189056
Co  Co35  1  0.12688000  0.87312000  0.87312000  1.0 0.6702680316
Co  Co36  1  0.37688000  0.37688000  0.12312000  1.0 0.6640189056
Co  Co37  1  0.62688000  0.37312000  0.37312000  1.0 0.6640189056
Co  Co38  1  0.62312000  0.87688000  0.62312000  1.0 0.6640189056
Co  Co39  1  0.87688000  0.62312000  0.62312000  1.0 0.6640189056
Co  Co40  1  0.62312000  0.62312000  0.87688000  1.0 0.6640189056
Co  Co41  1  0.87688000  0.87688000  0.62312000  1.0 0.6640189056
Co  Co42  1  0.37312000  0.62688000  0.37312000  1.0 0.6640189056
Co  Co43  1  0.62688000  0.62688000  0.37312000  1.0 0.6640189056
Co  Co44  1  0.87688000  0.62312000  0.87688000  1.0 0.6702680316
Co  Co45  1  0.37312000  0.62688000  0.62688000  1.0 0.6640189056
Co  Co46  1  0.62688000  0.37312000  0.62688000  1.0 0.6640189056
Co  Co47  1  0.62312000  0.87688000  0.87688000  1.0 0.6640189056
Co  Co48  1  0.37312000  0.37312000  0.62688000  1.0 0.6702680316
H  H1  1  0.08070000  0.35650000  0.59810000  1.0 0.1083395326
H  H2  1  0.16930000  0.89350000  0.28530000  1.0 0.1083395326
H  H3  1  0.89350000  0.28530000  0.16930000  1.0 0.1083395326
H  H4  1  0.28530000  0.16930000  0.89350000  1.0 0.1083395326
H  H5  1  0.89350000  0.65190000  0.28530000  1.0 0.1083395326
H  H6  1  0.35650000  0.96470000  0.59810000  1.0 0.1083395326
H  H7  1  0.65190000  0.16930000  0.28530000  1.0 0.1083395326
H  H8  1  0.96470000  0.08070000  0.59810000  1.0 0.1083395326
H  H9  1  0.65190000  0.28530000  0.89350000  1.0 0.1083395326
H  H10  1  0.96470000  0.59810000  0.35650000  1.0 0.1083395326
H  H11  1  0.35650000  0.08070000  0.96470000  1.0 0.1083395326
H  H12  1  0.89350000  0.16930000  0.65190000  1.0 0.1083395326
H  H13  1  0.65190000  0.89350000  0.16930000  1.0 0.1083395326
H  H14  1  0.96470000  0.35650000  0.08070000  1.0 0.1083395326
H  H15  1  0.16930000  0.65190000  0.89350000  1.0 0.1083395326
H  H16  1  0.08070000  0.96470000  0.35650000  1.0 0.1083395326
H  H17  1  0.08070000  0.59810000  0.96470000  1.0 0.1083395326
H  H18  1  0.59810000  0.35650000  0.96470000  1.0 0.1083395326
H  H19  1  0.28530000  0.89350000  0.65190000  1.0 0.1083395326
H  H20  1  0.16930000  0.28530000  0.65190000  1.0 0.1083395326
H  H21  1  0.59810000  0.96470000  0.08070000  1.0 0.1083395326
H  H22  1  0.28530000  0.65190000  0.16930000  1.0 0.1083395326
H  H23  1  0.35650000  0.59810000  0.08070000  1.0 0.1083395326
H  H24  1  0.59810000  0.08070000  0.35650000  1.0 0.1083395326
H  H25  1  0.66930000  0.39350000  0.15190000  1.0 0.1083395326
H  H26  1  0.58070000  0.85650000  0.46470000  1.0 0.1083395326
H  H27  1  0.85650000  0.46470000  0.58070000  1.0 0.1083395326
H  H28  1  0.46470000  0.58070000  0.85650000  1.0 0.1083395326
H  H29  1  0.85650000  0.09810000  0.46470000  1.0 0.1083395326
H  H30  1  0.39350000  0.78530000  0.15190000  1.0 0.1083395326
H  H31  1  0.09810000  0.58070000  0.46470000  1.0 0.1083395326
H  H32  1  0.78530000  0.66930000  0.15190000  1.0 0.1083395326
H  H33  1  0.09810000  0.46470000  0.85650000  1.0 0.1083395326
H  H34  1  0.78530000  0.15190000  0.39350000  1.0 0.1083395326
H  H35  1  0.39350000  0.66930000  0.78530000  1.0 0.1083395326
H  H36  1  0.85650000  0.58070000  0.09810000  1.0 0.1083395326
H  H37  1  0.09810000  0.85650000  0.58070000  1.0 0.1083395326
H  H38  1  0.78530000  0.39350000  0.66930000  1.0 0.1083395326
H  H39  1  0.58070000  0.09810000  0.85650000  1.0 0.1083395326
H  H40  1  0.66930000  0.78530000  0.39350000  1.0 0.1083395326
H  H41  1  0.66930000  0.15190000  0.78530000  1.0 0.1083395326
H  H42  1  0.15190000  0.39350000  0.78530000  1.0 0.1083395326
H  H43  1  0.46470000  0.85650000  0.09810000  1.0 0.1083395326
H  H44  1  0.58070000  0.46470000  0.09810000  1.0 0.1083395326
H  H45  1  0.15190000  0.78530000  0.66930000  1.0 0.1083395326
H  H46  1  0.46470000  0.09810000  0.58070000  1.0 0.1083395326
H  H47  1  0.39350000  0.15190000  0.66930000  1.0 0.1083395326
H  H48  1  0.15190000  0.66930000  0.39350000  1.0 0.1083395326
H  H49  1  0.13760000  0.32160000  0.51280000  1.0 0.1255018753
H  H50  1  0.11240000  0.92840000  0.22200000  1.0 0.1255018753
H  H51  1  0.92840000  0.22200000  0.11240000  1.0 0.1255018753
H  H52  1  0.22200000  0.11240000  0.92840000  1.0 0.1255018753
H  H53  1  0.92840000  0.73720000  0.22200000  1.0 0.1255018753
H  H54  1  0.32160000  0.02800000  0.51280000  1.0 0.1255018753
H  H55  1  0.73720000  0.11240000  0.22200000  1.0 0.1255018753
H  H56  1  0.02800000  0.13760000  0.51280000  1.0 0.1255018753
H  H57  1  0.73720000  0.22200000  0.92840000  1.0 0.1255018753
H  H58  1  0.02800000  0.51280000  0.32160000  1.0 0.1255018753
H  H59  1  0.32160000  0.13760000  0.02800000  1.0 0.1225848891
H  H60  1  0.92840000  0.11240000  0.73720000  1.0 0.1255018753
H  H61  1  0.73720000  0.92840000  0.11240000  1.0 0.1255018753
H  H62  1  0.02800000  0.32160000  0.13760000  1.0 0.1255018753
H  H63  1  0.11240000  0.73720000  0.92840000  1.0 0.1255018753
H  H64  1  0.13760000  0.02800000  0.32160000  1.0 0.1255018753
H  H65  1  0.13760000  0.51280000  0.02800000  1.0 0.1255018753
H  H66  1  0.51280000  0.32160000  0.02800000  1.0 0.1255018753
H  H67  1  0.22200000  0.92840000  0.73720000  1.0 0.1255018753
H  H68  1  0.11240000  0.22200000  0.73720000  1.0 0.1255018753
H  H69  1  0.51280000  0.02800000  0.13760000  1.0 0.1255018753
H  H70  1  0.22200000  0.73720000  0.11240000  1.0 0.1255018753
H  H71  1  0.32160000  0.51280000  0.13760000  1.0 0.1255018753
H  H72  1  0.51280000  0.13760000  0.32160000  1.0 0.1255018753
H  H73  1  0.61240000  0.42840000  0.23720000  1.0 0.1255018753
H  H74  1  0.63760000  0.82160000  0.52800000  1.0 0.1255018753
H  H75  1  0.82160000  0.52800000  0.63760000  1.0 0.1255018753
H  H76  1  0.52800000  0.63760000  0.82160000  1.0 0.1255018753
H  H77  1  0.82160000  0.01280000  0.52800000  1.0 0.1225848891
H  H78  1  0.42840000  0.72200000  0.23720000  1.0 0.1255018753
H  H79  1  0.01280000  0.63760000  0.52800000  1.0 0.1225848891
H  H80  1  0.72200000  0.61240000  0.23720000  1.0 0.1225848891
H  H81  1  0.01280000  0.52800000  0.82160000  1.0 0.1225848891
H  H82  1  0.72200000  0.23720000  0.42840000  1.0 0.1255018753
H  H83  1  0.42840000  0.61240000  0.72200000  1.0 0.1255018753
H  H84  1  0.82160000  0.63760000  0.01280000  1.0 0.1255018753
H  H85  1  0.01280000  0.82160000  0.63760000  1.0 0.1255018753
H  H86  1  0.72200000  0.42840000  0.61240000  1.0 0.1255018753
H  H87  1  0.63760000  0.01280000  0.82160000  1.0 0.1225848891
H  H88  1  0.61240000  0.72200000  0.42840000  1.0 0.1255018753
H  H89  1  0.61240000  0.23720000  0.72200000  1.0 0.1225848891
H  H90  1  0.23720000  0.42840000  0.72200000  1.0 0.1255018753
H  H91  1  0.52800000  0.82160000  0.01280000  1.0 0.1255018753
H  H92  1  0.63760000  0.52800000  0.01280000  1.0 0.1255018753
H  H93  1  0.23720000  0.72200000  0.61240000  1.0 0.1255018753
H  H94  1  0.52800000  0.01280000  0.63760000  1.0 0.1255018753
H  H95  1  0.42840000  0.23720000  0.61240000  1.0 0.1255018753
H  H96  1  0.23720000  0.61240000  0.42840000  1.0 0.1255018753
H  H97  1  0.19070000  0.30750000  0.52110000  1.0 0.1380903269
H  H98  1  0.05930000  0.94250000  0.26930000  1.0 0.1380903269
H  H99  1  0.94250000  0.26930000  0.05930000  1.0 0.1380903269
H  H100  1  0.26930000  0.05930000  0.94250000  1.0 0.1380903269
H  H101  1  0.94250000  0.72890000  0.26930000  1.0 0.1380903269
H  H102  1  0.30750000  0.98070000  0.52110000  1.0 0.1380903269
H  H103  1  0.72890000  0.05930000  0.26930000  1.0 0.1380903269
H  H104  1  0.98070000  0.19070000  0.52110000  1.0 0.1380903269
H  H105  1  0.72890000  0.26930000  0.94250000  1.0 0.1380903269
H  H106  1  0.98070000  0.52110000  0.30750000  1.0 0.1380903269
H  H107  1  0.30750000  0.19070000  0.98070000  1.0 0.1380903269
H  H108  1  0.94250000  0.05930000  0.72890000  1.0 0.1380903269
H  H109  1  0.72890000  0.94250000  0.05930000  1.0 0.1380903269
H  H110  1  0.98070000  0.30750000  0.19070000  1.0 0.1380903269
H  H111  1  0.05930000  0.72890000  0.94250000  1.0 0.1380903269
H  H112  1  0.19070000  0.98070000  0.30750000  1.0 0.1380903269
H  H113  1  0.19070000  0.52110000  0.98070000  1.0 0.1380903269
H  H114  1  0.52110000  0.30750000  0.98070000  1.0 0.1380903269
H  H115  1  0.26930000  0.94250000  0.72890000  1.0 0.1380903269
H  H116  1  0.05930000  0.26930000  0.72890000  1.0 0.1380903269
H  H117  1  0.52110000  0.98070000  0.19070000  1.0 0.1380903269
H  H118  1  0.26930000  0.72890000  0.05930000  1.0 0.1380903269
H  H119  1  0.30750000  0.52110000  0.19070000  1.0 0.1380903269
H  H120  1  0.52110000  0.19070000  0.30750000  1.0 0.1380903269
H  H121  1  0.55930000  0.44250000  0.22890000  1.0 0.1380903269
H  H122  1  0.69070000  0.80750000  0.48070000  1.0 0.1380903269
H  H123  1  0.80750000  0.48070000  0.69070000  1.0 0.1380903269
H  H124  1  0.48070000  0.69070000  0.80750000  1.0 0.1380903269
H  H125  1  0.80750000  0.02110000  0.48070000  1.0 0.1380903269
H  H126  1  0.44250000  0.76930000  0.22890000  1.0 0.1380903269
H  H127  1  0.02110000  0.69070000  0.48070000  1.0 0.1380903269
H  H128  1  0.76930000  0.55930000  0.22890000  1.0 0.1380903269
H  H129  1  0.02110000  0.48070000  0.80750000  1.0 0.1380903269
H  H130  1  0.76930000  0.22890000  0.44250000  1.0 0.1380903269
H  H131  1  0.44250000  0.55930000  0.76930000  1.0 0.1380903269
H  H132  1  0.80750000  0.69070000  0.02110000  1.0 0.1380903269
H  H133  1  0.02110000  0.80750000  0.69070000  1.0 0.1380903269
H  H134  1  0.76930000  0.44250000  0.55930000  1.0 0.1380903269
H  H135  1  0.69070000  0.02110000  0.80750000  1.0 0.1380903269
H  H136  1  0.55930000  0.76930000  0.44250000  1.0 0.1380903269
H  H137  1  0.55930000  0.22890000  0.76930000  1.0 0.1380903269
H  H138  1  0.22890000  0.44250000  0.76930000  1.0 0.1380903269
H  H139  1  0.48070000  0.80750000  0.02110000  1.0 0.1380903269
H  H140  1  0.69070000  0.48070000  0.02110000  1.0 0.1380903269
H  H141  1  0.22890000  0.76930000  0.55930000  1.0 0.1380903269
H  H142  1  0.48070000  0.02110000  0.69070000  1.0 0.1380903269
H  H143  1  0.44250000  0.22890000  0.55930000  1.0 0.1380903269
H  H144  1  0.22890000  0.55930000  0.44250000  1.0 0.1380903269
H  H145  1  0.18690000  0.32170000  0.56570000  1.0 0.1016170064
H  H146  1  0.06310000  0.92830000  0.32430000  1.0 0.1016170064
H  H147  1  0.92830000  0.32430000  0.06310000  1.0 0.1016170064
H  H148  1  0.32430000  0.06310000  0.92830000  1.0 0.1016170064
H  H149  1  0.92830000  0.68430000  0.32430000  1.0 0.1016170064
H  H150  1  0.32170000  0.92570000  0.56570000  1.0 0.1016170064
H  H151  1  0.68430000  0.06310000  0.32430000  1.0 0.1016170064
H  H152  1  0.92570000  0.18690000  0.56570000  1.0 0.1016170064
H  H153  1  0.68430000  0.32430000  0.92830000  1.0 0.1016170064
H  H154  1  0.92570000  0.56570000  0.32170000  1.0 0.1016170064
H  H155  1  0.32170000  0.18690000  0.92570000  1.0 0.1016170064
H  H156  1  0.92830000  0.06310000  0.68430000  1.0 0.1016170064
H  H157  1  0.68430000  0.92830000  0.06310000  1.0 0.1016170064
H  H158  1  0.92570000  0.32170000  0.18690000  1.0 0.1016170064
H  H159  1  0.06310000  0.68430000  0.92830000  1.0 0.1016170064
H  H160  1  0.18690000  0.92570000  0.32170000  1.0 0.1016170064
H  H161  1  0.18690000  0.56570000  0.92570000  1.0 0.1016170064
H  H162  1  0.56570000  0.32170000  0.92570000  1.0 0.1016170064
H  H163  1  0.32430000  0.92830000  0.68430000  1.0 0.1016170064
H  H164  1  0.06310000  0.32430000  0.68430000  1.0 0.1016170064
H  H165  1  0.56570000  0.92570000  0.18690000  1.0 0.1016170064
H  H166  1  0.32430000  0.68430000  0.06310000  1.0 0.1016170064
H  H167  1  0.32170000  0.56570000  0.18690000  1.0 0.1016170064
H  H168  1  0.56570000  0.18690000  0.32170000  1.0 0.1016170064
H  H169  1  0.56310000  0.42830000  0.18430000  1.0 0.1016170064
H  H170  1  0.68690000  0.82170000  0.42570000  1.0 0.1016170064
H  H171  1  0.82170000  0.42570000  0.68690000  1.0 0.1016170064
H  H172  1  0.42570000  0.68690000  0.82170000  1.0 0.1016170064
H  H173  1  0.82170000  0.06570000  0.42570000  1.0 0.1016170064
H  H174  1  0.42830000  0.82430000  0.18430000  1.0 0.1016170064
H  H175  1  0.06570000  0.68690000  0.42570000  1.0 0.1016170064
H  H176  1  0.82430000  0.56310000  0.18430000  1.0 0.1016170064
H  H177  1  0.06570000  0.42570000  0.82170000  1.0 0.1016170064
H  H178  1  0.82430000  0.18430000  0.42830000  1.0 0.1016170064
H  H179  1  0.42830000  0.56310000  0.82430000  1.0 0.1016170064
H  H180  1  0.82170000  0.68690000  0.06570000  1.0 0.1016170064
H  H181  1  0.06570000  0.82170000  0.68690000  1.0 0.1016170064
H  H182  1  0.82430000  0.42830000  0.56310000  1.0 0.1016170064
H  H183  1  0.68690000  0.06570000  0.82170000  1.0 0.1016170064
H  H184  1  0.56310000  0.82430000  0.42830000  1.0 0.1016170064
H  H185  1  0.56310000  0.18430000  0.82430000  1.0 0.1016170064
H  H186  1  0.18430000  0.42830000  0.82430000  1.0 0.1016170064
H  H187  1  0.42570000  0.82170000  0.06570000  1.0 0.1016170064
H  H188  1  0.68690000  0.42570000  0.06570000  1.0 0.1016170064
H  H189  1  0.18430000  0.82430000  0.56310000  1.0 0.1016170064
H  H190  1  0.42570000  0.06570000  0.68690000  1.0 0.1016170064
H  H191  1  0.42830000  0.18430000  0.56310000  1.0 0.1016170064
H  H192  1  0.18430000  0.56310000  0.42830000  1.0 0.1016170064
H  H193  1  0.88850000  0.37970000  0.68110000  1.0 0.1016170064
H  H194  1  0.36150000  0.87030000  0.19930000  1.0 0.1016170064
H  H195  1  0.87030000  0.19930000  0.36150000  1.0 0.1016170064
H  H196  1  0.19930000  0.36150000  0.87030000  1.0 0.1016170064
H  H197  1  0.87030000  0.56890000  0.19930000  1.0 0.1016170064
H  H198  1  0.37970000  0.05070000  0.68110000  1.0 0.1016170064
H  H199  1  0.56890000  0.36150000  0.19930000  1.0 0.1016170064
H  H200  1  0.05070000  0.88850000  0.68110000  1.0 0.1016170064
H  H201  1  0.56890000  0.19930000  0.87030000  1.0 0.1016170064
H  H202  1  0.05070000  0.68110000  0.37970000  1.0 0.1016170064
H  H203  1  0.37970000  0.88850000  0.05070000  1.0 0.1016170064
H  H204  1  0.87030000  0.36150000  0.56890000  1.0 0.1016170064
H  H205  1  0.56890000  0.87030000  0.36150000  1.0 0.1016170064
H  H206  1  0.05070000  0.37970000  0.88850000  1.0 0.1016170064
H  H207  1  0.36150000  0.56890000  0.87030000  1.0 0.1016170064
H  H208  1  0.88850000  0.05070000  0.37970000  1.0 0.1016170064
H  H209  1  0.88850000  0.68110000  0.05070000  1.0 0.1016170064
H  H210  1  0.68110000  0.37970000  0.05070000  1.0 0.1016170064
H  H211  1  0.19930000  0.87030000  0.56890000  1.0 0.1016170064
H  H212  1  0.36150000  0.19930000  0.56890000  1.0 0.1016170064
H  H213  1  0.68110000  0.05070000  0.88850000  1.0 0.1016170064
H  H214  1  0.19930000  0.56890000  0.36150000  1.0 0.1016170064
H  H215  1  0.37970000  0.68110000  0.88850000  1.0 0.1016170064
H  H216  1  0.68110000  0.88850000  0.37970000  1.0 0.1016170064
H  H217  1  0.86150000  0.37030000  0.06890000  1.0 0.1016170064
H  H218  1  0.38850000  0.87970000  0.55070000  1.0 0.1016170064
H  H219  1  0.87970000  0.55070000  0.38850000  1.0 0.1016170064
H  H220  1  0.55070000  0.38850000  0.87970000  1.0 0.1016170064
H  H221  1  0.87970000  0.18110000  0.55070000  1.0 0.1016170064
H  H222  1  0.37030000  0.69930000  0.06890000  1.0 0.1016170064
H  H223  1  0.18110000  0.38850000  0.55070000  1.0 0.1016170064
H  H224  1  0.69930000  0.86150000  0.06890000  1.0 0.1016170064
H  H225  1  0.18110000  0.55070000  0.87970000  1.0 0.1016170064
H  H226  1  0.69930000  0.06890000  0.37030000  1.0 0.1016170064
H  H227  1  0.37030000  0.86150000  0.69930000  1.0 0.1016170064
H  H228  1  0.87970000  0.38850000  0.18110000  1.0 0.1016170064
H  H229  1  0.18110000  0.87970000  0.38850000  1.0 0.1016170064
H  H230  1  0.69930000  0.37030000  0.86150000  1.0 0.1016170064
H  H231  1  0.38850000  0.18110000  0.87970000  1.0 0.1016170064
H  H232  1  0.86150000  0.69930000  0.37030000  1.0 0.1016170064
H  H233  1  0.86150000  0.06890000  0.69930000  1.0 0.1016170064
H  H234  1  0.06890000  0.37030000  0.69930000  1.0 0.1016170064
H  H235  1  0.55070000  0.87970000  0.18110000  1.0 0.1016170064
H  H236  1  0.38850000  0.55070000  0.18110000  1.0 0.1016170064
H  H237  1  0.06890000  0.69930000  0.86150000  1.0 0.1016170064
H  H238  1  0.55070000  0.18110000  0.38850000  1.0 0.1016170064
H  H239  1  0.37030000  0.06890000  0.86150000  1.0 0.1016170064
H  H240  1  0.06890000  0.86150000  0.37030000  1.0 0.1016170064
H  H241  1  0.93870000  0.37650000  0.68550000  1.0 0.1380903269
H  H242  1  0.31130000  0.87350000  0.25070000  1.0 0.1380903269
H  H243  1  0.87350000  0.25070000  0.31130000  1.0 0.1380903269
H  H244  1  0.25070000  0.31130000  0.87350000  1.0 0.1380903269
H  H245  1  0.87350000  0.56450000  0.25070000  1.0 0.1380903269
H  H246  1  0.37650000  0.99930000  0.68550000  1.0 0.1380903269
H  H247  1  0.56450000  0.31130000  0.25070000  1.0 0.1380903269
H  H248  1  0.99930000  0.93870000  0.68550000  1.0 0.1380903269
H  H249  1  0.56450000  0.25070000  0.87350000  1.0 0.1380903269
H  H250  1  0.99930000  0.68550000  0.37650000  1.0 0.1380903269
H  H251  1  0.37650000  0.93870000  0.99930000  1.0 0.1380903269
H  H252  1  0.87350000  0.31130000  0.56450000  1.0 0.1380903269
H  H253  1  0.56450000  0.87350000  0.31130000  1.0 0.1380903269
H  H254  1  0.99930000  0.37650000  0.93870000  1.0 0.1380903269
H  H255  1  0.31130000  0.56450000  0.87350000  1.0 0.1380903269
H  H256  1  0.93870000  0.99930000  0.37650000  1.0 0.1380903269
H  H257  1  0.93870000  0.68550000  0.99930000  1.0 0.1380903269
H  H258  1  0.68550000  0.37650000  0.99930000  1.0 0.1380903269
H  H259  1  0.25070000  0.87350000  0.56450000  1.0 0.1380903269
H  H260  1  0.31130000  0.25070000  0.56450000  1.0 0.1380903269
H  H261  1  0.68550000  0.99930000  0.93870000  1.0 0.1380903269
H  H262  1  0.25070000  0.56450000  0.31130000  1.0 0.1380903269
H  H263  1  0.37650000  0.68550000  0.93870000  1.0 0.1380903269
H  H264  1  0.68550000  0.93870000  0.37650000  1.0 0.1380903269
H  H265  1  0.81130000  0.37350000  0.06450000  1.0 0.1380903269
H  H266  1  0.43870000  0.87650000  0.49930000  1.0 0.1380903269
H  H267  1  0.87650000  0.49930000  0.43870000  1.0 0.1380903269
H  H268  1  0.49930000  0.43870000  0.87650000  1.0 0.1380903269
H  H269  1  0.87650000  0.18550000  0.49930000  1.0 0.1380903269
H  H270  1  0.37350000  0.75070000  0.06450000  1.0 0.1380903269
H  H271  1  0.18550000  0.43870000  0.49930000  1.0 0.1380903269
H  H272  1  0.75070000  0.81130000  0.06450000  1.0 0.1380903269
H  H273  1  0.18550000  0.49930000  0.87650000  1.0 0.1380903269
H  H274  1  0.75070000  0.06450000  0.37350000  1.0 0.1380903269
H  H275  1  0.37350000  0.81130000  0.75070000  1.0 0.1380903269
H  H276  1  0.87650000  0.43870000  0.18550000  1.0 0.1380903269
H  H277  1  0.18550000  0.87650000  0.43870000  1.0 0.1380903269
H  H278  1  0.75070000  0.37350000  0.81130000  1.0 0.1380903269
H  H279  1  0.43870000  0.18550000  0.87650000  1.0 0.1380903269
H  H280  1  0.81130000  0.75070000  0.37350000  1.0 0.1380903269
H  H281  1  0.81130000  0.06450000  0.75070000  1.0 0.1380903269
H  H282  1  0.06450000  0.37350000  0.75070000  1.0 0.1380903269
H  H283  1  0.49930000  0.87650000  0.18550000  1.0 0.1380903269
H  H284  1  0.43870000  0.49930000  0.18550000  1.0 0.1380903269
H  H285  1  0.06450000  0.75070000  0.81130000  1.0 0.1380903269
H  H286  1  0.49930000  0.18550000  0.43870000  1.0 0.1380903269
H  H287  1  0.37350000  0.06450000  0.81130000  1.0 0.1380903269
H  H288  1  0.06450000  0.81130000  0.37350000  1.0 0.1380903269
H  H289  1  0.99500000  0.36620000  0.63920000  1.0 0.1225848891
H  H290  1  0.25500000  0.88380000  0.25040000  1.0 0.1225848891
H  H291  1  0.88380000  0.25040000  0.25500000  1.0 0.1225848891
H  H292  1  0.25040000  0.25500000  0.88380000  1.0 0.1225848891
H  H293  1  0.88380000  0.61080000  0.25040000  1.0 0.1225848891
H  H294  1  0.36620000  0.99960000  0.63920000  1.0 0.1225848891
H  H295  1  0.61080000  0.25500000  0.25040000  1.0 0.1225848891
H  H296  1  0.99960000  0.99500000  0.63920000  1.0 0.1225848891
H  H297  1  0.61080000  0.25040000  0.88380000  1.0 0.1225848891
H  H298  1  0.99960000  0.63920000  0.36620000  1.0 0.1225848891
H  H299  1  0.36620000  0.99500000  0.99960000  1.0 0.1225848891
H  H300  1  0.88380000  0.25500000  0.61080000  1.0 0.1225848891
H  H301  1  0.61080000  0.88380000  0.25500000  1.0 0.1225848891
H  H302  1  0.99960000  0.36620000  0.99500000  1.0 0.1225848891
H  H303  1  0.25500000  0.61080000  0.88380000  1.0 0.1225848891
H  H304  1  0.99500000  0.99960000  0.36620000  1.0 0.1225848891
H  H305  1  0.99500000  0.63920000  0.99960000  1.0 0.1225848891
H  H306  1  0.63920000  0.36620000  0.99960000  1.0 0.1225848891
H  H307  1  0.25040000  0.88380000  0.61080000  1.0 0.1225848891
H  H308  1  0.25500000  0.25040000  0.61080000  1.0 0.1225848891
H  H309  1  0.63920000  0.99960000  0.99500000  1.0 0.1225848891
H  H310  1  0.25040000  0.61080000  0.25500000  1.0 0.1225848891
H  H311  1  0.36620000  0.63920000  0.99500000  1.0 0.1225848891
H  H312  1  0.63920000  0.99500000  0.36620000  1.0 0.1225848891
H  H313  1  0.75500000  0.38380000  0.11080000  1.0 0.1225848891
H  H314  1  0.49500000  0.86620000  0.49960000  1.0 0.1225848891
H  H315  1  0.86620000  0.49960000  0.49500000  1.0 0.1225848891
H  H316  1  0.49960000  0.49500000  0.86620000  1.0 0.1225848891
H  H317  1  0.86620000  0.13920000  0.49960000  1.0 0.1225848891
H  H318  1  0.38380000  0.75040000  0.11080000  1.0 0.1225848891
H  H319  1  0.13920000  0.49500000  0.49960000  1.0 0.1225848891
H  H320  1  0.75040000  0.75500000  0.11080000  1.0 0.1225848891
H  H321  1  0.13920000  0.49960000  0.86620000  1.0 0.1225848891
H  H322  1  0.75040000  0.11080000  0.38380000  1.0 0.1225848891
H  H323  1  0.38380000  0.75500000  0.75040000  1.0 0.1225848891
H  H324  1  0.86620000  0.49500000  0.13920000  1.0 0.1225848891
H  H325  1  0.13920000  0.86620000  0.49500000  1.0 0.1225848891
H  H326  1  0.75040000  0.38380000  0.75500000  1.0 0.1225848891
H  H327  1  0.49500000  0.13920000  0.86620000  1.0 0.1225848891
H  H328  1  0.75500000  0.75040000  0.38380000  1.0 0.1225848891
H  H329  1  0.75500000  0.11080000  0.75040000  1.0 0.1225848891
H  H330  1  0.11080000  0.38380000  0.75040000  1.0 0.1225848891
H  H331  1  0.49960000  0.86620000  0.13920000  1.0 0.1225848891
H  H332  1  0.49500000  0.49960000  0.13920000  1.0 0.1225848891
H  H333  1  0.11080000  0.75040000  0.75500000  1.0 0.1225848891
H  H334  1  0.49960000  0.13920000  0.49500000  1.0 0.1225848891
H  H335  1  0.38380000  0.11080000  0.75500000  1.0 0.1225848891
H  H336  1  0.11080000  0.75500000  0.38380000  1.0 0.1225848891
H  H337  1  0.94430000  0.36890000  0.58510000  1.0 0.1083395326
H  H338  1  0.30570000  0.88110000  0.14830000  1.0 0.1083395326
H  H339  1  0.88110000  0.14830000  0.30570000  1.0 0.1083395326
H  H340  1  0.14830000  0.30570000  0.88110000  1.0 0.1083395326
H  H341  1  0.88110000  0.66490000  0.14830000  1.0 0.1083395326
H  H342  1  0.36890000  0.10170000  0.58510000  1.0 0.1083395326
H  H343  1  0.66490000  0.30570000  0.14830000  1.0 0.1083395326
H  H344  1  0.10170000  0.94430000  0.58510000  1.0 0.1083395326
H  H345  1  0.66490000  0.14830000  0.88110000  1.0 0.1083395326
H  H346  1  0.10170000  0.58510000  0.36890000  1.0 0.1083395326
H  H347  1  0.36890000  0.94430000  0.10170000  1.0 0.1083395326
H  H348  1  0.88110000  0.30570000  0.66490000  1.0 0.1083395326
H  H349  1  0.66490000  0.88110000  0.30570000  1.0 0.1083395326
H  H350  1  0.10170000  0.36890000  0.94430000  1.0 0.1083395326
H  H351  1  0.30570000  0.66490000  0.88110000  1.0 0.1083395326
H  H352  1  0.94430000  0.10170000  0.36890000  1.0 0.1083395326
H  H353  1  0.94430000  0.58510000  0.10170000  1.0 0.1083395326
H  H354  1  0.58510000  0.36890000  0.10170000  1.0 0.1083395326
H  H355  1  0.14830000  0.88110000  0.66490000  1.0 0.1083395326
H  H356  1  0.30570000  0.14830000  0.66490000  1.0 0.1083395326
H  H357  1  0.58510000  0.10170000  0.94430000  1.0 0.1083395326
H  H358  1  0.14830000  0.66490000  0.30570000  1.0 0.1083395326
H  H359  1  0.36890000  0.58510000  0.94430000  1.0 0.1083395326
H  H360  1  0.58510000  0.94430000  0.36890000  1.0 0.1083395326
H  H361  1  0.80570000  0.38110000  0.16490000  1.0 0.1083395326
H  H362  1  0.44430000  0.86890000  0.60170000  1.0 0.1083395326
H  H363  1  0.86890000  0.60170000  0.44430000  1.0 0.1083395326
H  H364  1  0.60170000  0.44430000  0.86890000  1.0 0.1083395326
H  H365  1  0.86890000  0.08510000  0.60170000  1.0 0.1083395326
H  H366  1  0.38110000  0.64830000  0.16490000  1.0 0.1083395326
H  H367  1  0.08510000  0.44430000  0.60170000  1.0 0.1083395326
H  H368  1  0.64830000  0.80570000  0.16490000  1.0 0.1083395326
H  H369  1  0.08510000  0.60170000  0.86890000  1.0 0.1083395326
H  H370  1  0.64830000  0.16490000  0.38110000  1.0 0.1083395326
H  H371  1  0.38110000  0.80570000  0.64830000  1.0 0.1083395326
H  H372  1  0.86890000  0.44430000  0.08510000  1.0 0.1083395326
H  H373  1  0.08510000  0.86890000  0.44430000  1.0 0.1083395326
H  H374  1  0.64830000  0.38110000  0.80570000  1.0 0.1083395326
H  H375  1  0.44430000  0.08510000  0.86890000  1.0 0.1083395326
H  H376  1  0.80570000  0.64830000  0.38110000  1.0 0.1083395326
H  H377  1  0.80570000  0.16490000  0.64830000  1.0 0.1083395326
H  H378  1  0.16490000  0.38110000  0.64830000  1.0 0.1083395326
H  H379  1  0.60170000  0.86890000  0.08510000  1.0 0.1083395326
H  H380  1  0.44430000  0.60170000  0.08510000  1.0 0.1083395326
H  H381  1  0.16490000  0.64830000  0.80570000  1.0 0.1083395326
H  H382  1  0.60170000  0.08510000  0.44430000  1.0 0.1083395326
H  H383  1  0.38110000  0.16490000  0.80570000  1.0 0.1083395326
H  H384  1  0.16490000  0.80570000  0.38110000  1.0 0.1083395326
H  H385  1  0.98160000  0.39400000  0.49380000  1.0 0.1225848891
H  H386  1  0.26840000  0.85600000  0.11940000  1.0 0.1225848891
H  H387  1  0.85600000  0.11940000  0.26840000  1.0 0.1225848891
H  H388  1  0.11940000  0.26840000  0.85600000  1.0 0.1225848891
H  H389  1  0.85600000  0.75620000  0.11940000  1.0 0.1225848891
H  H390  1  0.39400000  0.13060000  0.49380000  1.0 0.1225848891
H  H391  1  0.75620000  0.26840000  0.11940000  1.0 0.1225848891
H  H392  1  0.13060000  0.98160000  0.49380000  1.0 0.1225848891
H  H393  1  0.75620000  0.11940000  0.85600000  1.0 0.1225848891
H  H394  1  0.13060000  0.49380000  0.39400000  1.0 0.1225848891
H  H395  1  0.39400000  0.98160000  0.13060000  1.0 0.1225848891
H  H396  1  0.85600000  0.26840000  0.75620000  1.0 0.1225848891
H  H397  1  0.75620000  0.85600000  0.26840000  1.0 0.1225848891
H  H398  1  0.13060000  0.39400000  0.98160000  1.0 0.1225848891
H  H399  1  0.26840000  0.75620000  0.85600000  1.0 0.1225848891
H  H400  1  0.98160000  0.13060000  0.39400000  1.0 0.1225848891
H  H401  1  0.98160000  0.49380000  0.13060000  1.0 0.1225848891
H  H402  1  0.49380000  0.39400000  0.13060000  1.0 0.1225848891
H  H403  1  0.11940000  0.85600000  0.75620000  1.0 0.1225848891
H  H404  1  0.26840000  0.11940000  0.75620000  1.0 0.1225848891
H  H405  1  0.49380000  0.13060000  0.98160000  1.0 0.1225848891
H  H406  1  0.11940000  0.75620000  0.26840000  1.0 0.1225848891
H  H407  1  0.39400000  0.49380000  0.98160000  1.0 0.1225848891
H  H408  1  0.49380000  0.98160000  0.39400000  1.0 0.1225848891
H  H409  1  0.76840000  0.35600000  0.25620000  1.0 0.1225848891
H  H410  1  0.48160000  0.89400000  0.63060000  1.0 0.1225848891
H  H411  1  0.89400000  0.63060000  0.48160000  1.0 0.1225848891
H  H412  1  0.63060000  0.48160000  0.89400000  1.0 0.1225848891
H  H413  1  0.89400000  0.99380000  0.63060000  1.0 0.1225848891
H  H414  1  0.35600000  0.61940000  0.25620000  1.0 0.1225848891
H  H415  1  0.99380000  0.48160000  0.63060000  1.0 0.1225848891
H  H416  1  0.61940000  0.76840000  0.25620000  1.0 0.1225848891
H  H417  1  0.99380000  0.63060000  0.89400000  1.0 0.1225848891
H  H418  1  0.61940000  0.25620000  0.35600000  1.0 0.1225848891
H  H419  1  0.35600000  0.76840000  0.61940000  1.0 0.1225848891
H  H420  1  0.89400000  0.48160000  0.99380000  1.0 0.1225848891
H  H421  1  0.99380000  0.89400000  0.48160000  1.0 0.1225848891
H  H422  1  0.61940000  0.35600000  0.76840000  1.0 0.1225848891
H  H423  1  0.48160000  0.99380000  0.89400000  1.0 0.1225848891
H  H424  1  0.76840000  0.61940000  0.35600000  1.0 0.1225848891
H  H425  1  0.76840000  0.25620000  0.61940000  1.0 0.1225848891
H  H426  1  0.25620000  0.35600000  0.61940000  1.0 0.1225848891
H  H427  1  0.63060000  0.89400000  0.99380000  1.0 0.1225848891
H  H428  1  0.48160000  0.63060000  0.99380000  1.0 0.1225848891
H  H429  1  0.25620000  0.61940000  0.76840000  1.0 0.1225848891
H  H430  1  0.63060000  0.99380000  0.48160000  1.0 0.1225848891
H  H431  1  0.35600000  0.25620000  0.76840000  1.0 0.1225848891
H  H432  1  0.25620000  0.76840000  0.35600000  1.0 0.1225848891
H  H433  1  0.98500000  0.40760000  0.43540000  1.0 0.1380903269
H  H434  1  0.26500000  0.84240000  0.07800000  1.0 0.1380903269
H  H435  1  0.84240000  0.07800000  0.26500000  1.0 0.1380903269
H  H436  1  0.07800000  0.26500000  0.84240000  1.0 0.1380903269
H  H437  1  0.84240000  0.81460000  0.07800000  1.0 0.1380903269
H  H438  1  0.40760000  0.17200000  0.43540000  1.0 0.1380903269
H  H439  1  0.81460000  0.26500000  0.07800000  1.0 0.1380903269
H  H440  1  0.17200000  0.98500000  0.43540000  1.0 0.1380903269
H  H441  1  0.81460000  0.07800000  0.84240000  1.0 0.1380903269
H  H442  1  0.17200000  0.43540000  0.40760000  1.0 0.1380903269
H  H443  1  0.40760000  0.98500000  0.17200000  1.0 0.1380903269
H  H444  1  0.84240000  0.26500000  0.81460000  1.0 0.1380903269
H  H445  1  0.81460000  0.84240000  0.26500000  1.0 0.1380903269
H  H446  1  0.17200000  0.40760000  0.98500000  1.0 0.1380903269
H  H447  1  0.26500000  0.81460000  0.84240000  1.0 0.1380903269
H  H448  1  0.98500000  0.17200000  0.40760000  1.0 0.1380903269
H  H449  1  0.98500000  0.43540000  0.17200000  1.0 0.1380903269
H  H450  1  0.43540000  0.40760000  0.17200000  1.0 0.1380903269
H  H451  1  0.07800000  0.84240000  0.81460000  1.0 0.1380903269
H  H452  1  0.26500000  0.07800000  0.81460000  1.0 0.1380903269
H  H453  1  0.43540000  0.17200000  0.98500000  1.0 0.1380903269
H  H454  1  0.07800000  0.81460000  0.26500000  1.0 0.1380903269
H  H455  1  0.40760000  0.43540000  0.98500000  1.0 0.1380903269
H  H456  1  0.43540000  0.98500000  0.40760000  1.0 0.1380903269
H  H457  1  0.76500000  0.34240000  0.31460000  1.0 0.1380903269
H  H458  1  0.48500000  0.90760000  0.67200000  1.0 0.1380903269
H  H459  1  0.90760000  0.67200000  0.48500000  1.0 0.1380903269
H  H460  1  0.67200000  0.48500000  0.90760000  1.0 0.1380903269
H  H461  1  0.90760000  0.93540000  0.67200000  1.0 0.1380903269
H  H462  1  0.34240000  0.57800000  0.31460000  1.0 0.1380903269
H  H463  1  0.93540000  0.48500000  0.67200000  1.0 0.1380903269
H  H464  1  0.57800000  0.76500000  0.31460000  1.0 0.1380903269
H  H465  1  0.93540000  0.67200000  0.90760000  1.0 0.1380903269
H  H466  1  0.57800000  0.31460000  0.34240000  1.0 0.1380903269
H  H467  1  0.34240000  0.76500000  0.57800000  1.0 0.1380903269
H  H468  1  0.90760000  0.48500000  0.93540000  1.0 0.1380903269
H  H469  1  0.93540000  0.90760000  0.48500000  1.0 0.1380903269
H  H470  1  0.57800000  0.34240000  0.76500000  1.0 0.1380903269
H  H471  1  0.48500000  0.93540000  0.90760000  1.0 0.1380903269
H  H472  1  0.76500000  0.57800000  0.34240000  1.0 0.1380903269
H  H473  1  0.76500000  0.31460000  0.57800000  1.0 0.1380903269
H  H474  1  0.31460000  0.34240000  0.57800000  1.0 0.1380903269
H  H475  1  0.67200000  0.90760000  0.93540000  1.0 0.1380903269
H  H476  1  0.48500000  0.67200000  0.93540000  1.0 0.1380903269
H  H477  1  0.31460000  0.57800000  0.76500000  1.0 0.1380903269
H  H478  1  0.67200000  0.93540000  0.48500000  1.0 0.1380903269
H  H479  1  0.34240000  0.31460000  0.76500000  1.0 0.1380903269
H  H480  1  0.31460000  0.76500000  0.34240000  1.0 0.1380903269
H  H481  1  0.04030000  0.40090000  0.38970000  1.0 0.1083395326
H  H482  1  0.20970000  0.84910000  0.08090000  1.0 0.1083395326
H  H483  1  0.84910000  0.08090000  0.20970000  1.0 0.1083395326
H  H484  1  0.08090000  0.20970000  0.84910000  1.0 0.1083395326
H  H485  1  0.84910000  0.86030000  0.08090000  1.0 0.1083395326
H  H486  1  0.40090000  0.16910000  0.38970000  1.0 0.1083395326
H  H487  1  0.86030000  0.20970000  0.08090000  1.0 0.1083395326
H  H488  1  0.16910000  0.04030000  0.38970000  1.0 0.1083395326
H  H489  1  0.86030000  0.08090000  0.84910000  1.0 0.1083395326
H  H490  1  0.16910000  0.38970000  0.40090000  1.0 0.1083395326
H  H491  1  0.40090000  0.04030000  0.16910000  1.0 0.1083395326
H  H492  1  0.84910000  0.20970000  0.86030000  1.0 0.1083395326
H  H493  1  0.86030000  0.84910000  0.20970000  1.0 0.1083395326
H  H494  1  0.16910000  0.40090000  0.04030000  1.0 0.1083395326
H  H495  1  0.20970000  0.86030000  0.84910000  1.0 0.1083395326
H  H496  1  0.04030000  0.16910000  0.40090000  1.0 0.1083395326
H  H497  1  0.04030000  0.38970000  0.16910000  1.0 0.1083395326
H  H498  1  0.38970000  0.40090000  0.16910000  1.0 0.1083395326
H  H499  1  0.08090000  0.84910000  0.86030000  1.0 0.1083395326
H  H500  1  0.20970000  0.08090000  0.86030000  1.0 0.1083395326
H  H501  1  0.38970000  0.16910000  0.04030000  1.0 0.1083395326
H  H502  1  0.08090000  0.86030000  0.20970000  1.0 0.1083395326
H  H503  1  0.40090000  0.38970000  0.04030000  1.0 0.1083395326
H  H504  1  0.38970000  0.04030000  0.40090000  1.0 0.1083395326
H  H505  1  0.70970000  0.34910000  0.36030000  1.0 0.1083395326
H  H506  1  0.54030000  0.90090000  0.66910000  1.0 0.1083395326
H  H507  1  0.90090000  0.66910000  0.54030000  1.0 0.1083395326
H  H508  1  0.66910000  0.54030000  0.90090000  1.0 0.1083395326
H  H509  1  0.90090000  0.88970000  0.66910000  1.0 0.1083395326
H  H510  1  0.34910000  0.58090000  0.36030000  1.0 0.1083395326
H  H511  1  0.88970000  0.54030000  0.66910000  1.0 0.1083395326
H  H512  1  0.58090000  0.70970000  0.36030000  1.0 0.1083395326
H  H513  1  0.88970000  0.66910000  0.90090000  1.0 0.1083395326
H  H514  1  0.58090000  0.36030000  0.34910000  1.0 0.1083395326
H  H515  1  0.34910000  0.70970000  0.58090000  1.0 0.1083395326
H  H516  1  0.90090000  0.54030000  0.88970000  1.0 0.1083395326
H  H517  1  0.88970000  0.90090000  0.54030000  1.0 0.1083395326
H  H518  1  0.58090000  0.34910000  0.70970000  1.0 0.1083395326
H  H519  1  0.54030000  0.88970000  0.90090000  1.0 0.1083395326
H  H520  1  0.70970000  0.58090000  0.34910000  1.0 0.1083395326
H  H521  1  0.70970000  0.36030000  0.58090000  1.0 0.1083395326
H  H522  1  0.36030000  0.34910000  0.58090000  1.0 0.1083395326
H  H523  1  0.66910000  0.90090000  0.88970000  1.0 0.1083395326
H  H524  1  0.54030000  0.66910000  0.88970000  1.0 0.1083395326
H  H525  1  0.36030000  0.58090000  0.70970000  1.0 0.1083395326
H  H526  1  0.66910000  0.88970000  0.54030000  1.0 0.1083395326
H  H527  1  0.34910000  0.36030000  0.70970000  1.0 0.1083395326
H  H528  1  0.36030000  0.70970000  0.34910000  1.0 0.1083395326
H  H529  1  0.15000000  0.43300000  0.30500000  1.0 0.1016170064
H  H530  1  0.10000000  0.81700000  0.13800000  1.0 0.1016170064
H  H531  1  0.81700000  0.13800000  0.10000000  1.0 0.1016170064
H  H532  1  0.13800000  0.10000000  0.81700000  1.0 0.1016170064
H  H533  1  0.81700000  0.94500000  0.13800000  1.0 0.1016170064
H  H534  1  0.43300000  0.11200000  0.30500000  1.0 0.1016170064
H  H535  1  0.94500000  0.10000000  0.13800000  1.0 0.1016170064
H  H536  1  0.11200000  0.15000000  0.30500000  1.0 0.1016170064
H  H537  1  0.94500000  0.13800000  0.81700000  1.0 0.1016170064
H  H538  1  0.11200000  0.30500000  0.43300000  1.0 0.1016170064
H  H539  1  0.43300000  0.15000000  0.11200000  1.0 0.1016170064
H  H540  1  0.81700000  0.10000000  0.94500000  1.0 0.1016170064
H  H541  1  0.94500000  0.81700000  0.10000000  1.0 0.1016170064
H  H542  1  0.11200000  0.43300000  0.15000000  1.0 0.1016170064
H  H543  1  0.10000000  0.94500000  0.81700000  1.0 0.1016170064
H  H544  1  0.15000000  0.11200000  0.43300000  1.0 0.1016170064
H  H545  1  0.15000000  0.30500000  0.11200000  1.0 0.1016170064
H  H546  1  0.30500000  0.43300000  0.11200000  1.0 0.1016170064
H  H547  1  0.13800000  0.81700000  0.94500000  1.0 0.1016170064
H  H548  1  0.10000000  0.13800000  0.94500000  1.0 0.1016170064
H  H549  1  0.30500000  0.11200000  0.15000000  1.0 0.1016170064
H  H550  1  0.13800000  0.94500000  0.10000000  1.0 0.1016170064
H  H551  1  0.43300000  0.30500000  0.15000000  1.0 0.1016170064
H  H552  1  0.30500000  0.15000000  0.43300000  1.0 0.1016170064
H  H553  1  0.60000000  0.31700000  0.44500000  1.0 0.1016170064
H  H554  1  0.65000000  0.93300000  0.61200000  1.0 0.1016170064
H  H555  1  0.93300000  0.61200000  0.65000000  1.0 0.1016170064
H  H556  1  0.61200000  0.65000000  0.93300000  1.0 0.1016170064
H  H557  1  0.93300000  0.80500000  0.61200000  1.0 0.1016170064
H  H558  1  0.31700000  0.63800000  0.44500000  1.0 0.1016170064
H  H559  1  0.80500000  0.65000000  0.61200000  1.0 0.1016170064
H  H560  1  0.63800000  0.60000000  0.44500000  1.0 0.1016170064
H  H561  1  0.80500000  0.61200000  0.93300000  1.0 0.1016170064
H  H562  1  0.63800000  0.44500000  0.31700000  1.0 0.1016170064
H  H563  1  0.31700000  0.60000000  0.63800000  1.0 0.1016170064
H  H564  1  0.93300000  0.65000000  0.80500000  1.0 0.1016170064
H  H565  1  0.80500000  0.93300000  0.65000000  1.0 0.1016170064
H  H566  1  0.63800000  0.31700000  0.60000000  1.0 0.1016170064
H  H567  1  0.65000000  0.80500000  0.93300000  1.0 0.1016170064
H  H568  1  0.60000000  0.63800000  0.31700000  1.0 0.1016170064
H  H569  1  0.60000000  0.44500000  0.63800000  1.0 0.1016170064
H  H570  1  0.44500000  0.31700000  0.63800000  1.0 0.1016170064
H  H571  1  0.61200000  0.93300000  0.80500000  1.0 0.1016170064
H  H572  1  0.65000000  0.61200000  0.80500000  1.0 0.1016170064
H  H573  1  0.44500000  0.63800000  0.60000000  1.0 0.1016170064
H  H574  1  0.61200000  0.80500000  0.65000000  1.0 0.1016170064
H  H575  1  0.31700000  0.44500000  0.60000000  1.0 0.1016170064
H  H576  1  0.44500000  0.60000000  0.31700000  1.0 0.1016170064
H  H577  1  0.20130000  0.44190000  0.25730000  1.0 0.1380903269
H  H578  1  0.04870000  0.80810000  0.15050000  1.0 0.1380903269
H  H579  1  0.80810000  0.15050000  0.04870000  1.0 0.1380903269
H  H580  1  0.15050000  0.04870000  0.80810000  1.0 0.1380903269
H  H581  1  0.80810000  0.99270000  0.15050000  1.0 0.1380903269
H  H582  1  0.44190000  0.09950000  0.25730000  1.0 0.1380903269
H  H583  1  0.99270000  0.04870000  0.15050000  1.0 0.1380903269
H  H584  1  0.09950000  0.20130000  0.25730000  1.0 0.1380903269
H  H585  1  0.99270000  0.15050000  0.80810000  1.0 0.1380903269
H  H586  1  0.09950000  0.25730000  0.44190000  1.0 0.1380903269
H  H587  1  0.44190000  0.20130000  0.09950000  1.0 0.1380903269
H  H588  1  0.80810000  0.04870000  0.99270000  1.0 0.1380903269
H  H589  1  0.99270000  0.80810000  0.04870000  1.0 0.1380903269
H  H590  1  0.09950000  0.44190000  0.20130000  1.0 0.1380903269
H  H591  1  0.04870000  0.99270000  0.80810000  1.0 0.1380903269
H  H592  1  0.20130000  0.09950000  0.44190000  1.0 0.1380903269
H  H593  1  0.20130000  0.25730000  0.09950000  1.0 0.1380903269
H  H594  1  0.25730000  0.44190000  0.09950000  1.0 0.1380903269
H  H595  1  0.15050000  0.80810000  0.99270000  1.0 0.1380903269
H  H596  1  0.04870000  0.15050000  0.99270000  1.0 0.1380903269
H  H597  1  0.25730000  0.09950000  0.20130000  1.0 0.1380903269
H  H598  1  0.15050000  0.99270000  0.04870000  1.0 0.1380903269
H  H599  1  0.44190000  0.25730000  0.20130000  1.0 0.1380903269
H  H600  1  0.25730000  0.20130000  0.44190000  1.0 0.1380903269
H  H601  1  0.54870000  0.30810000  0.49270000  1.0 0.1380903269
H  H602  1  0.70130000  0.94190000  0.59950000  1.0 0.1380903269
H  H603  1  0.94190000  0.59950000  0.70130000  1.0 0.1380903269
H  H604  1  0.59950000  0.70130000  0.94190000  1.0 0.1380903269
H  H605  1  0.94190000  0.75730000  0.59950000  1.0 0.1380903269
H  H606  1  0.30810000  0.65050000  0.49270000  1.0 0.1380903269
H  H607  1  0.75730000  0.70130000  0.59950000  1.0 0.1380903269
H  H608  1  0.65050000  0.54870000  0.49270000  1.0 0.1380903269
H  H609  1  0.75730000  0.59950000  0.94190000  1.0 0.1380903269
H  H610  1  0.65050000  0.49270000  0.30810000  1.0 0.1380903269
H  H611  1  0.30810000  0.54870000  0.65050000  1.0 0.1380903269
H  H612  1  0.94190000  0.70130000  0.75730000  1.0 0.1380903269
H  H613  1  0.75730000  0.94190000  0.70130000  1.0 0.1380903269
H  H614  1  0.65050000  0.30810000  0.54870000  1.0 0.1380903269
H  H615  1  0.70130000  0.75730000  0.94190000  1.0 0.1380903269
H  H616  1  0.54870000  0.65050000  0.30810000  1.0 0.1380903269
H  H617  1  0.54870000  0.49270000  0.65050000  1.0 0.1380903269
H  H618  1  0.49270000  0.30810000  0.65050000  1.0 0.1380903269
H  H619  1  0.59950000  0.94190000  0.75730000  1.0 0.1380903269
H  H620  1  0.70130000  0.59950000  0.75730000  1.0 0.1380903269
H  H621  1  0.49270000  0.65050000  0.54870000  1.0 0.1380903269
H  H622  1  0.59950000  0.75730000  0.70130000  1.0 0.1380903269
H  H623  1  0.30810000  0.49270000  0.54870000  1.0 0.1380903269
H  H624  1  0.49270000  0.54870000  0.30810000  1.0 0.1380903269
H  H625  1  0.25640000  0.39520000  0.25440000  1.0 0.1225848891
H  H626  1  0.99360000  0.85480000  0.15600000  1.0 0.1225848891
H  H627  1  0.85480000  0.15600000  0.99360000  1.0 0.1225848891
H  H628  1  0.15600000  0.99360000  0.85480000  1.0 0.1225848891
H  H629  1  0.85480000  0.99560000  0.15600000  1.0 0.1225848891
H  H630  1  0.39520000  0.09400000  0.25440000  1.0 0.1225848891
H  H631  1  0.99560000  0.99360000  0.15600000  1.0 0.1225848891
H  H632  1  0.09400000  0.25640000  0.25440000  1.0 0.1225848891
H  H633  1  0.99560000  0.15600000  0.85480000  1.0 0.1225848891
H  H634  1  0.09400000  0.25440000  0.39520000  1.0 0.1225848891
H  H635  1  0.39520000  0.25640000  0.09400000  1.0 0.1225848891
H  H636  1  0.85480000  0.99360000  0.99560000  1.0 0.1225848891
H  H637  1  0.99560000  0.85480000  0.99360000  1.0 0.1225848891
H  H638  1  0.09400000  0.39520000  0.25640000  1.0 0.1225848891
H  H639  1  0.99360000  0.99560000  0.85480000  1.0 0.1225848891
H  H640  1  0.25640000  0.09400000  0.39520000  1.0 0.1225848891
H  H641  1  0.25640000  0.25440000  0.09400000  1.0 0.1225848891
H  H642  1  0.25440000  0.39520000  0.09400000  1.0 0.1225848891
H  H643  1  0.15600000  0.85480000  0.99560000  1.0 0.1225848891
H  H644  1  0.99360000  0.15600000  0.99560000  1.0 0.1225848891
H  H645  1  0.25440000  0.09400000  0.25640000  1.0 0.1225848891
H  H646  1  0.15600000  0.99560000  0.99360000  1.0 0.1225848891
H  H647  1  0.39520000  0.25440000  0.25640000  1.0 0.1225848891
H  H648  1  0.25440000  0.25640000  0.39520000  1.0 0.1225848891
H  H649  1  0.49360000  0.35480000  0.49560000  1.0 0.1225848891
H  H650  1  0.75640000  0.89520000  0.59400000  1.0 0.1225848891
H  H651  1  0.89520000  0.59400000  0.75640000  1.0 0.1225848891
H  H652  1  0.59400000  0.75640000  0.89520000  1.0 0.1225848891
H  H653  1  0.89520000  0.75440000  0.59400000  1.0 0.1225848891
H  H654  1  0.35480000  0.65600000  0.49560000  1.0 0.1225848891
H  H655  1  0.75440000  0.75640000  0.59400000  1.0 0.1225848891
H  H656  1  0.65600000  0.49360000  0.49560000  1.0 0.1225848891
H  H657  1  0.75440000  0.59400000  0.89520000  1.0 0.1225848891
H  H658  1  0.65600000  0.49560000  0.35480000  1.0 0.1225848891
H  H659  1  0.35480000  0.49360000  0.65600000  1.0 0.1225848891
H  H660  1  0.89520000  0.75640000  0.75440000  1.0 0.1225848891
H  H661  1  0.75440000  0.89520000  0.75640000  1.0 0.1225848891
H  H662  1  0.65600000  0.35480000  0.49360000  1.0 0.1225848891
H  H663  1  0.75640000  0.75440000  0.89520000  1.0 0.1225848891
H  H664  1  0.49360000  0.65600000  0.35480000  1.0 0.1225848891
H  H665  1  0.49360000  0.49560000  0.65600000  1.0 0.1225848891
H  H666  1  0.49560000  0.35480000  0.65600000  1.0 0.1225848891
H  H667  1  0.59400000  0.89520000  0.75440000  1.0 0.1225848891
H  H668  1  0.75640000  0.59400000  0.75440000  1.0 0.1225848891
H  H669  1  0.49560000  0.65600000  0.49360000  1.0 0.1225848891
H  H670  1  0.59400000  0.75440000  0.75640000  1.0 0.1225848891
H  H671  1  0.35480000  0.49560000  0.49360000  1.0 0.1225848891
H  H672  1  0.49560000  0.49360000  0.35480000  1.0 0.1225848891
H  H673  1  0.09000000  0.36740000  0.45660000  1.0 0.1016170064
H  H674  1  0.16000000  0.88260000  0.16400000  1.0 0.1016170064
H  H675  1  0.88260000  0.16400000  0.16000000  1.0 0.1016170064
H  H676  1  0.16400000  0.16000000  0.88260000  1.0 0.1016170064
H  H677  1  0.88260000  0.79340000  0.16400000  1.0 0.1016170064
H  H678  1  0.36740000  0.08600000  0.45660000  1.0 0.1016170064
H  H679  1  0.79340000  0.16000000  0.16400000  1.0 0.1016170064
H  H680  1  0.08600000  0.09000000  0.45660000  1.0 0.1016170064
H  H681  1  0.79340000  0.16400000  0.88260000  1.0 0.1016170064
H  H682  1  0.08600000  0.45660000  0.36740000  1.0 0.1016170064
H  H683  1  0.36740000  0.09000000  0.08600000  1.0 0.1016170064
H  H684  1  0.88260000  0.16000000  0.79340000  1.0 0.1016170064
H  H685  1  0.79340000  0.88260000  0.16000000  1.0 0.1016170064
H  H686  1  0.08600000  0.36740000  0.09000000  1.0 0.1016170064
H  H687  1  0.16000000  0.79340000  0.88260000  1.0 0.1016170064
H  H688  1  0.09000000  0.08600000  0.36740000  1.0 0.1016170064
H  H689  1  0.09000000  0.45660000  0.08600000  1.0 0.1016170064
H  H690  1  0.45660000  0.36740000  0.08600000  1.0 0.1016170064
H  H691  1  0.16400000  0.88260000  0.79340000  1.0 0.1016170064
H  H692  1  0.16000000  0.16400000  0.79340000  1.0 0.1016170064
H  H693  1  0.45660000  0.08600000  0.09000000  1.0 0.1016170064
H  H694  1  0.16400000  0.79340000  0.16000000  1.0 0.1016170064
H  H695  1  0.36740000  0.45660000  0.09000000  1.0 0.1016170064
H  H696  1  0.45660000  0.09000000  0.36740000  1.0 0.1016170064
H  H697  1  0.66000000  0.38260000  0.29340000  1.0 0.1016170064
H  H698  1  0.59000000  0.86740000  0.58600000  1.0 0.1016170064
H  H699  1  0.86740000  0.58600000  0.59000000  1.0 0.1016170064
H  H700  1  0.58600000  0.59000000  0.86740000  1.0 0.1016170064
H  H701  1  0.86740000  0.95660000  0.58600000  1.0 0.1016170064
H  H702  1  0.38260000  0.66400000  0.29340000  1.0 0.1016170064
H  H703  1  0.95660000  0.59000000  0.58600000  1.0 0.1016170064
H  H704  1  0.66400000  0.66000000  0.29340000  1.0 0.1016170064
H  H705  1  0.95660000  0.58600000  0.86740000  1.0 0.1016170064
H  H706  1  0.66400000  0.29340000  0.38260000  1.0 0.1016170064
H  H707  1  0.38260000  0.66000000  0.66400000  1.0 0.1016170064
H  H708  1  0.86740000  0.59000000  0.95660000  1.0 0.1016170064
H  H709  1  0.95660000  0.86740000  0.59000000  1.0 0.1016170064
H  H710  1  0.66400000  0.38260000  0.66000000  1.0 0.1016170064
H  H711  1  0.59000000  0.95660000  0.86740000  1.0 0.1016170064
H  H712  1  0.66000000  0.66400000  0.38260000  1.0 0.1016170064
H  H713  1  0.66000000  0.29340000  0.66400000  1.0 0.1016170064
H  H714  1  0.29340000  0.38260000  0.66400000  1.0 0.1016170064
H  H715  1  0.58600000  0.86740000  0.95660000  1.0 0.1016170064
H  H716  1  0.59000000  0.58600000  0.95660000  1.0 0.1016170064
H  H717  1  0.29340000  0.66400000  0.66000000  1.0 0.1016170064
H  H718  1  0.58600000  0.95660000  0.59000000  1.0 0.1016170064
H  H719  1  0.38260000  0.29340000  0.66000000  1.0 0.1016170064
H  H720  1  0.29340000  0.66000000  0.38260000  1.0 0.1016170064
H  H721  1  0.20450000  0.33170000  0.34670000  1.0 0.1083395326
H  H722  1  0.04550000  0.91830000  0.13290000  1.0 0.1083395326
H  H723  1  0.91830000  0.13290000  0.04550000  1.0 0.1083395326
H  H724  1  0.13290000  0.04550000  0.91830000  1.0 0.1083395326
H  H725  1  0.91830000  0.90330000  0.13290000  1.0 0.1083395326
H  H726  1  0.33170000  0.11710000  0.34670000  1.0 0.1083395326
H  H727  1  0.90330000  0.04550000  0.13290000  1.0 0.1083395326
H  H728  1  0.11710000  0.20450000  0.34670000  1.0 0.1083395326
H  H729  1  0.90330000  0.13290000  0.91830000  1.0 0.1083395326
H  H730  1  0.11710000  0.34670000  0.33170000  1.0 0.1083395326
H  H731  1  0.33170000  0.20450000  0.11710000  1.0 0.1083395326
H  H732  1  0.91830000  0.04550000  0.90330000  1.0 0.1083395326
H  H733  1  0.90330000  0.91830000  0.04550000  1.0 0.1083395326
H  H734  1  0.11710000  0.33170000  0.20450000  1.0 0.1083395326
H  H735  1  0.04550000  0.90330000  0.91830000  1.0 0.1083395326
H  H736  1  0.20450000  0.11710000  0.33170000  1.0 0.1083395326
H  H737  1  0.20450000  0.34670000  0.11710000  1.0 0.1083395326
H  H738  1  0.34670000  0.33170000  0.11710000  1.0 0.1083395326
H  H739  1  0.13290000  0.91830000  0.90330000  1.0 0.1083395326
H  H740  1  0.04550000  0.13290000  0.90330000  1.0 0.1083395326
H  H741  1  0.34670000  0.11710000  0.20450000  1.0 0.1083395326
H  H742  1  0.13290000  0.90330000  0.04550000  1.0 0.1083395326
H  H743  1  0.33170000  0.34670000  0.20450000  1.0 0.1083395326
H  H744  1  0.34670000  0.20450000  0.33170000  1.0 0.1083395326
H  H745  1  0.54550000  0.41830000  0.40330000  1.0 0.1083395326
H  H746  1  0.70450000  0.83170000  0.61710000  1.0 0.1083395326
H  H747  1  0.83170000  0.61710000  0.70450000  1.0 0.1083395326
H  H748  1  0.61710000  0.70450000  0.83170000  1.0 0.1083395326
H  H749  1  0.83170000  0.84670000  0.61710000  1.0 0.1083395326
H  H750  1  0.41830000  0.63290000  0.40330000  1.0 0.1083395326
H  H751  1  0.84670000  0.70450000  0.61710000  1.0 0.1083395326
H  H752  1  0.63290000  0.54550000  0.40330000  1.0 0.1083395326
H  H753  1  0.84670000  0.61710000  0.83170000  1.0 0.1083395326
H  H754  1  0.63290000  0.40330000  0.41830000  1.0 0.1083395326
H  H755  1  0.41830000  0.54550000  0.63290000  1.0 0.1083395326
H  H756  1  0.83170000  0.70450000  0.84670000  1.0 0.1083395326
H  H757  1  0.84670000  0.83170000  0.70450000  1.0 0.1083395326
H  H758  1  0.63290000  0.41830000  0.54550000  1.0 0.1083395326
H  H759  1  0.70450000  0.84670000  0.83170000  1.0 0.1083395326
H  H760  1  0.54550000  0.63290000  0.41830000  1.0 0.1083395326
H  H761  1  0.54550000  0.40330000  0.63290000  1.0 0.1083395326
H  H762  1  0.40330000  0.41830000  0.63290000  1.0 0.1083395326
H  H763  1  0.61710000  0.83170000  0.84670000  1.0 0.1083395326
H  H764  1  0.70450000  0.61710000  0.84670000  1.0 0.1083395326
H  H765  1  0.40330000  0.63290000  0.54550000  1.0 0.1083395326
H  H766  1  0.61710000  0.84670000  0.70450000  1.0 0.1083395326
H  H767  1  0.41830000  0.40330000  0.54550000  1.0 0.1083395326
H  H768  1  0.40330000  0.54550000  0.41830000  1.0 0.1083395326
C  C1  1  0.21145000  0.33569000  0.59787000  1.0 0.2425658381
C  C2  1  0.03855000  0.91431000  0.39501000  1.0 0.2425658381
C  C3  1  0.91431000  0.39501000  0.03855000  1.0 0.2425658381
C  C4  1  0.39501000  0.03855000  0.91431000  1.0 0.2425658381
C  C5  1  0.91431000  0.65213000  0.39501000  1.0 0.2425658381
C  C6  1  0.33569000  0.85499000  0.59787000  1.0 0.2425658381
C  C7  1  0.65213000  0.03855000  0.39501000  1.0 0.2425658381
C  C8  1  0.85499000  0.21145000  0.59787000  1.0 0.2425658381
C  C9  1  0.65213000  0.39501000  0.91431000  1.0 0.2425658381
C  C10  1  0.85499000  0.59787000  0.33569000  1.0 0.2425658381
C  C11  1  0.33569000  0.21145000  0.85499000  1.0 0.2425658381
C  C12  1  0.91431000  0.03855000  0.65213000  1.0 0.2425658381
C  C13  1  0.65213000  0.91431000  0.03855000  1.0 0.2425658381
C  C14  1  0.85499000  0.33569000  0.21145000  1.0 0.2425658381
C  C15  1  0.03855000  0.65213000  0.91431000  1.0 0.2425658381
C  C16  1  0.21145000  0.85499000  0.33569000  1.0 0.2425658381
C  C17  1  0.21145000  0.59787000  0.85499000  1.0 0.2425658381
C  C18  1  0.59787000  0.33569000  0.85499000  1.0 0.2425658381
C  C19  1  0.39501000  0.91431000  0.65213000  1.0 0.2425658381
C  C20  1  0.03855000  0.39501000  0.65213000  1.0 0.2425658381
C  C21  1  0.59787000  0.85499000  0.21145000  1.0 0.2425658381
C  C22  1  0.39501000  0.65213000  0.03855000  1.0 0.2425658381
C  C23  1  0.33569000  0.59787000  0.21145000  1.0 0.2425658381
C  C24  1  0.59787000  0.21145000  0.33569000  1.0 0.2425658381
C  C25  1  0.53855000  0.41431000  0.15213000  1.0 0.2425658381
C  C26  1  0.71145000  0.83569000  0.35499000  1.0 0.2425658381
C  C27  1  0.83569000  0.35499000  0.71145000  1.0 0.2425658381
C  C28  1  0.35499000  0.71145000  0.83569000  1.0 0.2425658381
C  C29  1  0.83569000  0.09787000  0.35499000  1.0 0.2425658381
C  C30  1  0.41431000  0.89501000  0.15213000  1.0 0.2425658381
C  C31  1  0.09787000  0.71145000  0.35499000  1.0 0.2425658381
C  C32  1  0.89501000  0.53855000  0.15213000  1.0 0.2425658381
C  C33  1  0.09787000  0.35499000  0.83569000  1.0 0.2425658381
C  C34  1  0.89501000  0.15213000  0.41431000  1.0 0.2425658381
C  C35  1  0.41431000  0.53855000  0.89501000  1.0 0.2425658381
C  C36  1  0.83569000  0.71145000  0.09787000  1.0 0.2425658381
C  C37  1  0.09787000  0.83569000  0.71145000  1.0 0.2425658381
C  C38  1  0.89501000  0.41431000  0.53855000  1.0 0.2425658381
C  C39  1  0.71145000  0.09787000  0.83569000  1.0 0.2425658381
C  C40  1  0.53855000  0.89501000  0.41431000  1.0 0.2425658381
C  C41  1  0.53855000  0.15213000  0.89501000  1.0 0.2425658381
C  C42  1  0.15213000  0.41431000  0.89501000  1.0 0.2425658381
C  C43  1  0.35499000  0.83569000  0.09787000  1.0 0.2425658381
C  C44  1  0.71145000  0.35499000  0.09787000  1.0 0.2425658381
C  C45  1  0.15213000  0.89501000  0.53855000  1.0 0.2425658381
C  C46  1  0.35499000  0.09787000  0.71145000  1.0 0.2425658381
C  C47  1  0.41431000  0.15213000  0.53855000  1.0 0.2425658381
C  C48  1  0.15213000  0.53855000  0.41431000  1.0 0.2425658381
C  C49  1  0.16955000  0.31697000  0.42961000  1.0 0.2425658381
C  C50  1  0.08045000  0.93303000  0.16613000  1.0 0.2425658381
C  C51  1  0.93303000  0.16613000  0.08045000  1.0 0.2425658381
C  C52  1  0.16613000  0.08045000  0.93303000  1.0 0.2425658381
C  C53  1  0.93303000  0.82039000  0.16613000  1.0 0.2425658381
C  C54  1  0.31697000  0.08387000  0.42961000  1.0 0.2425658381
C  C55  1  0.82039000  0.08045000  0.16613000  1.0 0.2425658381
C  C56  1  0.08387000  0.16955000  0.42961000  1.0 0.2425658381
C  C57  1  0.82039000  0.16613000  0.93303000  1.0 0.2425658381
C  C58  1  0.08387000  0.42961000  0.31697000  1.0 0.2425658381
C  C59  1  0.31697000  0.16955000  0.08387000  1.0 0.2425658381
C  C60  1  0.93303000  0.08045000  0.82039000  1.0 0.2425658381
C  C61  1  0.82039000  0.93303000  0.08045000  1.0 0.2425658381
C  C62  1  0.08387000  0.31697000  0.16955000  1.0 0.2425658381
C  C63  1  0.08045000  0.82039000  0.93303000  1.0 0.2425658381
C  C64  1  0.16955000  0.08387000  0.31697000  1.0 0.2425658381
C  C65  1  0.16955000  0.42961000  0.08387000  1.0 0.2425658381
C  C66  1  0.42961000  0.31697000  0.08387000  1.0 0.2425658381
C  C67  1  0.16613000  0.93303000  0.82039000  1.0 0.2425658381
C  C68  1  0.08045000  0.16613000  0.82039000  1.0 0.2425658381
C  C69  1  0.42961000  0.08387000  0.16955000  1.0 0.2425658381
C  C70  1  0.16613000  0.82039000  0.08045000  1.0 0.2425658381
C  C71  1  0.31697000  0.42961000  0.16955000  1.0 0.2425658381
C  C72  1  0.42961000  0.16955000  0.31697000  1.0 0.2425658381
C  C73  1  0.58045000  0.43303000  0.32039000  1.0 0.2425658381
C  C74  1  0.66955000  0.81697000  0.58387000  1.0 0.2425658381
C  C75  1  0.81697000  0.58387000  0.66955000  1.0 0.2425658381
C  C76  1  0.58387000  0.66955000  0.81697000  1.0 0.2425658381
C  C77  1  0.81697000  0.92961000  0.58387000  1.0 0.2425658381
C  C78  1  0.43303000  0.66613000  0.32039000  1.0 0.2425658381
C  C79  1  0.92961000  0.66955000  0.58387000  1.0 0.2425658381
C  C80  1  0.66613000  0.58045000  0.32039000  1.0 0.2425658381
C  C81  1  0.92961000  0.58387000  0.81697000  1.0 0.2425658381
C  C82  1  0.66613000  0.32039000  0.43303000  1.0 0.2425658381
C  C83  1  0.43303000  0.58045000  0.66613000  1.0 0.2425658381
C  C84  1  0.81697000  0.66955000  0.92961000  1.0 0.2425658381
C  C85  1  0.92961000  0.81697000  0.66955000  1.0 0.2425658381
C  C86  1  0.66613000  0.43303000  0.58045000  1.0 0.2425658381
C  C87  1  0.66955000  0.92961000  0.81697000  1.0 0.2425658381
C  C88  1  0.58045000  0.66613000  0.43303000  1.0 0.2425658381
C  C89  1  0.58045000  0.32039000  0.66613000  1.0 0.2425658381
C  C90  1  0.32039000  0.43303000  0.66613000  1.0 0.2425658381
C  C91  1  0.58387000  0.81697000  0.92961000  1.0 0.2425658381
C  C92  1  0.66955000  0.58387000  0.92961000  1.0 0.2425658381
C  C93  1  0.32039000  0.66613000  0.58045000  1.0 0.2425658381
C  C94  1  0.58387000  0.92961000  0.66955000  1.0 0.2425658381
C  C95  1  0.43303000  0.32039000  0.58045000  1.0 0.2425658381
C  C96  1  0.32039000  0.58045000  0.43303000  1.0 0.2425658381
C  C97  1  0.10337000  0.34723000  0.58179000  1.0 0.0596429036
C  C98  1  0.14663000  0.90277000  0.28239000  1.0 0.0596429036
C  C99  1  0.90277000  0.28239000  0.14663000  1.0 0.0596429036
C  C100  1  0.28239000  0.14663000  0.90277000  1.0 0.0596429036
C  C101  1  0.90277000  0.66821000  0.28239000  1.0 0.0596429036
C  C102  1  0.34723000  0.96761000  0.58179000  1.0 0.0596429036
C  C103  1  0.66821000  0.14663000  0.28239000  1.0 0.0596429036
C  C104  1  0.96761000  0.10337000  0.58179000  1.0 0.0596429036
C  C105  1  0.66821000  0.28239000  0.90277000  1.0 0.0596429036
C  C106  1  0.96761000  0.58179000  0.34723000  1.0 0.0596429036
C  C107  1  0.34723000  0.10337000  0.96761000  1.0 0.0596429036
C  C108  1  0.90277000  0.14663000  0.66821000  1.0 0.0596429036
C  C109  1  0.66821000  0.90277000  0.14663000  1.0 0.0596429036
C  C110  1  0.96761000  0.34723000  0.10337000  1.0 0.0596429036
C  C111  1  0.14663000  0.66821000  0.90277000  1.0 0.0596429036
C  C112  1  0.10337000  0.96761000  0.34723000  1.0 0.0596429036
C  C113  1  0.10337000  0.58179000  0.96761000  1.0 0.0596429036
C  C114  1  0.58179000  0.34723000  0.96761000  1.0 0.0596429036
C  C115  1  0.28239000  0.90277000  0.66821000  1.0 0.0596429036
C  C116  1  0.14663000  0.28239000  0.66821000  1.0 0.0596429036
C  C117  1  0.58179000  0.96761000  0.10337000  1.0 0.0596429036
C  C118  1  0.28239000  0.66821000  0.14663000  1.0 0.0596429036
C  C119  1  0.34723000  0.58179000  0.10337000  1.0 0.0596429036
C  C120  1  0.58179000  0.10337000  0.34723000  1.0 0.0596429036
C  C121  1  0.64663000  0.40277000  0.16821000  1.0 0.0596429036
C  C122  1  0.60337000  0.84723000  0.46761000  1.0 0.0596429036
C  C123  1  0.84723000  0.46761000  0.60337000  1.0 0.0596429036
C  C124  1  0.46761000  0.60337000  0.84723000  1.0 0.0596429036
C  C125  1  0.84723000  0.08179000  0.46761000  1.0 0.0596429036
C  C126  1  0.40277000  0.78239000  0.16821000  1.0 0.0596429036
C  C127  1  0.08179000  0.60337000  0.46761000  1.0 0.0596429036
C  C128  1  0.78239000  0.64663000  0.16821000  1.0 0.0596429036
C  C129  1  0.08179000  0.46761000  0.84723000  1.0 0.0596429036
C  C130  1  0.78239000  0.16821000  0.40277000  1.0 0.0596429036
C  C131  1  0.40277000  0.64663000  0.78239000  1.0 0.0596429036
C  C132  1  0.84723000  0.60337000  0.08179000  1.0 0.0596429036
C  C133  1  0.08179000  0.84723000  0.60337000  1.0 0.0596429036
C  C134  1  0.78239000  0.40277000  0.64663000  1.0 0.0596429036
C  C135  1  0.60337000  0.08179000  0.84723000  1.0 0.0596429036
C  C136  1  0.64663000  0.78239000  0.40277000  1.0 0.0596429036
C  C137  1  0.64663000  0.16821000  0.78239000  1.0 0.0596429036
C  C138  1  0.16821000  0.40277000  0.78239000  1.0 0.0596429036
C  C139  1  0.46761000  0.84723000  0.08179000  1.0 0.0596429036
C  C140  1  0.60337000  0.46761000  0.08179000  1.0 0.0596429036
C  C141  1  0.16821000  0.78239000  0.64663000  1.0 0.0596429036
C  C142  1  0.46761000  0.08179000  0.60337000  1.0 0.0596429036
C  C143  1  0.40277000  0.16821000  0.64663000  1.0 0.0596429036
C  C144  1  0.16821000  0.64663000  0.40277000  1.0 0.0596429036
C  C145  1  0.10389000  0.33943000  0.55559000  1.0 -0.0214068082
C  C146  1  0.14611000  0.91057000  0.24891000  1.0 -0.0214068082
C  C147  1  0.91057000  0.24891000  0.14611000  1.0 -0.0214068082
C  C148  1  0.24891000  0.14611000  0.91057000  1.0 -0.0214068082
C  C149  1  0.91057000  0.69441000  0.24891000  1.0 -0.0214068082
C  C150  1  0.33943000  0.00109000  0.55559000  1.0 -0.0214068082
C  C151  1  0.69441000  0.14611000  0.24891000  1.0 -0.0214068082
C  C152  1  0.00109000  0.10389000  0.55559000  1.0 -0.0214068082
C  C153  1  0.69441000  0.24891000  0.91057000  1.0 -0.0214068082
C  C154  1  0.00109000  0.55559000  0.33943000  1.0 -0.0214068082
C  C155  1  0.33943000  0.10389000  0.00109000  1.0 -0.0214068082
C  C156  1  0.91057000  0.14611000  0.69441000  1.0 -0.0214068082
C  C157  1  0.69441000  0.91057000  0.14611000  1.0 -0.0214068082
C  C158  1  0.00109000  0.33943000  0.10389000  1.0 -0.0214068082
C  C159  1  0.14611000  0.69441000  0.91057000  1.0 -0.0214068082
C  C160  1  0.10389000  0.00109000  0.33943000  1.0 -0.0214068082
C  C161  1  0.10389000  0.55559000  0.00109000  1.0 -0.0214068082
C  C162  1  0.55559000  0.33943000  0.00109000  1.0 -0.0214068082
C  C163  1  0.24891000  0.91057000  0.69441000  1.0 -0.0214068082
C  C164  1  0.14611000  0.24891000  0.69441000  1.0 -0.0214068082
C  C165  1  0.55559000  0.00109000  0.10389000  1.0 -0.0214068082
C  C166  1  0.24891000  0.69441000  0.14611000  1.0 -0.0214068082
C  C167  1  0.33943000  0.55559000  0.10389000  1.0 -0.0214068082
C  C168  1  0.55559000  0.10389000  0.33943000  1.0 -0.0214068082
C  C169  1  0.64611000  0.41057000  0.19441000  1.0 -0.0214068082
C  C170  1  0.60389000  0.83943000  0.50109000  1.0 -0.0214068082
C  C171  1  0.83943000  0.50109000  0.60389000  1.0 -0.0214068082
C  C172  1  0.50109000  0.60389000  0.83943000  1.0 -0.0214068082
C  C173  1  0.83943000  0.05559000  0.50109000  1.0 -0.0214068082
C  C174  1  0.41057000  0.74891000  0.19441000  1.0 -0.0214068082
C  C175  1  0.05559000  0.60389000  0.50109000  1.0 -0.0214068082
C  C176  1  0.74891000  0.64611000  0.19441000  1.0 -0.0214068082
C  C177  1  0.05559000  0.50109000  0.83943000  1.0 -0.0214068082
C  C178  1  0.74891000  0.19441000  0.41057000  1.0 -0.0214068082
C  C179  1  0.41057000  0.64611000  0.74891000  1.0 -0.0214068082
C  C180  1  0.83943000  0.60389000  0.05559000  1.0 -0.0214068082
C  C181  1  0.05559000  0.83943000  0.60389000  1.0 -0.0214068082
C  C182  1  0.74891000  0.41057000  0.64611000  1.0 -0.0214068082
C  C183  1  0.60389000  0.05559000  0.83943000  1.0 -0.0214068082
C  C184  1  0.64611000  0.74891000  0.41057000  1.0 -0.0214068082
C  C185  1  0.64611000  0.19441000  0.74891000  1.0 -0.0214068082
C  C186  1  0.19441000  0.41057000  0.74891000  1.0 -0.0214068082
C  C187  1  0.50109000  0.83943000  0.05559000  1.0 -0.0214068082
C  C188  1  0.60389000  0.50109000  0.05559000  1.0 -0.0214068082
C  C189  1  0.19441000  0.74891000  0.64611000  1.0 -0.0214068082
C  C190  1  0.50109000  0.05559000  0.60389000  1.0 -0.0214068082
C  C191  1  0.41057000  0.19441000  0.64611000  1.0 -0.0214068082
C  C192  1  0.19441000  0.64611000  0.41057000  1.0 -0.0214068082
C  C193  1  0.13661000  0.32583000  0.53183000  1.0 -0.0578433941
C  C194  1  0.11339000  0.92417000  0.24427000  1.0 -0.0578433941
C  C195  1  0.92417000  0.24427000  0.11339000  1.0 -0.0578433941
C  C196  1  0.24427000  0.11339000  0.92417000  1.0 -0.0578433941
C  C197  1  0.92417000  0.71817000  0.24427000  1.0 -0.0578433941
C  C198  1  0.32583000  0.00573000  0.53183000  1.0 -0.0578433941
C  C199  1  0.71817000  0.11339000  0.24427000  1.0 -0.0578433941
C  C200  1  0.00573000  0.13661000  0.53183000  1.0 -0.0578433941
C  C201  1  0.71817000  0.24427000  0.92417000  1.0 -0.0578433941
C  C202  1  0.00573000  0.53183000  0.32583000  1.0 -0.0578433941
C  C203  1  0.32583000  0.13661000  0.00573000  1.0 -0.0578433941
C  C204  1  0.92417000  0.11339000  0.71817000  1.0 -0.0578433941
C  C205  1  0.71817000  0.92417000  0.11339000  1.0 -0.0578433941
C  C206  1  0.00573000  0.32583000  0.13661000  1.0 -0.0578433941
C  C207  1  0.11339000  0.71817000  0.92417000  1.0 -0.0578433941
C  C208  1  0.13661000  0.00573000  0.32583000  1.0 -0.0578433941
C  C209  1  0.13661000  0.53183000  0.00573000  1.0 -0.0578433941
C  C210  1  0.53183000  0.32583000  0.00573000  1.0 -0.0578433941
C  C211  1  0.24427000  0.92417000  0.71817000  1.0 -0.0578433941
C  C212  1  0.11339000  0.24427000  0.71817000  1.0 -0.0578433941
C  C213  1  0.53183000  0.00573000  0.13661000  1.0 -0.0578433941
C  C214  1  0.24427000  0.71817000  0.11339000  1.0 -0.0578433941
C  C215  1  0.32583000  0.53183000  0.13661000  1.0 -0.0578433941
C  C216  1  0.53183000  0.13661000  0.32583000  1.0 -0.0578433941
C  C217  1  0.61339000  0.42417000  0.21817000  1.0 -0.0578433941
C  C218  1  0.63661000  0.82583000  0.50573000  1.0 -0.0578433941
C  C219  1  0.82583000  0.50573000  0.63661000  1.0 -0.0578433941
C  C220  1  0.50573000  0.63661000  0.82583000  1.0 -0.0578433941
C  C221  1  0.82583000  0.03183000  0.50573000  1.0 -0.0578433941
C  C222  1  0.42417000  0.74427000  0.21817000  1.0 -0.0578433941
C  C223  1  0.03183000  0.63661000  0.50573000  1.0 -0.0578433941
C  C224  1  0.74427000  0.61339000  0.21817000  1.0 -0.0578433941
C  C225  1  0.03183000  0.50573000  0.82583000  1.0 -0.0578433941
C  C226  1  0.74427000  0.21817000  0.42417000  1.0 -0.0578433941
C  C227  1  0.42417000  0.61339000  0.74427000  1.0 -0.0578433941
C  C228  1  0.82583000  0.63661000  0.03183000  1.0 -0.0578433941
C  C229  1  0.03183000  0.82583000  0.63661000  1.0 -0.0578433941
C  C230  1  0.74427000  0.42417000  0.61339000  1.0 -0.0578433941
C  C231  1  0.63661000  0.03183000  0.82583000  1.0 -0.0578433941
C  C232  1  0.61339000  0.74427000  0.42417000  1.0 -0.0578433941
C  C233  1  0.61339000  0.21817000  0.74427000  1.0 -0.0578433941
C  C234  1  0.21817000  0.42417000  0.74427000  1.0 -0.0578433941
C  C235  1  0.50573000  0.82583000  0.03183000  1.0 -0.0578433941
C  C236  1  0.63661000  0.50573000  0.03183000  1.0 -0.0578433941
C  C237  1  0.21817000  0.74427000  0.61339000  1.0 -0.0578433941
C  C238  1  0.50573000  0.03183000  0.63661000  1.0 -0.0578433941
C  C239  1  0.42417000  0.21817000  0.61339000  1.0 -0.0578433941
C  C240  1  0.21817000  0.61339000  0.42417000  1.0 -0.0578433941
C  C241  1  0.16778000  0.31836000  0.53612000  1.0 -0.12921108
C  C242  1  0.08222000  0.93164000  0.27226000  1.0 -0.12921108
C  C243  1  0.93164000  0.27226000  0.08222000  1.0 -0.12921108
C  C244  1  0.27226000  0.08222000  0.93164000  1.0 -0.12921108
C  C245  1  0.93164000  0.71388000  0.27226000  1.0 -0.12921108
C  C246  1  0.31836000  0.97774000  0.53612000  1.0 -0.12921108
C  C247  1  0.71388000  0.08222000  0.27226000  1.0 -0.12921108
C  C248  1  0.97774000  0.16778000  0.53612000  1.0 -0.12921108
C  C249  1  0.71388000  0.27226000  0.93164000  1.0 -0.12921108
C  C250  1  0.97774000  0.53612000  0.31836000  1.0 -0.12921108
C  C251  1  0.31836000  0.16778000  0.97774000  1.0 -0.12921108
C  C252  1  0.93164000  0.08222000  0.71388000  1.0 -0.12921108
C  C253  1  0.71388000  0.93164000  0.08222000  1.0 -0.12921108
C  C254  1  0.97774000  0.31836000  0.16778000  1.0 -0.12921108
C  C255  1  0.08222000  0.71388000  0.93164000  1.0 -0.12921108
C  C256  1  0.16778000  0.97774000  0.31836000  1.0 -0.12921108
C  C257  1  0.16778000  0.53612000  0.97774000  1.0 -0.12921108
C  C258  1  0.53612000  0.31836000  0.97774000  1.0 -0.12921108
C  C259  1  0.27226000  0.93164000  0.71388000  1.0 -0.12921108
C  C260  1  0.08222000  0.27226000  0.71388000  1.0 -0.12921108
C  C261  1  0.53612000  0.97774000  0.16778000  1.0 -0.12921108
C  C262  1  0.27226000  0.71388000  0.08222000  1.0 -0.12921108
C  C263  1  0.31836000  0.53612000  0.16778000  1.0 -0.12921108
C  C264  1  0.53612000  0.16778000  0.31836000  1.0 -0.12921108
C  C265  1  0.58222000  0.43164000  0.21388000  1.0 -0.12921108
C  C266  1  0.66778000  0.81836000  0.47774000  1.0 -0.12921108
C  C267  1  0.81836000  0.47774000  0.66778000  1.0 -0.12921108
C  C268  1  0.47774000  0.66778000  0.81836000  1.0 -0.12921108
C  C269  1  0.81836000  0.03612000  0.47774000  1.0 -0.12921108
C  C270  1  0.43164000  0.77226000  0.21388000  1.0 -0.12921108
C  C271  1  0.03612000  0.66778000  0.47774000  1.0 -0.12921108
C  C272  1  0.77226000  0.58222000  0.21388000  1.0 -0.12921108
C  C273  1  0.03612000  0.47774000  0.81836000  1.0 -0.12921108
C  C274  1  0.77226000  0.21388000  0.43164000  1.0 -0.12921108
C  C275  1  0.43164000  0.58222000  0.77226000  1.0 -0.12921108
C  C276  1  0.81836000  0.66778000  0.03612000  1.0 -0.12921108
C  C277  1  0.03612000  0.81836000  0.66778000  1.0 -0.12921108
C  C278  1  0.77226000  0.43164000  0.58222000  1.0 -0.12921108
C  C279  1  0.66778000  0.03612000  0.81836000  1.0 -0.12921108
C  C280  1  0.58222000  0.77226000  0.43164000  1.0 -0.12921108
C  C281  1  0.58222000  0.21388000  0.77226000  1.0 -0.12921108
C  C282  1  0.21388000  0.43164000  0.77226000  1.0 -0.12921108
C  C283  1  0.47774000  0.81836000  0.03612000  1.0 -0.12921108
C  C284  1  0.66778000  0.47774000  0.03612000  1.0 -0.12921108
C  C285  1  0.21388000  0.77226000  0.58222000  1.0 -0.12921108
C  C286  1  0.47774000  0.03612000  0.66778000  1.0 -0.12921108
C  C287  1  0.43164000  0.21388000  0.58222000  1.0 -0.12921108
C  C288  1  0.21388000  0.58222000  0.43164000  1.0 -0.12921108
C  C289  1  0.16520000  0.32690000  0.56288000  1.0 0.070283548
C  C290  1  0.08480000  0.92310000  0.30498000  1.0 0.070283548
C  C291  1  0.92310000  0.30498000  0.08480000  1.0 0.070283548
C  C292  1  0.30498000  0.08480000  0.92310000  1.0 0.070283548
C  C293  1  0.92310000  0.68712000  0.30498000  1.0 0.070283548
C  C294  1  0.32690000  0.94502000  0.56288000  1.0 0.070283548
C  C295  1  0.68712000  0.08480000  0.30498000  1.0 0.070283548
C  C296  1  0.94502000  0.16520000  0.56288000  1.0 0.070283548
C  C297  1  0.68712000  0.30498000  0.92310000  1.0 0.070283548
C  C298  1  0.94502000  0.56288000  0.32690000  1.0 0.070283548
C  C299  1  0.32690000  0.16520000  0.94502000  1.0 0.070283548
C  C300  1  0.92310000  0.08480000  0.68712000  1.0 0.070283548
C  C301  1  0.68712000  0.92310000  0.08480000  1.0 0.070283548
C  C302  1  0.94502000  0.32690000  0.16520000  1.0 0.070283548
C  C303  1  0.08480000  0.68712000  0.92310000  1.0 0.070283548
C  C304  1  0.16520000  0.94502000  0.32690000  1.0 0.070283548
C  C305  1  0.16520000  0.56288000  0.94502000  1.0 0.070283548
C  C306  1  0.56288000  0.32690000  0.94502000  1.0 0.070283548
C  C307  1  0.30498000  0.92310000  0.68712000  1.0 0.070283548
C  C308  1  0.08480000  0.30498000  0.68712000  1.0 0.070283548
C  C309  1  0.56288000  0.94502000  0.16520000  1.0 0.070283548
C  C310  1  0.30498000  0.68712000  0.08480000  1.0 0.070283548
C  C311  1  0.32690000  0.56288000  0.16520000  1.0 0.070283548
C  C312  1  0.56288000  0.16520000  0.32690000  1.0 0.070283548
C  C313  1  0.58480000  0.42310000  0.18712000  1.0 0.070283548
C  C314  1  0.66520000  0.82690000  0.44502000  1.0 0.070283548
C  C315  1  0.82690000  0.44502000  0.66520000  1.0 0.070283548
C  C316  1  0.44502000  0.66520000  0.82690000  1.0 0.070283548
C  C317  1  0.82690000  0.06288000  0.44502000  1.0 0.070283548
C  C318  1  0.42310000  0.80498000  0.18712000  1.0 0.070283548
C  C319  1  0.06288000  0.66520000  0.44502000  1.0 0.070283548
C  C320  1  0.80498000  0.58480000  0.18712000  1.0 0.070283548
C  C321  1  0.06288000  0.44502000  0.82690000  1.0 0.070283548
C  C322  1  0.80498000  0.18712000  0.42310000  1.0 0.070283548
C  C323  1  0.42310000  0.58480000  0.80498000  1.0 0.070283548
C  C324  1  0.82690000  0.66520000  0.06288000  1.0 0.070283548
C  C325  1  0.06288000  0.82690000  0.66520000  1.0 0.070283548
C  C326  1  0.80498000  0.42310000  0.58480000  1.0 0.070283548
C  C327  1  0.66520000  0.06288000  0.82690000  1.0 0.070283548
C  C328  1  0.58480000  0.80498000  0.42310000  1.0 0.070283548
C  C329  1  0.58480000  0.18712000  0.80498000  1.0 0.070283548
C  C330  1  0.18712000  0.42310000  0.80498000  1.0 0.070283548
C  C331  1  0.44502000  0.82690000  0.06288000  1.0 0.070283548
C  C332  1  0.66520000  0.44502000  0.06288000  1.0 0.070283548
C  C333  1  0.18712000  0.80498000  0.58480000  1.0 0.070283548
C  C334  1  0.44502000  0.06288000  0.66520000  1.0 0.070283548
C  C335  1  0.42310000  0.18712000  0.58480000  1.0 0.070283548
C  C336  1  0.18712000  0.58480000  0.42310000  1.0 0.070283548
C  C337  1  0.91079000  0.37661000  0.66179000  1.0 0.0827033195
C  C338  1  0.33921000  0.87339000  0.19919000  1.0 0.0827033195
C  C339  1  0.87339000  0.19919000  0.33921000  1.0 0.0827033195
C  C340  1  0.19919000  0.33921000  0.87339000  1.0 0.0827033195
C  C341  1  0.87339000  0.58821000  0.19919000  1.0 0.0827033195
C  C342  1  0.37661000  0.05081000  0.66179000  1.0 0.0827033195
C  C343  1  0.58821000  0.33921000  0.19919000  1.0 0.0827033195
C  C344  1  0.05081000  0.91079000  0.66179000  1.0 0.0827033195
C  C345  1  0.58821000  0.19919000  0.87339000  1.0 0.0827033195
C  C346  1  0.05081000  0.66179000  0.37661000  1.0 0.0827033195
C  C347  1  0.37661000  0.91079000  0.05081000  1.0 0.0827033195
C  C348  1  0.87339000  0.33921000  0.58821000  1.0 0.0827033195
C  C349  1  0.58821000  0.87339000  0.33921000  1.0 0.0827033195
C  C350  1  0.05081000  0.37661000  0.91079000  1.0 0.0827033195
C  C351  1  0.33921000  0.58821000  0.87339000  1.0 0.0827033195
C  C352  1  0.91079000  0.05081000  0.37661000  1.0 0.0827033195
C  C353  1  0.91079000  0.66179000  0.05081000  1.0 0.0827033195
C  C354  1  0.66179000  0.37661000  0.05081000  1.0 0.0827033195
C  C355  1  0.19919000  0.87339000  0.58821000  1.0 0.0827033195
C  C356  1  0.33921000  0.19919000  0.58821000  1.0 0.0827033195
C  C357  1  0.66179000  0.05081000  0.91079000  1.0 0.0827033195
C  C358  1  0.19919000  0.58821000  0.33921000  1.0 0.0827033195
C  C359  1  0.37661000  0.66179000  0.91079000  1.0 0.0827033195
C  C360  1  0.66179000  0.91079000  0.37661000  1.0 0.0827033195
C  C361  1  0.83921000  0.37339000  0.08821000  1.0 0.0827033195
C  C362  1  0.41079000  0.87661000  0.55081000  1.0 0.0827033195
C  C363  1  0.87661000  0.55081000  0.41079000  1.0 0.0827033195
C  C364  1  0.55081000  0.41079000  0.87661000  1.0 0.0827033195
C  C365  1  0.87661000  0.16179000  0.55081000  1.0 0.0827033195
C  C366  1  0.37339000  0.69919000  0.08821000  1.0 0.0827033195
C  C367  1  0.16179000  0.41079000  0.55081000  1.0 0.0827033195
C  C368  1  0.69919000  0.83921000  0.08821000  1.0 0.0827033195
C  C369  1  0.16179000  0.55081000  0.87661000  1.0 0.0827033195
C  C370  1  0.69919000  0.08821000  0.37339000  1.0 0.0827033195
C  C371  1  0.37339000  0.83921000  0.69919000  1.0 0.0827033195
C  C372  1  0.87661000  0.41079000  0.16179000  1.0 0.0827033195
C  C373  1  0.16179000  0.87661000  0.41079000  1.0 0.0827033195
C  C374  1  0.69919000  0.37339000  0.83921000  1.0 0.0827033195
C  C375  1  0.41079000  0.16179000  0.87661000  1.0 0.0827033195
C  C376  1  0.83921000  0.69919000  0.37339000  1.0 0.0827033195
C  C377  1  0.83921000  0.08821000  0.69919000  1.0 0.0827033195
C  C378  1  0.08821000  0.37339000  0.69919000  1.0 0.0827033195
C  C379  1  0.55081000  0.87661000  0.16179000  1.0 0.0827033195
C  C380  1  0.41079000  0.55081000  0.16179000  1.0 0.0827033195
C  C381  1  0.08821000  0.69919000  0.83921000  1.0 0.0827033195
C  C382  1  0.55081000  0.16179000  0.41079000  1.0 0.0827033195
C  C383  1  0.37339000  0.08821000  0.83921000  1.0 0.0827033195
C  C384  1  0.08821000  0.83921000  0.37339000  1.0 0.0827033195
C  C385  1  0.94074000  0.37424000  0.66482000  1.0 -0.12921108
C  C386  1  0.30926000  0.87576000  0.22980000  1.0 -0.12921108
C  C387  1  0.87576000  0.22980000  0.30926000  1.0 -0.12921108
C  C388  1  0.22980000  0.30926000  0.87576000  1.0 -0.12921108
C  C389  1  0.87576000  0.58518000  0.22980000  1.0 -0.12921108
C  C390  1  0.37424000  0.02020000  0.66482000  1.0 -0.12921108
C  C391  1  0.58518000  0.30926000  0.22980000  1.0 -0.12921108
C  C392  1  0.02020000  0.94074000  0.66482000  1.0 -0.12921108
C  C393  1  0.58518000  0.22980000  0.87576000  1.0 -0.12921108
C  C394  1  0.02020000  0.66482000  0.37424000  1.0 -0.12921108
C  C395  1  0.37424000  0.94074000  0.02020000  1.0 -0.12921108
C  C396  1  0.87576000  0.30926000  0.58518000  1.0 -0.12921108
C  C397  1  0.58518000  0.87576000  0.30926000  1.0 -0.12921108
C  C398  1  0.02020000  0.37424000  0.94074000  1.0 -0.12921108
C  C399  1  0.30926000  0.58518000  0.87576000  1.0 -0.12921108
C  C400  1  0.94074000  0.02020000  0.37424000  1.0 -0.12921108
C  C401  1  0.94074000  0.66482000  0.02020000  1.0 -0.12921108
C  C402  1  0.66482000  0.37424000  0.02020000  1.0 -0.12921108
C  C403  1  0.22980000  0.87576000  0.58518000  1.0 -0.12921108
C  C404  1  0.30926000  0.22980000  0.58518000  1.0 -0.12921108
C  C405  1  0.66482000  0.02020000  0.94074000  1.0 -0.12921108
C  C406  1  0.22980000  0.58518000  0.30926000  1.0 -0.12921108
C  C407  1  0.37424000  0.66482000  0.94074000  1.0 -0.12921108
C  C408  1  0.66482000  0.94074000  0.37424000  1.0 -0.12921108
C  C409  1  0.80926000  0.37576000  0.08518000  1.0 -0.12921108
C  C410  1  0.44074000  0.87424000  0.52020000  1.0 -0.12921108
C  C411  1  0.87424000  0.52020000  0.44074000  1.0 -0.12921108
C  C412  1  0.52020000  0.44074000  0.87424000  1.0 -0.12921108
C  C413  1  0.87424000  0.16482000  0.52020000  1.0 -0.12921108
C  C414  1  0.37576000  0.72980000  0.08518000  1.0 -0.12921108
C  C415  1  0.16482000  0.44074000  0.52020000  1.0 -0.12921108
C  C416  1  0.72980000  0.80926000  0.08518000  1.0 -0.12921108
C  C417  1  0.16482000  0.52020000  0.87424000  1.0 -0.12921108
C  C418  1  0.72980000  0.08518000  0.37576000  1.0 -0.12921108
C  C419  1  0.37576000  0.80926000  0.72980000  1.0 -0.12921108
C  C420  1  0.87424000  0.44074000  0.16482000  1.0 -0.12921108
C  C421  1  0.16482000  0.87424000  0.44074000  1.0 -0.12921108
C  C422  1  0.72980000  0.37576000  0.80926000  1.0 -0.12921108
C  C423  1  0.44074000  0.16482000  0.87424000  1.0 -0.12921108
C  C424  1  0.80926000  0.72980000  0.37576000  1.0 -0.12921108
C  C425  1  0.80926000  0.08518000  0.72980000  1.0 -0.12921108
C  C426  1  0.08518000  0.37576000  0.72980000  1.0 -0.12921108
C  C427  1  0.52020000  0.87424000  0.16482000  1.0 -0.12921108
C  C428  1  0.44074000  0.52020000  0.16482000  1.0 -0.12921108
C  C429  1  0.08518000  0.72980000  0.80926000  1.0 -0.12921108
C  C430  1  0.52020000  0.16482000  0.44074000  1.0 -0.12921108
C  C431  1  0.37576000  0.08518000  0.80926000  1.0 -0.12921108
C  C432  1  0.08518000  0.80926000  0.37576000  1.0 -0.12921108
C  C433  1  0.97390000  0.36858000  0.63736000  1.0 -0.0578433941
C  C434  1  0.27610000  0.88142000  0.22984000  1.0 -0.0578433941
C  C435  1  0.88142000  0.22984000  0.27610000  1.0 -0.0578433941
C  C436  1  0.22984000  0.27610000  0.88142000  1.0 -0.0578433941
C  C437  1  0.88142000  0.61264000  0.22984000  1.0 -0.0578433941
C  C438  1  0.36858000  0.02016000  0.63736000  1.0 -0.0578433941
C  C439  1  0.61264000  0.27610000  0.22984000  1.0 -0.0578433941
C  C440  1  0.02016000  0.97390000  0.63736000  1.0 -0.0578433941
C  C441  1  0.61264000  0.22984000  0.88142000  1.0 -0.0578433941
C  C442  1  0.02016000  0.63736000  0.36858000  1.0 -0.0578433941
C  C443  1  0.36858000  0.97390000  0.02016000  1.0 -0.0578433941
C  C444  1  0.88142000  0.27610000  0.61264000  1.0 -0.0578433941
C  C445  1  0.61264000  0.88142000  0.27610000  1.0 -0.0578433941
C  C446  1  0.02016000  0.36858000  0.97390000  1.0 -0.0578433941
C  C447  1  0.27610000  0.61264000  0.88142000  1.0 -0.0578433941
C  C448  1  0.97390000  0.02016000  0.36858000  1.0 -0.0578433941
C  C449  1  0.97390000  0.63736000  0.02016000  1.0 -0.0578433941
C  C450  1  0.63736000  0.36858000  0.02016000  1.0 -0.0578433941
C  C451  1  0.22984000  0.88142000  0.61264000  1.0 -0.0578433941
C  C452  1  0.27610000  0.22984000  0.61264000  1.0 -0.0578433941
C  C453  1  0.63736000  0.02016000  0.97390000  1.0 -0.0578433941
C  C454  1  0.22984000  0.61264000  0.27610000  1.0 -0.0578433941
C  C455  1  0.36858000  0.63736000  0.97390000  1.0 -0.0578433941
C  C456  1  0.63736000  0.97390000  0.36858000  1.0 -0.0578433941
C  C457  1  0.77610000  0.38142000  0.11264000  1.0 -0.0578433941
C  C458  1  0.47390000  0.86858000  0.52016000  1.0 -0.0578433941
C  C459  1  0.86858000  0.52016000  0.47390000  1.0 -0.0578433941
C  C460  1  0.52016000  0.47390000  0.86858000  1.0 -0.0578433941
C  C461  1  0.86858000  0.13736000  0.52016000  1.0 -0.0578433941
C  C462  1  0.38142000  0.72984000  0.11264000  1.0 -0.0578433941
C  C463  1  0.13736000  0.47390000  0.52016000  1.0 -0.0578433941
C  C464  1  0.72984000  0.77610000  0.11264000  1.0 -0.0578433941
C  C465  1  0.13736000  0.52016000  0.86858000  1.0 -0.0578433941
C  C466  1  0.72984000  0.11264000  0.38142000  1.0 -0.0578433941
C  C467  1  0.38142000  0.77610000  0.72984000  1.0 -0.0578433941
C  C468  1  0.86858000  0.47390000  0.13736000  1.0 -0.0578433941
C  C469  1  0.13736000  0.86858000  0.47390000  1.0 -0.0578433941
C  C470  1  0.72984000  0.38142000  0.77610000  1.0 -0.0578433941
C  C471  1  0.47390000  0.13736000  0.86858000  1.0 -0.0578433941
C  C472  1  0.77610000  0.72984000  0.38142000  1.0 -0.0578433941
C  C473  1  0.77610000  0.11264000  0.72984000  1.0 -0.0578433941
C  C474  1  0.11264000  0.38142000  0.72984000  1.0 -0.0578433941
C  C475  1  0.52016000  0.86858000  0.13736000  1.0 -0.0578433941
C  C476  1  0.47390000  0.52016000  0.13736000  1.0 -0.0578433941
C  C477  1  0.11264000  0.72984000  0.77610000  1.0 -0.0578433941
C  C478  1  0.52016000  0.13736000  0.47390000  1.0 -0.0578433941
C  C479  1  0.38142000  0.11264000  0.77610000  1.0 -0.0578433941
C  C480  1  0.11264000  0.77610000  0.38142000  1.0 -0.0578433941
C  C481  1  0.97509000  0.36665000  0.60683000  1.0 -0.0352318965
C  C482  1  0.27491000  0.88335000  0.19857000  1.0 -0.0352318965
C  C483  1  0.88335000  0.19857000  0.27491000  1.0 -0.0352318965
C  C484  1  0.19857000  0.27491000  0.88335000  1.0 -0.032916556
C  C485  1  0.88335000  0.64317000  0.19857000  1.0 -0.0352318965
C  C486  1  0.36665000  0.05143000  0.60683000  1.0 -0.0352318965
C  C487  1  0.64317000  0.27491000  0.19857000  1.0 -0.0352318965
C  C488  1  0.05143000  0.97509000  0.60683000  1.0 -0.032916556
C  C489  1  0.64317000  0.19857000  0.88335000  1.0 -0.0352318965
C  C490  1  0.05143000  0.60683000  0.36665000  1.0 -0.0352318965
C  C491  1  0.36665000  0.97509000  0.05143000  1.0 -0.0352318965
C  C492  1  0.88335000  0.27491000  0.64317000  1.0 -0.032916556
C  C493  1  0.64317000  0.88335000  0.27491000  1.0 -0.0352318965
C  C494  1  0.05143000  0.36665000  0.97509000  1.0 -0.0352318965
C  C495  1  0.27491000  0.64317000  0.88335000  1.0 -0.0352318965
C  C496  1  0.97509000  0.05143000  0.36665000  1.0 -0.032916556
C  C497  1  0.97509000  0.60683000  0.05143000  1.0 -0.0352318965
C  C498  1  0.60683000  0.36665000  0.05143000  1.0 -0.0352318965
C  C499  1  0.19857000  0.88335000  0.64317000  1.0 -0.0352318965
C  C500  1  0.27491000  0.19857000  0.64317000  1.0 -0.032916556
C  C501  1  0.60683000  0.05143000  0.97509000  1.0 -0.032916556
C  C502  1  0.19857000  0.64317000  0.27491000  1.0 -0.0352318965
C  C503  1  0.36665000  0.60683000  0.97509000  1.0 -0.0352318965
C  C504  1  0.60683000  0.97509000  0.36665000  1.0 -0.0352318965
C  C505  1  0.77491000  0.38335000  0.14317000  1.0 -0.0352318965
C  C506  1  0.47509000  0.86665000  0.55143000  1.0 -0.0352318965
C  C507  1  0.86665000  0.55143000  0.47509000  1.0 -0.0352318965
C  C508  1  0.55143000  0.47509000  0.86665000  1.0 -0.032916556
C  C509  1  0.86665000  0.10683000  0.55143000  1.0 -0.032916556
C  C510  1  0.38335000  0.69857000  0.14317000  1.0 -0.0352318965
C  C511  1  0.10683000  0.47509000  0.55143000  1.0 -0.0352318965
C  C512  1  0.69857000  0.77491000  0.14317000  1.0 -0.032916556
C  C513  1  0.10683000  0.55143000  0.86665000  1.0 -0.0352318965
C  C514  1  0.69857000  0.14317000  0.38335000  1.0 -0.032916556
C  C515  1  0.38335000  0.77491000  0.69857000  1.0 -0.032916556
C  C516  1  0.86665000  0.47509000  0.10683000  1.0 -0.0352318965
C  C517  1  0.10683000  0.86665000  0.47509000  1.0 -0.0352318965
C  C518  1  0.69857000  0.38335000  0.77491000  1.0 -0.0352318965
C  C519  1  0.47509000  0.10683000  0.86665000  1.0 -0.032916556
C  C520  1  0.77491000  0.69857000  0.38335000  1.0 -0.0352318965
C  C521  1  0.77491000  0.14317000  0.69857000  1.0 -0.0352318965
C  C522  1  0.14317000  0.38335000  0.69857000  1.0 -0.032916556
C  C523  1  0.55143000  0.86665000  0.10683000  1.0 -0.0352318965
C  C524  1  0.47509000  0.55143000  0.10683000  1.0 -0.0352318965
C  C525  1  0.14317000  0.69857000  0.77491000  1.0 -0.0352318965
C  C526  1  0.55143000  0.10683000  0.47509000  1.0 -0.0352318965
C  C527  1  0.38335000  0.14317000  0.77491000  1.0 -0.0352318965
C  C528  1  0.14317000  0.77491000  0.38335000  1.0 -0.0352318965
C  C529  1  0.94351000  0.36997000  0.60587000  1.0 0.070283548
C  C530  1  0.30649000  0.88003000  0.16935000  1.0 0.070283548
C  C531  1  0.88003000  0.16935000  0.30649000  1.0 0.070283548
C  C532  1  0.16935000  0.30649000  0.88003000  1.0 0.070283548
C  C533  1  0.88003000  0.64413000  0.16935000  1.0 0.070283548
C  C534  1  0.36997000  0.08065000  0.60587000  1.0 0.070283548
C  C535  1  0.64413000  0.30649000  0.16935000  1.0 0.070283548
C  C536  1  0.08065000  0.94351000  0.60587000  1.0 0.070283548
C  C537  1  0.64413000  0.16935000  0.88003000  1.0 0.070283548
C  C538  1  0.08065000  0.60587000  0.36997000  1.0 0.070283548
C  C539  1  0.36997000  0.94351000  0.08065000  1.0 0.070283548
C  C540  1  0.88003000  0.30649000  0.64413000  1.0 0.070283548
C  C541  1  0.64413000  0.88003000  0.30649000  1.0 0.070283548
C  C542  1  0.08065000  0.36997000  0.94351000  1.0 0.070283548
C  C543  1  0.30649000  0.64413000  0.88003000  1.0 0.070283548
C  C544  1  0.94351000  0.08065000  0.36997000  1.0 0.070283548
C  C545  1  0.94351000  0.60587000  0.08065000  1.0 0.070283548
C  C546  1  0.60587000  0.36997000  0.08065000  1.0 0.070283548
C  C547  1  0.16935000  0.88003000  0.64413000  1.0 0.070283548
C  C548  1  0.30649000  0.16935000  0.64413000  1.0 0.070283548
C  C549  1  0.60587000  0.08065000  0.94351000  1.0 0.070283548
C  C550  1  0.16935000  0.64413000  0.30649000  1.0 0.070283548
C  C551  1  0.36997000  0.60587000  0.94351000  1.0 0.070283548
C  C552  1  0.60587000  0.94351000  0.36997000  1.0 0.070283548
C  C553  1  0.80649000  0.38003000  0.14413000  1.0 0.070283548
C  C554  1  0.44351000  0.86997000  0.58065000  1.0 0.070283548
C  C555  1  0.86997000  0.58065000  0.44351000  1.0 0.070283548
C  C556  1  0.58065000  0.44351000  0.86997000  1.0 0.070283548
C  C557  1  0.86997000  0.10587000  0.58065000  1.0 0.070283548
C  C558  1  0.38003000  0.66935000  0.14413000  1.0 0.070283548
C  C559  1  0.10587000  0.44351000  0.58065000  1.0 0.070283548
C  C560  1  0.66935000  0.80649000  0.14413000  1.0 0.070283548
C  C561  1  0.10587000  0.58065000  0.86997000  1.0 0.070283548
C  C562  1  0.66935000  0.14413000  0.38003000  1.0 0.070283548
C  C563  1  0.38003000  0.80649000  0.66935000  1.0 0.070283548
C  C564  1  0.86997000  0.44351000  0.10587000  1.0 0.070283548
C  C565  1  0.10587000  0.86997000  0.44351000  1.0 0.070283548
C  C566  1  0.66935000  0.38003000  0.80649000  1.0 0.070283548
C  C567  1  0.44351000  0.10587000  0.86997000  1.0 0.070283548
C  C568  1  0.80649000  0.66935000  0.38003000  1.0 0.070283548
C  C569  1  0.80649000  0.14413000  0.66935000  1.0 0.070283548
C  C570  1  0.14413000  0.38003000  0.66935000  1.0 0.070283548
C  C571  1  0.58065000  0.86997000  0.10587000  1.0 0.070283548
C  C572  1  0.44351000  0.58065000  0.10587000  1.0 0.070283548
C  C573  1  0.14413000  0.66935000  0.80649000  1.0 0.070283548
C  C574  1  0.58065000  0.10587000  0.44351000  1.0 0.070283548
C  C575  1  0.38003000  0.14413000  0.80649000  1.0 0.070283548
C  C576  1  0.14413000  0.80649000  0.38003000  1.0 0.070283548
C  C577  1  0.00839000  0.36325000  0.57595000  1.0 0.3783463536
C  C578  1  0.24161000  0.88675000  0.19759000  1.0 0.3783463536
C  C579  1  0.88675000  0.19759000  0.24161000  1.0 0.3783463536
C  C580  1  0.19759000  0.24161000  0.88675000  1.0 0.3783463536
C  C581  1  0.88675000  0.67405000  0.19759000  1.0 0.3783463536
C  C582  1  0.36325000  0.05241000  0.57595000  1.0 0.3783463536
C  C583  1  0.67405000  0.24161000  0.19759000  1.0 0.3783463536
C  C584  1  0.05241000  0.00839000  0.57595000  1.0 0.3783463536
C  C585  1  0.67405000  0.19759000  0.88675000  1.0 0.3783463536
C  C586  1  0.05241000  0.57595000  0.36325000  1.0 0.3783463536
C  C587  1  0.36325000  0.00839000  0.05241000  1.0 0.3783463536
C  C588  1  0.88675000  0.24161000  0.67405000  1.0 0.3783463536
C  C589  1  0.67405000  0.88675000  0.24161000  1.0 0.3783463536
C  C590  1  0.05241000  0.36325000  0.00839000  1.0 0.3783463536
C  C591  1  0.24161000  0.67405000  0.88675000  1.0 0.3783463536
C  C592  1  0.00839000  0.05241000  0.36325000  1.0 0.3783463536
C  C593  1  0.00839000  0.57595000  0.05241000  1.0 0.3783463536
C  C594  1  0.57595000  0.36325000  0.05241000  1.0 0.3783463536
C  C595  1  0.19759000  0.88675000  0.67405000  1.0 0.3783463536
C  C596  1  0.24161000  0.19759000  0.67405000  1.0 0.3783463536
C  C597  1  0.57595000  0.05241000  0.00839000  1.0 0.3783463536
C  C598  1  0.19759000  0.67405000  0.24161000  1.0 0.3783463536
C  C599  1  0.36325000  0.57595000  0.00839000  1.0 0.3783463536
C  C600  1  0.57595000  0.00839000  0.36325000  1.0 0.3783463536
C  C601  1  0.74161000  0.38675000  0.17405000  1.0 0.3783463536
C  C602  1  0.50839000  0.86325000  0.55241000  1.0 0.3783463536
C  C603  1  0.86325000  0.55241000  0.50839000  1.0 0.3783463536
C  C604  1  0.55241000  0.50839000  0.86325000  1.0 0.3783463536
C  C605  1  0.86325000  0.07595000  0.55241000  1.0 0.3783463536
C  C606  1  0.38675000  0.69759000  0.17405000  1.0 0.3783463536
C  C607  1  0.07595000  0.50839000  0.55241000  1.0 0.3783463536
C  C608  1  0.69759000  0.74161000  0.17405000  1.0 0.3783463536
C  C609  1  0.07595000  0.55241000  0.86325000  1.0 0.3783463536
C  C610  1  0.69759000  0.17405000  0.38675000  1.0 0.3783463536
C  C611  1  0.38675000  0.74161000  0.69759000  1.0 0.3783463536
C  C612  1  0.86325000  0.50839000  0.07595000  1.0 0.3783463536
C  C613  1  0.07595000  0.86325000  0.50839000  1.0 0.3783463536
C  C614  1  0.69759000  0.38675000  0.74161000  1.0 0.3783463536
C  C615  1  0.50839000  0.07595000  0.86325000  1.0 0.3783463536
C  C616  1  0.74161000  0.69759000  0.38675000  1.0 0.3783463536
C  C617  1  0.74161000  0.17405000  0.69759000  1.0 0.3783463536
C  C618  1  0.17405000  0.38675000  0.69759000  1.0 0.3783463536
C  C619  1  0.55241000  0.86325000  0.07595000  1.0 0.3783463536
C  C620  1  0.50839000  0.55241000  0.07595000  1.0 0.3783463536
C  C621  1  0.17405000  0.69759000  0.74161000  1.0 0.3783463536
C  C622  1  0.55241000  0.07595000  0.50839000  1.0 0.3783463536
C  C623  1  0.38675000  0.17405000  0.74161000  1.0 0.3783463536
C  C624  1  0.17405000  0.74161000  0.38675000  1.0 0.3783463536
C  C625  1  0.06923000  0.34963000  0.55159000  1.0 0.3783463536
C  C626  1  0.18077000  0.90037000  0.22045000  1.0 0.3783463536
C  C627  1  0.90037000  0.22045000  0.18077000  1.0 0.3783463536
C  C628  1  0.22045000  0.18077000  0.90037000  1.0 0.3783463536
C  C629  1  0.90037000  0.69841000  0.22045000  1.0 0.3783463536
C  C630  1  0.34963000  0.02955000  0.55159000  1.0 0.3783463536
C  C631  1  0.69841000  0.18077000  0.22045000  1.0 0.3783463536
C  C632  1  0.02955000  0.06923000  0.55159000  1.0 0.3783463536
C  C633  1  0.69841000  0.22045000  0.90037000  1.0 0.3783463536
C  C634  1  0.02955000  0.55159000  0.34963000  1.0 0.3783463536
C  C635  1  0.34963000  0.06923000  0.02955000  1.0 0.3783463536
C  C636  1  0.90037000  0.18077000  0.69841000  1.0 0.3783463536
C  C637  1  0.69841000  0.90037000  0.18077000  1.0 0.3783463536
C  C638  1  0.02955000  0.34963000  0.06923000  1.0 0.3783463536
C  C639  1  0.18077000  0.69841000  0.90037000  1.0 0.3783463536
C  C640  1  0.06923000  0.02955000  0.34963000  1.0 0.3783463536
C  C641  1  0.06923000  0.55159000  0.02955000  1.0 0.3783463536
C  C642  1  0.55159000  0.34963000  0.02955000  1.0 0.3783463536
C  C643  1  0.22045000  0.90037000  0.69841000  1.0 0.3783463536
C  C644  1  0.18077000  0.22045000  0.69841000  1.0 0.3783463536
C  C645  1  0.55159000  0.02955000  0.06923000  1.0 0.3783463536
C  C646  1  0.22045000  0.69841000  0.18077000  1.0 0.3783463536
C  C647  1  0.34963000  0.55159000  0.06923000  1.0 0.3783463536
C  C648  1  0.55159000  0.06923000  0.34963000  1.0 0.3783463536
C  C649  1  0.68077000  0.40037000  0.19841000  1.0 0.3783463536
C  C650  1  0.56923000  0.84963000  0.52955000  1.0 0.3783463536
C  C651  1  0.84963000  0.52955000  0.56923000  1.0 0.3783463536
C  C652  1  0.52955000  0.56923000  0.84963000  1.0 0.3783463536
C  C653  1  0.84963000  0.05159000  0.52955000  1.0 0.3783463536
C  C654  1  0.40037000  0.72045000  0.19841000  1.0 0.3783463536
C  C655  1  0.05159000  0.56923000  0.52955000  1.0 0.3783463536
C  C656  1  0.72045000  0.68077000  0.19841000  1.0 0.3783463536
C  C657  1  0.05159000  0.52955000  0.84963000  1.0 0.3783463536
C  C658  1  0.72045000  0.19841000  0.40037000  1.0 0.3783463536
C  C659  1  0.40037000  0.68077000  0.72045000  1.0 0.3783463536
C  C660  1  0.84963000  0.56923000  0.05159000  1.0 0.3783463536
C  C661  1  0.05159000  0.84963000  0.56923000  1.0 0.3783463536
C  C662  1  0.72045000  0.40037000  0.68077000  1.0 0.3783463536
C  C663  1  0.56923000  0.05159000  0.84963000  1.0 0.3783463536
C  C664  1  0.68077000  0.72045000  0.40037000  1.0 0.3783463536
C  C665  1  0.68077000  0.19841000  0.72045000  1.0 0.3783463536
C  C666  1  0.19841000  0.40037000  0.72045000  1.0 0.3783463536
C  C667  1  0.52955000  0.84963000  0.05159000  1.0 0.3783463536
C  C668  1  0.56923000  0.52955000  0.05159000  1.0 0.3783463536
C  C669  1  0.19841000  0.72045000  0.68077000  1.0 0.3783463536
C  C670  1  0.52955000  0.05159000  0.56923000  1.0 0.3783463536
C  C671  1  0.40037000  0.19841000  0.68077000  1.0 0.3783463536
C  C672  1  0.19841000  0.68077000  0.40037000  1.0 0.3783463536
C  C673  1  0.03739000  0.36785000  0.51695000  1.0 0.3612124604
C  C674  1  0.21261000  0.88215000  0.17219000  1.0 0.3612124604
C  C675  1  0.88215000  0.17219000  0.21261000  1.0 0.3612124604
C  C676  1  0.17219000  0.21261000  0.88215000  1.0 0.3612124604
C  C677  1  0.88215000  0.73305000  0.17219000  1.0 0.3612124604
C  C678  1  0.36785000  0.07781000  0.51695000  1.0 0.3612124604
C  C679  1  0.73305000  0.21261000  0.17219000  1.0 0.3612124604
C  C680  1  0.07781000  0.03739000  0.51695000  1.0 0.3612124604
C  C681  1  0.73305000  0.17219000  0.88215000  1.0 0.3612124604
C  C682  1  0.07781000  0.51695000  0.36785000  1.0 0.3612124604
C  C683  1  0.36785000  0.03739000  0.07781000  1.0 0.3612124604
C  C684  1  0.88215000  0.21261000  0.73305000  1.0 0.3612124604
C  C685  1  0.73305000  0.88215000  0.21261000  1.0 0.3612124604
C  C686  1  0.07781000  0.36785000  0.03739000  1.0 0.3612124604
C  C687  1  0.21261000  0.73305000  0.88215000  1.0 0.3612124604
C  C688  1  0.03739000  0.07781000  0.36785000  1.0 0.3612124604
C  C689  1  0.03739000  0.51695000  0.07781000  1.0 0.3612124604
C  C690  1  0.51695000  0.36785000  0.07781000  1.0 0.3612124604
C  C691  1  0.17219000  0.88215000  0.73305000  1.0 0.3612124604
C  C692  1  0.21261000  0.17219000  0.73305000  1.0 0.3612124604
C  C693  1  0.51695000  0.07781000  0.03739000  1.0 0.3612124604
C  C694  1  0.17219000  0.73305000  0.21261000  1.0 0.3612124604
C  C695  1  0.36785000  0.51695000  0.03739000  1.0 0.3612124604
C  C696  1  0.51695000  0.03739000  0.36785000  1.0 0.3612124604
C  C697  1  0.71261000  0.38215000  0.23305000  1.0 0.3612124604
C  C698  1  0.53739000  0.86785000  0.57781000  1.0 0.3612124604
C  C699  1  0.86785000  0.57781000  0.53739000  1.0 0.3612124604
C  C700  1  0.57781000  0.53739000  0.86785000  1.0 0.3612124604
C  C701  1  0.86785000  0.01695000  0.57781000  1.0 0.3612124604
C  C702  1  0.38215000  0.67219000  0.23305000  1.0 0.3612124604
C  C703  1  0.01695000  0.53739000  0.57781000  1.0 0.3612124604
C  C704  1  0.67219000  0.71261000  0.23305000  1.0 0.3612124604
C  C705  1  0.01695000  0.57781000  0.86785000  1.0 0.3612124604
C  C706  1  0.67219000  0.23305000  0.38215000  1.0 0.3612124604
C  C707  1  0.38215000  0.71261000  0.67219000  1.0 0.3612124604
C  C708  1  0.86785000  0.53739000  0.01695000  1.0 0.3612124604
C  C709  1  0.01695000  0.86785000  0.53739000  1.0 0.3612124604
C  C710  1  0.67219000  0.38215000  0.71261000  1.0 0.3612124604
C  C711  1  0.53739000  0.01695000  0.86785000  1.0 0.3612124604
C  C712  1  0.71261000  0.67219000  0.38215000  1.0 0.3612124604
C  C713  1  0.71261000  0.23305000  0.67219000  1.0 0.3612124604
C  C714  1  0.23305000  0.38215000  0.67219000  1.0 0.3612124604
C  C715  1  0.57781000  0.86785000  0.01695000  1.0 0.3612124604
C  C716  1  0.53739000  0.57781000  0.01695000  1.0 0.3612124604
C  C717  1  0.23305000  0.67219000  0.71261000  1.0 0.3612124604
C  C718  1  0.57781000  0.01695000  0.53739000  1.0 0.3612124604
C  C719  1  0.38215000  0.23305000  0.71261000  1.0 0.3612124604
C  C720  1  0.23305000  0.71261000  0.38215000  1.0 0.3612124604
C  C721  1  0.03627000  0.37787000  0.48127000  1.0 -0.0214068082
C  C722  1  0.21373000  0.87213000  0.14541000  1.0 -0.0214068082
C  C723  1  0.87213000  0.14541000  0.21373000  1.0 -0.0214068082
C  C724  1  0.14541000  0.21373000  0.87213000  1.0 -0.0214068082
C  C725  1  0.87213000  0.76873000  0.14541000  1.0 -0.0214068082
C  C726  1  0.37787000  0.10459000  0.48127000  1.0 -0.0214068082
C  C727  1  0.76873000  0.21373000  0.14541000  1.0 -0.0214068082
C  C728  1  0.10459000  0.03627000  0.48127000  1.0 -0.0214068082
C  C729  1  0.76873000  0.14541000  0.87213000  1.0 -0.0214068082
C  C730  1  0.10459000  0.48127000  0.37787000  1.0 -0.0214068082
C  C731  1  0.37787000  0.03627000  0.10459000  1.0 -0.0214068082
C  C732  1  0.87213000  0.21373000  0.76873000  1.0 -0.0214068082
C  C733  1  0.76873000  0.87213000  0.21373000  1.0 -0.0214068082
C  C734  1  0.10459000  0.37787000  0.03627000  1.0 -0.0214068082
C  C735  1  0.21373000  0.76873000  0.87213000  1.0 -0.0214068082
C  C736  1  0.03627000  0.10459000  0.37787000  1.0 -0.0214068082
C  C737  1  0.03627000  0.48127000  0.10459000  1.0 -0.0214068082
C  C738  1  0.48127000  0.37787000  0.10459000  1.0 -0.0214068082
C  C739  1  0.14541000  0.87213000  0.76873000  1.0 -0.0214068082
C  C740  1  0.21373000  0.14541000  0.76873000  1.0 -0.0214068082
C  C741  1  0.48127000  0.10459000  0.03627000  1.0 -0.0214068082
C  C742  1  0.14541000  0.76873000  0.21373000  1.0 -0.0214068082
C  C743  1  0.37787000  0.48127000  0.03627000  1.0 -0.0214068082
C  C744  1  0.48127000  0.03627000  0.37787000  1.0 -0.0214068082
C  C745  1  0.71373000  0.37213000  0.26873000  1.0 -0.0214068082
C  C746  1  0.53627000  0.87787000  0.60459000  1.0 -0.0214068082
C  C747  1  0.87787000  0.60459000  0.53627000  1.0 -0.0214068082
C  C748  1  0.60459000  0.53627000  0.87787000  1.0 -0.0214068082
C  C749  1  0.87787000  0.98127000  0.60459000  1.0 -0.0214068082
C  C750  1  0.37213000  0.64541000  0.26873000  1.0 -0.0214068082
C  C751  1  0.98127000  0.53627000  0.60459000  1.0 -0.0214068082
C  C752  1  0.64541000  0.71373000  0.26873000  1.0 -0.0214068082
C  C753  1  0.98127000  0.60459000  0.87787000  1.0 -0.0214068082
C  C754  1  0.64541000  0.26873000  0.37213000  1.0 -0.0214068082
C  C755  1  0.37213000  0.71373000  0.64541000  1.0 -0.0214068082
C  C756  1  0.87787000  0.53627000  0.98127000  1.0 -0.0214068082
C  C757  1  0.98127000  0.87787000  0.53627000  1.0 -0.0214068082
C  C758  1  0.64541000  0.37213000  0.71373000  1.0 -0.0214068082
C  C759  1  0.53627000  0.98127000  0.87787000  1.0 -0.0214068082
C  C760  1  0.71373000  0.64541000  0.37213000  1.0 -0.0214068082
C  C761  1  0.71373000  0.26873000  0.64541000  1.0 -0.0214068082
C  C762  1  0.26873000  0.37213000  0.64541000  1.0 -0.0214068082
C  C763  1  0.60459000  0.87787000  0.98127000  1.0 -0.0214068082
C  C764  1  0.53627000  0.60459000  0.98127000  1.0 -0.0214068082
C  C765  1  0.26873000  0.64541000  0.71373000  1.0 -0.0214068082
C  C766  1  0.60459000  0.98127000  0.53627000  1.0 -0.0214068082
C  C767  1  0.37213000  0.26873000  0.71373000  1.0 -0.0214068082
C  C768  1  0.26873000  0.71373000  0.37213000  1.0 -0.0214068082
C  C769  1  0.00422000  0.39088000  0.47500000  1.0 -0.0578433941
C  C770  1  0.24578000  0.85912000  0.12010000  1.0 -0.0578433941
C  C771  1  0.85912000  0.12010000  0.24578000  1.0 -0.0578433941
C  C772  1  0.12010000  0.24578000  0.85912000  1.0 -0.0578433941
C  C773  1  0.85912000  0.77500000  0.12010000  1.0 -0.0578433941
C  C774  1  0.39088000  0.12990000  0.47500000  1.0 -0.0578433941
C  C775  1  0.77500000  0.24578000  0.12010000  1.0 -0.0578433941
C  C776  1  0.12990000  0.00422000  0.47500000  1.0 -0.054116666
C  C777  1  0.77500000  0.12010000  0.85912000  1.0 -0.0578433941
C  C778  1  0.12990000  0.47500000  0.39088000  1.0 -0.0578433941
C  C779  1  0.39088000  0.00422000  0.12990000  1.0 -0.0578433941
C  C780  1  0.85912000  0.24578000  0.77500000  1.0 -0.0578433941
C  C781  1  0.77500000  0.85912000  0.24578000  1.0 -0.0578433941
C  C782  1  0.12990000  0.39088000  0.00422000  1.0 -0.0578433941
C  C783  1  0.24578000  0.77500000  0.85912000  1.0 -0.0578433941
C  C784  1  0.00422000  0.12990000  0.39088000  1.0 -0.0578433941
C  C785  1  0.00422000  0.47500000  0.12990000  1.0 -0.0578433941
C  C786  1  0.47500000  0.39088000  0.12990000  1.0 -0.0578433941
C  C787  1  0.12010000  0.85912000  0.77500000  1.0 -0.0578433941
C  C788  1  0.24578000  0.12010000  0.77500000  1.0 -0.0578433941
C  C789  1  0.47500000  0.12990000  0.00422000  1.0 -0.0578433941
C  C790  1  0.12010000  0.77500000  0.24578000  1.0 -0.0578433941
C  C791  1  0.39088000  0.47500000  0.00422000  1.0 -0.0578433941
C  C792  1  0.47500000  0.00422000  0.39088000  1.0 -0.0578433941
C  C793  1  0.74578000  0.35912000  0.27500000  1.0 -0.0578433941
C  C794  1  0.50422000  0.89088000  0.62990000  1.0 -0.0578433941
C  C795  1  0.89088000  0.62990000  0.50422000  1.0 -0.0578433941
C  C796  1  0.62990000  0.50422000  0.89088000  1.0 -0.0578433941
C  C797  1  0.89088000  0.97500000  0.62990000  1.0 -0.0578433941
C  C798  1  0.35912000  0.62010000  0.27500000  1.0 -0.0578433941
C  C799  1  0.97500000  0.50422000  0.62990000  1.0 -0.0578433941
C  C800  1  0.62010000  0.74578000  0.27500000  1.0 -0.0578433941
C  C801  1  0.97500000  0.62990000  0.89088000  1.0 -0.0578433941
C  C802  1  0.62010000  0.27500000  0.35912000  1.0 -0.0578433941
C  C803  1  0.35912000  0.74578000  0.62010000  1.0 -0.0578433941
C  C804  1  0.89088000  0.50422000  0.97500000  1.0 -0.0578433941
C  C805  1  0.97500000  0.89088000  0.50422000  1.0 -0.0578433941
C  C806  1  0.62010000  0.35912000  0.74578000  1.0 -0.0578433941
C  C807  1  0.50422000  0.97500000  0.89088000  1.0 -0.0578433941
C  C808  1  0.74578000  0.62010000  0.35912000  1.0 -0.0578433941
C  C809  1  0.74578000  0.27500000  0.62010000  1.0 -0.0578433941
C  C810  1  0.27500000  0.35912000  0.62010000  1.0 -0.0578433941
C  C811  1  0.62990000  0.89088000  0.97500000  1.0 -0.0578433941
C  C812  1  0.50422000  0.62990000  0.97500000  1.0 -0.0578433941
C  C813  1  0.27500000  0.62010000  0.74578000  1.0 -0.0578433941
C  C814  1  0.62990000  0.97500000  0.50422000  1.0 -0.0578433941
C  C815  1  0.35912000  0.27500000  0.74578000  1.0 -0.0578433941
C  C816  1  0.27500000  0.74578000  0.35912000  1.0 -0.0578433941
C  C817  1  0.00628000  0.39914000  0.44050000  1.0 -0.12921108
C  C818  1  0.24372000  0.85086000  0.09592000  1.0 -0.12921108
C  C819  1  0.85086000  0.09592000  0.24372000  1.0 -0.12921108
C  C820  1  0.09592000  0.24372000  0.85086000  1.0 -0.12921108
C  C821  1  0.85086000  0.80950000  0.09592000  1.0 -0.12921108
C  C822  1  0.39914000  0.15408000  0.44050000  1.0 -0.12921108
C  C823  1  0.80950000  0.24372000  0.09592000  1.0 -0.12921108
C  C824  1  0.15408000  0.00628000  0.44050000  1.0 -0.12921108
C  C825  1  0.80950000  0.09592000  0.85086000  1.0 -0.12921108
C  C826  1  0.15408000  0.44050000  0.39914000  1.0 -0.12921108
C  C827  1  0.39914000  0.00628000  0.15408000  1.0 -0.12921108
C  C828  1  0.85086000  0.24372000  0.80950000  1.0 -0.12921108
C  C829  1  0.80950000  0.85086000  0.24372000  1.0 -0.12921108
C  C830  1  0.15408000  0.39914000  0.00628000  1.0 -0.12921108
C  C831  1  0.24372000  0.80950000  0.85086000  1.0 -0.12921108
C  C832  1  0.00628000  0.15408000  0.39914000  1.0 -0.12921108
C  C833  1  0.00628000  0.44050000  0.15408000  1.0 -0.12921108
C  C834  1  0.44050000  0.39914000  0.15408000  1.0 -0.12921108
C  C835  1  0.09592000  0.85086000  0.80950000  1.0 -0.12921108
C  C836  1  0.24372000  0.09592000  0.80950000  1.0 -0.12921108
C  C837  1  0.44050000  0.15408000  0.00628000  1.0 -0.12921108
C  C838  1  0.09592000  0.80950000  0.24372000  1.0 -0.12921108
C  C839  1  0.39914000  0.44050000  0.00628000  1.0 -0.12921108
C  C840  1  0.44050000  0.00628000  0.39914000  1.0 -0.12921108
C  C841  1  0.74372000  0.35086000  0.30950000  1.0 -0.12921108
C  C842  1  0.50628000  0.89914000  0.65408000  1.0 -0.12921108
C  C843  1  0.89914000  0.65408000  0.50628000  1.0 -0.12921108
C  C844  1  0.65408000  0.50628000  0.89914000  1.0 -0.12921108
C  C845  1  0.89914000  0.94050000  0.65408000  1.0 -0.12921108
C  C846  1  0.35086000  0.59592000  0.30950000  1.0 -0.12921108
C  C847  1  0.94050000  0.50628000  0.65408000  1.0 -0.12921108
C  C848  1  0.59592000  0.74372000  0.30950000  1.0 -0.12921108
C  C849  1  0.94050000  0.65408000  0.89914000  1.0 -0.12921108
C  C850  1  0.59592000  0.30950000  0.35086000  1.0 -0.12921108
C  C851  1  0.35086000  0.74372000  0.59592000  1.0 -0.12921108
C  C852  1  0.89914000  0.50628000  0.94050000  1.0 -0.12921108
C  C853  1  0.94050000  0.89914000  0.50628000  1.0 -0.12921108
C  C854  1  0.59592000  0.35086000  0.74372000  1.0 -0.12921108
C  C855  1  0.50628000  0.94050000  0.89914000  1.0 -0.12921108
C  C856  1  0.74372000  0.59592000  0.35086000  1.0 -0.12921108
C  C857  1  0.74372000  0.30950000  0.59592000  1.0 -0.12921108
C  C858  1  0.30950000  0.35086000  0.59592000  1.0 -0.12921108
C  C859  1  0.65408000  0.89914000  0.94050000  1.0 -0.12921108
C  C860  1  0.50628000  0.65408000  0.94050000  1.0 -0.12921108
C  C861  1  0.30950000  0.59592000  0.74372000  1.0 -0.12921108
C  C862  1  0.65408000  0.94050000  0.50628000  1.0 -0.12921108
C  C863  1  0.35086000  0.30950000  0.74372000  1.0 -0.12921108
C  C864  1  0.30950000  0.74372000  0.35086000  1.0 -0.12921108
C  C865  1  0.03942000  0.39516000  0.41322000  1.0 0.0827033195
C  C866  1  0.21058000  0.85484000  0.09780000  1.0 0.0827033195
C  C867  1  0.85484000  0.09780000  0.21058000  1.0 0.0827033195
C  C868  1  0.09780000  0.21058000  0.85484000  1.0 0.0827033195
C  C869  1  0.85484000  0.83678000  0.09780000  1.0 0.0827033195
C  C870  1  0.39516000  0.15220000  0.41322000  1.0 0.0827033195
C  C871  1  0.83678000  0.21058000  0.09780000  1.0 0.0827033195
C  C872  1  0.15220000  0.03942000  0.41322000  1.0 0.0827033195
C  C873  1  0.83678000  0.09780000  0.85484000  1.0 0.0827033195
C  C874  1  0.15220000  0.41322000  0.39516000  1.0 0.0827033195
C  C875  1  0.39516000  0.03942000  0.15220000  1.0 0.0827033195
C  C876  1  0.85484000  0.21058000  0.83678000  1.0 0.0827033195
C  C877  1  0.83678000  0.85484000  0.21058000  1.0 0.0827033195
C  C878  1  0.15220000  0.39516000  0.03942000  1.0 0.0827033195
C  C879  1  0.21058000  0.83678000  0.85484000  1.0 0.0827033195
C  C880  1  0.03942000  0.15220000  0.39516000  1.0 0.0827033195
C  C881  1  0.03942000  0.41322000  0.15220000  1.0 0.0827033195
C  C882  1  0.41322000  0.39516000  0.15220000  1.0 0.0827033195
C  C883  1  0.09780000  0.85484000  0.83678000  1.0 0.0827033195
C  C884  1  0.21058000  0.09780000  0.83678000  1.0 0.0827033195
C  C885  1  0.41322000  0.15220000  0.03942000  1.0 0.0827033195
C  C886  1  0.09780000  0.83678000  0.21058000  1.0 0.0827033195
C  C887  1  0.39516000  0.41322000  0.03942000  1.0 0.0827033195
C  C888  1  0.41322000  0.03942000  0.39516000  1.0 0.0827033195
C  C889  1  0.71058000  0.35484000  0.33678000  1.0 0.0827033195
C  C890  1  0.53942000  0.89516000  0.65220000  1.0 0.0827033195
C  C891  1  0.89516000  0.65220000  0.53942000  1.0 0.0827033195
C  C892  1  0.65220000  0.53942000  0.89516000  1.0 0.0827033195
C  C893  1  0.89516000  0.91322000  0.65220000  1.0 0.0827033195
C  C894  1  0.35484000  0.59780000  0.33678000  1.0 0.0827033195
C  C895  1  0.91322000  0.53942000  0.65220000  1.0 0.0827033195
C  C896  1  0.59780000  0.71058000  0.33678000  1.0 0.0827033195
C  C897  1  0.91322000  0.65220000  0.89516000  1.0 0.0827033195
C  C898  1  0.59780000  0.33678000  0.35484000  1.0 0.0827033195
C  C899  1  0.35484000  0.71058000  0.59780000  1.0 0.0827033195
C  C900  1  0.89516000  0.53942000  0.91322000  1.0 0.0827033195
C  C901  1  0.91322000  0.89516000  0.53942000  1.0 0.0827033195
C  C902  1  0.59780000  0.35484000  0.71058000  1.0 0.0827033195
C  C903  1  0.53942000  0.91322000  0.89516000  1.0 0.0827033195
C  C904  1  0.71058000  0.59780000  0.35484000  1.0 0.0827033195
C  C905  1  0.71058000  0.33678000  0.59780000  1.0 0.0827033195
C  C906  1  0.33678000  0.35484000  0.59780000  1.0 0.0827033195
C  C907  1  0.65220000  0.89516000  0.91322000  1.0 0.0827033195
C  C908  1  0.53942000  0.65220000  0.91322000  1.0 0.0827033195
C  C909  1  0.33678000  0.59780000  0.71058000  1.0 0.0827033195
C  C910  1  0.65220000  0.91322000  0.53942000  1.0 0.0827033195
C  C911  1  0.35484000  0.33678000  0.71058000  1.0 0.0827033195
C  C912  1  0.33678000  0.71058000  0.35484000  1.0 0.0827033195
C  C913  1  0.17213000  0.41337000  0.30407000  1.0 0.070283548
C  C914  1  0.07787000  0.83663000  0.13957000  1.0 0.070283548
C  C915  1  0.83663000  0.13957000  0.07787000  1.0 0.070283548
C  C916  1  0.13957000  0.07787000  0.83663000  1.0 0.070283548
C  C917  1  0.83663000  0.94593000  0.13957000  1.0 0.070283548
C  C918  1  0.41337000  0.11043000  0.30407000  1.0 0.070283548
C  C919  1  0.94593000  0.07787000  0.13957000  1.0 0.070283548
C  C920  1  0.11043000  0.17213000  0.30407000  1.0 0.070283548
C  C921  1  0.94593000  0.13957000  0.83663000  1.0 0.070283548
C  C922  1  0.11043000  0.30407000  0.41337000  1.0 0.070283548
C  C923  1  0.41337000  0.17213000  0.11043000  1.0 0.070283548
C  C924  1  0.83663000  0.07787000  0.94593000  1.0 0.070283548
C  C925  1  0.94593000  0.83663000  0.07787000  1.0 0.070283548
C  C926  1  0.11043000  0.41337000  0.17213000  1.0 0.070283548
C  C927  1  0.07787000  0.94593000  0.83663000  1.0 0.070283548
C  C928  1  0.17213000  0.11043000  0.41337000  1.0 0.070283548
C  C929  1  0.17213000  0.30407000  0.11043000  1.0 0.070283548
C  C930  1  0.30407000  0.41337000  0.11043000  1.0 0.070283548
C  C931  1  0.13957000  0.83663000  0.94593000  1.0 0.070283548
C  C932  1  0.07787000  0.13957000  0.94593000  1.0 0.070283548
C  C933  1  0.30407000  0.11043000  0.17213000  1.0 0.070283548
C  C934  1  0.13957000  0.94593000  0.07787000  1.0 0.070283548
C  C935  1  0.41337000  0.30407000  0.17213000  1.0 0.070283548
C  C936  1  0.30407000  0.17213000  0.41337000  1.0 0.070283548
C  C937  1  0.57787000  0.33663000  0.44593000  1.0 0.070283548
C  C938  1  0.67213000  0.91337000  0.61043000  1.0 0.070283548
C  C939  1  0.91337000  0.61043000  0.67213000  1.0 0.070283548
C  C940  1  0.61043000  0.67213000  0.91337000  1.0 0.070283548
C  C941  1  0.91337000  0.80407000  0.61043000  1.0 0.070283548
C  C942  1  0.33663000  0.63957000  0.44593000  1.0 0.070283548
C  C943  1  0.80407000  0.67213000  0.61043000  1.0 0.070283548
C  C944  1  0.63957000  0.57787000  0.44593000  1.0 0.070283548
C  C945  1  0.80407000  0.61043000  0.91337000  1.0 0.070283548
C  C946  1  0.63957000  0.44593000  0.33663000  1.0 0.070283548
C  C947  1  0.33663000  0.57787000  0.63957000  1.0 0.070283548
C  C948  1  0.91337000  0.67213000  0.80407000  1.0 0.070283548
C  C949  1  0.80407000  0.91337000  0.67213000  1.0 0.070283548
C  C950  1  0.63957000  0.33663000  0.57787000  1.0 0.070283548
C  C951  1  0.67213000  0.80407000  0.91337000  1.0 0.070283548
C  C952  1  0.57787000  0.63957000  0.33663000  1.0 0.070283548
C  C953  1  0.57787000  0.44593000  0.63957000  1.0 0.070283548
C  C954  1  0.44593000  0.33663000  0.63957000  1.0 0.070283548
C  C955  1  0.61043000  0.91337000  0.80407000  1.0 0.070283548
C  C956  1  0.67213000  0.61043000  0.80407000  1.0 0.070283548
C  C957  1  0.44593000  0.63957000  0.57787000  1.0 0.070283548
C  C958  1  0.61043000  0.80407000  0.67213000  1.0 0.070283548
C  C959  1  0.33663000  0.44593000  0.57787000  1.0 0.070283548
C  C960  1  0.44593000  0.57787000  0.33663000  1.0 0.070283548
C  C961  1  0.20270000  0.41898000  0.27568000  1.0 -0.12921108
C  C962  1  0.04730000  0.83102000  0.14736000  1.0 -0.12921108
C  C963  1  0.83102000  0.14736000  0.04730000  1.0 -0.12921108
C  C964  1  0.14736000  0.04730000  0.83102000  1.0 -0.12921108
C  C965  1  0.83102000  0.97432000  0.14736000  1.0 -0.12921108
C  C966  1  0.41898000  0.10264000  0.27568000  1.0 -0.12921108
C  C967  1  0.97432000  0.04730000  0.14736000  1.0 -0.12921108
C  C968  1  0.10264000  0.20270000  0.27568000  1.0 -0.12921108
C  C969  1  0.97432000  0.14736000  0.83102000  1.0 -0.12921108
C  C970  1  0.10264000  0.27568000  0.41898000  1.0 -0.12921108
C  C971  1  0.41898000  0.20270000  0.10264000  1.0 -0.12921108
C  C972  1  0.83102000  0.04730000  0.97432000  1.0 -0.12921108
C  C973  1  0.97432000  0.83102000  0.04730000  1.0 -0.12921108
C  C974  1  0.10264000  0.41898000  0.20270000  1.0 -0.12921108
C  C975  1  0.04730000  0.97432000  0.83102000  1.0 -0.12921108
C  C976  1  0.20270000  0.10264000  0.41898000  1.0 -0.12921108
C  C977  1  0.20270000  0.27568000  0.10264000  1.0 -0.12921108
C  C978  1  0.27568000  0.41898000  0.10264000  1.0 -0.12921108
C  C979  1  0.14736000  0.83102000  0.97432000  1.0 -0.12921108
C  C980  1  0.04730000  0.14736000  0.97432000  1.0 -0.12921108
C  C981  1  0.27568000  0.10264000  0.20270000  1.0 -0.12921108
C  C982  1  0.14736000  0.97432000  0.04730000  1.0 -0.12921108
C  C983  1  0.41898000  0.27568000  0.20270000  1.0 -0.12921108
C  C984  1  0.27568000  0.20270000  0.41898000  1.0 -0.12921108
C  C985  1  0.54730000  0.33102000  0.47432000  1.0 -0.12921108
C  C986  1  0.70270000  0.91898000  0.60264000  1.0 -0.12921108
C  C987  1  0.91898000  0.60264000  0.70270000  1.0 -0.12921108
C  C988  1  0.60264000  0.70270000  0.91898000  1.0 -0.12921108
C  C989  1  0.91898000  0.77568000  0.60264000  1.0 -0.12921108
C  C990  1  0.33102000  0.64736000  0.47432000  1.0 -0.12921108
C  C991  1  0.77568000  0.70270000  0.60264000  1.0 -0.12921108
C  C992  1  0.64736000  0.54730000  0.47432000  1.0 -0.12921108
C  C993  1  0.77568000  0.60264000  0.91898000  1.0 -0.12921108
C  C994  1  0.64736000  0.47432000  0.33102000  1.0 -0.12921108
C  C995  1  0.33102000  0.54730000  0.64736000  1.0 -0.12921108
C  C996  1  0.91898000  0.70270000  0.77568000  1.0 -0.12921108
C  C997  1  0.77568000  0.91898000  0.70270000  1.0 -0.12921108
C  C998  1  0.64736000  0.33102000  0.54730000  1.0 -0.12921108
C  C999  1  0.70270000  0.77568000  0.91898000  1.0 -0.12921108
C  C1000  1  0.54730000  0.64736000  0.33102000  1.0 -0.12921108
C  C1001  1  0.54730000  0.47432000  0.64736000  1.0 -0.12921108
C  C1002  1  0.47432000  0.33102000  0.64736000  1.0 -0.12921108
C  C1003  1  0.60264000  0.91898000  0.77568000  1.0 -0.12921108
C  C1004  1  0.70270000  0.60264000  0.77568000  1.0 -0.12921108
C  C1005  1  0.47432000  0.64736000  0.54730000  1.0 -0.12921108
C  C1006  1  0.60264000  0.77568000  0.70270000  1.0 -0.12921108
C  C1007  1  0.33102000  0.47432000  0.54730000  1.0 -0.12921108
C  C1008  1  0.47432000  0.54730000  0.33102000  1.0 -0.12921108
C  C1009  1  0.23515000  0.39149000  0.27397000  1.0 -0.0578433941
C  C1010  1  0.01485000  0.85851000  0.15061000  1.0 -0.054116666
C  C1011  1  0.85851000  0.15061000  0.01485000  1.0 -0.0578433941
C  C1012  1  0.15061000  0.01485000  0.85851000  1.0 -0.054116666
C  C1013  1  0.85851000  0.97603000  0.15061000  1.0 -0.054116666
C  C1014  1  0.39149000  0.09939000  0.27397000  1.0 -0.054116666
C  C1015  1  0.97603000  0.01485000  0.15061000  1.0 -0.054116666
C  C1016  1  0.09939000  0.23515000  0.27397000  1.0 -0.054116666
C  C1017  1  0.97603000  0.15061000  0.85851000  1.0 -0.054116666
C  C1018  1  0.09939000  0.27397000  0.39149000  1.0 -0.054116666
C  C1019  1  0.39149000  0.23515000  0.09939000  1.0 -0.054116666
C  C1020  1  0.85851000  0.01485000  0.97603000  1.0 -0.054116666
C  C1021  1  0.97603000  0.85851000  0.01485000  1.0 -0.054116666
C  C1022  1  0.09939000  0.39149000  0.23515000  1.0 -0.054116666
C  C1023  1  0.01485000  0.97603000  0.85851000  1.0 -0.054116666
C  C1024  1  0.23515000  0.09939000  0.39149000  1.0 -0.054116666
C  C1025  1  0.23515000  0.27397000  0.09939000  1.0 -0.054116666
C  C1026  1  0.27397000  0.39149000  0.09939000  1.0 -0.054116666
C  C1027  1  0.15061000  0.85851000  0.97603000  1.0 -0.054116666
C  C1028  1  0.01485000  0.15061000  0.97603000  1.0 -0.054116666
C  C1029  1  0.27397000  0.09939000  0.23515000  1.0 -0.054116666
C  C1030  1  0.15061000  0.97603000  0.01485000  1.0 -0.054116666
C  C1031  1  0.39149000  0.27397000  0.23515000  1.0 -0.054116666
C  C1032  1  0.27397000  0.23515000  0.39149000  1.0 -0.054116666
C  C1033  1  0.51485000  0.35851000  0.47603000  1.0 -0.054116666
C  C1034  1  0.73515000  0.89149000  0.59939000  1.0 -0.0578433941
C  C1035  1  0.89149000  0.59939000  0.73515000  1.0 -0.054116666
C  C1036  1  0.59939000  0.73515000  0.89149000  1.0 -0.054116666
C  C1037  1  0.89149000  0.77397000  0.59939000  1.0 -0.054116666
C  C1038  1  0.35851000  0.65061000  0.47603000  1.0 -0.054116666
C  C1039  1  0.77397000  0.73515000  0.59939000  1.0 -0.054116666
C  C1040  1  0.65061000  0.51485000  0.47603000  1.0 -0.054116666
C  C1041  1  0.77397000  0.59939000  0.89149000  1.0 -0.054116666
C  C1042  1  0.65061000  0.47603000  0.35851000  1.0 -0.054116666
C  C1043  1  0.35851000  0.51485000  0.65061000  1.0 -0.054116666
C  C1044  1  0.89149000  0.73515000  0.77397000  1.0 -0.054116666
C  C1045  1  0.77397000  0.89149000  0.73515000  1.0 -0.054116666
C  C1046  1  0.65061000  0.35851000  0.51485000  1.0 -0.054116666
C  C1047  1  0.73515000  0.77397000  0.89149000  1.0 -0.054116666
C  C1048  1  0.51485000  0.65061000  0.35851000  1.0 -0.054116666
C  C1049  1  0.51485000  0.47603000  0.65061000  1.0 -0.054116666
C  C1050  1  0.47603000  0.35851000  0.65061000  1.0 -0.054116666
C  C1051  1  0.59939000  0.89149000  0.77397000  1.0 -0.054116666
C  C1052  1  0.73515000  0.59939000  0.77397000  1.0 -0.054116666
C  C1053  1  0.47603000  0.65061000  0.51485000  1.0 -0.054116666
C  C1054  1  0.59939000  0.77397000  0.73515000  1.0 -0.054116666
C  C1055  1  0.35851000  0.47603000  0.51485000  1.0 -0.054116666
C  C1056  1  0.47603000  0.51485000  0.35851000  1.0 -0.054116666
C  C1057  1  0.06833000  0.37531000  0.45243000  1.0 0.0516728606
C  C1058  1  0.18167000  0.87469000  0.14607000  1.0 0.0516728606
C  C1059  1  0.87469000  0.14607000  0.18167000  1.0 0.0516728606
C  C1060  1  0.14607000  0.18167000  0.87469000  1.0 0.0516728606
C  C1061  1  0.87469000  0.79757000  0.14607000  1.0 0.0516728606
C  C1062  1  0.37531000  0.10393000  0.45243000  1.0 0.0516728606
C  C1063  1  0.79757000  0.18167000  0.14607000  1.0 0.0516728606
C  C1064  1  0.10393000  0.06833000  0.45243000  1.0 0.0516728606
C  C1065  1  0.79757000  0.14607000  0.87469000  1.0 0.0516728606
C  C1066  1  0.10393000  0.45243000  0.37531000  1.0 0.0516728606
C  C1067  1  0.37531000  0.06833000  0.10393000  1.0 0.0516728606
C  C1068  1  0.87469000  0.18167000  0.79757000  1.0 0.0516728606
C  C1069  1  0.79757000  0.87469000  0.18167000  1.0 0.0516728606
C  C1070  1  0.10393000  0.37531000  0.06833000  1.0 0.0516728606
C  C1071  1  0.18167000  0.79757000  0.87469000  1.0 0.0516728606
C  C1072  1  0.06833000  0.10393000  0.37531000  1.0 0.0516728606
C  C1073  1  0.06833000  0.45243000  0.10393000  1.0 0.0516728606
C  C1074  1  0.45243000  0.37531000  0.10393000  1.0 0.0516728606
C  C1075  1  0.14607000  0.87469000  0.79757000  1.0 0.0516728606
C  C1076  1  0.18167000  0.14607000  0.79757000  1.0 0.0516728606
C  C1077  1  0.45243000  0.10393000  0.06833000  1.0 0.0516728606
C  C1078  1  0.14607000  0.79757000  0.18167000  1.0 0.0516728606
C  C1079  1  0.37531000  0.45243000  0.06833000  1.0 0.0516728606
C  C1080  1  0.45243000  0.06833000  0.37531000  1.0 0.0516728606
C  C1081  1  0.68167000  0.37469000  0.29757000  1.0 0.0516728606
C  C1082  1  0.56833000  0.87531000  0.60393000  1.0 0.0516728606
C  C1083  1  0.87531000  0.60393000  0.56833000  1.0 0.0516728606
C  C1084  1  0.60393000  0.56833000  0.87531000  1.0 0.0516728606
C  C1085  1  0.87531000  0.95243000  0.60393000  1.0 0.0516728606
C  C1086  1  0.37469000  0.64607000  0.29757000  1.0 0.0516728606
C  C1087  1  0.95243000  0.56833000  0.60393000  1.0 0.0516728606
C  C1088  1  0.64607000  0.68167000  0.29757000  1.0 0.0516728606
C  C1089  1  0.95243000  0.60393000  0.87531000  1.0 0.0516728606
C  C1090  1  0.64607000  0.29757000  0.37469000  1.0 0.0516728606
C  C1091  1  0.37469000  0.68167000  0.64607000  1.0 0.0516728606
C  C1092  1  0.87531000  0.56833000  0.95243000  1.0 0.0516728606
C  C1093  1  0.95243000  0.87531000  0.56833000  1.0 0.0516728606
C  C1094  1  0.64607000  0.37469000  0.68167000  1.0 0.0516728606
C  C1095  1  0.56833000  0.95243000  0.87531000  1.0 0.0516728606
C  C1096  1  0.68167000  0.64607000  0.37469000  1.0 0.0516728606
C  C1097  1  0.68167000  0.29757000  0.64607000  1.0 0.0516728606
C  C1098  1  0.29757000  0.37469000  0.64607000  1.0 0.0516728606
C  C1099  1  0.60393000  0.87531000  0.95243000  1.0 0.0516728606
C  C1100  1  0.56833000  0.60393000  0.95243000  1.0 0.0516728606
C  C1101  1  0.29757000  0.64607000  0.68167000  1.0 0.0516728606
C  C1102  1  0.60393000  0.95243000  0.56833000  1.0 0.0516728606
C  C1103  1  0.37469000  0.29757000  0.68167000  1.0 0.0516728606
C  C1104  1  0.29757000  0.68167000  0.37469000  1.0 0.0516728606
C  C1105  1  0.23660000  0.35804000  0.30124000  1.0 -0.032916556
C  C1106  1  0.01340000  0.89196000  0.14588000  1.0 -0.032916556
C  C1107  1  0.89196000  0.14588000  0.01340000  1.0 -0.032916556
C  C1108  1  0.14588000  0.01340000  0.89196000  1.0 -0.032916556
C  C1109  1  0.89196000  0.94876000  0.14588000  1.0 -0.032916556
C  C1110  1  0.35804000  0.10412000  0.30124000  1.0 -0.032916556
C  C1111  1  0.94876000  0.01340000  0.14588000  1.0 -0.032916556
C  C1112  1  0.10412000  0.23660000  0.30124000  1.0 -0.032916556
C  C1113  1  0.94876000  0.14588000  0.89196000  1.0 -0.032916556
C  C1114  1  0.10412000  0.30124000  0.35804000  1.0 -0.032916556
C  C1115  1  0.35804000  0.23660000  0.10412000  1.0 -0.032916556
C  C1116  1  0.89196000  0.01340000  0.94876000  1.0 -0.032916556
C  C1117  1  0.94876000  0.89196000  0.01340000  1.0 -0.032916556
C  C1118  1  0.10412000  0.35804000  0.23660000  1.0 -0.032916556
C  C1119  1  0.01340000  0.94876000  0.89196000  1.0 -0.032916556
C  C1120  1  0.23660000  0.10412000  0.35804000  1.0 -0.032916556
C  C1121  1  0.23660000  0.30124000  0.10412000  1.0 -0.032916556
C  C1122  1  0.30124000  0.35804000  0.10412000  1.0 -0.032916556
C  C1123  1  0.14588000  0.89196000  0.94876000  1.0 -0.032916556
C  C1124  1  0.01340000  0.14588000  0.94876000  1.0 -0.032916556
C  C1125  1  0.30124000  0.10412000  0.23660000  1.0 -0.032916556
C  C1126  1  0.14588000  0.94876000  0.01340000  1.0 -0.032916556
C  C1127  1  0.35804000  0.30124000  0.23660000  1.0 -0.032916556
C  C1128  1  0.30124000  0.23660000  0.35804000  1.0 -0.032916556
C  C1129  1  0.51340000  0.39196000  0.44876000  1.0 -0.032916556
C  C1130  1  0.73660000  0.85804000  0.60412000  1.0 -0.032916556
C  C1131  1  0.85804000  0.60412000  0.73660000  1.0 -0.032916556
C  C1132  1  0.60412000  0.73660000  0.85804000  1.0 -0.032916556
C  C1133  1  0.85804000  0.80124000  0.60412000  1.0 -0.032916556
C  C1134  1  0.39196000  0.64588000  0.44876000  1.0 -0.032916556
C  C1135  1  0.80124000  0.73660000  0.60412000  1.0 -0.032916556
C  C1136  1  0.64588000  0.51340000  0.44876000  1.0 -0.032916556
C  C1137  1  0.80124000  0.60412000  0.85804000  1.0 -0.032916556
C  C1138  1  0.64588000  0.44876000  0.39196000  1.0 -0.032916556
C  C1139  1  0.39196000  0.51340000  0.64588000  1.0 -0.032916556
C  C1140  1  0.85804000  0.73660000  0.80124000  1.0 -0.032916556
C  C1141  1  0.80124000  0.85804000  0.73660000  1.0 -0.032916556
C  C1142  1  0.64588000  0.39196000  0.51340000  1.0 -0.032916556
C  C1143  1  0.73660000  0.80124000  0.85804000  1.0 -0.032916556
C  C1144  1  0.51340000  0.64588000  0.39196000  1.0 -0.032916556
C  C1145  1  0.51340000  0.44876000  0.64588000  1.0 -0.032916556
C  C1146  1  0.44876000  0.39196000  0.64588000  1.0 -0.032916556
C  C1147  1  0.60412000  0.85804000  0.80124000  1.0 -0.032916556
C  C1148  1  0.73660000  0.60412000  0.80124000  1.0 -0.032916556
C  C1149  1  0.44876000  0.64588000  0.51340000  1.0 -0.032916556
C  C1150  1  0.60412000  0.80124000  0.73660000  1.0 -0.032916556
C  C1151  1  0.39196000  0.44876000  0.51340000  1.0 -0.032916556
C  C1152  1  0.44876000  0.51340000  0.39196000  1.0 -0.032916556
C  C1153  1  0.20401000  0.35453000  0.32853000  1.0 0.0596429036
C  C1154  1  0.04599000  0.89547000  0.13707000  1.0 0.0596429036
C  C1155  1  0.89547000  0.13707000  0.04599000  1.0 0.0596429036
C  C1156  1  0.13707000  0.04599000  0.89547000  1.0 0.0596429036
C  C1157  1  0.89547000  0.92147000  0.13707000  1.0 0.0596429036
C  C1158  1  0.35453000  0.11293000  0.32853000  1.0 0.0596429036
C  C1159  1  0.92147000  0.04599000  0.13707000  1.0 0.0596429036
C  C1160  1  0.11293000  0.20401000  0.32853000  1.0 0.0596429036
C  C1161  1  0.92147000  0.13707000  0.89547000  1.0 0.0596429036
C  C1162  1  0.11293000  0.32853000  0.35453000  1.0 0.0596429036
C  C1163  1  0.35453000  0.20401000  0.11293000  1.0 0.0596429036
C  C1164  1  0.89547000  0.04599000  0.92147000  1.0 0.0596429036
C  C1165  1  0.92147000  0.89547000  0.04599000  1.0 0.0596429036
C  C1166  1  0.11293000  0.35453000  0.20401000  1.0 0.0596429036
C  C1167  1  0.04599000  0.92147000  0.89547000  1.0 0.0596429036
C  C1168  1  0.20401000  0.11293000  0.35453000  1.0 0.0596429036
C  C1169  1  0.20401000  0.32853000  0.11293000  1.0 0.0596429036
C  C1170  1  0.32853000  0.35453000  0.11293000  1.0 0.0596429036
C  C1171  1  0.13707000  0.89547000  0.92147000  1.0 0.0596429036
C  C1172  1  0.04599000  0.13707000  0.92147000  1.0 0.0596429036
C  C1173  1  0.32853000  0.11293000  0.20401000  1.0 0.0596429036
C  C1174  1  0.13707000  0.92147000  0.04599000  1.0 0.0596429036
C  C1175  1  0.35453000  0.32853000  0.20401000  1.0 0.0596429036
C  C1176  1  0.32853000  0.20401000  0.35453000  1.0 0.0596429036
C  C1177  1  0.54599000  0.39547000  0.42147000  1.0 0.0596429036
C  C1178  1  0.70401000  0.85453000  0.61293000  1.0 0.0596429036
C  C1179  1  0.85453000  0.61293000  0.70401000  1.0 0.0596429036
C  C1180  1  0.61293000  0.70401000  0.85453000  1.0 0.0596429036
C  C1181  1  0.85453000  0.82853000  0.61293000  1.0 0.0596429036
C  C1182  1  0.39547000  0.63707000  0.42147000  1.0 0.0596429036
C  C1183  1  0.82853000  0.70401000  0.61293000  1.0 0.0596429036
C  C1184  1  0.63707000  0.54599000  0.42147000  1.0 0.0596429036
C  C1185  1  0.82853000  0.61293000  0.85453000  1.0 0.0596429036
C  C1186  1  0.63707000  0.42147000  0.39547000  1.0 0.0596429036
C  C1187  1  0.39547000  0.54599000  0.63707000  1.0 0.0596429036
C  C1188  1  0.85453000  0.70401000  0.82853000  1.0 0.0596429036
C  C1189  1  0.82853000  0.85453000  0.70401000  1.0 0.0596429036
C  C1190  1  0.63707000  0.39547000  0.54599000  1.0 0.0596429036
C  C1191  1  0.70401000  0.82853000  0.85453000  1.0 0.0596429036
C  C1192  1  0.54599000  0.63707000  0.39547000  1.0 0.0596429036
C  C1193  1  0.54599000  0.42147000  0.63707000  1.0 0.0596429036
C  C1194  1  0.42147000  0.39547000  0.63707000  1.0 0.0596429036
C  C1195  1  0.61293000  0.85453000  0.82853000  1.0 0.0596429036
C  C1196  1  0.70401000  0.61293000  0.82853000  1.0 0.0596429036
C  C1197  1  0.42147000  0.63707000  0.54599000  1.0 0.0596429036
C  C1198  1  0.61293000  0.82853000  0.70401000  1.0 0.0596429036
C  C1199  1  0.39547000  0.42147000  0.54599000  1.0 0.0596429036
C  C1200  1  0.42147000  0.54599000  0.39547000  1.0 0.0596429036
C  C1201  1  0.27022000  0.32742000  0.29998000  1.0 0.3612124604
C  C1202  1  0.97978000  0.92258000  0.14762000  1.0 0.3612124604
C  C1203  1  0.92258000  0.14762000  0.97978000  1.0 0.3612124604
C  C1204  1  0.14762000  0.97978000  0.92258000  1.0 0.3612124604
C  C1205  1  0.92258000  0.95002000  0.14762000  1.0 0.3612124604
C  C1206  1  0.32742000  0.10238000  0.29998000  1.0 0.3612124604
C  C1207  1  0.95002000  0.97978000  0.14762000  1.0 0.3612124604
C  C1208  1  0.10238000  0.27022000  0.29998000  1.0 0.3612124604
C  C1209  1  0.95002000  0.14762000  0.92258000  1.0 0.3612124604
C  C1210  1  0.10238000  0.29998000  0.32742000  1.0 0.3612124604
C  C1211  1  0.32742000  0.27022000  0.10238000  1.0 0.3612124604
C  C1212  1  0.92258000  0.97978000  0.95002000  1.0 0.3612124604
C  C1213  1  0.95002000  0.92258000  0.97978000  1.0 0.3612124604
C  C1214  1  0.10238000  0.32742000  0.27022000  1.0 0.3612124604
C  C1215  1  0.97978000  0.95002000  0.92258000  1.0 0.3612124604
C  C1216  1  0.27022000  0.10238000  0.32742000  1.0 0.3612124604
C  C1217  1  0.27022000  0.29998000  0.10238000  1.0 0.3612124604
C  C1218  1  0.29998000  0.32742000  0.10238000  1.0 0.3612124604
C  C1219  1  0.14762000  0.92258000  0.95002000  1.0 0.3612124604
C  C1220  1  0.97978000  0.14762000  0.95002000  1.0 0.3612124604
C  C1221  1  0.29998000  0.10238000  0.27022000  1.0 0.3612124604
C  C1222  1  0.14762000  0.95002000  0.97978000  1.0 0.3612124604
C  C1223  1  0.32742000  0.29998000  0.27022000  1.0 0.3612124604
C  C1224  1  0.29998000  0.27022000  0.32742000  1.0 0.3612124604
C  C1225  1  0.47978000  0.42258000  0.45002000  1.0 0.3612124604
C  C1226  1  0.77022000  0.82742000  0.60238000  1.0 0.3612124604
C  C1227  1  0.82742000  0.60238000  0.77022000  1.0 0.3612124604
C  C1228  1  0.60238000  0.77022000  0.82742000  1.0 0.3612124604
C  C1229  1  0.82742000  0.79998000  0.60238000  1.0 0.3612124604
C  C1230  1  0.42258000  0.64762000  0.45002000  1.0 0.3612124604
C  C1231  1  0.79998000  0.77022000  0.60238000  1.0 0.3612124604
C  C1232  1  0.64762000  0.47978000  0.45002000  1.0 0.3612124604
C  C1233  1  0.79998000  0.60238000  0.82742000  1.0 0.3612124604
C  C1234  1  0.64762000  0.45002000  0.42258000  1.0 0.3612124604
C  C1235  1  0.42258000  0.47978000  0.64762000  1.0 0.3612124604
C  C1236  1  0.82742000  0.77022000  0.79998000  1.0 0.3612124604
C  C1237  1  0.79998000  0.82742000  0.77022000  1.0 0.3612124604
C  C1238  1  0.64762000  0.42258000  0.47978000  1.0 0.3612124604
C  C1239  1  0.77022000  0.79998000  0.82742000  1.0 0.3612124604
C  C1240  1  0.47978000  0.64762000  0.42258000  1.0 0.3612124604
C  C1241  1  0.47978000  0.45002000  0.64762000  1.0 0.3612124604
C  C1242  1  0.45002000  0.42258000  0.64762000  1.0 0.3612124604
C  C1243  1  0.60238000  0.82742000  0.79998000  1.0 0.3612124604
C  C1244  1  0.77022000  0.60238000  0.79998000  1.0 0.3612124604
C  C1245  1  0.45002000  0.64762000  0.47978000  1.0 0.3612124604
C  C1246  1  0.60238000  0.79998000  0.77022000  1.0 0.3612124604
C  C1247  1  0.42258000  0.45002000  0.47978000  1.0 0.3612124604
C  C1248  1  0.45002000  0.47978000  0.42258000  1.0 0.3612124604
S  S1  1  0.25379000  0.32909000  0.57291000  1.0 -0.4007480183
S  S2  1  0.99621000  0.92091000  0.40579000  1.0 -0.3931267023
S  S3  1  0.92091000  0.40579000  0.99621000  1.0 -0.3931267023
S  S4  1  0.40579000  0.99621000  0.92091000  1.0 -0.3931267023
S  S5  1  0.92091000  0.67709000  0.40579000  1.0 -0.4007480183
S  S6  1  0.32909000  0.84421000  0.57291000  1.0 -0.3931267023
S  S7  1  0.67709000  0.99621000  0.40579000  1.0 -0.3931267023
S  S8  1  0.84421000  0.25379000  0.57291000  1.0 -0.3931267023
S  S9  1  0.67709000  0.40579000  0.92091000  1.0 -0.3931267023
S  S10  1  0.84421000  0.57291000  0.32909000  1.0 -0.3931267023
S  S11  1  0.32909000  0.25379000  0.84421000  1.0 -0.3931267023
S  S12  1  0.92091000  0.99621000  0.67709000  1.0 -0.3931267023
S  S13  1  0.67709000  0.92091000  0.99621000  1.0 -0.3931267023
S  S14  1  0.84421000  0.32909000  0.25379000  1.0 -0.3931267023
S  S15  1  0.99621000  0.67709000  0.92091000  1.0 -0.4007480183
S  S16  1  0.25379000  0.84421000  0.32909000  1.0 -0.4007480183
S  S17  1  0.25379000  0.57291000  0.84421000  1.0 -0.4007480183
S  S18  1  0.57291000  0.32909000  0.84421000  1.0 -0.3931267023
S  S19  1  0.40579000  0.92091000  0.67709000  1.0 -0.3931267023
S  S20  1  0.99621000  0.40579000  0.67709000  1.0 -0.3931267023
S  S21  1  0.57291000  0.84421000  0.25379000  1.0 -0.3931267023
S  S22  1  0.40579000  0.67709000  0.99621000  1.0 -0.3931267023
S  S23  1  0.32909000  0.57291000  0.25379000  1.0 -0.3931267023
S  S24  1  0.57291000  0.25379000  0.32909000  1.0 -0.3931267023
S  S25  1  0.49621000  0.42091000  0.17709000  1.0 -0.3931267023
S  S26  1  0.75379000  0.82909000  0.34421000  1.0 -0.3931267023
S  S27  1  0.82909000  0.34421000  0.75379000  1.0 -0.3931267023
S  S28  1  0.34421000  0.75379000  0.82909000  1.0 -0.3931267023
S  S29  1  0.82909000  0.07291000  0.34421000  1.0 -0.3931267023
S  S30  1  0.42091000  0.90579000  0.17709000  1.0 -0.3931267023
S  S31  1  0.07291000  0.75379000  0.34421000  1.0 -0.3931267023
S  S32  1  0.90579000  0.49621000  0.17709000  1.0 -0.3931267023
S  S33  1  0.07291000  0.34421000  0.82909000  1.0 -0.3931267023
S  S34  1  0.90579000  0.17709000  0.42091000  1.0 -0.3931267023
S  S35  1  0.42091000  0.49621000  0.90579000  1.0 -0.3931267023
S  S36  1  0.82909000  0.75379000  0.07291000  1.0 -0.3931267023
S  S37  1  0.07291000  0.82909000  0.75379000  1.0 -0.3931267023
S  S38  1  0.90579000  0.42091000  0.49621000  1.0 -0.3931267023
S  S39  1  0.75379000  0.07291000  0.82909000  1.0 -0.3931267023
S  S40  1  0.49621000  0.90579000  0.42091000  1.0 -0.3931267023
S  S41  1  0.49621000  0.17709000  0.90579000  1.0 -0.3931267023
S  S42  1  0.17709000  0.42091000  0.90579000  1.0 -0.3931267023
S  S43  1  0.34421000  0.82909000  0.07291000  1.0 -0.3931267023
S  S44  1  0.75379000  0.34421000  0.07291000  1.0 -0.3931267023
S  S45  1  0.17709000  0.90579000  0.49621000  1.0 -0.4007480183
S  S46  1  0.34421000  0.07291000  0.75379000  1.0 -0.3931267023
S  S47  1  0.42091000  0.17709000  0.49621000  1.0 -0.3931267023
S  S48  1  0.17709000  0.49621000  0.42091000  1.0 -0.3931267023
S  S49  1  0.19357000  0.28545000  0.45591000  1.0 -0.4007480183
S  S50  1  0.05643000  0.96455000  0.18493000  1.0 -0.4007480183
S  S51  1  0.96455000  0.18493000  0.05643000  1.0 -0.4081369365
S  S52  1  0.18493000  0.05643000  0.96455000  1.0 -0.4081369365
S  S53  1  0.96455000  0.79409000  0.18493000  1.0 -0.4007480183
S  S54  1  0.28545000  0.06507000  0.45591000  1.0 -0.4081369365
S  S55  1  0.79409000  0.05643000  0.18493000  1.0 -0.4007480183
S  S56  1  0.06507000  0.19357000  0.45591000  1.0 -0.4081369365
S  S57  1  0.79409000  0.18493000  0.96455000  1.0 -0.4081369365
S  S58  1  0.06507000  0.45591000  0.28545000  1.0 -0.4007480183
S  S59  1  0.28545000  0.19357000  0.06507000  1.0 -0.4081369365
S  S60  1  0.96455000  0.05643000  0.79409000  1.0 -0.4081369365
S  S61  1  0.79409000  0.96455000  0.05643000  1.0 -0.4007480183
S  S62  1  0.06507000  0.28545000  0.19357000  1.0 -0.4007480183
S  S63  1  0.05643000  0.79409000  0.96455000  1.0 -0.4081369365
S  S64  1  0.19357000  0.06507000  0.28545000  1.0 -0.4081369365
S  S65  1  0.19357000  0.45591000  0.06507000  1.0 -0.4081369365
S  S66  1  0.45591000  0.28545000  0.06507000  1.0 -0.4007480183
S  S67  1  0.18493000  0.96455000  0.79409000  1.0 -0.4007480183
S  S68  1  0.05643000  0.18493000  0.79409000  1.0 -0.4007480183
S  S69  1  0.45591000  0.06507000  0.19357000  1.0 -0.4081369365
S  S70  1  0.18493000  0.79409000  0.05643000  1.0 -0.4007480183
S  S71  1  0.28545000  0.45591000  0.19357000  1.0 -0.4007480183
S  S72  1  0.45591000  0.19357000  0.28545000  1.0 -0.4081369365
S  S73  1  0.55643000  0.46455000  0.29409000  1.0 -0.4007480183
S  S74  1  0.69357000  0.78545000  0.56507000  1.0 -0.4081369365
S  S75  1  0.78545000  0.56507000  0.69357000  1.0 -0.4081369365
S  S76  1  0.56507000  0.69357000  0.78545000  1.0 -0.4007480183
S  S77  1  0.78545000  0.95591000  0.56507000  1.0 -0.4081369365
S  S78  1  0.46455000  0.68493000  0.29409000  1.0 -0.4007480183
S  S79  1  0.95591000  0.69357000  0.56507000  1.0 -0.4081369365
S  S80  1  0.68493000  0.55643000  0.29409000  1.0 -0.4081369365
S  S81  1  0.95591000  0.56507000  0.78545000  1.0 -0.4081369365
S  S82  1  0.68493000  0.29409000  0.46455000  1.0 -0.4081369365
S  S83  1  0.46455000  0.55643000  0.68493000  1.0 -0.4007480183
S  S84  1  0.78545000  0.69357000  0.95591000  1.0 -0.4081369365
S  S85  1  0.95591000  0.78545000  0.69357000  1.0 -0.4081369365
S  S86  1  0.68493000  0.46455000  0.55643000  1.0 -0.4007480183
S  S87  1  0.69357000  0.95591000  0.78545000  1.0 -0.4081369365
S  S88  1  0.55643000  0.68493000  0.46455000  1.0 -0.4007480183
S  S89  1  0.55643000  0.29409000  0.68493000  1.0 -0.4081369365
S  S90  1  0.29409000  0.46455000  0.68493000  1.0 -0.4007480183
S  S91  1  0.56507000  0.78545000  0.95591000  1.0 -0.4007480183
S  S92  1  0.69357000  0.56507000  0.95591000  1.0 -0.4007480183
S  S93  1  0.29409000  0.68493000  0.55643000  1.0 -0.4007480183
S  S94  1  0.56507000  0.95591000  0.69357000  1.0 -0.4081369365
S  S95  1  0.46455000  0.29409000  0.55643000  1.0 -0.4081369365
S  S96  1  0.29409000  0.55643000  0.46455000  1.0 -0.4007480183
N  N1  1  0.18047000  0.34151000  0.61445000  1.0 -0.4788278316
N  N2  1  0.06953000  0.90849000  0.38643000  1.0 -0.4788278316
N  N3  1  0.90849000  0.38643000  0.06953000  1.0 -0.4788278316
N  N4  1  0.38643000  0.06953000  0.90849000  1.0 -0.4788278316
N  N5  1  0.90849000  0.63555000  0.38643000  1.0 -0.4788278316
N  N6  1  0.34151000  0.86357000  0.61445000  1.0 -0.4788278316
N  N7  1  0.63555000  0.06953000  0.38643000  1.0 -0.4788278316
N  N8  1  0.86357000  0.18047000  0.61445000  1.0 -0.4788278316
N  N9  1  0.63555000  0.38643000  0.90849000  1.0 -0.4788278316
N  N10  1  0.86357000  0.61445000  0.34151000  1.0 -0.4788278316
N  N11  1  0.34151000  0.18047000  0.86357000  1.0 -0.4788278316
N  N12  1  0.90849000  0.06953000  0.63555000  1.0 -0.4788278316
N  N13  1  0.63555000  0.90849000  0.06953000  1.0 -0.4788278316
N  N14  1  0.86357000  0.34151000  0.18047000  1.0 -0.4788278316
N  N15  1  0.06953000  0.63555000  0.90849000  1.0 -0.4788278316
N  N16  1  0.18047000  0.86357000  0.34151000  1.0 -0.4788278316
N  N17  1  0.18047000  0.61445000  0.86357000  1.0 -0.4788278316
N  N18  1  0.61445000  0.34151000  0.86357000  1.0 -0.4788278316
N  N19  1  0.38643000  0.90849000  0.63555000  1.0 -0.4788278316
N  N20  1  0.06953000  0.38643000  0.63555000  1.0 -0.4788278316
N  N21  1  0.61445000  0.86357000  0.18047000  1.0 -0.4788278316
N  N22  1  0.38643000  0.63555000  0.06953000  1.0 -0.4788278316
N  N23  1  0.34151000  0.61445000  0.18047000  1.0 -0.4788278316
N  N24  1  0.61445000  0.18047000  0.34151000  1.0 -0.4788278316
N  N25  1  0.56953000  0.40849000  0.13555000  1.0 -0.4788278316
N  N26  1  0.68047000  0.84151000  0.36357000  1.0 -0.4788278316
N  N27  1  0.84151000  0.36357000  0.68047000  1.0 -0.4788278316
N  N28  1  0.36357000  0.68047000  0.84151000  1.0 -0.4788278316
N  N29  1  0.84151000  0.11445000  0.36357000  1.0 -0.4788278316
N  N30  1  0.40849000  0.88643000  0.13555000  1.0 -0.4788278316
N  N31  1  0.11445000  0.68047000  0.36357000  1.0 -0.4788278316
N  N32  1  0.88643000  0.56953000  0.13555000  1.0 -0.4788278316
N  N33  1  0.11445000  0.36357000  0.84151000  1.0 -0.4788278316
N  N34  1  0.88643000  0.13555000  0.40849000  1.0 -0.4788278316
N  N35  1  0.40849000  0.56953000  0.88643000  1.0 -0.4788278316
N  N36  1  0.84151000  0.68047000  0.11445000  1.0 -0.4788278316
N  N37  1  0.11445000  0.84151000  0.68047000  1.0 -0.4788278316
N  N38  1  0.88643000  0.40849000  0.56953000  1.0 -0.4788278316
N  N39  1  0.68047000  0.11445000  0.84151000  1.0 -0.4788278316
N  N40  1  0.56953000  0.88643000  0.40849000  1.0 -0.4788278316
N  N41  1  0.56953000  0.13555000  0.88643000  1.0 -0.4788278316
N  N42  1  0.13555000  0.40849000  0.88643000  1.0 -0.4788278316
N  N43  1  0.36357000  0.84151000  0.11445000  1.0 -0.4788278316
N  N44  1  0.68047000  0.36357000  0.11445000  1.0 -0.4788278316
N  N45  1  0.13555000  0.88643000  0.56953000  1.0 -0.4788278316
N  N46  1  0.36357000  0.11445000  0.68047000  1.0 -0.4788278316
N  N47  1  0.40849000  0.13555000  0.56953000  1.0 -0.4788278316
N  N48  1  0.13555000  0.56953000  0.40849000  1.0 -0.4788278316
N  N49  1  0.15286000  0.33962000  0.41102000  1.0 -0.4741078616
N  N50  1  0.09714000  0.91038000  0.15350000  1.0 -0.4741078616
N  N51  1  0.91038000  0.15350000  0.09714000  1.0 -0.4788278316
N  N52  1  0.15350000  0.09714000  0.91038000  1.0 -0.4741078616
N  N53  1  0.91038000  0.83898000  0.15350000  1.0 -0.4788278316
N  N54  1  0.33962000  0.09650000  0.41102000  1.0 -0.4741078616
N  N55  1  0.83898000  0.09714000  0.15350000  1.0 -0.4788278316
N  N56  1  0.09650000  0.15286000  0.41102000  1.0 -0.4741078616
N  N57  1  0.83898000  0.15350000  0.91038000  1.0 -0.4788278316
N  N58  1  0.09650000  0.41102000  0.33962000  1.0 -0.4788278316
N  N59  1  0.33962000  0.15286000  0.09650000  1.0 -0.4741078616
N  N60  1  0.91038000  0.09714000  0.83898000  1.0 -0.4788278316
N  N61  1  0.83898000  0.91038000  0.09714000  1.0 -0.4788278316
N  N62  1  0.09650000  0.33962000  0.15286000  1.0 -0.4741078616
N  N63  1  0.09714000  0.83898000  0.91038000  1.0 -0.4788278316
N  N64  1  0.15286000  0.09650000  0.33962000  1.0 -0.4741078616
N  N65  1  0.15286000  0.41102000  0.09650000  1.0 -0.4741078616
N  N66  1  0.41102000  0.33962000  0.09650000  1.0 -0.4788278316
N  N67  1  0.15350000  0.91038000  0.83898000  1.0 -0.4788278316
N  N68  1  0.09714000  0.15350000  0.83898000  1.0 -0.4788278316
N  N69  1  0.41102000  0.09650000  0.15286000  1.0 -0.4741078616
N  N70  1  0.15350000  0.83898000  0.09714000  1.0 -0.4741078616
N  N71  1  0.33962000  0.41102000  0.15286000  1.0 -0.4741078616
N  N72  1  0.41102000  0.15286000  0.33962000  1.0 -0.4741078616
N  N73  1  0.59714000  0.41038000  0.33898000  1.0 -0.4788278316
N  N74  1  0.65286000  0.83962000  0.59650000  1.0 -0.4788278316
N  N75  1  0.83962000  0.59650000  0.65286000  1.0 -0.4741078616
N  N76  1  0.59650000  0.65286000  0.83962000  1.0 -0.4788278316
N  N77  1  0.83962000  0.91102000  0.59650000  1.0 -0.4741078616
N  N78  1  0.41038000  0.65350000  0.33898000  1.0 -0.4788278316
N  N79  1  0.91102000  0.65286000  0.59650000  1.0 -0.4741078616
N  N80  1  0.65350000  0.59714000  0.33898000  1.0 -0.4741078616
N  N81  1  0.91102000  0.59650000  0.83962000  1.0 -0.4788278316
N  N82  1  0.65350000  0.33898000  0.41038000  1.0 -0.4788278316
N  N83  1  0.41038000  0.59714000  0.65350000  1.0 -0.4788278316
N  N84  1  0.83962000  0.65286000  0.91102000  1.0 -0.4741078616
N  N85  1  0.91102000  0.83962000  0.65286000  1.0 -0.4741078616
N  N86  1  0.65350000  0.41038000  0.59714000  1.0 -0.4788278316
N  N87  1  0.65286000  0.91102000  0.83962000  1.0 -0.4788278316
N  N88  1  0.59714000  0.65350000  0.41038000  1.0 -0.4788278316
N  N89  1  0.59714000  0.33898000  0.65350000  1.0 -0.4788278316
N  N90  1  0.33898000  0.41038000  0.65350000  1.0 -0.4788278316
N  N91  1  0.59650000  0.83962000  0.91102000  1.0 -0.4788278316
N  N92  1  0.65286000  0.59650000  0.91102000  1.0 -0.4788278316
N  N93  1  0.33898000  0.65350000  0.59714000  1.0 -0.4788278316
N  N94  1  0.59650000  0.91102000  0.65286000  1.0 -0.4741078616
N  N95  1  0.41038000  0.33898000  0.59714000  1.0 -0.4788278316
N  N96  1  0.33898000  0.59714000  0.41038000  1.0 -0.4788278316
N  N97  1  0.13347000  0.34217000  0.58519000  1.0 -0.2107348279
N  N98  1  0.11653000  0.90783000  0.31083000  1.0 -0.2107348279
N  N99  1  0.90783000  0.31083000  0.11653000  1.0 -0.2107348279
N  N100  1  0.31083000  0.11653000  0.90783000  1.0 -0.2107348279
N  N101  1  0.90783000  0.66481000  0.31083000  1.0 -0.2107348279
N  N102  1  0.34217000  0.93917000  0.58519000  1.0 -0.2107348279
N  N103  1  0.66481000  0.11653000  0.31083000  1.0 -0.2107348279
N  N104  1  0.93917000  0.13347000  0.58519000  1.0 -0.2107348279
N  N105  1  0.66481000  0.31083000  0.90783000  1.0 -0.2107348279
N  N106  1  0.93917000  0.58519000  0.34217000  1.0 -0.2107348279
N  N107  1  0.34217000  0.13347000  0.93917000  1.0 -0.2107348279
N  N108  1  0.90783000  0.11653000  0.66481000  1.0 -0.2107348279
N  N109  1  0.66481000  0.90783000  0.11653000  1.0 -0.2107348279
N  N110  1  0.93917000  0.34217000  0.13347000  1.0 -0.2107348279
N  N111  1  0.11653000  0.66481000  0.90783000  1.0 -0.2107348279
N  N112  1  0.13347000  0.93917000  0.34217000  1.0 -0.2107348279
N  N113  1  0.13347000  0.58519000  0.93917000  1.0 -0.2107348279
N  N114  1  0.58519000  0.34217000  0.93917000  1.0 -0.2107348279
N  N115  1  0.31083000  0.90783000  0.66481000  1.0 -0.2107348279
N  N116  1  0.11653000  0.31083000  0.66481000  1.0 -0.2107348279
N  N117  1  0.58519000  0.93917000  0.13347000  1.0 -0.2107348279
N  N118  1  0.31083000  0.66481000  0.11653000  1.0 -0.2107348279
N  N119  1  0.34217000  0.58519000  0.13347000  1.0 -0.2107348279
N  N120  1  0.58519000  0.13347000  0.34217000  1.0 -0.2107348279
N  N121  1  0.61653000  0.40783000  0.16481000  1.0 -0.2107348279
N  N122  1  0.63347000  0.84217000  0.43917000  1.0 -0.2107348279
N  N123  1  0.84217000  0.43917000  0.63347000  1.0 -0.2107348279
N  N124  1  0.43917000  0.63347000  0.84217000  1.0 -0.2107348279
N  N125  1  0.84217000  0.08519000  0.43917000  1.0 -0.2107348279
N  N126  1  0.40783000  0.81083000  0.16481000  1.0 -0.2107348279
N  N127  1  0.08519000  0.63347000  0.43917000  1.0 -0.2107348279
N  N128  1  0.81083000  0.61653000  0.16481000  1.0 -0.2107348279
N  N129  1  0.08519000  0.43917000  0.84217000  1.0 -0.2107348279
N  N130  1  0.81083000  0.16481000  0.40783000  1.0 -0.2107348279
N  N131  1  0.40783000  0.61653000  0.81083000  1.0 -0.2107348279
N  N132  1  0.84217000  0.63347000  0.08519000  1.0 -0.2107348279
N  N133  1  0.08519000  0.84217000  0.63347000  1.0 -0.2107348279
N  N134  1  0.81083000  0.40783000  0.61653000  1.0 -0.2107348279
N  N135  1  0.63347000  0.08519000  0.84217000  1.0 -0.2107348279
N  N136  1  0.61653000  0.81083000  0.40783000  1.0 -0.2107348279
N  N137  1  0.61653000  0.16481000  0.81083000  1.0 -0.2107348279
N  N138  1  0.16481000  0.40783000  0.81083000  1.0 -0.2107348279
N  N139  1  0.43917000  0.84217000  0.08519000  1.0 -0.2107348279
N  N140  1  0.63347000  0.43917000  0.08519000  1.0 -0.2107348279
N  N141  1  0.16481000  0.81083000  0.61653000  1.0 -0.2107348279
N  N142  1  0.43917000  0.08519000  0.63347000  1.0 -0.2107348279
N  N143  1  0.40783000  0.16481000  0.61653000  1.0 -0.2107348279
N  N144  1  0.16481000  0.61653000  0.40783000  1.0 -0.2107348279
N  N145  1  0.91191000  0.37467000  0.63269000  1.0 -0.2029144767
N  N146  1  0.33809000  0.87533000  0.16927000  1.0 -0.2029144767
N  N147  1  0.87533000  0.16927000  0.33809000  1.0 -0.2029144767
N  N148  1  0.16927000  0.33809000  0.87533000  1.0 -0.2029144767
N  N149  1  0.87533000  0.61731000  0.16927000  1.0 -0.2029144767
N  N150  1  0.37467000  0.08073000  0.63269000  1.0 -0.2029144767
N  N151  1  0.61731000  0.33809000  0.16927000  1.0 -0.2029144767
N  N152  1  0.08073000  0.91191000  0.63269000  1.0 -0.2029144767
N  N153  1  0.61731000  0.16927000  0.87533000  1.0 -0.2029144767
N  N154  1  0.08073000  0.63269000  0.37467000  1.0 -0.2029144767
N  N155  1  0.37467000  0.91191000  0.08073000  1.0 -0.2029144767
N  N156  1  0.87533000  0.33809000  0.61731000  1.0 -0.2029144767
N  N157  1  0.61731000  0.87533000  0.33809000  1.0 -0.2029144767
N  N158  1  0.08073000  0.37467000  0.91191000  1.0 -0.2029144767
N  N159  1  0.33809000  0.61731000  0.87533000  1.0 -0.2029144767
N  N160  1  0.91191000  0.08073000  0.37467000  1.0 -0.2029144767
N  N161  1  0.91191000  0.63269000  0.08073000  1.0 -0.2029144767
N  N162  1  0.63269000  0.37467000  0.08073000  1.0 -0.2029144767
N  N163  1  0.16927000  0.87533000  0.61731000  1.0 -0.2029144767
N  N164  1  0.33809000  0.16927000  0.61731000  1.0 -0.2029144767
N  N165  1  0.63269000  0.08073000  0.91191000  1.0 -0.2029144767
N  N166  1  0.16927000  0.61731000  0.33809000  1.0 -0.2029144767
N  N167  1  0.37467000  0.63269000  0.91191000  1.0 -0.2029144767
N  N168  1  0.63269000  0.91191000  0.37467000  1.0 -0.2029144767
N  N169  1  0.83809000  0.37533000  0.11731000  1.0 -0.2029144767
N  N170  1  0.41191000  0.87467000  0.58073000  1.0 -0.2029144767
N  N171  1  0.87467000  0.58073000  0.41191000  1.0 -0.2029144767
N  N172  1  0.58073000  0.41191000  0.87467000  1.0 -0.2029144767
N  N173  1  0.87467000  0.13269000  0.58073000  1.0 -0.2029144767
N  N174  1  0.37533000  0.66927000  0.11731000  1.0 -0.2029144767
N  N175  1  0.13269000  0.41191000  0.58073000  1.0 -0.2029144767
N  N176  1  0.66927000  0.83809000  0.11731000  1.0 -0.2029144767
N  N177  1  0.13269000  0.58073000  0.87467000  1.0 -0.2029144767
N  N178  1  0.66927000  0.11731000  0.37533000  1.0 -0.2029144767
N  N179  1  0.37533000  0.83809000  0.66927000  1.0 -0.2029144767
N  N180  1  0.87467000  0.41191000  0.13269000  1.0 -0.2029144767
N  N181  1  0.13269000  0.87467000  0.41191000  1.0 -0.2029144767
N  N182  1  0.66927000  0.37533000  0.83809000  1.0 -0.2029144767
N  N183  1  0.41191000  0.13269000  0.87467000  1.0 -0.2029144767
N  N184  1  0.83809000  0.66927000  0.37533000  1.0 -0.2029144767
N  N185  1  0.83809000  0.11731000  0.66927000  1.0 -0.2029144767
N  N186  1  0.11731000  0.37533000  0.66927000  1.0 -0.2029144767
N  N187  1  0.58073000  0.87467000  0.13269000  1.0 -0.2029144767
N  N188  1  0.41191000  0.58073000  0.13269000  1.0 -0.2029144767
N  N189  1  0.11731000  0.66927000  0.83809000  1.0 -0.2029144767
N  N190  1  0.58073000  0.13269000  0.41191000  1.0 -0.2029144767
N  N191  1  0.37533000  0.11731000  0.83809000  1.0 -0.2029144767
N  N192  1  0.11731000  0.83809000  0.37533000  1.0 -0.2029144767
N  N193  1  0.03935000  0.35245000  0.58165000  1.0 -0.4180004698
N  N194  1  0.21065000  0.89755000  0.22345000  1.0 -0.4180004698
N  N195  1  0.89755000  0.22345000  0.21065000  1.0 -0.4180004698
N  N196  1  0.22345000  0.21065000  0.89755000  1.0 -0.4180004698
N  N197  1  0.89755000  0.66835000  0.22345000  1.0 -0.4180004698
N  N198  1  0.35245000  0.02655000  0.58165000  1.0 -0.4180004698
N  N199  1  0.66835000  0.21065000  0.22345000  1.0 -0.4180004698
N  N200  1  0.02655000  0.03935000  0.58165000  1.0 -0.4180004698
N  N201  1  0.66835000  0.22345000  0.89755000  1.0 -0.4180004698
N  N202  1  0.02655000  0.58165000  0.35245000  1.0 -0.4180004698
N  N203  1  0.35245000  0.03935000  0.02655000  1.0 -0.4180004698
N  N204  1  0.89755000  0.21065000  0.66835000  1.0 -0.4180004698
N  N205  1  0.66835000  0.89755000  0.21065000  1.0 -0.4180004698
N  N206  1  0.02655000  0.35245000  0.03935000  1.0 -0.4180004698
N  N207  1  0.21065000  0.66835000  0.89755000  1.0 -0.4180004698
N  N208  1  0.03935000  0.02655000  0.35245000  1.0 -0.4180004698
N  N209  1  0.03935000  0.58165000  0.02655000  1.0 -0.4180004698
N  N210  1  0.58165000  0.35245000  0.02655000  1.0 -0.4180004698
N  N211  1  0.22345000  0.89755000  0.66835000  1.0 -0.4180004698
N  N212  1  0.21065000  0.22345000  0.66835000  1.0 -0.4180004698
N  N213  1  0.58165000  0.02655000  0.03935000  1.0 -0.4180004698
N  N214  1  0.22345000  0.66835000  0.21065000  1.0 -0.4180004698
N  N215  1  0.35245000  0.58165000  0.03935000  1.0 -0.4180004698
N  N216  1  0.58165000  0.03935000  0.35245000  1.0 -0.4180004698
N  N217  1  0.71065000  0.39755000  0.16835000  1.0 -0.4180004698
N  N218  1  0.53935000  0.85245000  0.52655000  1.0 -0.4180004698
N  N219  1  0.85245000  0.52655000  0.53935000  1.0 -0.4180004698
N  N220  1  0.52655000  0.53935000  0.85245000  1.0 -0.4180004698
N  N221  1  0.85245000  0.08165000  0.52655000  1.0 -0.4180004698
N  N222  1  0.39755000  0.72345000  0.16835000  1.0 -0.4180004698
N  N223  1  0.08165000  0.53935000  0.52655000  1.0 -0.4180004698
N  N224  1  0.72345000  0.71065000  0.16835000  1.0 -0.4180004698
N  N225  1  0.08165000  0.52655000  0.85245000  1.0 -0.4180004698
N  N226  1  0.72345000  0.16835000  0.39755000  1.0 -0.4180004698
N  N227  1  0.39755000  0.71065000  0.72345000  1.0 -0.4180004698
N  N228  1  0.85245000  0.53935000  0.08165000  1.0 -0.4180004698
N  N229  1  0.08165000  0.85245000  0.53935000  1.0 -0.4180004698
N  N230  1  0.72345000  0.39755000  0.71065000  1.0 -0.4180004698
N  N231  1  0.53935000  0.08165000  0.85245000  1.0 -0.4180004698
N  N232  1  0.71065000  0.72345000  0.39755000  1.0 -0.4180004698
N  N233  1  0.71065000  0.16835000  0.72345000  1.0 -0.4180004698
N  N234  1  0.16835000  0.39755000  0.72345000  1.0 -0.4180004698
N  N235  1  0.52655000  0.85245000  0.08165000  1.0 -0.4180004698
N  N236  1  0.53935000  0.52655000  0.08165000  1.0 -0.4180004698
N  N237  1  0.16835000  0.72345000  0.71065000  1.0 -0.4180004698
N  N238  1  0.52655000  0.08165000  0.53935000  1.0 -0.4180004698
N  N239  1  0.39755000  0.16835000  0.71065000  1.0 -0.4180004698
N  N240  1  0.16835000  0.71065000  0.39755000  1.0 -0.4180004698
N  N241  1  0.06978000  0.35650000  0.51974000  1.0 -0.4007480183
N  N242  1  0.18022000  0.89350000  0.19602000  1.0 -0.4007480183
N  N243  1  0.89350000  0.19602000  0.18022000  1.0 -0.4007480183
N  N244  1  0.19602000  0.18022000  0.89350000  1.0 -0.4007480183
N  N245  1  0.89350000  0.73026000  0.19602000  1.0 -0.4007480183
N  N246  1  0.35650000  0.05398000  0.51974000  1.0 -0.4007480183
N  N247  1  0.73026000  0.18022000  0.19602000  1.0 -0.4007480183
N  N248  1  0.05398000  0.06978000  0.51974000  1.0 -0.4007480183
N  N249  1  0.73026000  0.19602000  0.89350000  1.0 -0.4007480183
N  N250  1  0.05398000  0.51974000  0.35650000  1.0 -0.4007480183
N  N251  1  0.35650000  0.06978000  0.05398000  1.0 -0.4007480183
N  N252  1  0.89350000  0.18022000  0.73026000  1.0 -0.4007480183
N  N253  1  0.73026000  0.89350000  0.18022000  1.0 -0.4007480183
N  N254  1  0.05398000  0.35650000  0.06978000  1.0 -0.4007480183
N  N255  1  0.18022000  0.73026000  0.89350000  1.0 -0.4007480183
N  N256  1  0.06978000  0.05398000  0.35650000  1.0 -0.4007480183
N  N257  1  0.06978000  0.51974000  0.05398000  1.0 -0.4007480183
N  N258  1  0.51974000  0.35650000  0.05398000  1.0 -0.4007480183
N  N259  1  0.19602000  0.89350000  0.73026000  1.0 -0.4007480183
N  N260  1  0.18022000  0.19602000  0.73026000  1.0 -0.4007480183
N  N261  1  0.51974000  0.05398000  0.06978000  1.0 -0.4007480183
N  N262  1  0.19602000  0.73026000  0.18022000  1.0 -0.4007480183
N  N263  1  0.35650000  0.51974000  0.06978000  1.0 -0.4007480183
N  N264  1  0.51974000  0.06978000  0.35650000  1.0 -0.4007480183
N  N265  1  0.68022000  0.39350000  0.23026000  1.0 -0.4007480183
N  N266  1  0.56978000  0.85650000  0.55398000  1.0 -0.4007480183
N  N267  1  0.85650000  0.55398000  0.56978000  1.0 -0.4007480183
N  N268  1  0.55398000  0.56978000  0.85650000  1.0 -0.4007480183
N  N269  1  0.85650000  0.01974000  0.55398000  1.0 -0.4007480183
N  N270  1  0.39350000  0.69602000  0.23026000  1.0 -0.4007480183
N  N271  1  0.01974000  0.56978000  0.55398000  1.0 -0.4007480183
N  N272  1  0.69602000  0.68022000  0.23026000  1.0 -0.4007480183
N  N273  1  0.01974000  0.55398000  0.85650000  1.0 -0.4007480183
N  N274  1  0.69602000  0.23026000  0.39350000  1.0 -0.4007480183
N  N275  1  0.39350000  0.68022000  0.69602000  1.0 -0.4007480183
N  N276  1  0.85650000  0.56978000  0.01974000  1.0 -0.4007480183
N  N277  1  0.01974000  0.85650000  0.56978000  1.0 -0.4007480183
N  N278  1  0.69602000  0.39350000  0.68022000  1.0 -0.4007480183
N  N279  1  0.56978000  0.01974000  0.85650000  1.0 -0.4007480183
N  N280  1  0.68022000  0.69602000  0.39350000  1.0 -0.4007480183
N  N281  1  0.68022000  0.23026000  0.69602000  1.0 -0.4007480183
N  N282  1  0.23026000  0.39350000  0.69602000  1.0 -0.4007480183
N  N283  1  0.55398000  0.85650000  0.01974000  1.0 -0.4007480183
N  N284  1  0.56978000  0.55398000  0.01974000  1.0 -0.4007480183
N  N285  1  0.23026000  0.69602000  0.68022000  1.0 -0.4007480183
N  N286  1  0.55398000  0.01974000  0.56978000  1.0 -0.4007480183
N  N287  1  0.39350000  0.23026000  0.68022000  1.0 -0.4007480183
N  N288  1  0.23026000  0.68022000  0.39350000  1.0 -0.4007480183
N  N289  1  0.00591000  0.37107000  0.54461000  1.0 -0.4081369365
N  N290  1  0.24409000  0.87893000  0.17159000  1.0 -0.4081369365
N  N291  1  0.87893000  0.17159000  0.24409000  1.0 -0.4081369365
N  N292  1  0.17159000  0.24409000  0.87893000  1.0 -0.4081369365
N  N293  1  0.87893000  0.70539000  0.17159000  1.0 -0.4081369365
N  N294  1  0.37107000  0.07841000  0.54461000  1.0 -0.4081369365
N  N295  1  0.70539000  0.24409000  0.17159000  1.0 -0.4081369365
N  N296  1  0.07841000  0.00591000  0.54461000  1.0 -0.4081369365
N  N297  1  0.70539000  0.17159000  0.87893000  1.0 -0.4081369365
N  N298  1  0.07841000  0.54461000  0.37107000  1.0 -0.4081369365
N  N299  1  0.37107000  0.00591000  0.07841000  1.0 -0.4081369365
N  N300  1  0.87893000  0.24409000  0.70539000  1.0 -0.4081369365
N  N301  1  0.70539000  0.87893000  0.24409000  1.0 -0.4081369365
N  N302  1  0.07841000  0.37107000  0.00591000  1.0 -0.4081369365
N  N303  1  0.24409000  0.70539000  0.87893000  1.0 -0.4081369365
N  N304  1  0.00591000  0.07841000  0.37107000  1.0 -0.4081369365
N  N305  1  0.00591000  0.54461000  0.07841000  1.0 -0.4081369365
N  N306  1  0.54461000  0.37107000  0.07841000  1.0 -0.4081369365
N  N307  1  0.17159000  0.87893000  0.70539000  1.0 -0.4081369365
N  N308  1  0.24409000  0.17159000  0.70539000  1.0 -0.4081369365
N  N309  1  0.54461000  0.07841000  0.00591000  1.0 -0.4081369365
N  N310  1  0.17159000  0.70539000  0.24409000  1.0 -0.4081369365
N  N311  1  0.37107000  0.54461000  0.00591000  1.0 -0.4081369365
N  N312  1  0.54461000  0.00591000  0.37107000  1.0 -0.4081369365
N  N313  1  0.74409000  0.37893000  0.20539000  1.0 -0.4081369365
N  N314  1  0.50591000  0.87107000  0.57841000  1.0 -0.4081369365
N  N315  1  0.87107000  0.57841000  0.50591000  1.0 -0.4081369365
N  N316  1  0.57841000  0.50591000  0.87107000  1.0 -0.4081369365
N  N317  1  0.87107000  0.04461000  0.57841000  1.0 -0.4081369365
N  N318  1  0.37893000  0.67159000  0.20539000  1.0 -0.4081369365
N  N319  1  0.04461000  0.50591000  0.57841000  1.0 -0.4081369365
N  N320  1  0.67159000  0.74409000  0.20539000  1.0 -0.4081369365
N  N321  1  0.04461000  0.57841000  0.87107000  1.0 -0.4081369365
N  N322  1  0.67159000  0.20539000  0.37893000  1.0 -0.4081369365
N  N323  1  0.37893000  0.74409000  0.67159000  1.0 -0.4081369365
N  N324  1  0.87107000  0.50591000  0.04461000  1.0 -0.4081369365
N  N325  1  0.04461000  0.87107000  0.50591000  1.0 -0.4081369365
N  N326  1  0.67159000  0.37893000  0.74409000  1.0 -0.4081369365
N  N327  1  0.50591000  0.04461000  0.87107000  1.0 -0.4081369365
N  N328  1  0.74409000  0.67159000  0.37893000  1.0 -0.4081369365
N  N329  1  0.74409000  0.20539000  0.67159000  1.0 -0.4081369365
N  N330  1  0.20539000  0.37893000  0.67159000  1.0 -0.4081369365
N  N331  1  0.57841000  0.87107000  0.04461000  1.0 -0.4081369365
N  N332  1  0.50591000  0.57841000  0.04461000  1.0 -0.4081369365
N  N333  1  0.20539000  0.67159000  0.74409000  1.0 -0.4081369365
N  N334  1  0.57841000  0.04461000  0.50591000  1.0 -0.4081369365
N  N335  1  0.37893000  0.20539000  0.74409000  1.0 -0.4081369365
N  N336  1  0.20539000  0.74409000  0.37893000  1.0 -0.4081369365
N  N337  1  0.07011000  0.38357000  0.41901000  1.0 -0.2029144767
N  N338  1  0.17989000  0.86643000  0.12269000  1.0 -0.2029144767
N  N339  1  0.86643000  0.12269000  0.17989000  1.0 -0.2029144767
N  N340  1  0.12269000  0.17989000  0.86643000  1.0 -0.2029144767
N  N341  1  0.86643000  0.83099000  0.12269000  1.0 -0.2029144767
N  N342  1  0.38357000  0.12731000  0.41901000  1.0 -0.2029144767
N  N343  1  0.83099000  0.17989000  0.12269000  1.0 -0.2029144767
N  N344  1  0.12731000  0.07011000  0.41901000  1.0 -0.2029144767
N  N345  1  0.83099000  0.12269000  0.86643000  1.0 -0.2029144767
N  N346  1  0.12731000  0.41901000  0.38357000  1.0 -0.2029144767
N  N347  1  0.38357000  0.07011000  0.12731000  1.0 -0.2029144767
N  N348  1  0.86643000  0.17989000  0.83099000  1.0 -0.2029144767
N  N349  1  0.83099000  0.86643000  0.17989000  1.0 -0.2029144767
N  N350  1  0.12731000  0.38357000  0.07011000  1.0 -0.2029144767
N  N351  1  0.17989000  0.83099000  0.86643000  1.0 -0.2029144767
N  N352  1  0.07011000  0.12731000  0.38357000  1.0 -0.2029144767
N  N353  1  0.07011000  0.41901000  0.12731000  1.0 -0.2029144767
N  N354  1  0.41901000  0.38357000  0.12731000  1.0 -0.2029144767
N  N355  1  0.12269000  0.86643000  0.83099000  1.0 -0.2029144767
N  N356  1  0.17989000  0.12269000  0.83099000  1.0 -0.2029144767
N  N357  1  0.41901000  0.12731000  0.07011000  1.0 -0.2029144767
N  N358  1  0.12269000  0.83099000  0.17989000  1.0 -0.2029144767
N  N359  1  0.38357000  0.41901000  0.07011000  1.0 -0.2029144767
N  N360  1  0.41901000  0.07011000  0.38357000  1.0 -0.2029144767
N  N361  1  0.67989000  0.36643000  0.33099000  1.0 -0.2029144767
N  N362  1  0.57011000  0.88357000  0.62731000  1.0 -0.2029144767
N  N363  1  0.88357000  0.62731000  0.57011000  1.0 -0.2029144767
N  N364  1  0.62731000  0.57011000  0.88357000  1.0 -0.2029144767
N  N365  1  0.88357000  0.91901000  0.62731000  1.0 -0.2029144767
N  N366  1  0.36643000  0.62269000  0.33099000  1.0 -0.2029144767
N  N367  1  0.91901000  0.57011000  0.62731000  1.0 -0.2029144767
N  N368  1  0.62269000  0.67989000  0.33099000  1.0 -0.2029144767
N  N369  1  0.91901000  0.62731000  0.88357000  1.0 -0.2029144767
N  N370  1  0.62269000  0.33099000  0.36643000  1.0 -0.2029144767
N  N371  1  0.36643000  0.67989000  0.62269000  1.0 -0.2029144767
N  N372  1  0.88357000  0.57011000  0.91901000  1.0 -0.2029144767
N  N373  1  0.91901000  0.88357000  0.57011000  1.0 -0.2029144767
N  N374  1  0.62269000  0.36643000  0.67989000  1.0 -0.2029144767
N  N375  1  0.57011000  0.91901000  0.88357000  1.0 -0.2029144767
N  N376  1  0.67989000  0.62269000  0.36643000  1.0 -0.2029144767
N  N377  1  0.67989000  0.33099000  0.62269000  1.0 -0.2029144767
N  N378  1  0.33099000  0.36643000  0.62269000  1.0 -0.2029144767
N  N379  1  0.62731000  0.88357000  0.91901000  1.0 -0.2029144767
N  N380  1  0.57011000  0.62731000  0.91901000  1.0 -0.2029144767
N  N381  1  0.33099000  0.62269000  0.67989000  1.0 -0.2029144767
N  N382  1  0.62731000  0.91901000  0.57011000  1.0 -0.2029144767
N  N383  1  0.36643000  0.33099000  0.67989000  1.0 -0.2029144767
N  N384  1  0.33099000  0.67989000  0.36643000  1.0 -0.2029144767
N  N385  1  0.17207000  0.38127000  0.33079000  1.0 -0.2107348279
N  N386  1  0.07793000  0.86873000  0.13413000  1.0 -0.2107348279
N  N387  1  0.86873000  0.13413000  0.07793000  1.0 -0.2107348279
N  N388  1  0.13413000  0.07793000  0.86873000  1.0 -0.2107348279
N  N389  1  0.86873000  0.91921000  0.13413000  1.0 -0.2107348279
N  N390  1  0.38127000  0.11587000  0.33079000  1.0 -0.2107348279
N  N391  1  0.91921000  0.07793000  0.13413000  1.0 -0.2107348279
N  N392  1  0.11587000  0.17207000  0.33079000  1.0 -0.2107348279
N  N393  1  0.91921000  0.13413000  0.86873000  1.0 -0.2107348279
N  N394  1  0.11587000  0.33079000  0.38127000  1.0 -0.2107348279
N  N395  1  0.38127000  0.17207000  0.11587000  1.0 -0.2107348279
N  N396  1  0.86873000  0.07793000  0.91921000  1.0 -0.2107348279
N  N397  1  0.91921000  0.86873000  0.07793000  1.0 -0.2107348279
N  N398  1  0.11587000  0.38127000  0.17207000  1.0 -0.2107348279
N  N399  1  0.07793000  0.91921000  0.86873000  1.0 -0.2107348279
N  N400  1  0.17207000  0.11587000  0.38127000  1.0 -0.2107348279
N  N401  1  0.17207000  0.33079000  0.11587000  1.0 -0.2107348279
N  N402  1  0.33079000  0.38127000  0.11587000  1.0 -0.2107348279
N  N403  1  0.13413000  0.86873000  0.91921000  1.0 -0.2107348279
N  N404  1  0.07793000  0.13413000  0.91921000  1.0 -0.2107348279
N  N405  1  0.33079000  0.11587000  0.17207000  1.0 -0.2107348279
N  N406  1  0.13413000  0.91921000  0.07793000  1.0 -0.2107348279
N  N407  1  0.38127000  0.33079000  0.17207000  1.0 -0.2107348279
N  N408  1  0.33079000  0.17207000  0.38127000  1.0 -0.2107348279
N  N409  1  0.57793000  0.36873000  0.41921000  1.0 -0.2107348279
N  N410  1  0.67207000  0.88127000  0.61587000  1.0 -0.2107348279
N  N411  1  0.88127000  0.61587000  0.67207000  1.0 -0.2107348279
N  N412  1  0.61587000  0.67207000  0.88127000  1.0 -0.2107348279
N  N413  1  0.88127000  0.83079000  0.61587000  1.0 -0.2107348279
N  N414  1  0.36873000  0.63413000  0.41921000  1.0 -0.2107348279
N  N415  1  0.83079000  0.67207000  0.61587000  1.0 -0.2107348279
N  N416  1  0.63413000  0.57793000  0.41921000  1.0 -0.2107348279
N  N417  1  0.83079000  0.61587000  0.88127000  1.0 -0.2107348279
N  N418  1  0.63413000  0.41921000  0.36873000  1.0 -0.2107348279
N  N419  1  0.36873000  0.57793000  0.63413000  1.0 -0.2107348279
N  N420  1  0.88127000  0.67207000  0.83079000  1.0 -0.2107348279
N  N421  1  0.83079000  0.88127000  0.67207000  1.0 -0.2107348279
N  N422  1  0.63413000  0.36873000  0.57793000  1.0 -0.2107348279
N  N423  1  0.67207000  0.83079000  0.88127000  1.0 -0.2107348279
N  N424  1  0.57793000  0.63413000  0.36873000  1.0 -0.2107348279
N  N425  1  0.57793000  0.41921000  0.63413000  1.0 -0.2107348279
N  N426  1  0.41921000  0.36873000  0.63413000  1.0 -0.2107348279
N  N427  1  0.61587000  0.88127000  0.83079000  1.0 -0.2107348279
N  N428  1  0.67207000  0.61587000  0.83079000  1.0 -0.2107348279
N  N429  1  0.41921000  0.63413000  0.57793000  1.0 -0.2107348279
N  N430  1  0.61587000  0.83079000  0.67207000  1.0 -0.2107348279
N  N431  1  0.36873000  0.41921000  0.57793000  1.0 -0.2107348279
N  N432  1  0.41921000  0.57793000  0.36873000  1.0 -0.2107348279
N  N433  1  0.29736000  0.33000000  0.26972000  1.0 -0.4007480183
N  N434  1  0.95264000  0.92000000  0.14708000  1.0 -0.4007480183
N  N435  1  0.92000000  0.14708000  0.95264000  1.0 -0.4007480183
N  N436  1  0.14708000  0.95264000  0.92000000  1.0 -0.4007480183
N  N437  1  0.92000000  0.98028000  0.14708000  1.0 -0.4007480183
N  N438  1  0.33000000  0.10292000  0.26972000  1.0 -0.4007480183
N  N439  1  0.98028000  0.95264000  0.14708000  1.0 -0.4007480183
N  N440  1  0.10292000  0.29736000  0.26972000  1.0 -0.4007480183
N  N441  1  0.98028000  0.14708000  0.92000000  1.0 -0.4007480183
N  N442  1  0.10292000  0.26972000  0.33000000  1.0 -0.4007480183
N  N443  1  0.33000000  0.29736000  0.10292000  1.0 -0.4007480183
N  N444  1  0.92000000  0.95264000  0.98028000  1.0 -0.4007480183
N  N445  1  0.98028000  0.92000000  0.95264000  1.0 -0.4007480183
N  N446  1  0.10292000  0.33000000  0.29736000  1.0 -0.4007480183
N  N447  1  0.95264000  0.98028000  0.92000000  1.0 -0.4007480183
N  N448  1  0.29736000  0.10292000  0.33000000  1.0 -0.4007480183
N  N449  1  0.29736000  0.26972000  0.10292000  1.0 -0.4007480183
N  N450  1  0.26972000  0.33000000  0.10292000  1.0 -0.4007480183
N  N451  1  0.14708000  0.92000000  0.98028000  1.0 -0.4007480183
N  N452  1  0.95264000  0.14708000  0.98028000  1.0 -0.4007480183
N  N453  1  0.26972000  0.10292000  0.29736000  1.0 -0.4007480183
N  N454  1  0.14708000  0.98028000  0.95264000  1.0 -0.4007480183
N  N455  1  0.33000000  0.26972000  0.29736000  1.0 -0.4007480183
N  N456  1  0.26972000  0.29736000  0.33000000  1.0 -0.4007480183
N  N457  1  0.45264000  0.42000000  0.48028000  1.0 -0.4007480183
N  N458  1  0.79736000  0.83000000  0.60292000  1.0 -0.4007480183
N  N459  1  0.83000000  0.60292000  0.79736000  1.0 -0.4007480183
N  N460  1  0.60292000  0.79736000  0.83000000  1.0 -0.4007480183
N  N461  1  0.83000000  0.76972000  0.60292000  1.0 -0.4007480183
N  N462  1  0.42000000  0.64708000  0.48028000  1.0 -0.4007480183
N  N463  1  0.76972000  0.79736000  0.60292000  1.0 -0.4007480183
N  N464  1  0.64708000  0.45264000  0.48028000  1.0 -0.4007480183
N  N465  1  0.76972000  0.60292000  0.83000000  1.0 -0.4007480183
N  N466  1  0.64708000  0.48028000  0.42000000  1.0 -0.4007480183
N  N467  1  0.42000000  0.45264000  0.64708000  1.0 -0.4007480183
N  N468  1  0.83000000  0.79736000  0.76972000  1.0 -0.4007480183
N  N469  1  0.76972000  0.83000000  0.79736000  1.0 -0.4007480183
N  N470  1  0.64708000  0.42000000  0.45264000  1.0 -0.4007480183
N  N471  1  0.79736000  0.76972000  0.83000000  1.0 -0.4007480183
N  N472  1  0.45264000  0.64708000  0.42000000  1.0 -0.4007480183
N  N473  1  0.45264000  0.48028000  0.64708000  1.0 -0.4007480183
N  N474  1  0.48028000  0.42000000  0.64708000  1.0 -0.4007480183
N  N475  1  0.60292000  0.83000000  0.76972000  1.0 -0.4007480183
N  N476  1  0.79736000  0.60292000  0.76972000  1.0 -0.4007480183
N  N477  1  0.48028000  0.64708000  0.45264000  1.0 -0.4007480183
N  N478  1  0.60292000  0.76972000  0.79736000  1.0 -0.4007480183
N  N479  1  0.42000000  0.48028000  0.45264000  1.0 -0.4007480183
N  N480  1  0.48028000  0.45264000  0.42000000  1.0 -0.4007480183
