# DDEC6 charges by PACMAN v1.1 (https://github.com/mtap-research/PACMAN-charge/)
data_LAFRAN_FSR_pacman
_symmetry_space_group_name_H-M   'P 1'
_cell_length_a   45.09640000
_cell_length_b   45.09640000
_cell_length_c   45.09640000
_cell_angle_alpha   60.00000000
_cell_angle_beta   60.00000000
_cell_angle_gamma   60.00000000
_symmetry_Int_Tables_number   1
_chemical_formula_structural   CoH16C26(SN5)2
_chemical_formula_sum   'Co48 H768 C1248 S96 N480'
_cell_volume   64850.09611388
_cell_formula_units_Z   48
loop_
 _symmetry_equiv_pos_site_id
 _symmetry_equiv_pos_as_xyz
  1  'x, y, z'
loop_
 _atom_site_type_symbol
 _atom_site_label
 _atom_site_symmetry_multiplicity
 _atom_site_fract_x
 _atom_site_fract_y
 _atom_site_fract_z
 _atom_site_occupancy
 _atom_site_charge
Co  Co1  1  0.12500000  0.86584000  0.38416000  1.0 0.6690115509
Co  Co2  1  0.12500000  0.38416000  0.62500000  1.0 0.6690115509
Co  Co3  1  0.38416000  0.62500000  0.12500000  1.0 0.6690115509
Co  Co4  1  0.62500000  0.12500000  0.38416000  1.0 0.6690115509
Co  Co5  1  0.38416000  0.86584000  0.62500000  1.0 0.6690115509
Co  Co6  1  0.86584000  0.62500000  0.38416000  1.0 0.6690115509
Co  Co7  1  0.86584000  0.12500000  0.62500000  1.0 0.6690115509
Co  Co8  1  0.62500000  0.38416000  0.86584000  1.0 0.6690115509
Co  Co9  1  0.38416000  0.12500000  0.86584000  1.0 0.6690115509
Co  Co10  1  0.86584000  0.38416000  0.12500000  1.0 0.6690115509
Co  Co11  1  0.62500000  0.86584000  0.12500000  1.0 0.6690115509
Co  Co12  1  0.12500000  0.62500000  0.86584000  1.0 0.6690115509
Co  Co13  1  0.62500000  0.88416000  0.36584000  1.0 0.6690115509
Co  Co14  1  0.62500000  0.36584000  0.12500000  1.0 0.6690115509
Co  Co15  1  0.36584000  0.12500000  0.62500000  1.0 0.6690115509
Co  Co16  1  0.12500000  0.62500000  0.36584000  1.0 0.6690115509
Co  Co17  1  0.36584000  0.88416000  0.12500000  1.0 0.6690115509
Co  Co18  1  0.88416000  0.12500000  0.36584000  1.0 0.6690115509
Co  Co19  1  0.88416000  0.62500000  0.12500000  1.0 0.6690115509
Co  Co20  1  0.12500000  0.36584000  0.88416000  1.0 0.6690115509
Co  Co21  1  0.36584000  0.62500000  0.88416000  1.0 0.6690115509
Co  Co22  1  0.88416000  0.36584000  0.62500000  1.0 0.6690115509
Co  Co23  1  0.12500000  0.88416000  0.62500000  1.0 0.6690115509
Co  Co24  1  0.62500000  0.12500000  0.88416000  1.0 0.6690115509
Co  Co25  1  0.12733000  0.87267000  0.12733000  1.0 0.6621882372
Co  Co26  1  0.12267000  0.37733000  0.37733000  1.0 0.6621882372
Co  Co27  1  0.37733000  0.37733000  0.12267000  1.0 0.6621882372
Co  Co28  1  0.37733000  0.12267000  0.37733000  1.0 0.6621882372
Co  Co29  1  0.87267000  0.87267000  0.12733000  1.0 0.6621882372
Co  Co30  1  0.12267000  0.12267000  0.37733000  1.0 0.6621882372
Co  Co31  1  0.87267000  0.12733000  0.12733000  1.0 0.6621882372
Co  Co32  1  0.87267000  0.12733000  0.87267000  1.0 0.6621882372
Co  Co33  1  0.37733000  0.12267000  0.12267000  1.0 0.6621882372
Co  Co34  1  0.12267000  0.37733000  0.12267000  1.0 0.6621882372
Co  Co35  1  0.12733000  0.87267000  0.87267000  1.0 0.6621882372
Co  Co36  1  0.12733000  0.12733000  0.87267000  1.0 0.6621882372
Co  Co37  1  0.62267000  0.87733000  0.62267000  1.0 0.6621882372
Co  Co38  1  0.62733000  0.37267000  0.37267000  1.0 0.6621882372
Co  Co39  1  0.37267000  0.37267000  0.62733000  1.0 0.6621882372
Co  Co40  1  0.37267000  0.62733000  0.37267000  1.0 0.6621882372
Co  Co41  1  0.87733000  0.87733000  0.62267000  1.0 0.6621882372
Co  Co42  1  0.62733000  0.62733000  0.37267000  1.0 0.6621882372
Co  Co43  1  0.87733000  0.62267000  0.62267000  1.0 0.6621882372
Co  Co44  1  0.87733000  0.62267000  0.87733000  1.0 0.6621882372
Co  Co45  1  0.37267000  0.62733000  0.62733000  1.0 0.6621882372
Co  Co46  1  0.62733000  0.37267000  0.62733000  1.0 0.6621882372
Co  Co47  1  0.62267000  0.87733000  0.87733000  1.0 0.6621882372
Co  Co48  1  0.62267000  0.62267000  0.87733000  1.0 0.6621882372
H  H1  1  0.14990000  0.88450000  0.30230000  1.0 0.1077625379
H  H2  1  0.10010000  0.36550000  0.58670000  1.0 0.1077625379
H  H3  1  0.36550000  0.58670000  0.10010000  1.0 0.1077625379
H  H4  1  0.58670000  0.10010000  0.36550000  1.0 0.1077625379
H  H5  1  0.36550000  0.94770000  0.58670000  1.0 0.1077625379
H  H6  1  0.88450000  0.66330000  0.30230000  1.0 0.1077625379
H  H7  1  0.94770000  0.10010000  0.58670000  1.0 0.1077625379
H  H8  1  0.66330000  0.14990000  0.30230000  1.0 0.1077625379
H  H9  1  0.94770000  0.58670000  0.36550000  1.0 0.1077625379
H  H10  1  0.66330000  0.30230000  0.88450000  1.0 0.1077625379
H  H11  1  0.88450000  0.14990000  0.66330000  1.0 0.1077625379
H  H12  1  0.36550000  0.10010000  0.94770000  1.0 0.1077625379
H  H13  1  0.94770000  0.36550000  0.10010000  1.0 0.1077625379
H  H14  1  0.66330000  0.88450000  0.14990000  1.0 0.1077625379
H  H15  1  0.10010000  0.94770000  0.36550000  1.0 0.1077625379
H  H16  1  0.14990000  0.66330000  0.88450000  1.0 0.1077625379
H  H17  1  0.14990000  0.30230000  0.66330000  1.0 0.1077625379
H  H18  1  0.30230000  0.88450000  0.66330000  1.0 0.1077625379
H  H19  1  0.58670000  0.36550000  0.94770000  1.0 0.1077625379
H  H20  1  0.10010000  0.58670000  0.94770000  1.0 0.1077625379
H  H21  1  0.30230000  0.66330000  0.14990000  1.0 0.1077625379
H  H22  1  0.58670000  0.94770000  0.10010000  1.0 0.1077625379
H  H23  1  0.88450000  0.30230000  0.14990000  1.0 0.1077625379
H  H24  1  0.30230000  0.14990000  0.88450000  1.0 0.1077625379
H  H25  1  0.60010000  0.86550000  0.44770000  1.0 0.1077625379
H  H26  1  0.64990000  0.38450000  0.16330000  1.0 0.1077625379
H  H27  1  0.38450000  0.16330000  0.64990000  1.0 0.1077625379
H  H28  1  0.16330000  0.64990000  0.38450000  1.0 0.1077625379
H  H29  1  0.38450000  0.80230000  0.16330000  1.0 0.1077625379
H  H30  1  0.86550000  0.08670000  0.44770000  1.0 0.1077625379
H  H31  1  0.80230000  0.64990000  0.16330000  1.0 0.1077625379
H  H32  1  0.08670000  0.60010000  0.44770000  1.0 0.1077625379
H  H33  1  0.80230000  0.16330000  0.38450000  1.0 0.1077625379
H  H34  1  0.08670000  0.44770000  0.86550000  1.0 0.1077625379
H  H35  1  0.86550000  0.60010000  0.08670000  1.0 0.1077625379
H  H36  1  0.38450000  0.64990000  0.80230000  1.0 0.1077625379
H  H37  1  0.80230000  0.38450000  0.64990000  1.0 0.1077625379
H  H38  1  0.08670000  0.86550000  0.60010000  1.0 0.1077625379
H  H39  1  0.64990000  0.80230000  0.38450000  1.0 0.1077625379
H  H40  1  0.60010000  0.08670000  0.86550000  1.0 0.1077625379
H  H41  1  0.60010000  0.44770000  0.08670000  1.0 0.1077625379
H  H42  1  0.44770000  0.86550000  0.08670000  1.0 0.1077625379
H  H43  1  0.16330000  0.38450000  0.80230000  1.0 0.1077625379
H  H44  1  0.64990000  0.16330000  0.80230000  1.0 0.1077625379
H  H45  1  0.44770000  0.08670000  0.60010000  1.0 0.1077625379
H  H46  1  0.16330000  0.80230000  0.64990000  1.0 0.1077625379
H  H47  1  0.86550000  0.44770000  0.60010000  1.0 0.1077625379
H  H48  1  0.44770000  0.60010000  0.86550000  1.0 0.1077625379
H  H49  1  0.28690000  0.89710000  0.16610000  1.0 0.1077625379
H  H50  1  0.96310000  0.35290000  0.60010000  1.0 0.1077625379
H  H51  1  0.35290000  0.60010000  0.96310000  1.0 0.1077625379
H  H52  1  0.60010000  0.96310000  0.35290000  1.0 0.1077625379
H  H53  1  0.35290000  0.08390000  0.60010000  1.0 0.1077625379
H  H54  1  0.89710000  0.64990000  0.16610000  1.0 0.1077625379
H  H55  1  0.08390000  0.96310000  0.60010000  1.0 0.1077625379
H  H56  1  0.64990000  0.28690000  0.16610000  1.0 0.1077625379
H  H57  1  0.08390000  0.60010000  0.35290000  1.0 0.1077625379
H  H58  1  0.64990000  0.16610000  0.89710000  1.0 0.1077625379
H  H59  1  0.89710000  0.28690000  0.64990000  1.0 0.1077625379
H  H60  1  0.35290000  0.96310000  0.08390000  1.0 0.1077625379
H  H61  1  0.08390000  0.35290000  0.96310000  1.0 0.1077625379
H  H62  1  0.64990000  0.89710000  0.28690000  1.0 0.1077625379
H  H63  1  0.96310000  0.08390000  0.35290000  1.0 0.1077625379
H  H64  1  0.28690000  0.64990000  0.89710000  1.0 0.1077625379
H  H65  1  0.28690000  0.16610000  0.64990000  1.0 0.1077625379
H  H66  1  0.16610000  0.89710000  0.64990000  1.0 0.1077625379
H  H67  1  0.60010000  0.35290000  0.08390000  1.0 0.1077625379
H  H68  1  0.96310000  0.60010000  0.08390000  1.0 0.1077625379
H  H69  1  0.16610000  0.64990000  0.28690000  1.0 0.1077625379
H  H70  1  0.60010000  0.08390000  0.96310000  1.0 0.1077625379
H  H71  1  0.89710000  0.16610000  0.28690000  1.0 0.1077625379
H  H72  1  0.16610000  0.28690000  0.89710000  1.0 0.1077625379
H  H73  1  0.46310000  0.85290000  0.58390000  1.0 0.1077625379
H  H74  1  0.78690000  0.39710000  0.14990000  1.0 0.1077625379
H  H75  1  0.39710000  0.14990000  0.78690000  1.0 0.1077625379
H  H76  1  0.14990000  0.78690000  0.39710000  1.0 0.1077625379
H  H77  1  0.39710000  0.66610000  0.14990000  1.0 0.1077625379
H  H78  1  0.85290000  0.10010000  0.58390000  1.0 0.1077625379
H  H79  1  0.66610000  0.78690000  0.14990000  1.0 0.1077625379
H  H80  1  0.10010000  0.46310000  0.58390000  1.0 0.1077625379
H  H81  1  0.66610000  0.14990000  0.39710000  1.0 0.1077625379
H  H82  1  0.10010000  0.58390000  0.85290000  1.0 0.1077625379
H  H83  1  0.85290000  0.46310000  0.10010000  1.0 0.1077625379
H  H84  1  0.39710000  0.78690000  0.66610000  1.0 0.1077625379
H  H85  1  0.66610000  0.39710000  0.78690000  1.0 0.1077625379
H  H86  1  0.10010000  0.85290000  0.46310000  1.0 0.1077625379
H  H87  1  0.78690000  0.66610000  0.39710000  1.0 0.1077625379
H  H88  1  0.46310000  0.10010000  0.85290000  1.0 0.1077625379
H  H89  1  0.46310000  0.58390000  0.10010000  1.0 0.1077625379
H  H90  1  0.58390000  0.85290000  0.10010000  1.0 0.1077625379
H  H91  1  0.14990000  0.39710000  0.66610000  1.0 0.1077625379
H  H92  1  0.78690000  0.14990000  0.66610000  1.0 0.1077625379
H  H93  1  0.58390000  0.10010000  0.46310000  1.0 0.1077625379
H  H94  1  0.14990000  0.66610000  0.78690000  1.0 0.1077625379
H  H95  1  0.85290000  0.58390000  0.46310000  1.0 0.1077625379
H  H96  1  0.58390000  0.46310000  0.85290000  1.0 0.1077625379
H  H97  1  0.04720000  0.90440000  0.12960000  1.0 0.1077625379
H  H98  1  0.20280000  0.34560000  0.33120000  1.0 0.1077625379
H  H99  1  0.34560000  0.33120000  0.20280000  1.0 0.1077625379
H  H100  1  0.33120000  0.20280000  0.34560000  1.0 0.1077625379
H  H101  1  0.34560000  0.12040000  0.33120000  1.0 0.1077625379
H  H102  1  0.90440000  0.91880000  0.12960000  1.0 0.1077625379
H  H103  1  0.12040000  0.20280000  0.33120000  1.0 0.1077625379
H  H104  1  0.91880000  0.04720000  0.12960000  1.0 0.1077625379
H  H105  1  0.12040000  0.33120000  0.34560000  1.0 0.1077625379
H  H106  1  0.91880000  0.12960000  0.90440000  1.0 0.1077625379
H  H107  1  0.90440000  0.04720000  0.91880000  1.0 0.1077625379
H  H108  1  0.34560000  0.20280000  0.12040000  1.0 0.1077625379
H  H109  1  0.12040000  0.34560000  0.20280000  1.0 0.1077625379
H  H110  1  0.91880000  0.90440000  0.04720000  1.0 0.1077625379
H  H111  1  0.20280000  0.12040000  0.34560000  1.0 0.1077625379
H  H112  1  0.04720000  0.91880000  0.90440000  1.0 0.1077625379
H  H113  1  0.04720000  0.12960000  0.91880000  1.0 0.1077625379
H  H114  1  0.12960000  0.90440000  0.91880000  1.0 0.1077625379
H  H115  1  0.33120000  0.34560000  0.12040000  1.0 0.1077625379
H  H116  1  0.20280000  0.33120000  0.12040000  1.0 0.1077625379
H  H117  1  0.12960000  0.91880000  0.04720000  1.0 0.1077625379
H  H118  1  0.33120000  0.12040000  0.20280000  1.0 0.1077625379
H  H119  1  0.90440000  0.12960000  0.04720000  1.0 0.1077625379
H  H120  1  0.12960000  0.04720000  0.90440000  1.0 0.1077625379
H  H121  1  0.70280000  0.84560000  0.62040000  1.0 0.1077625379
H  H122  1  0.54720000  0.40440000  0.41880000  1.0 0.1077625379
H  H123  1  0.40440000  0.41880000  0.54720000  1.0 0.1077625379
H  H124  1  0.41880000  0.54720000  0.40440000  1.0 0.1077625379
H  H125  1  0.40440000  0.62960000  0.41880000  1.0 0.1077625379
H  H126  1  0.84560000  0.83120000  0.62040000  1.0 0.1077625379
H  H127  1  0.62960000  0.54720000  0.41880000  1.0 0.1077625379
H  H128  1  0.83120000  0.70280000  0.62040000  1.0 0.1077625379
H  H129  1  0.62960000  0.41880000  0.40440000  1.0 0.1077625379
H  H130  1  0.83120000  0.62040000  0.84560000  1.0 0.1077625379
H  H131  1  0.84560000  0.70280000  0.83120000  1.0 0.1077625379
H  H132  1  0.40440000  0.54720000  0.62960000  1.0 0.1077625379
H  H133  1  0.62960000  0.40440000  0.54720000  1.0 0.1077625379
H  H134  1  0.83120000  0.84560000  0.70280000  1.0 0.1077625379
H  H135  1  0.54720000  0.62960000  0.40440000  1.0 0.1077625379
H  H136  1  0.70280000  0.83120000  0.84560000  1.0 0.1077625379
H  H137  1  0.70280000  0.62040000  0.83120000  1.0 0.1077625379
H  H138  1  0.62040000  0.84560000  0.83120000  1.0 0.1077625379
H  H139  1  0.41880000  0.40440000  0.62960000  1.0 0.1077625379
H  H140  1  0.54720000  0.41880000  0.62960000  1.0 0.1077625379
H  H141  1  0.62040000  0.83120000  0.70280000  1.0 0.1077625379
H  H142  1  0.41880000  0.62960000  0.54720000  1.0 0.1077625379
H  H143  1  0.84560000  0.62040000  0.70280000  1.0 0.1077625379
H  H144  1  0.62040000  0.70280000  0.84560000  1.0 0.1077625379
H  H145  1  0.33200000  0.91900000  0.06100000  1.0 0.1009325771
H  H146  1  0.91800000  0.33100000  0.56200000  1.0 0.1009325771
H  H147  1  0.33100000  0.56200000  0.91800000  1.0 0.1009325771
H  H148  1  0.56200000  0.91800000  0.33100000  1.0 0.1009325771
H  H149  1  0.33100000  0.18900000  0.56200000  1.0 0.1009325771
H  H150  1  0.91900000  0.68800000  0.06100000  1.0 0.1009325771
H  H151  1  0.18900000  0.91800000  0.56200000  1.0 0.1009325771
H  H152  1  0.68800000  0.33200000  0.06100000  1.0 0.1009325771
H  H153  1  0.18900000  0.56200000  0.33100000  1.0 0.1009325771
H  H154  1  0.68800000  0.06100000  0.91900000  1.0 0.1009325771
H  H155  1  0.91900000  0.33200000  0.68800000  1.0 0.1009325771
H  H156  1  0.33100000  0.91800000  0.18900000  1.0 0.1009325771
H  H157  1  0.18900000  0.33100000  0.91800000  1.0 0.1009325771
H  H158  1  0.68800000  0.91900000  0.33200000  1.0 0.1009325771
H  H159  1  0.91800000  0.18900000  0.33100000  1.0 0.1009325771
H  H160  1  0.33200000  0.68800000  0.91900000  1.0 0.1009325771
H  H161  1  0.33200000  0.06100000  0.68800000  1.0 0.1009325771
H  H162  1  0.06100000  0.91900000  0.68800000  1.0 0.1009325771
H  H163  1  0.56200000  0.33100000  0.18900000  1.0 0.1009325771
H  H164  1  0.91800000  0.56200000  0.18900000  1.0 0.1009325771
H  H165  1  0.06100000  0.68800000  0.33200000  1.0 0.1009325771
H  H166  1  0.56200000  0.18900000  0.91800000  1.0 0.1009325771
H  H167  1  0.91900000  0.06100000  0.33200000  1.0 0.1009325771
H  H168  1  0.06100000  0.33200000  0.91900000  1.0 0.1009325771
H  H169  1  0.41800000  0.83100000  0.68900000  1.0 0.1009325771
H  H170  1  0.83200000  0.41900000  0.18800000  1.0 0.1009325771
H  H171  1  0.41900000  0.18800000  0.83200000  1.0 0.1009325771
H  H172  1  0.18800000  0.83200000  0.41900000  1.0 0.1009325771
H  H173  1  0.41900000  0.56100000  0.18800000  1.0 0.1009325771
H  H174  1  0.83100000  0.06200000  0.68900000  1.0 0.1009325771
H  H175  1  0.56100000  0.83200000  0.18800000  1.0 0.1009325771
H  H176  1  0.06200000  0.41800000  0.68900000  1.0 0.1009325771
H  H177  1  0.56100000  0.18800000  0.41900000  1.0 0.1009325771
H  H178  1  0.06200000  0.68900000  0.83100000  1.0 0.1009325771
H  H179  1  0.83100000  0.41800000  0.06200000  1.0 0.1009325771
H  H180  1  0.41900000  0.83200000  0.56100000  1.0 0.1009325771
H  H181  1  0.56100000  0.41900000  0.83200000  1.0 0.1009325771
H  H182  1  0.06200000  0.83100000  0.41800000  1.0 0.1009325771
H  H183  1  0.83200000  0.56100000  0.41900000  1.0 0.1009325771
H  H184  1  0.41800000  0.06200000  0.83100000  1.0 0.1009325771
H  H185  1  0.41800000  0.68900000  0.06200000  1.0 0.1009325771
H  H186  1  0.68900000  0.83100000  0.06200000  1.0 0.1009325771
H  H187  1  0.18800000  0.41900000  0.56100000  1.0 0.1009325771
H  H188  1  0.83200000  0.18800000  0.56100000  1.0 0.1009325771
H  H189  1  0.68900000  0.06200000  0.41800000  1.0 0.1009325771
H  H190  1  0.18800000  0.56100000  0.83200000  1.0 0.1009325771
H  H191  1  0.83100000  0.68900000  0.41800000  1.0 0.1009325771
H  H192  1  0.68900000  0.41800000  0.83100000  1.0 0.1009325771
H  H193  1  0.24540000  0.90240000  0.24960000  1.0 0.1201911716
H  H194  1  0.00460000  0.34760000  0.64740000  1.0 0.1201911716
H  H195  1  0.34760000  0.64740000  0.00460000  1.0 0.1201911716
H  H196  1  0.64740000  0.00460000  0.34760000  1.0 0.1201911716
H  H197  1  0.34760000  0.00040000  0.64740000  1.0 0.1201911716
H  H198  1  0.90240000  0.60260000  0.24960000  1.0 0.1201911716
H  H199  1  0.00040000  0.00460000  0.64740000  1.0 0.1201911716
H  H200  1  0.60260000  0.24540000  0.24960000  1.0 0.1201911716
H  H201  1  0.00040000  0.64740000  0.34760000  1.0 0.1201911716
H  H202  1  0.60260000  0.24960000  0.90240000  1.0 0.1201911716
H  H203  1  0.90240000  0.24540000  0.60260000  1.0 0.1201911716
H  H204  1  0.34760000  0.00460000  0.00040000  1.0 0.1201911716
H  H205  1  0.00040000  0.34760000  0.00460000  1.0 0.1201911716
H  H206  1  0.60260000  0.90240000  0.24540000  1.0 0.1201911716
H  H207  1  0.00460000  0.00040000  0.34760000  1.0 0.1201911716
H  H208  1  0.24540000  0.60260000  0.90240000  1.0 0.1201911716
H  H209  1  0.24540000  0.24960000  0.60260000  1.0 0.1201911716
H  H210  1  0.24960000  0.90240000  0.60260000  1.0 0.1201911716
H  H211  1  0.64740000  0.34760000  0.00040000  1.0 0.1201911716
H  H212  1  0.00460000  0.64740000  0.00040000  1.0 0.1201911716
H  H213  1  0.24960000  0.60260000  0.24540000  1.0 0.1201911716
H  H214  1  0.64740000  0.00040000  0.00460000  1.0 0.1201911716
H  H215  1  0.90240000  0.24960000  0.24540000  1.0 0.1201911716
H  H216  1  0.24960000  0.24540000  0.90240000  1.0 0.1201911716
H  H217  1  0.50460000  0.84760000  0.50040000  1.0 0.1201911716
H  H218  1  0.74540000  0.40240000  0.10260000  1.0 0.1201911716
H  H219  1  0.40240000  0.10260000  0.74540000  1.0 0.1201911716
H  H220  1  0.10260000  0.74540000  0.40240000  1.0 0.1201911716
H  H221  1  0.40240000  0.74960000  0.10260000  1.0 0.1201911716
H  H222  1  0.84760000  0.14740000  0.50040000  1.0 0.1201911716
H  H223  1  0.74960000  0.74540000  0.10260000  1.0 0.1201911716
H  H224  1  0.14740000  0.50460000  0.50040000  1.0 0.1201911716
H  H225  1  0.74960000  0.10260000  0.40240000  1.0 0.1201911716
H  H226  1  0.14740000  0.50040000  0.84760000  1.0 0.1201911716
H  H227  1  0.84760000  0.50460000  0.14740000  1.0 0.1201911716
H  H228  1  0.40240000  0.74540000  0.74960000  1.0 0.1201911716
H  H229  1  0.74960000  0.40240000  0.74540000  1.0 0.1201911716
H  H230  1  0.14740000  0.84760000  0.50460000  1.0 0.1201911716
H  H231  1  0.74540000  0.74960000  0.40240000  1.0 0.1201911716
H  H232  1  0.50460000  0.14740000  0.84760000  1.0 0.1201911716
H  H233  1  0.50460000  0.50040000  0.14740000  1.0 0.1201911716
H  H234  1  0.50040000  0.84760000  0.14740000  1.0 0.1201911716
H  H235  1  0.10260000  0.40240000  0.74960000  1.0 0.1201911716
H  H236  1  0.74540000  0.10260000  0.74960000  1.0 0.1201911716
H  H237  1  0.50040000  0.14740000  0.50460000  1.0 0.1201911716
H  H238  1  0.10260000  0.74960000  0.74540000  1.0 0.1201911716
H  H239  1  0.84760000  0.50040000  0.50460000  1.0 0.1201911716
H  H240  1  0.50040000  0.50460000  0.84760000  1.0 0.1201911716
H  H241  1  0.22520000  0.93160000  0.10640000  1.0 0.1201911716
H  H242  1  0.02480000  0.31840000  0.51320000  1.0 0.1201911716
H  H243  1  0.31840000  0.51320000  0.02480000  1.0 0.1201911716
H  H244  1  0.51320000  0.02480000  0.31840000  1.0 0.1201911716
H  H245  1  0.31840000  0.14360000  0.51320000  1.0 0.1201911716
H  H246  1  0.93160000  0.73680000  0.10640000  1.0 0.1201911716
H  H247  1  0.14360000  0.02480000  0.51320000  1.0 0.1201911716
H  H248  1  0.73680000  0.22520000  0.10640000  1.0 0.1201911716
H  H249  1  0.14360000  0.51320000  0.31840000  1.0 0.1201911716
H  H250  1  0.73680000  0.10640000  0.93160000  1.0 0.1201911716
H  H251  1  0.93160000  0.22520000  0.73680000  1.0 0.1201911716
H  H252  1  0.31840000  0.02480000  0.14360000  1.0 0.1201911716
H  H253  1  0.14360000  0.31840000  0.02480000  1.0 0.1201911716
H  H254  1  0.73680000  0.93160000  0.22520000  1.0 0.1201911716
H  H255  1  0.02480000  0.14360000  0.31840000  1.0 0.1201911716
H  H256  1  0.22520000  0.73680000  0.93160000  1.0 0.1201911716
H  H257  1  0.22520000  0.10640000  0.73680000  1.0 0.1201911716
H  H258  1  0.10640000  0.93160000  0.73680000  1.0 0.1201911716
H  H259  1  0.51320000  0.31840000  0.14360000  1.0 0.1201911716
H  H260  1  0.02480000  0.51320000  0.14360000  1.0 0.1201911716
H  H261  1  0.10640000  0.73680000  0.22520000  1.0 0.1201911716
H  H262  1  0.51320000  0.14360000  0.02480000  1.0 0.1201911716
H  H263  1  0.93160000  0.10640000  0.22520000  1.0 0.1201911716
H  H264  1  0.10640000  0.22520000  0.93160000  1.0 0.1201911716
H  H265  1  0.52480000  0.81840000  0.64360000  1.0 0.1201911716
H  H266  1  0.72520000  0.43160000  0.23680000  1.0 0.1201911716
H  H267  1  0.43160000  0.23680000  0.72520000  1.0 0.1201911716
H  H268  1  0.23680000  0.72520000  0.43160000  1.0 0.1201911716
H  H269  1  0.43160000  0.60640000  0.23680000  1.0 0.1201911716
H  H270  1  0.81840000  0.01320000  0.64360000  1.0 0.1201911716
H  H271  1  0.60640000  0.72520000  0.23680000  1.0 0.1201911716
H  H272  1  0.01320000  0.52480000  0.64360000  1.0 0.1201911716
H  H273  1  0.60640000  0.23680000  0.43160000  1.0 0.1201911716
H  H274  1  0.01320000  0.64360000  0.81840000  1.0 0.1201911716
H  H275  1  0.81840000  0.52480000  0.01320000  1.0 0.1201911716
H  H276  1  0.43160000  0.72520000  0.60640000  1.0 0.1201911716
H  H277  1  0.60640000  0.43160000  0.72520000  1.0 0.1201911716
H  H278  1  0.01320000  0.81840000  0.52480000  1.0 0.1201911716
H  H279  1  0.72520000  0.60640000  0.43160000  1.0 0.1201911716
H  H280  1  0.52480000  0.01320000  0.81840000  1.0 0.1201911716
H  H281  1  0.52480000  0.64360000  0.01320000  1.0 0.1201911716
H  H282  1  0.64360000  0.81840000  0.01320000  1.0 0.1201911716
H  H283  1  0.23680000  0.43160000  0.60640000  1.0 0.1201911716
H  H284  1  0.72520000  0.23680000  0.60640000  1.0 0.1201911716
H  H285  1  0.64360000  0.01320000  0.52480000  1.0 0.1201911716
H  H286  1  0.23680000  0.60640000  0.72520000  1.0 0.1201911716
H  H287  1  0.81840000  0.64360000  0.52480000  1.0 0.1201911716
H  H288  1  0.64360000  0.52480000  0.81840000  1.0 0.1201911716
H  H289  1  0.16640000  0.88280000  0.15820000  1.0 0.1009325771
H  H290  1  0.08360000  0.36720000  0.45740000  1.0 0.1009325771
H  H291  1  0.36720000  0.45740000  0.08360000  1.0 0.1009325771
H  H292  1  0.45740000  0.08360000  0.36720000  1.0 0.1009325771
H  H293  1  0.36720000  0.09180000  0.45740000  1.0 0.1009325771
H  H294  1  0.88280000  0.79260000  0.15820000  1.0 0.1009325771
H  H295  1  0.09180000  0.08360000  0.45740000  1.0 0.1009325771
H  H296  1  0.79260000  0.16640000  0.15820000  1.0 0.1009325771
H  H297  1  0.09180000  0.45740000  0.36720000  1.0 0.1009325771
H  H298  1  0.79260000  0.15820000  0.88280000  1.0 0.1009325771
H  H299  1  0.88280000  0.16640000  0.79260000  1.0 0.1009325771
H  H300  1  0.36720000  0.08360000  0.09180000  1.0 0.1009325771
H  H301  1  0.09180000  0.36720000  0.08360000  1.0 0.1009325771
H  H302  1  0.79260000  0.88280000  0.16640000  1.0 0.1009325771
H  H303  1  0.08360000  0.09180000  0.36720000  1.0 0.1009325771
H  H304  1  0.16640000  0.79260000  0.88280000  1.0 0.1009325771
H  H305  1  0.16640000  0.15820000  0.79260000  1.0 0.1009325771
H  H306  1  0.15820000  0.88280000  0.79260000  1.0 0.1009325771
H  H307  1  0.45740000  0.36720000  0.09180000  1.0 0.1009325771
H  H308  1  0.08360000  0.45740000  0.09180000  1.0 0.1009325771
H  H309  1  0.15820000  0.79260000  0.16640000  1.0 0.1009325771
H  H310  1  0.45740000  0.09180000  0.08360000  1.0 0.1009325771
H  H311  1  0.88280000  0.15820000  0.16640000  1.0 0.1009325771
H  H312  1  0.15820000  0.16640000  0.88280000  1.0 0.1009325771
H  H313  1  0.58360000  0.86720000  0.59180000  1.0 0.1009325771
H  H314  1  0.66640000  0.38280000  0.29260000  1.0 0.1009325771
H  H315  1  0.38280000  0.29260000  0.66640000  1.0 0.1009325771
H  H316  1  0.29260000  0.66640000  0.38280000  1.0 0.1009325771
H  H317  1  0.38280000  0.65820000  0.29260000  1.0 0.1009325771
H  H318  1  0.86720000  0.95740000  0.59180000  1.0 0.1009325771
H  H319  1  0.65820000  0.66640000  0.29260000  1.0 0.1009325771
H  H320  1  0.95740000  0.58360000  0.59180000  1.0 0.1009325771
H  H321  1  0.65820000  0.29260000  0.38280000  1.0 0.1009325771
H  H322  1  0.95740000  0.59180000  0.86720000  1.0 0.1009325771
H  H323  1  0.86720000  0.58360000  0.95740000  1.0 0.1009325771
H  H324  1  0.38280000  0.66640000  0.65820000  1.0 0.1009325771
H  H325  1  0.65820000  0.38280000  0.66640000  1.0 0.1009325771
H  H326  1  0.95740000  0.86720000  0.58360000  1.0 0.1009325771
H  H327  1  0.66640000  0.65820000  0.38280000  1.0 0.1009325771
H  H328  1  0.58360000  0.95740000  0.86720000  1.0 0.1009325771
H  H329  1  0.58360000  0.59180000  0.95740000  1.0 0.1009325771
H  H330  1  0.59180000  0.86720000  0.95740000  1.0 0.1009325771
H  H331  1  0.29260000  0.38280000  0.65820000  1.0 0.1009325771
H  H332  1  0.66640000  0.29260000  0.65820000  1.0 0.1009325771
H  H333  1  0.59180000  0.95740000  0.58360000  1.0 0.1009325771
H  H334  1  0.29260000  0.65820000  0.66640000  1.0 0.1009325771
H  H335  1  0.86720000  0.59180000  0.58360000  1.0 0.1009325771
H  H336  1  0.59180000  0.58360000  0.86720000  1.0 0.1009325771
H  H337  1  0.27730000  0.93630000  0.05430000  1.0 0.1370493316
H  H338  1  0.97270000  0.31370000  0.51790000  1.0 0.1370493316
H  H339  1  0.31370000  0.51790000  0.97270000  1.0 0.1370493316
H  H340  1  0.51790000  0.97270000  0.31370000  1.0 0.1370493316
H  H341  1  0.31370000  0.19570000  0.51790000  1.0 0.1370493316
H  H342  1  0.93630000  0.73210000  0.05430000  1.0 0.1370493316
H  H343  1  0.19570000  0.97270000  0.51790000  1.0 0.1370493316
H  H344  1  0.73210000  0.27730000  0.05430000  1.0 0.1370493316
H  H345  1  0.19570000  0.51790000  0.31370000  1.0 0.1370493316
H  H346  1  0.73210000  0.05430000  0.93630000  1.0 0.1370493316
H  H347  1  0.93630000  0.27730000  0.73210000  1.0 0.1370493316
H  H348  1  0.31370000  0.97270000  0.19570000  1.0 0.1370493316
H  H349  1  0.19570000  0.31370000  0.97270000  1.0 0.1370493316
H  H350  1  0.73210000  0.93630000  0.27730000  1.0 0.1370493316
H  H351  1  0.97270000  0.19570000  0.31370000  1.0 0.1370493316
H  H352  1  0.27730000  0.73210000  0.93630000  1.0 0.1370493316
H  H353  1  0.27730000  0.05430000  0.73210000  1.0 0.1370493316
H  H354  1  0.05430000  0.93630000  0.73210000  1.0 0.1370493316
H  H355  1  0.51790000  0.31370000  0.19570000  1.0 0.1370493316
H  H356  1  0.97270000  0.51790000  0.19570000  1.0 0.1370493316
H  H357  1  0.05430000  0.73210000  0.27730000  1.0 0.1370493316
H  H358  1  0.51790000  0.19570000  0.97270000  1.0 0.1370493316
H  H359  1  0.93630000  0.05430000  0.27730000  1.0 0.1370493316
H  H360  1  0.05430000  0.27730000  0.93630000  1.0 0.1370493316
H  H361  1  0.47270000  0.81370000  0.69570000  1.0 0.1370493316
H  H362  1  0.77730000  0.43630000  0.23210000  1.0 0.1370493316
H  H363  1  0.43630000  0.23210000  0.77730000  1.0 0.1370493316
H  H364  1  0.23210000  0.77730000  0.43630000  1.0 0.1370493316
H  H365  1  0.43630000  0.55430000  0.23210000  1.0 0.1370493316
H  H366  1  0.81370000  0.01790000  0.69570000  1.0 0.1370493316
H  H367  1  0.55430000  0.77730000  0.23210000  1.0 0.1370493316
H  H368  1  0.01790000  0.47270000  0.69570000  1.0 0.1370493316
H  H369  1  0.55430000  0.23210000  0.43630000  1.0 0.1370493316
H  H370  1  0.01790000  0.69570000  0.81370000  1.0 0.1370493316
H  H371  1  0.81370000  0.47270000  0.01790000  1.0 0.1370493316
H  H372  1  0.43630000  0.77730000  0.55430000  1.0 0.1370493316
H  H373  1  0.55430000  0.43630000  0.77730000  1.0 0.1370493316
H  H374  1  0.01790000  0.81370000  0.47270000  1.0 0.1370493316
H  H375  1  0.77730000  0.55430000  0.43630000  1.0 0.1370493316
H  H376  1  0.47270000  0.01790000  0.81370000  1.0 0.1370493316
H  H377  1  0.47270000  0.69570000  0.01790000  1.0 0.1370493316
H  H378  1  0.69570000  0.81370000  0.01790000  1.0 0.1370493316
H  H379  1  0.23210000  0.43630000  0.55430000  1.0 0.1370493316
H  H380  1  0.77730000  0.23210000  0.55430000  1.0 0.1370493316
H  H381  1  0.69570000  0.01790000  0.47270000  1.0 0.1370493316
H  H382  1  0.23210000  0.55430000  0.77730000  1.0 0.1370493316
H  H383  1  0.81370000  0.69570000  0.47270000  1.0 0.1370493316
H  H384  1  0.69570000  0.47270000  0.81370000  1.0 0.1370493316
H  H385  1  0.07870000  0.85490000  0.20950000  1.0 0.1009325771
H  H386  1  0.17130000  0.39510000  0.39310000  1.0 0.1009325771
H  H387  1  0.39510000  0.39310000  0.17130000  1.0 0.1009325771
H  H388  1  0.39310000  0.17130000  0.39510000  1.0 0.1009325771
H  H389  1  0.39510000  0.04050000  0.39310000  1.0 0.1009325771
H  H390  1  0.85490000  0.85690000  0.20950000  1.0 0.1009325771
H  H391  1  0.04050000  0.17130000  0.39310000  1.0 0.1009325771
H  H392  1  0.85690000  0.07870000  0.20950000  1.0 0.1009325771
H  H393  1  0.04050000  0.39310000  0.39510000  1.0 0.1009325771
H  H394  1  0.85690000  0.20950000  0.85490000  1.0 0.1009325771
H  H395  1  0.85490000  0.07870000  0.85690000  1.0 0.1009325771
H  H396  1  0.39510000  0.17130000  0.04050000  1.0 0.1009325771
H  H397  1  0.04050000  0.39510000  0.17130000  1.0 0.1009325771
H  H398  1  0.85690000  0.85490000  0.07870000  1.0 0.1009325771
H  H399  1  0.17130000  0.04050000  0.39510000  1.0 0.1009325771
H  H400  1  0.07870000  0.85690000  0.85490000  1.0 0.1009325771
H  H401  1  0.07870000  0.20950000  0.85690000  1.0 0.1009325771
H  H402  1  0.20950000  0.85490000  0.85690000  1.0 0.1009325771
H  H403  1  0.39310000  0.39510000  0.04050000  1.0 0.1009325771
H  H404  1  0.17130000  0.39310000  0.04050000  1.0 0.1009325771
H  H405  1  0.20950000  0.85690000  0.07870000  1.0 0.1009325771
H  H406  1  0.39310000  0.04050000  0.17130000  1.0 0.1009325771
H  H407  1  0.85490000  0.20950000  0.07870000  1.0 0.1009325771
H  H408  1  0.20950000  0.07870000  0.85490000  1.0 0.1009325771
H  H409  1  0.67130000  0.89510000  0.54050000  1.0 0.1009325771
H  H410  1  0.57870000  0.35490000  0.35690000  1.0 0.1009325771
H  H411  1  0.35490000  0.35690000  0.57870000  1.0 0.1009325771
H  H412  1  0.35690000  0.57870000  0.35490000  1.0 0.1009325771
H  H413  1  0.35490000  0.70950000  0.35690000  1.0 0.1009325771
H  H414  1  0.89510000  0.89310000  0.54050000  1.0 0.1009325771
H  H415  1  0.70950000  0.57870000  0.35690000  1.0 0.1009325771
H  H416  1  0.89310000  0.67130000  0.54050000  1.0 0.1009325771
H  H417  1  0.70950000  0.35690000  0.35490000  1.0 0.1009325771
H  H418  1  0.89310000  0.54050000  0.89510000  1.0 0.1009325771
H  H419  1  0.89510000  0.67130000  0.89310000  1.0 0.1009325771
H  H420  1  0.35490000  0.57870000  0.70950000  1.0 0.1009325771
H  H421  1  0.70950000  0.35490000  0.57870000  1.0 0.1009325771
H  H422  1  0.89310000  0.89510000  0.67130000  1.0 0.1009325771
H  H423  1  0.57870000  0.70950000  0.35490000  1.0 0.1009325771
H  H424  1  0.67130000  0.89310000  0.89510000  1.0 0.1009325771
H  H425  1  0.67130000  0.54050000  0.89310000  1.0 0.1009325771
H  H426  1  0.54050000  0.89510000  0.89310000  1.0 0.1009325771
H  H427  1  0.35690000  0.35490000  0.70950000  1.0 0.1009325771
H  H428  1  0.57870000  0.35690000  0.70950000  1.0 0.1009325771
H  H429  1  0.54050000  0.89310000  0.67130000  1.0 0.1009325771
H  H430  1  0.35690000  0.70950000  0.57870000  1.0 0.1009325771
H  H431  1  0.89510000  0.54050000  0.67130000  1.0 0.1009325771
H  H432  1  0.54050000  0.67130000  0.89510000  1.0 0.1009325771
H  H433  1  0.24530000  0.89470000  0.30550000  1.0 0.1326640404
H  H434  1  0.00470000  0.35530000  0.69550000  1.0 0.1326640404
H  H435  1  0.35530000  0.69550000  0.00470000  1.0 0.1326640404
H  H436  1  0.69550000  0.00470000  0.35530000  1.0 0.1326640404
H  H437  1  0.35530000  0.94450000  0.69550000  1.0 0.1326640404
H  H438  1  0.89470000  0.55450000  0.30550000  1.0 0.1326640404
H  H439  1  0.94450000  0.00470000  0.69550000  1.0 0.1326640404
H  H440  1  0.55450000  0.24530000  0.30550000  1.0 0.1326640404
H  H441  1  0.94450000  0.69550000  0.35530000  1.0 0.1326640404
H  H442  1  0.55450000  0.30550000  0.89470000  1.0 0.1326640404
H  H443  1  0.89470000  0.24530000  0.55450000  1.0 0.1326640404
H  H444  1  0.35530000  0.00470000  0.94450000  1.0 0.1326640404
H  H445  1  0.94450000  0.35530000  0.00470000  1.0 0.1326640404
H  H446  1  0.55450000  0.89470000  0.24530000  1.0 0.1326640404
H  H447  1  0.00470000  0.94450000  0.35530000  1.0 0.1326640404
H  H448  1  0.24530000  0.55450000  0.89470000  1.0 0.1326640404
H  H449  1  0.24530000  0.30550000  0.55450000  1.0 0.1326640404
H  H450  1  0.30550000  0.89470000  0.55450000  1.0 0.1326640404
H  H451  1  0.69550000  0.35530000  0.94450000  1.0 0.1326640404
H  H452  1  0.00470000  0.69550000  0.94450000  1.0 0.1326640404
H  H453  1  0.30550000  0.55450000  0.24530000  1.0 0.1326640404
H  H454  1  0.69550000  0.94450000  0.00470000  1.0 0.1326640404
H  H455  1  0.89470000  0.30550000  0.24530000  1.0 0.1326640404
H  H456  1  0.30550000  0.24530000  0.89470000  1.0 0.1326640404
H  H457  1  0.50470000  0.85530000  0.44450000  1.0 0.1326640404
H  H458  1  0.74530000  0.39470000  0.05450000  1.0 0.1326640404
H  H459  1  0.39470000  0.05450000  0.74530000  1.0 0.1326640404
H  H460  1  0.05450000  0.74530000  0.39470000  1.0 0.1326640404
H  H461  1  0.39470000  0.80550000  0.05450000  1.0 0.1326640404
H  H462  1  0.85530000  0.19550000  0.44450000  1.0 0.1326640404
H  H463  1  0.80550000  0.74530000  0.05450000  1.0 0.1326640404
H  H464  1  0.19550000  0.50470000  0.44450000  1.0 0.1326640404
H  H465  1  0.80550000  0.05450000  0.39470000  1.0 0.1326640404
H  H466  1  0.19550000  0.44450000  0.85530000  1.0 0.1326640404
H  H467  1  0.85530000  0.50470000  0.19550000  1.0 0.1326640404
H  H468  1  0.39470000  0.74530000  0.80550000  1.0 0.1326640404
H  H469  1  0.80550000  0.39470000  0.74530000  1.0 0.1326640404
H  H470  1  0.19550000  0.85530000  0.50470000  1.0 0.1326640404
H  H471  1  0.74530000  0.80550000  0.39470000  1.0 0.1326640404
H  H472  1  0.50470000  0.19550000  0.85530000  1.0 0.1326640404
H  H473  1  0.50470000  0.44450000  0.19550000  1.0 0.1326640404
H  H474  1  0.44450000  0.85530000  0.19550000  1.0 0.1326640404
H  H475  1  0.05450000  0.39470000  0.80550000  1.0 0.1326640404
H  H476  1  0.74530000  0.05450000  0.80550000  1.0 0.1326640404
H  H477  1  0.44450000  0.19550000  0.50470000  1.0 0.1326640404
H  H478  1  0.05450000  0.80550000  0.74530000  1.0 0.1326640404
H  H479  1  0.85530000  0.44450000  0.50470000  1.0 0.1326640404
H  H480  1  0.44450000  0.50470000  0.85530000  1.0 0.1326640404
H  H481  1  0.07280000  0.85440000  0.26420000  1.0 0.1326640404
H  H482  1  0.17720000  0.39560000  0.44140000  1.0 0.1326640404
H  H483  1  0.39560000  0.44140000  0.17720000  1.0 0.1326640404
H  H484  1  0.44140000  0.17720000  0.39560000  1.0 0.1326640404
H  H485  1  0.39560000  0.98580000  0.44140000  1.0 0.1326640404
H  H486  1  0.85440000  0.80860000  0.26420000  1.0 0.1326640404
H  H487  1  0.98580000  0.17720000  0.44140000  1.0 0.1326640404
H  H488  1  0.80860000  0.07280000  0.26420000  1.0 0.1326640404
H  H489  1  0.98580000  0.44140000  0.39560000  1.0 0.1326640404
H  H490  1  0.80860000  0.26420000  0.85440000  1.0 0.1326640404
H  H491  1  0.85440000  0.07280000  0.80860000  1.0 0.1326640404
H  H492  1  0.39560000  0.17720000  0.98580000  1.0 0.1326640404
H  H493  1  0.98580000  0.39560000  0.17720000  1.0 0.1326640404
H  H494  1  0.80860000  0.85440000  0.07280000  1.0 0.1326640404
H  H495  1  0.17720000  0.98580000  0.39560000  1.0 0.1326640404
H  H496  1  0.07280000  0.80860000  0.85440000  1.0 0.1326640404
H  H497  1  0.07280000  0.26420000  0.80860000  1.0 0.1326640404
H  H498  1  0.26420000  0.85440000  0.80860000  1.0 0.1326640404
H  H499  1  0.44140000  0.39560000  0.98580000  1.0 0.1326640404
H  H500  1  0.17720000  0.44140000  0.98580000  1.0 0.1326640404
H  H501  1  0.26420000  0.80860000  0.07280000  1.0 0.1326640404
H  H502  1  0.44140000  0.98580000  0.17720000  1.0 0.1326640404
H  H503  1  0.85440000  0.26420000  0.07280000  1.0 0.1326640404
H  H504  1  0.26420000  0.07280000  0.85440000  1.0 0.1326640404
H  H505  1  0.67720000  0.89560000  0.48580000  1.0 0.1326640404
H  H506  1  0.57280000  0.35440000  0.30860000  1.0 0.1326640404
H  H507  1  0.35440000  0.30860000  0.57280000  1.0 0.1326640404
H  H508  1  0.30860000  0.57280000  0.35440000  1.0 0.1326640404
H  H509  1  0.35440000  0.76420000  0.30860000  1.0 0.1326640404
H  H510  1  0.89560000  0.94140000  0.48580000  1.0 0.1326640404
H  H511  1  0.76420000  0.57280000  0.30860000  1.0 0.1326640404
H  H512  1  0.94140000  0.67720000  0.48580000  1.0 0.1326640404
H  H513  1  0.76420000  0.30860000  0.35440000  1.0 0.1326640404
H  H514  1  0.94140000  0.48580000  0.89560000  1.0 0.1326640404
H  H515  1  0.89560000  0.67720000  0.94140000  1.0 0.1326640404
H  H516  1  0.35440000  0.57280000  0.76420000  1.0 0.1326640404
H  H517  1  0.76420000  0.35440000  0.57280000  1.0 0.1326640404
H  H518  1  0.94140000  0.89560000  0.67720000  1.0 0.1326640404
H  H519  1  0.57280000  0.76420000  0.35440000  1.0 0.1326640404
H  H520  1  0.67720000  0.94140000  0.89560000  1.0 0.1326640404
H  H521  1  0.67720000  0.48580000  0.94140000  1.0 0.1326640404
H  H522  1  0.48580000  0.89560000  0.94140000  1.0 0.1326640404
H  H523  1  0.30860000  0.35440000  0.76420000  1.0 0.1326640404
H  H524  1  0.57280000  0.30860000  0.76420000  1.0 0.1326640404
H  H525  1  0.48580000  0.94140000  0.67720000  1.0 0.1326640404
H  H526  1  0.30860000  0.76420000  0.57280000  1.0 0.1326640404
H  H527  1  0.89560000  0.48580000  0.67720000  1.0 0.1326640404
H  H528  1  0.48580000  0.67720000  0.89560000  1.0 0.1326640404
H  H529  1  0.99560000  0.00040000  0.14640000  1.0 0.1201911716
H  H530  1  0.25440000  0.24960000  0.39240000  1.0 0.1201911716
H  H531  1  0.24960000  0.39240000  0.25440000  1.0 0.1201911716
H  H532  1  0.39240000  0.25440000  0.24960000  1.0 0.1201911716
H  H533  1  0.24960000  0.10360000  0.39240000  1.0 0.1201911716
H  H534  1  0.00040000  0.85760000  0.14640000  1.0 0.1201911716
H  H535  1  0.10360000  0.25440000  0.39240000  1.0 0.1201911716
H  H536  1  0.85760000  0.99560000  0.14640000  1.0 0.1201911716
H  H537  1  0.10360000  0.39240000  0.24960000  1.0 0.1201911716
H  H538  1  0.85760000  0.14640000  0.00040000  1.0 0.1201911716
H  H539  1  0.00040000  0.99560000  0.85760000  1.0 0.1201911716
H  H540  1  0.24960000  0.25440000  0.10360000  1.0 0.1201911716
H  H541  1  0.10360000  0.24960000  0.25440000  1.0 0.1201911716
H  H542  1  0.85760000  0.00040000  0.99560000  1.0 0.1201911716
H  H543  1  0.25440000  0.10360000  0.24960000  1.0 0.1201911716
H  H544  1  0.99560000  0.85760000  0.00040000  1.0 0.1201911716
H  H545  1  0.99560000  0.14640000  0.85760000  1.0 0.1201911716
H  H546  1  0.14640000  0.00040000  0.85760000  1.0 0.1201911716
H  H547  1  0.39240000  0.24960000  0.10360000  1.0 0.1201911716
H  H548  1  0.25440000  0.39240000  0.10360000  1.0 0.1201911716
H  H549  1  0.14640000  0.85760000  0.99560000  1.0 0.1201911716
H  H550  1  0.39240000  0.10360000  0.25440000  1.0 0.1201911716
H  H551  1  0.00040000  0.14640000  0.99560000  1.0 0.1201911716
H  H552  1  0.14640000  0.99560000  0.00040000  1.0 0.1201911716
H  H553  1  0.75440000  0.74960000  0.60360000  1.0 0.1201911716
H  H554  1  0.49560000  0.50040000  0.35760000  1.0 0.1201911716
H  H555  1  0.50040000  0.35760000  0.49560000  1.0 0.1201911716
H  H556  1  0.35760000  0.49560000  0.50040000  1.0 0.1201911716
H  H557  1  0.50040000  0.64640000  0.35760000  1.0 0.1201911716
H  H558  1  0.74960000  0.89240000  0.60360000  1.0 0.1201911716
H  H559  1  0.64640000  0.49560000  0.35760000  1.0 0.1201911716
H  H560  1  0.89240000  0.75440000  0.60360000  1.0 0.1201911716
H  H561  1  0.64640000  0.35760000  0.50040000  1.0 0.1201911716
H  H562  1  0.89240000  0.60360000  0.74960000  1.0 0.1201911716
H  H563  1  0.74960000  0.75440000  0.89240000  1.0 0.1201911716
H  H564  1  0.50040000  0.49560000  0.64640000  1.0 0.1201911716
H  H565  1  0.64640000  0.50040000  0.49560000  1.0 0.1201911716
H  H566  1  0.89240000  0.74960000  0.75440000  1.0 0.1201911716
H  H567  1  0.49560000  0.64640000  0.50040000  1.0 0.1201911716
H  H568  1  0.75440000  0.89240000  0.74960000  1.0 0.1201911716
H  H569  1  0.75440000  0.60360000  0.89240000  1.0 0.1201911716
H  H570  1  0.60360000  0.74960000  0.89240000  1.0 0.1201911716
H  H571  1  0.35760000  0.50040000  0.64640000  1.0 0.1201911716
H  H572  1  0.49560000  0.35760000  0.64640000  1.0 0.1201911716
H  H573  1  0.60360000  0.89240000  0.75440000  1.0 0.1201911716
H  H574  1  0.35760000  0.64640000  0.49560000  1.0 0.1201911716
H  H575  1  0.74960000  0.60360000  0.75440000  1.0 0.1201911716
H  H576  1  0.60360000  0.75440000  0.74960000  1.0 0.1201911716
H  H577  1  0.10120000  0.94640000  0.13620000  1.0 0.1009325771
H  H578  1  0.14880000  0.30360000  0.43380000  1.0 0.1009325771
H  H579  1  0.30360000  0.43380000  0.14880000  1.0 0.1009325771
H  H580  1  0.43380000  0.14880000  0.30360000  1.0 0.1009325771
H  H581  1  0.30360000  0.11380000  0.43380000  1.0 0.1009325771
H  H582  1  0.94640000  0.81620000  0.13620000  1.0 0.1009325771
H  H583  1  0.11380000  0.14880000  0.43380000  1.0 0.1009325771
H  H584  1  0.81620000  0.10120000  0.13620000  1.0 0.1009325771
H  H585  1  0.11380000  0.43380000  0.30360000  1.0 0.1009325771
H  H586  1  0.81620000  0.13620000  0.94640000  1.0 0.1009325771
H  H587  1  0.94640000  0.10120000  0.81620000  1.0 0.1009325771
H  H588  1  0.30360000  0.14880000  0.11380000  1.0 0.1009325771
H  H589  1  0.11380000  0.30360000  0.14880000  1.0 0.1009325771
H  H590  1  0.81620000  0.94640000  0.10120000  1.0 0.1009325771
H  H591  1  0.14880000  0.11380000  0.30360000  1.0 0.1009325771
H  H592  1  0.10120000  0.81620000  0.94640000  1.0 0.1009325771
H  H593  1  0.10120000  0.13620000  0.81620000  1.0 0.1009325771
H  H594  1  0.13620000  0.94640000  0.81620000  1.0 0.1009325771
H  H595  1  0.43380000  0.30360000  0.11380000  1.0 0.1009325771
H  H596  1  0.14880000  0.43380000  0.11380000  1.0 0.1009325771
H  H597  1  0.13620000  0.81620000  0.10120000  1.0 0.1009325771
H  H598  1  0.43380000  0.11380000  0.14880000  1.0 0.1009325771
H  H599  1  0.94640000  0.13620000  0.10120000  1.0 0.1009325771
H  H600  1  0.13620000  0.10120000  0.94640000  1.0 0.1009325771
H  H601  1  0.64880000  0.80360000  0.61380000  1.0 0.1009325771
H  H602  1  0.60120000  0.44640000  0.31620000  1.0 0.1009325771
H  H603  1  0.44640000  0.31620000  0.60120000  1.0 0.1009325771
H  H604  1  0.31620000  0.60120000  0.44640000  1.0 0.1009325771
H  H605  1  0.44640000  0.63620000  0.31620000  1.0 0.1009325771
H  H606  1  0.80360000  0.93380000  0.61380000  1.0 0.1009325771
H  H607  1  0.63620000  0.60120000  0.31620000  1.0 0.1009325771
H  H608  1  0.93380000  0.64880000  0.61380000  1.0 0.1009325771
H  H609  1  0.63620000  0.31620000  0.44640000  1.0 0.1009325771
H  H610  1  0.93380000  0.61380000  0.80360000  1.0 0.1009325771
H  H611  1  0.80360000  0.64880000  0.93380000  1.0 0.1009325771
H  H612  1  0.44640000  0.60120000  0.63620000  1.0 0.1009325771
H  H613  1  0.63620000  0.44640000  0.60120000  1.0 0.1009325771
H  H614  1  0.93380000  0.80360000  0.64880000  1.0 0.1009325771
H  H615  1  0.60120000  0.63620000  0.44640000  1.0 0.1009325771
H  H616  1  0.64880000  0.93380000  0.80360000  1.0 0.1009325771
H  H617  1  0.64880000  0.61380000  0.93380000  1.0 0.1009325771
H  H618  1  0.61380000  0.80360000  0.93380000  1.0 0.1009325771
H  H619  1  0.31620000  0.44640000  0.63620000  1.0 0.1009325771
H  H620  1  0.60120000  0.31620000  0.63620000  1.0 0.1009325771
H  H621  1  0.61380000  0.93380000  0.64880000  1.0 0.1009325771
H  H622  1  0.31620000  0.63620000  0.60120000  1.0 0.1009325771
H  H623  1  0.80360000  0.61380000  0.64880000  1.0 0.1009325771
H  H624  1  0.61380000  0.64880000  0.80360000  1.0 0.1009325771
H  H625  1  0.19610000  0.88350000  0.35730000  1.0 0.1009325771
H  H626  1  0.05390000  0.36650000  0.68690000  1.0 0.1009325771
H  H627  1  0.36650000  0.68690000  0.05390000  1.0 0.1009325771
H  H628  1  0.68690000  0.05390000  0.36650000  1.0 0.1009325771
H  H629  1  0.36650000  0.89270000  0.68690000  1.0 0.1009325771
H  H630  1  0.88350000  0.56310000  0.35730000  1.0 0.1009325771
H  H631  1  0.89270000  0.05390000  0.68690000  1.0 0.1009325771
H  H632  1  0.56310000  0.19610000  0.35730000  1.0 0.1009325771
H  H633  1  0.89270000  0.68690000  0.36650000  1.0 0.1009325771
H  H634  1  0.56310000  0.35730000  0.88350000  1.0 0.1009325771
H  H635  1  0.88350000  0.19610000  0.56310000  1.0 0.1009325771
H  H636  1  0.36650000  0.05390000  0.89270000  1.0 0.1009325771
H  H637  1  0.89270000  0.36650000  0.05390000  1.0 0.1009325771
H  H638  1  0.56310000  0.88350000  0.19610000  1.0 0.1009325771
H  H639  1  0.05390000  0.89270000  0.36650000  1.0 0.1009325771
H  H640  1  0.19610000  0.56310000  0.88350000  1.0 0.1009325771
H  H641  1  0.19610000  0.35730000  0.56310000  1.0 0.1009325771
H  H642  1  0.35730000  0.88350000  0.56310000  1.0 0.1009325771
H  H643  1  0.68690000  0.36650000  0.89270000  1.0 0.1009325771
H  H644  1  0.05390000  0.68690000  0.89270000  1.0 0.1009325771
H  H645  1  0.35730000  0.56310000  0.19610000  1.0 0.1009325771
H  H646  1  0.68690000  0.89270000  0.05390000  1.0 0.1009325771
H  H647  1  0.88350000  0.35730000  0.19610000  1.0 0.1009325771
H  H648  1  0.35730000  0.19610000  0.88350000  1.0 0.1009325771
H  H649  1  0.55390000  0.86650000  0.39270000  1.0 0.1009325771
H  H650  1  0.69610000  0.38350000  0.06310000  1.0 0.1009325771
H  H651  1  0.38350000  0.06310000  0.69610000  1.0 0.1009325771
H  H652  1  0.06310000  0.69610000  0.38350000  1.0 0.1009325771
H  H653  1  0.38350000  0.85730000  0.06310000  1.0 0.1009325771
H  H654  1  0.86650000  0.18690000  0.39270000  1.0 0.1009325771
H  H655  1  0.85730000  0.69610000  0.06310000  1.0 0.1009325771
H  H656  1  0.18690000  0.55390000  0.39270000  1.0 0.1009325771
H  H657  1  0.85730000  0.06310000  0.38350000  1.0 0.1009325771
H  H658  1  0.18690000  0.39270000  0.86650000  1.0 0.1009325771
H  H659  1  0.86650000  0.55390000  0.18690000  1.0 0.1009325771
H  H660  1  0.38350000  0.69610000  0.85730000  1.0 0.1009325771
H  H661  1  0.85730000  0.38350000  0.69610000  1.0 0.1009325771
H  H662  1  0.18690000  0.86650000  0.55390000  1.0 0.1009325771
H  H663  1  0.69610000  0.85730000  0.38350000  1.0 0.1009325771
H  H664  1  0.55390000  0.18690000  0.86650000  1.0 0.1009325771
H  H665  1  0.55390000  0.39270000  0.18690000  1.0 0.1009325771
H  H666  1  0.39270000  0.86650000  0.18690000  1.0 0.1009325771
H  H667  1  0.06310000  0.38350000  0.85730000  1.0 0.1009325771
H  H668  1  0.69610000  0.06310000  0.85730000  1.0 0.1009325771
H  H669  1  0.39270000  0.18690000  0.55390000  1.0 0.1009325771
H  H670  1  0.06310000  0.85730000  0.69610000  1.0 0.1009325771
H  H671  1  0.86650000  0.39270000  0.55390000  1.0 0.1009325771
H  H672  1  0.39270000  0.55390000  0.86650000  1.0 0.1009325771
H  H673  1  0.11510000  0.87010000  0.26530000  1.0 0.1201911716
H  H674  1  0.13490000  0.37990000  0.50050000  1.0 0.1201911716
H  H675  1  0.37990000  0.50050000  0.13490000  1.0 0.1201911716
H  H676  1  0.50050000  0.13490000  0.37990000  1.0 0.1201911716
H  H677  1  0.37990000  0.98470000  0.50050000  1.0 0.1201911716
H  H678  1  0.87010000  0.74950000  0.26530000  1.0 0.1201911716
H  H679  1  0.98470000  0.13490000  0.50050000  1.0 0.1201911716
H  H680  1  0.74950000  0.11510000  0.26530000  1.0 0.1201911716
H  H681  1  0.98470000  0.50050000  0.37990000  1.0 0.1201911716
H  H682  1  0.74950000  0.26530000  0.87010000  1.0 0.1201911716
H  H683  1  0.87010000  0.11510000  0.74950000  1.0 0.1201911716
H  H684  1  0.37990000  0.13490000  0.98470000  1.0 0.1201911716
H  H685  1  0.98470000  0.37990000  0.13490000  1.0 0.1201911716
H  H686  1  0.74950000  0.87010000  0.11510000  1.0 0.1201911716
H  H687  1  0.13490000  0.98470000  0.37990000  1.0 0.1201911716
H  H688  1  0.11510000  0.74950000  0.87010000  1.0 0.1201911716
H  H689  1  0.11510000  0.26530000  0.74950000  1.0 0.1201911716
H  H690  1  0.26530000  0.87010000  0.74950000  1.0 0.1201911716
H  H691  1  0.50050000  0.37990000  0.98470000  1.0 0.1201911716
H  H692  1  0.13490000  0.50050000  0.98470000  1.0 0.1201911716
H  H693  1  0.26530000  0.74950000  0.11510000  1.0 0.1201911716
H  H694  1  0.50050000  0.98470000  0.13490000  1.0 0.1201911716
H  H695  1  0.87010000  0.26530000  0.11510000  1.0 0.1201911716
H  H696  1  0.26530000  0.11510000  0.87010000  1.0 0.1201911716
H  H697  1  0.63490000  0.87990000  0.48470000  1.0 0.1201911716
H  H698  1  0.61510000  0.37010000  0.24950000  1.0 0.1201911716
H  H699  1  0.37010000  0.24950000  0.61510000  1.0 0.1201911716
H  H700  1  0.24950000  0.61510000  0.37010000  1.0 0.1201911716
H  H701  1  0.37010000  0.76530000  0.24950000  1.0 0.1201911716
H  H702  1  0.87990000  0.00050000  0.48470000  1.0 0.1201911716
H  H703  1  0.76530000  0.61510000  0.24950000  1.0 0.1201911716
H  H704  1  0.00050000  0.63490000  0.48470000  1.0 0.1201911716
H  H705  1  0.76530000  0.24950000  0.37010000  1.0 0.1201911716
H  H706  1  0.00050000  0.48470000  0.87990000  1.0 0.1201911716
H  H707  1  0.87990000  0.63490000  0.00050000  1.0 0.1201911716
H  H708  1  0.37010000  0.61510000  0.76530000  1.0 0.1201911716
H  H709  1  0.76530000  0.37010000  0.61510000  1.0 0.1201911716
H  H710  1  0.00050000  0.87990000  0.63490000  1.0 0.1201911716
H  H711  1  0.61510000  0.76530000  0.37010000  1.0 0.1201911716
H  H712  1  0.63490000  0.00050000  0.87990000  1.0 0.1201911716
H  H713  1  0.63490000  0.48470000  0.00050000  1.0 0.1201911716
H  H714  1  0.48470000  0.87990000  0.00050000  1.0 0.1201911716
H  H715  1  0.24950000  0.37010000  0.76530000  1.0 0.1201911716
H  H716  1  0.61510000  0.24950000  0.76530000  1.0 0.1201911716
H  H717  1  0.48470000  0.00050000  0.63490000  1.0 0.1201911716
H  H718  1  0.24950000  0.76530000  0.61510000  1.0 0.1201911716
H  H719  1  0.87990000  0.48470000  0.63490000  1.0 0.1201911716
H  H720  1  0.48470000  0.63490000  0.87990000  1.0 0.1201911716
H  H721  1  0.05010000  0.99650000  0.14550000  1.0 0.1326640404
H  H722  1  0.19990000  0.25350000  0.44210000  1.0 0.1326640404
H  H723  1  0.25350000  0.44210000  0.19990000  1.0 0.1326640404
H  H724  1  0.44210000  0.19990000  0.25350000  1.0 0.1326640404
H  H725  1  0.25350000  0.10450000  0.44210000  1.0 0.1326640404
H  H726  1  0.99650000  0.80790000  0.14550000  1.0 0.1326640404
H  H727  1  0.10450000  0.19990000  0.44210000  1.0 0.1326640404
H  H728  1  0.80790000  0.05010000  0.14550000  1.0 0.1326640404
H  H729  1  0.10450000  0.44210000  0.25350000  1.0 0.1326640404
H  H730  1  0.80790000  0.14550000  0.99650000  1.0 0.1326640404
H  H731  1  0.99650000  0.05010000  0.80790000  1.0 0.1326640404
H  H732  1  0.25350000  0.19990000  0.10450000  1.0 0.1326640404
H  H733  1  0.10450000  0.25350000  0.19990000  1.0 0.1326640404
H  H734  1  0.80790000  0.99650000  0.05010000  1.0 0.1326640404
H  H735  1  0.19990000  0.10450000  0.25350000  1.0 0.1326640404
H  H736  1  0.05010000  0.80790000  0.99650000  1.0 0.1326640404
H  H737  1  0.05010000  0.14550000  0.80790000  1.0 0.1326640404
H  H738  1  0.14550000  0.99650000  0.80790000  1.0 0.1326640404
H  H739  1  0.44210000  0.25350000  0.10450000  1.0 0.1326640404
H  H740  1  0.19990000  0.44210000  0.10450000  1.0 0.1326640404
H  H741  1  0.14550000  0.80790000  0.05010000  1.0 0.1326640404
H  H742  1  0.44210000  0.10450000  0.19990000  1.0 0.1326640404
H  H743  1  0.99650000  0.14550000  0.05010000  1.0 0.1326640404
H  H744  1  0.14550000  0.05010000  0.99650000  1.0 0.1326640404
H  H745  1  0.69990000  0.75350000  0.60450000  1.0 0.1326640404
H  H746  1  0.55010000  0.49650000  0.30790000  1.0 0.1326640404
H  H747  1  0.49650000  0.30790000  0.55010000  1.0 0.1326640404
H  H748  1  0.30790000  0.55010000  0.49650000  1.0 0.1326640404
H  H749  1  0.49650000  0.64550000  0.30790000  1.0 0.1326640404
H  H750  1  0.75350000  0.94210000  0.60450000  1.0 0.1326640404
H  H751  1  0.64550000  0.55010000  0.30790000  1.0 0.1326640404
H  H752  1  0.94210000  0.69990000  0.60450000  1.0 0.1326640404
H  H753  1  0.64550000  0.30790000  0.49650000  1.0 0.1326640404
H  H754  1  0.94210000  0.60450000  0.75350000  1.0 0.1326640404
H  H755  1  0.75350000  0.69990000  0.94210000  1.0 0.1326640404
H  H756  1  0.49650000  0.55010000  0.64550000  1.0 0.1326640404
H  H757  1  0.64550000  0.49650000  0.55010000  1.0 0.1326640404
H  H758  1  0.94210000  0.75350000  0.69990000  1.0 0.1326640404
H  H759  1  0.55010000  0.64550000  0.49650000  1.0 0.1326640404
H  H760  1  0.69990000  0.94210000  0.75350000  1.0 0.1326640404
H  H761  1  0.69990000  0.60450000  0.94210000  1.0 0.1326640404
H  H762  1  0.60450000  0.75350000  0.94210000  1.0 0.1326640404
H  H763  1  0.30790000  0.49650000  0.64550000  1.0 0.1326640404
H  H764  1  0.55010000  0.30790000  0.64550000  1.0 0.1326640404
H  H765  1  0.60450000  0.94210000  0.69990000  1.0 0.1326640404
H  H766  1  0.30790000  0.64550000  0.55010000  1.0 0.1326640404
H  H767  1  0.75350000  0.60450000  0.69990000  1.0 0.1326640404
H  H768  1  0.60450000  0.69990000  0.75350000  1.0 0.1326640404
C  C1  1  0.19698000  0.89662000  0.23684000  1.0 0.3811106416
C  C2  1  0.05302000  0.35338000  0.58044000  1.0 0.3811106416
C  C3  1  0.35338000  0.58044000  0.05302000  1.0 0.3811106416
C  C4  1  0.58044000  0.05302000  0.35338000  1.0 0.3811106416
C  C5  1  0.35338000  0.01316000  0.58044000  1.0 0.3811106416
C  C6  1  0.89662000  0.66956000  0.23684000  1.0 0.3811106416
C  C7  1  0.01316000  0.05302000  0.58044000  1.0 0.3811106416
C  C8  1  0.66956000  0.19698000  0.23684000  1.0 0.3811106416
C  C9  1  0.01316000  0.58044000  0.35338000  1.0 0.3811106416
C  C10  1  0.66956000  0.23684000  0.89662000  1.0 0.3811106416
C  C11  1  0.89662000  0.19698000  0.66956000  1.0 0.3811106416
C  C12  1  0.35338000  0.05302000  0.01316000  1.0 0.3811106416
C  C13  1  0.01316000  0.35338000  0.05302000  1.0 0.3811106416
C  C14  1  0.66956000  0.89662000  0.19698000  1.0 0.3811106416
C  C15  1  0.05302000  0.01316000  0.35338000  1.0 0.3811106416
C  C16  1  0.19698000  0.66956000  0.89662000  1.0 0.3811106416
C  C17  1  0.19698000  0.23684000  0.66956000  1.0 0.3811106416
C  C18  1  0.23684000  0.89662000  0.66956000  1.0 0.3811106416
C  C19  1  0.58044000  0.35338000  0.01316000  1.0 0.3811106416
C  C20  1  0.05302000  0.58044000  0.01316000  1.0 0.3811106416
C  C21  1  0.23684000  0.66956000  0.19698000  1.0 0.3811106416
C  C22  1  0.58044000  0.01316000  0.05302000  1.0 0.3811106416
C  C23  1  0.89662000  0.23684000  0.19698000  1.0 0.3811106416
C  C24  1  0.23684000  0.19698000  0.89662000  1.0 0.3811106416
C  C25  1  0.55302000  0.85338000  0.51316000  1.0 0.3811106416
C  C26  1  0.69698000  0.39662000  0.16956000  1.0 0.3811106416
C  C27  1  0.39662000  0.16956000  0.69698000  1.0 0.3811106416
C  C28  1  0.16956000  0.69698000  0.39662000  1.0 0.3811106416
C  C29  1  0.39662000  0.73684000  0.16956000  1.0 0.3811106416
C  C30  1  0.85338000  0.08044000  0.51316000  1.0 0.3811106416
C  C31  1  0.73684000  0.69698000  0.16956000  1.0 0.3811106416
C  C32  1  0.08044000  0.55302000  0.51316000  1.0 0.3811106416
C  C33  1  0.73684000  0.16956000  0.39662000  1.0 0.3811106416
C  C34  1  0.08044000  0.51316000  0.85338000  1.0 0.3811106416
C  C35  1  0.85338000  0.55302000  0.08044000  1.0 0.3811106416
C  C36  1  0.39662000  0.69698000  0.73684000  1.0 0.3811106416
C  C37  1  0.73684000  0.39662000  0.69698000  1.0 0.3811106416
C  C38  1  0.08044000  0.85338000  0.55302000  1.0 0.3811106416
C  C39  1  0.69698000  0.73684000  0.39662000  1.0 0.3811106416
C  C40  1  0.55302000  0.08044000  0.85338000  1.0 0.3811106416
C  C41  1  0.55302000  0.51316000  0.08044000  1.0 0.3811106416
C  C42  1  0.51316000  0.85338000  0.08044000  1.0 0.3811106416
C  C43  1  0.16956000  0.39662000  0.73684000  1.0 0.3811106416
C  C44  1  0.69698000  0.16956000  0.73684000  1.0 0.3811106416
C  C45  1  0.51316000  0.08044000  0.55302000  1.0 0.3811106416
C  C46  1  0.16956000  0.73684000  0.69698000  1.0 0.3811106416
C  C47  1  0.85338000  0.51316000  0.55302000  1.0 0.3811106416
C  C48  1  0.51316000  0.55302000  0.85338000  1.0 0.3811106416
C  C49  1  0.19718000  0.89448000  0.27052000  1.0 -0.02964283
C  C50  1  0.05282000  0.35552000  0.61218000  1.0 -0.02964283
C  C51  1  0.35552000  0.61218000  0.05282000  1.0 -0.02964283
C  C52  1  0.61218000  0.05282000  0.35552000  1.0 -0.02964283
C  C53  1  0.35552000  0.97948000  0.61218000  1.0 -0.02964283
C  C54  1  0.89448000  0.63782000  0.27052000  1.0 -0.02964283
C  C55  1  0.97948000  0.05282000  0.61218000  1.0 -0.02964283
C  C56  1  0.63782000  0.19718000  0.27052000  1.0 -0.02964283
C  C57  1  0.97948000  0.61218000  0.35552000  1.0 -0.02964283
C  C58  1  0.63782000  0.27052000  0.89448000  1.0 -0.02964283
C  C59  1  0.89448000  0.19718000  0.63782000  1.0 -0.02964283
C  C60  1  0.35552000  0.05282000  0.97948000  1.0 -0.02964283
C  C61  1  0.97948000  0.35552000  0.05282000  1.0 -0.02964283
C  C62  1  0.63782000  0.89448000  0.19718000  1.0 -0.02964283
C  C63  1  0.05282000  0.97948000  0.35552000  1.0 -0.02964283
C  C64  1  0.19718000  0.63782000  0.89448000  1.0 -0.02964283
C  C65  1  0.19718000  0.27052000  0.63782000  1.0 -0.02964283
C  C66  1  0.27052000  0.89448000  0.63782000  1.0 -0.02964283
C  C67  1  0.61218000  0.35552000  0.97948000  1.0 -0.02964283
C  C68  1  0.05282000  0.61218000  0.97948000  1.0 -0.02964283
C  C69  1  0.27052000  0.63782000  0.19718000  1.0 -0.02964283
C  C70  1  0.61218000  0.97948000  0.05282000  1.0 -0.02964283
C  C71  1  0.89448000  0.27052000  0.19718000  1.0 -0.02964283
C  C72  1  0.27052000  0.19718000  0.89448000  1.0 -0.02964283
C  C73  1  0.55282000  0.85552000  0.47948000  1.0 -0.02964283
C  C74  1  0.69718000  0.39448000  0.13782000  1.0 -0.02964283
C  C75  1  0.39448000  0.13782000  0.69718000  1.0 -0.02964283
C  C76  1  0.13782000  0.69718000  0.39448000  1.0 -0.02964283
C  C77  1  0.39448000  0.77052000  0.13782000  1.0 -0.02964283
C  C78  1  0.85552000  0.11218000  0.47948000  1.0 -0.02964283
C  C79  1  0.77052000  0.69718000  0.13782000  1.0 -0.02964283
C  C80  1  0.11218000  0.55282000  0.47948000  1.0 -0.02964283
C  C81  1  0.77052000  0.13782000  0.39448000  1.0 -0.02964283
C  C82  1  0.11218000  0.47948000  0.85552000  1.0 -0.02964283
C  C83  1  0.85552000  0.55282000  0.11218000  1.0 -0.02964283
C  C84  1  0.39448000  0.69718000  0.77052000  1.0 -0.02964283
C  C85  1  0.77052000  0.39448000  0.69718000  1.0 -0.02964283
C  C86  1  0.11218000  0.85552000  0.55282000  1.0 -0.02964283
C  C87  1  0.69718000  0.77052000  0.39448000  1.0 -0.02964283
C  C88  1  0.55282000  0.11218000  0.85552000  1.0 -0.02964283
C  C89  1  0.55282000  0.47948000  0.11218000  1.0 -0.02964283
C  C90  1  0.47948000  0.85552000  0.11218000  1.0 -0.02964283
C  C91  1  0.13782000  0.39448000  0.77052000  1.0 -0.02964283
C  C92  1  0.69718000  0.13782000  0.77052000  1.0 -0.02964283
C  C93  1  0.47948000  0.11218000  0.55282000  1.0 -0.02964283
C  C94  1  0.13782000  0.77052000  0.69718000  1.0 -0.02964283
C  C95  1  0.85552000  0.47948000  0.55282000  1.0 -0.02964283
C  C96  1  0.47948000  0.55282000  0.85552000  1.0 -0.02964283
C  C97  1  0.16922000  0.88712000  0.30288000  1.0 0.0671663581
C  C98  1  0.08078000  0.36288000  0.60922000  1.0 0.0671663581
C  C99  1  0.36288000  0.60922000  0.08078000  1.0 0.0671663581
C  C100  1  0.60922000  0.08078000  0.36288000  1.0 0.0671663581
C  C101  1  0.36288000  0.94712000  0.60922000  1.0 0.0671663581
C  C102  1  0.88712000  0.64078000  0.30288000  1.0 0.0671663581
C  C103  1  0.94712000  0.08078000  0.60922000  1.0 0.0671663581
C  C104  1  0.64078000  0.16922000  0.30288000  1.0 0.0671663581
C  C105  1  0.94712000  0.60922000  0.36288000  1.0 0.0671663581
C  C106  1  0.64078000  0.30288000  0.88712000  1.0 0.0671663581
C  C107  1  0.88712000  0.16922000  0.64078000  1.0 0.0671663581
C  C108  1  0.36288000  0.08078000  0.94712000  1.0 0.0671663581
C  C109  1  0.94712000  0.36288000  0.08078000  1.0 0.0671663581
C  C110  1  0.64078000  0.88712000  0.16922000  1.0 0.0671663581
C  C111  1  0.08078000  0.94712000  0.36288000  1.0 0.0671663581
C  C112  1  0.16922000  0.64078000  0.88712000  1.0 0.0671663581
C  C113  1  0.16922000  0.30288000  0.64078000  1.0 0.0671663581
C  C114  1  0.30288000  0.88712000  0.64078000  1.0 0.0671663581
C  C115  1  0.60922000  0.36288000  0.94712000  1.0 0.0671663581
C  C116  1  0.08078000  0.60922000  0.94712000  1.0 0.0671663581
C  C117  1  0.30288000  0.64078000  0.16922000  1.0 0.0671663581
C  C118  1  0.60922000  0.94712000  0.08078000  1.0 0.0671663581
C  C119  1  0.88712000  0.30288000  0.16922000  1.0 0.0671663581
C  C120  1  0.30288000  0.16922000  0.88712000  1.0 0.0671663581
C  C121  1  0.58078000  0.86288000  0.44712000  1.0 0.0671663581
C  C122  1  0.66922000  0.38712000  0.14078000  1.0 0.0671663581
C  C123  1  0.38712000  0.14078000  0.66922000  1.0 0.0671663581
C  C124  1  0.14078000  0.66922000  0.38712000  1.0 0.0671663581
C  C125  1  0.38712000  0.80288000  0.14078000  1.0 0.0671663581
C  C126  1  0.86288000  0.10922000  0.44712000  1.0 0.0671663581
C  C127  1  0.80288000  0.66922000  0.14078000  1.0 0.0671663581
C  C128  1  0.10922000  0.58078000  0.44712000  1.0 0.0671663581
C  C129  1  0.80288000  0.14078000  0.38712000  1.0 0.0671663581
C  C130  1  0.10922000  0.44712000  0.86288000  1.0 0.0671663581
C  C131  1  0.86288000  0.58078000  0.10922000  1.0 0.0671663581
C  C132  1  0.38712000  0.66922000  0.80288000  1.0 0.0671663581
C  C133  1  0.80288000  0.38712000  0.66922000  1.0 0.0671663581
C  C134  1  0.10922000  0.86288000  0.58078000  1.0 0.0671663581
C  C135  1  0.66922000  0.80288000  0.38712000  1.0 0.0671663581
C  C136  1  0.58078000  0.10922000  0.86288000  1.0 0.0671663581
C  C137  1  0.58078000  0.44712000  0.10922000  1.0 0.0671663581
C  C138  1  0.44712000  0.86288000  0.10922000  1.0 0.0671663581
C  C139  1  0.14078000  0.38712000  0.80288000  1.0 0.0671663581
C  C140  1  0.66922000  0.14078000  0.80288000  1.0 0.0671663581
C  C141  1  0.44712000  0.10922000  0.58078000  1.0 0.0671663581
C  C142  1  0.14078000  0.80288000  0.66922000  1.0 0.0671663581
C  C143  1  0.86288000  0.44712000  0.58078000  1.0 0.0671663581
C  C144  1  0.44712000  0.58078000  0.86288000  1.0 0.0671663581
C  C145  1  0.28501000  0.90439000  0.14325000  1.0 0.0586787765
C  C146  1  0.96499000  0.34561000  0.58265000  1.0 0.0586787765
C  C147  1  0.34561000  0.58265000  0.96499000  1.0 0.0586787765
C  C148  1  0.58265000  0.96499000  0.34561000  1.0 0.0586787765
C  C149  1  0.34561000  0.10675000  0.58265000  1.0 0.0586787765
C  C150  1  0.90439000  0.66735000  0.14325000  1.0 0.0586787765
C  C151  1  0.10675000  0.96499000  0.58265000  1.0 0.0586787765
C  C152  1  0.66735000  0.28501000  0.14325000  1.0 0.0586787765
C  C153  1  0.10675000  0.58265000  0.34561000  1.0 0.0586787765
C  C154  1  0.66735000  0.14325000  0.90439000  1.0 0.0586787765
C  C155  1  0.90439000  0.28501000  0.66735000  1.0 0.0586787765
C  C156  1  0.34561000  0.96499000  0.10675000  1.0 0.0586787765
C  C157  1  0.10675000  0.34561000  0.96499000  1.0 0.0586787765
C  C158  1  0.66735000  0.90439000  0.28501000  1.0 0.0586787765
C  C159  1  0.96499000  0.10675000  0.34561000  1.0 0.0586787765
C  C160  1  0.28501000  0.66735000  0.90439000  1.0 0.0586787765
C  C161  1  0.28501000  0.14325000  0.66735000  1.0 0.0586787765
C  C162  1  0.14325000  0.90439000  0.66735000  1.0 0.0586787765
C  C163  1  0.58265000  0.34561000  0.10675000  1.0 0.0586787765
C  C164  1  0.96499000  0.58265000  0.10675000  1.0 0.0586787765
C  C165  1  0.14325000  0.66735000  0.28501000  1.0 0.0586787765
C  C166  1  0.58265000  0.10675000  0.96499000  1.0 0.0586787765
C  C167  1  0.90439000  0.14325000  0.28501000  1.0 0.0586787765
C  C168  1  0.14325000  0.28501000  0.90439000  1.0 0.0586787765
C  C169  1  0.46499000  0.84561000  0.60675000  1.0 0.0586787765
C  C170  1  0.78501000  0.40439000  0.16735000  1.0 0.0586787765
C  C171  1  0.40439000  0.16735000  0.78501000  1.0 0.0586787765
C  C172  1  0.16735000  0.78501000  0.40439000  1.0 0.0586787765
C  C173  1  0.40439000  0.64325000  0.16735000  1.0 0.0586787765
C  C174  1  0.84561000  0.08265000  0.60675000  1.0 0.0586787765
C  C175  1  0.64325000  0.78501000  0.16735000  1.0 0.0586787765
C  C176  1  0.08265000  0.46499000  0.60675000  1.0 0.0586787765
C  C177  1  0.64325000  0.16735000  0.40439000  1.0 0.0586787765
C  C178  1  0.08265000  0.60675000  0.84561000  1.0 0.0586787765
C  C179  1  0.84561000  0.46499000  0.08265000  1.0 0.0586787765
C  C180  1  0.40439000  0.78501000  0.64325000  1.0 0.0586787765
C  C181  1  0.64325000  0.40439000  0.78501000  1.0 0.0586787765
C  C182  1  0.08265000  0.84561000  0.46499000  1.0 0.0586787765
C  C183  1  0.78501000  0.64325000  0.40439000  1.0 0.0586787765
C  C184  1  0.46499000  0.08265000  0.84561000  1.0 0.0586787765
C  C185  1  0.46499000  0.60675000  0.08265000  1.0 0.0586787765
C  C186  1  0.60675000  0.84561000  0.08265000  1.0 0.0586787765
C  C187  1  0.16735000  0.40439000  0.64325000  1.0 0.0586787765
C  C188  1  0.78501000  0.16735000  0.64325000  1.0 0.0586787765
C  C189  1  0.60675000  0.08265000  0.46499000  1.0 0.0586787765
C  C190  1  0.16735000  0.64325000  0.78501000  1.0 0.0586787765
C  C191  1  0.84561000  0.60675000  0.46499000  1.0 0.0586787765
C  C192  1  0.60675000  0.46499000  0.84561000  1.0 0.0586787765
C  C193  1  0.04779000  0.92341000  0.13273000  1.0 0.0586787765
C  C194  1  0.20221000  0.32659000  0.35393000  1.0 0.0586787765
C  C195  1  0.32659000  0.35393000  0.20221000  1.0 0.0586787765
C  C196  1  0.35393000  0.20221000  0.32659000  1.0 0.0586787765
C  C197  1  0.32659000  0.11727000  0.35393000  1.0 0.0586787765
C  C198  1  0.92341000  0.89607000  0.13273000  1.0 0.0586787765
C  C199  1  0.11727000  0.20221000  0.35393000  1.0 0.0586787765
C  C200  1  0.89607000  0.04779000  0.13273000  1.0 0.0586787765
C  C201  1  0.11727000  0.35393000  0.32659000  1.0 0.0586787765
C  C202  1  0.89607000  0.13273000  0.92341000  1.0 0.0586787765
C  C203  1  0.92341000  0.04779000  0.89607000  1.0 0.0586787765
C  C204  1  0.32659000  0.20221000  0.11727000  1.0 0.0586787765
C  C205  1  0.11727000  0.32659000  0.20221000  1.0 0.0586787765
C  C206  1  0.89607000  0.92341000  0.04779000  1.0 0.0586787765
C  C207  1  0.20221000  0.11727000  0.32659000  1.0 0.0586787765
C  C208  1  0.04779000  0.89607000  0.92341000  1.0 0.0586787765
C  C209  1  0.04779000  0.13273000  0.89607000  1.0 0.0586787765
C  C210  1  0.13273000  0.92341000  0.89607000  1.0 0.0586787765
C  C211  1  0.35393000  0.32659000  0.11727000  1.0 0.0586787765
C  C212  1  0.20221000  0.35393000  0.11727000  1.0 0.0586787765
C  C213  1  0.13273000  0.89607000  0.04779000  1.0 0.0586787765
C  C214  1  0.35393000  0.11727000  0.20221000  1.0 0.0586787765
C  C215  1  0.92341000  0.13273000  0.04779000  1.0 0.0586787765
C  C216  1  0.13273000  0.04779000  0.92341000  1.0 0.0586787765
C  C217  1  0.70221000  0.82659000  0.61727000  1.0 0.0586787765
C  C218  1  0.54779000  0.42341000  0.39607000  1.0 0.0586787765
C  C219  1  0.42341000  0.39607000  0.54779000  1.0 0.0586787765
C  C220  1  0.39607000  0.54779000  0.42341000  1.0 0.0586787765
C  C221  1  0.42341000  0.63273000  0.39607000  1.0 0.0586787765
C  C222  1  0.82659000  0.85393000  0.61727000  1.0 0.0586787765
C  C223  1  0.63273000  0.54779000  0.39607000  1.0 0.0586787765
C  C224  1  0.85393000  0.70221000  0.61727000  1.0 0.0586787765
C  C225  1  0.63273000  0.39607000  0.42341000  1.0 0.0586787765
C  C226  1  0.85393000  0.61727000  0.82659000  1.0 0.0586787765
C  C227  1  0.82659000  0.70221000  0.85393000  1.0 0.0586787765
C  C228  1  0.42341000  0.54779000  0.63273000  1.0 0.0586787765
C  C229  1  0.63273000  0.42341000  0.54779000  1.0 0.0586787765
C  C230  1  0.85393000  0.82659000  0.70221000  1.0 0.0586787765
C  C231  1  0.54779000  0.63273000  0.42341000  1.0 0.0586787765
C  C232  1  0.70221000  0.85393000  0.82659000  1.0 0.0586787765
C  C233  1  0.70221000  0.61727000  0.85393000  1.0 0.0586787765
C  C234  1  0.61727000  0.82659000  0.85393000  1.0 0.0586787765
C  C235  1  0.39607000  0.42341000  0.63273000  1.0 0.0586787765
C  C236  1  0.54779000  0.39607000  0.63273000  1.0 0.0586787765
C  C237  1  0.61727000  0.85393000  0.70221000  1.0 0.0586787765
C  C238  1  0.39607000  0.63273000  0.54779000  1.0 0.0586787765
C  C239  1  0.82659000  0.61727000  0.70221000  1.0 0.0586787765
C  C240  1  0.61727000  0.70221000  0.82659000  1.0 0.0586787765
C  C241  1  0.31114000  0.91746000  0.08208000  1.0 0.0791283669
C  C242  1  0.93886000  0.33254000  0.56068000  1.0 0.0791283669
C  C243  1  0.33254000  0.56068000  0.93886000  1.0 0.0791283669
C  C244  1  0.56068000  0.93886000  0.33254000  1.0 0.0791283669
C  C245  1  0.33254000  0.16792000  0.56068000  1.0 0.0791283669
C  C246  1  0.91746000  0.68932000  0.08208000  1.0 0.0791283669
C  C247  1  0.16792000  0.93886000  0.56068000  1.0 0.0791283669
C  C248  1  0.68932000  0.31114000  0.08208000  1.0 0.0791283669
C  C249  1  0.16792000  0.56068000  0.33254000  1.0 0.0791283669
C  C250  1  0.68932000  0.08208000  0.91746000  1.0 0.0791283669
C  C251  1  0.91746000  0.31114000  0.68932000  1.0 0.0791283669
C  C252  1  0.33254000  0.93886000  0.16792000  1.0 0.0791283669
C  C253  1  0.16792000  0.33254000  0.93886000  1.0 0.0791283669
C  C254  1  0.68932000  0.91746000  0.31114000  1.0 0.0791283669
C  C255  1  0.93886000  0.16792000  0.33254000  1.0 0.0791283669
C  C256  1  0.31114000  0.68932000  0.91746000  1.0 0.0791283669
C  C257  1  0.31114000  0.08208000  0.68932000  1.0 0.0791283669
C  C258  1  0.08208000  0.91746000  0.68932000  1.0 0.0791283669
C  C259  1  0.56068000  0.33254000  0.16792000  1.0 0.0791283669
C  C260  1  0.93886000  0.56068000  0.16792000  1.0 0.0791283669
C  C261  1  0.08208000  0.68932000  0.31114000  1.0 0.0791283669
C  C262  1  0.56068000  0.16792000  0.93886000  1.0 0.0791283669
C  C263  1  0.91746000  0.08208000  0.31114000  1.0 0.0791283669
C  C264  1  0.08208000  0.31114000  0.91746000  1.0 0.0791283669
C  C265  1  0.43886000  0.83254000  0.66792000  1.0 0.0791283669
C  C266  1  0.81114000  0.41746000  0.18932000  1.0 0.0791283669
C  C267  1  0.41746000  0.18932000  0.81114000  1.0 0.0791283669
C  C268  1  0.18932000  0.81114000  0.41746000  1.0 0.0791283669
C  C269  1  0.41746000  0.58208000  0.18932000  1.0 0.0791283669
C  C270  1  0.83254000  0.06068000  0.66792000  1.0 0.0791283669
C  C271  1  0.58208000  0.81114000  0.18932000  1.0 0.0791283669
C  C272  1  0.06068000  0.43886000  0.66792000  1.0 0.0791283669
C  C273  1  0.58208000  0.18932000  0.41746000  1.0 0.0791283669
C  C274  1  0.06068000  0.66792000  0.83254000  1.0 0.0791283669
C  C275  1  0.83254000  0.43886000  0.06068000  1.0 0.0791283669
C  C276  1  0.41746000  0.81114000  0.58208000  1.0 0.0791283669
C  C277  1  0.58208000  0.41746000  0.81114000  1.0 0.0791283669
C  C278  1  0.06068000  0.83254000  0.43886000  1.0 0.0791283669
C  C279  1  0.81114000  0.58208000  0.41746000  1.0 0.0791283669
C  C280  1  0.43886000  0.06068000  0.83254000  1.0 0.0791283669
C  C281  1  0.43886000  0.66792000  0.06068000  1.0 0.0791283669
C  C282  1  0.66792000  0.83254000  0.06068000  1.0 0.0791283669
C  C283  1  0.18932000  0.41746000  0.58208000  1.0 0.0791283669
C  C284  1  0.81114000  0.18932000  0.58208000  1.0 0.0791283669
C  C285  1  0.66792000  0.06068000  0.43886000  1.0 0.0791283669
C  C286  1  0.18932000  0.58208000  0.81114000  1.0 0.0791283669
C  C287  1  0.83254000  0.66792000  0.43886000  1.0 0.0791283669
C  C288  1  0.66792000  0.43886000  0.83254000  1.0 0.0791283669
C  C289  1  0.22161000  0.90629000  0.17675000  1.0 0.3716182369
C  C290  1  0.02839000  0.34371000  0.55465000  1.0 0.3811106416
C  C291  1  0.34371000  0.55465000  0.02839000  1.0 0.3716182369
C  C292  1  0.55465000  0.02839000  0.34371000  1.0 0.3716182369
C  C293  1  0.34371000  0.07325000  0.55465000  1.0 0.3716182369
C  C294  1  0.90629000  0.69535000  0.17675000  1.0 0.3716182369
C  C295  1  0.07325000  0.02839000  0.55465000  1.0 0.3716182369
C  C296  1  0.69535000  0.22161000  0.17675000  1.0 0.3716182369
C  C297  1  0.07325000  0.55465000  0.34371000  1.0 0.3716182369
C  C298  1  0.69535000  0.17675000  0.90629000  1.0 0.3716182369
C  C299  1  0.90629000  0.22161000  0.69535000  1.0 0.3716182369
C  C300  1  0.34371000  0.02839000  0.07325000  1.0 0.3716182369
C  C301  1  0.07325000  0.34371000  0.02839000  1.0 0.3716182369
C  C302  1  0.69535000  0.90629000  0.22161000  1.0 0.3716182369
C  C303  1  0.02839000  0.07325000  0.34371000  1.0 0.3811106416
C  C304  1  0.22161000  0.69535000  0.90629000  1.0 0.3716182369
C  C305  1  0.22161000  0.17675000  0.69535000  1.0 0.3716182369
C  C306  1  0.17675000  0.90629000  0.69535000  1.0 0.3716182369
C  C307  1  0.55465000  0.34371000  0.07325000  1.0 0.3716182369
C  C308  1  0.02839000  0.55465000  0.07325000  1.0 0.3716182369
C  C309  1  0.17675000  0.69535000  0.22161000  1.0 0.3716182369
C  C310  1  0.55465000  0.07325000  0.02839000  1.0 0.3716182369
C  C311  1  0.90629000  0.17675000  0.22161000  1.0 0.3716182369
C  C312  1  0.17675000  0.22161000  0.90629000  1.0 0.3716182369
C  C313  1  0.52839000  0.84371000  0.57325000  1.0 0.3716182369
C  C314  1  0.72161000  0.40629000  0.19535000  1.0 0.3716182369
C  C315  1  0.40629000  0.19535000  0.72161000  1.0 0.3716182369
C  C316  1  0.19535000  0.72161000  0.40629000  1.0 0.3716182369
C  C317  1  0.40629000  0.67675000  0.19535000  1.0 0.3716182369
C  C318  1  0.84371000  0.05465000  0.57325000  1.0 0.3716182369
C  C319  1  0.67675000  0.72161000  0.19535000  1.0 0.3716182369
C  C320  1  0.05465000  0.52839000  0.57325000  1.0 0.3716182369
C  C321  1  0.67675000  0.19535000  0.40629000  1.0 0.3716182369
C  C322  1  0.05465000  0.57325000  0.84371000  1.0 0.3716182369
C  C323  1  0.84371000  0.52839000  0.05465000  1.0 0.3716182369
C  C324  1  0.40629000  0.72161000  0.67675000  1.0 0.3716182369
C  C325  1  0.67675000  0.40629000  0.72161000  1.0 0.3716182369
C  C326  1  0.05465000  0.84371000  0.52839000  1.0 0.3716182369
C  C327  1  0.72161000  0.67675000  0.40629000  1.0 0.3716182369
C  C328  1  0.52839000  0.05465000  0.84371000  1.0 0.3716182369
C  C329  1  0.52839000  0.57325000  0.05465000  1.0 0.3716182369
C  C330  1  0.57325000  0.84371000  0.05465000  1.0 0.3716182369
C  C331  1  0.19535000  0.40629000  0.67675000  1.0 0.3716182369
C  C332  1  0.72161000  0.19535000  0.67675000  1.0 0.3716182369
C  C333  1  0.57325000  0.05465000  0.52839000  1.0 0.3716182369
C  C334  1  0.19535000  0.67675000  0.72161000  1.0 0.3716182369
C  C335  1  0.84371000  0.57325000  0.52839000  1.0 0.3716182369
C  C336  1  0.57325000  0.52839000  0.84371000  1.0 0.3716182369
C  C337  1  0.01634000  0.95218000  0.13808000  1.0 -0.0237794115
C  C338  1  0.23366000  0.29782000  0.35660000  1.0 -0.0237794115
C  C339  1  0.29782000  0.35660000  0.23366000  1.0 -0.0237794115
C  C340  1  0.35660000  0.23366000  0.29782000  1.0 -0.0237794115
C  C341  1  0.29782000  0.11192000  0.35660000  1.0 -0.0237794115
C  C342  1  0.95218000  0.89340000  0.13808000  1.0 -0.0237794115
C  C343  1  0.11192000  0.23366000  0.35660000  1.0 -0.0237794115
C  C344  1  0.89340000  0.01634000  0.13808000  1.0 -0.0237794115
C  C345  1  0.11192000  0.35660000  0.29782000  1.0 -0.02964283
C  C346  1  0.89340000  0.13808000  0.95218000  1.0 -0.0237794115
C  C347  1  0.95218000  0.01634000  0.89340000  1.0 -0.0237794115
C  C348  1  0.29782000  0.23366000  0.11192000  1.0 -0.0237794115
C  C349  1  0.11192000  0.29782000  0.23366000  1.0 -0.0237794115
C  C350  1  0.89340000  0.95218000  0.01634000  1.0 -0.02964283
C  C351  1  0.23366000  0.11192000  0.29782000  1.0 -0.02964283
C  C352  1  0.01634000  0.89340000  0.95218000  1.0 -0.0237794115
C  C353  1  0.01634000  0.13808000  0.89340000  1.0 -0.0237794115
C  C354  1  0.13808000  0.95218000  0.89340000  1.0 -0.0237794115
C  C355  1  0.35660000  0.29782000  0.11192000  1.0 -0.0237794115
C  C356  1  0.23366000  0.35660000  0.11192000  1.0 -0.0237794115
C  C357  1  0.13808000  0.89340000  0.01634000  1.0 -0.0237794115
C  C358  1  0.35660000  0.11192000  0.23366000  1.0 -0.0237794115
C  C359  1  0.95218000  0.13808000  0.01634000  1.0 -0.02964283
C  C360  1  0.13808000  0.01634000  0.95218000  1.0 -0.0237794115
C  C361  1  0.73366000  0.79782000  0.61192000  1.0 -0.02964283
C  C362  1  0.51634000  0.45218000  0.39340000  1.0 -0.0237794115
C  C363  1  0.45218000  0.39340000  0.51634000  1.0 -0.0237794115
C  C364  1  0.39340000  0.51634000  0.45218000  1.0 -0.0237794115
C  C365  1  0.45218000  0.63808000  0.39340000  1.0 -0.0237794115
C  C366  1  0.79782000  0.85660000  0.61192000  1.0 -0.0237794115
C  C367  1  0.63808000  0.51634000  0.39340000  1.0 -0.0237794115
C  C368  1  0.85660000  0.73366000  0.61192000  1.0 -0.02964283
C  C369  1  0.63808000  0.39340000  0.45218000  1.0 -0.0237794115
C  C370  1  0.85660000  0.61192000  0.79782000  1.0 -0.0237794115
C  C371  1  0.79782000  0.73366000  0.85660000  1.0 -0.0237794115
C  C372  1  0.45218000  0.51634000  0.63808000  1.0 -0.0237794115
C  C373  1  0.63808000  0.45218000  0.51634000  1.0 -0.0237794115
C  C374  1  0.85660000  0.79782000  0.73366000  1.0 -0.0237794115
C  C375  1  0.51634000  0.63808000  0.45218000  1.0 -0.0237794115
C  C376  1  0.73366000  0.85660000  0.79782000  1.0 -0.0237794115
C  C377  1  0.73366000  0.61192000  0.85660000  1.0 -0.0237794115
C  C378  1  0.61192000  0.79782000  0.85660000  1.0 -0.0237794115
C  C379  1  0.39340000  0.45218000  0.63808000  1.0 -0.02964283
C  C380  1  0.51634000  0.39340000  0.63808000  1.0 -0.0237794115
C  C381  1  0.61192000  0.85660000  0.73366000  1.0 -0.0237794115
C  C382  1  0.39340000  0.63808000  0.51634000  1.0 -0.0237794115
C  C383  1  0.79782000  0.61192000  0.73366000  1.0 -0.0237794115
C  C384  1  0.61192000  0.73366000  0.79782000  1.0 -0.0237794115
C  C385  1  0.98285000  0.95311000  0.13899000  1.0 0.3716182369
C  C386  1  0.26715000  0.29689000  0.32495000  1.0 0.3716182369
C  C387  1  0.29689000  0.32495000  0.26715000  1.0 0.3716182369
C  C388  1  0.32495000  0.26715000  0.29689000  1.0 0.3716182369
C  C389  1  0.29689000  0.11101000  0.32495000  1.0 0.3811106416
C  C390  1  0.95311000  0.92505000  0.13899000  1.0 0.3716182369
C  C391  1  0.11101000  0.26715000  0.32495000  1.0 0.3811106416
C  C392  1  0.92505000  0.98285000  0.13899000  1.0 0.3716182369
C  C393  1  0.11101000  0.32495000  0.29689000  1.0 0.3811106416
C  C394  1  0.92505000  0.13899000  0.95311000  1.0 0.3716182369
C  C395  1  0.95311000  0.98285000  0.92505000  1.0 0.3716182369
C  C396  1  0.29689000  0.26715000  0.11101000  1.0 0.3716182369
C  C397  1  0.11101000  0.29689000  0.26715000  1.0 0.3716182369
C  C398  1  0.92505000  0.95311000  0.98285000  1.0 0.3811106416
C  C399  1  0.26715000  0.11101000  0.29689000  1.0 0.3811106416
C  C400  1  0.98285000  0.92505000  0.95311000  1.0 0.3716182369
C  C401  1  0.98285000  0.13899000  0.92505000  1.0 0.3716182369
C  C402  1  0.13899000  0.95311000  0.92505000  1.0 0.3716182369
C  C403  1  0.32495000  0.29689000  0.11101000  1.0 0.3716182369
C  C404  1  0.26715000  0.32495000  0.11101000  1.0 0.3716182369
C  C405  1  0.13899000  0.92505000  0.98285000  1.0 0.3716182369
C  C406  1  0.32495000  0.11101000  0.26715000  1.0 0.3811106416
C  C407  1  0.95311000  0.13899000  0.98285000  1.0 0.3811106416
C  C408  1  0.13899000  0.98285000  0.95311000  1.0 0.3716182369
C  C409  1  0.76715000  0.79689000  0.61101000  1.0 0.3811106416
C  C410  1  0.48285000  0.45311000  0.42505000  1.0 0.3716182369
C  C411  1  0.45311000  0.42505000  0.48285000  1.0 0.3716182369
C  C412  1  0.42505000  0.48285000  0.45311000  1.0 0.3716182369
C  C413  1  0.45311000  0.63899000  0.42505000  1.0 0.3811106416
C  C414  1  0.79689000  0.82495000  0.61101000  1.0 0.3716182369
C  C415  1  0.63899000  0.48285000  0.42505000  1.0 0.3716182369
C  C416  1  0.82495000  0.76715000  0.61101000  1.0 0.3811106416
C  C417  1  0.63899000  0.42505000  0.45311000  1.0 0.3716182369
C  C418  1  0.82495000  0.61101000  0.79689000  1.0 0.3716182369
C  C419  1  0.79689000  0.76715000  0.82495000  1.0 0.3716182369
C  C420  1  0.45311000  0.48285000  0.63899000  1.0 0.3811106416
C  C421  1  0.63899000  0.45311000  0.48285000  1.0 0.3716182369
C  C422  1  0.82495000  0.79689000  0.76715000  1.0 0.3811106416
C  C423  1  0.48285000  0.63899000  0.45311000  1.0 0.3716182369
C  C424  1  0.76715000  0.82495000  0.79689000  1.0 0.3716182369
C  C425  1  0.76715000  0.61101000  0.82495000  1.0 0.3811106416
C  C426  1  0.61101000  0.79689000  0.82495000  1.0 0.3716182369
C  C427  1  0.42505000  0.45311000  0.63899000  1.0 0.3811106416
C  C428  1  0.48285000  0.42505000  0.63899000  1.0 0.3716182369
C  C429  1  0.61101000  0.82495000  0.76715000  1.0 0.3716182369
C  C430  1  0.42505000  0.63899000  0.48285000  1.0 0.3716182369
C  C431  1  0.79689000  0.61101000  0.76715000  1.0 0.3716182369
C  C432  1  0.61101000  0.76715000  0.79689000  1.0 0.3716182369
C  C433  1  0.25132000  0.91326000  0.14210000  1.0 -0.0237794115
C  C434  1  0.99868000  0.33674000  0.55668000  1.0 -0.0237794115
C  C435  1  0.33674000  0.55668000  0.99868000  1.0 -0.0237794115
C  C436  1  0.55668000  0.99868000  0.33674000  1.0 -0.0237794115
C  C437  1  0.33674000  0.10790000  0.55668000  1.0 -0.0237794115
C  C438  1  0.91326000  0.69332000  0.14210000  1.0 -0.0237794115
C  C439  1  0.10790000  0.99868000  0.55668000  1.0 -0.0237794115
C  C440  1  0.69332000  0.25132000  0.14210000  1.0 -0.0237794115
C  C441  1  0.10790000  0.55668000  0.33674000  1.0 -0.0237794115
C  C442  1  0.69332000  0.14210000  0.91326000  1.0 -0.0237794115
C  C443  1  0.91326000  0.25132000  0.69332000  1.0 -0.0237794115
C  C444  1  0.33674000  0.99868000  0.10790000  1.0 -0.0237794115
C  C445  1  0.10790000  0.33674000  0.99868000  1.0 -0.0237794115
C  C446  1  0.69332000  0.91326000  0.25132000  1.0 -0.0237794115
C  C447  1  0.99868000  0.10790000  0.33674000  1.0 -0.0237794115
C  C448  1  0.25132000  0.69332000  0.91326000  1.0 -0.0237794115
C  C449  1  0.25132000  0.14210000  0.69332000  1.0 -0.0237794115
C  C450  1  0.14210000  0.91326000  0.69332000  1.0 -0.0237794115
C  C451  1  0.55668000  0.33674000  0.10790000  1.0 -0.0237794115
C  C452  1  0.99868000  0.55668000  0.10790000  1.0 -0.0237794115
C  C453  1  0.14210000  0.69332000  0.25132000  1.0 -0.0237794115
C  C454  1  0.55668000  0.10790000  0.99868000  1.0 -0.0237794115
C  C455  1  0.91326000  0.14210000  0.25132000  1.0 -0.0237794115
C  C456  1  0.14210000  0.25132000  0.91326000  1.0 -0.0237794115
C  C457  1  0.49868000  0.83674000  0.60790000  1.0 -0.0237794115
C  C458  1  0.75132000  0.41326000  0.19332000  1.0 -0.0237794115
C  C459  1  0.41326000  0.19332000  0.75132000  1.0 -0.0237794115
C  C460  1  0.19332000  0.75132000  0.41326000  1.0 -0.0237794115
C  C461  1  0.41326000  0.64210000  0.19332000  1.0 -0.0237794115
C  C462  1  0.83674000  0.05668000  0.60790000  1.0 -0.0237794115
C  C463  1  0.64210000  0.75132000  0.19332000  1.0 -0.0237794115
C  C464  1  0.05668000  0.49868000  0.60790000  1.0 -0.0237794115
C  C465  1  0.64210000  0.19332000  0.41326000  1.0 -0.0237794115
C  C466  1  0.05668000  0.60790000  0.83674000  1.0 -0.0237794115
C  C467  1  0.83674000  0.49868000  0.05668000  1.0 -0.0237794115
C  C468  1  0.41326000  0.75132000  0.64210000  1.0 -0.0237794115
C  C469  1  0.64210000  0.41326000  0.75132000  1.0 -0.0237794115
C  C470  1  0.05668000  0.83674000  0.49868000  1.0 -0.0237794115
C  C471  1  0.75132000  0.64210000  0.41326000  1.0 -0.0237794115
C  C472  1  0.49868000  0.05668000  0.83674000  1.0 -0.0237794115
C  C473  1  0.49868000  0.60790000  0.05668000  1.0 -0.0237794115
C  C474  1  0.60790000  0.83674000  0.05668000  1.0 -0.0237794115
C  C475  1  0.19332000  0.41326000  0.64210000  1.0 -0.0237794115
C  C476  1  0.75132000  0.19332000  0.64210000  1.0 -0.0237794115
C  C477  1  0.60790000  0.05668000  0.49868000  1.0 -0.0237794115
C  C478  1  0.19332000  0.64210000  0.75132000  1.0 -0.0237794115
C  C479  1  0.83674000  0.60790000  0.49868000  1.0 -0.0237794115
C  C480  1  0.60790000  0.49868000  0.83674000  1.0 -0.0237794115
C  C481  1  0.22576000  0.89742000  0.27134000  1.0 -0.0537873901
C  C482  1  0.02424000  0.35258000  0.64452000  1.0 -0.0537873901
C  C483  1  0.35258000  0.64452000  0.02424000  1.0 -0.0537873901
C  C484  1  0.64452000  0.02424000  0.35258000  1.0 -0.0537873901
C  C485  1  0.35258000  0.97866000  0.64452000  1.0 -0.0537873901
C  C486  1  0.89742000  0.60548000  0.27134000  1.0 -0.0537873901
C  C487  1  0.97866000  0.02424000  0.64452000  1.0 -0.0537873901
C  C488  1  0.60548000  0.22576000  0.27134000  1.0 -0.0537873901
C  C489  1  0.97866000  0.64452000  0.35258000  1.0 -0.0537873901
C  C490  1  0.60548000  0.27134000  0.89742000  1.0 -0.0537873901
C  C491  1  0.89742000  0.22576000  0.60548000  1.0 -0.0537873901
C  C492  1  0.35258000  0.02424000  0.97866000  1.0 -0.0537873901
C  C493  1  0.97866000  0.35258000  0.02424000  1.0 -0.0554362989
C  C494  1  0.60548000  0.89742000  0.22576000  1.0 -0.0537873901
C  C495  1  0.02424000  0.97866000  0.35258000  1.0 -0.0537873901
C  C496  1  0.22576000  0.60548000  0.89742000  1.0 -0.0537873901
C  C497  1  0.22576000  0.27134000  0.60548000  1.0 -0.0537873901
C  C498  1  0.27134000  0.89742000  0.60548000  1.0 -0.0537873901
C  C499  1  0.64452000  0.35258000  0.97866000  1.0 -0.0537873901
C  C500  1  0.02424000  0.64452000  0.97866000  1.0 -0.0537873901
C  C501  1  0.27134000  0.60548000  0.22576000  1.0 -0.0537873901
C  C502  1  0.64452000  0.97866000  0.02424000  1.0 -0.0537873901
C  C503  1  0.89742000  0.27134000  0.22576000  1.0 -0.0537873901
C  C504  1  0.27134000  0.22576000  0.89742000  1.0 -0.0537873901
C  C505  1  0.52424000  0.85258000  0.47866000  1.0 -0.0537873901
C  C506  1  0.72576000  0.39742000  0.10548000  1.0 -0.0537873901
C  C507  1  0.39742000  0.10548000  0.72576000  1.0 -0.0537873901
C  C508  1  0.10548000  0.72576000  0.39742000  1.0 -0.0537873901
C  C509  1  0.39742000  0.77134000  0.10548000  1.0 -0.0554362989
C  C510  1  0.85258000  0.14452000  0.47866000  1.0 -0.0537873901
C  C511  1  0.77134000  0.72576000  0.10548000  1.0 -0.0554362989
C  C512  1  0.14452000  0.52424000  0.47866000  1.0 -0.0537873901
C  C513  1  0.77134000  0.10548000  0.39742000  1.0 -0.0554362989
C  C514  1  0.14452000  0.47866000  0.85258000  1.0 -0.0537873901
C  C515  1  0.85258000  0.52424000  0.14452000  1.0 -0.0537873901
C  C516  1  0.39742000  0.72576000  0.77134000  1.0 -0.0537873901
C  C517  1  0.77134000  0.39742000  0.72576000  1.0 -0.0554362989
C  C518  1  0.14452000  0.85258000  0.52424000  1.0 -0.0537873901
C  C519  1  0.72576000  0.77134000  0.39742000  1.0 -0.0554362989
C  C520  1  0.52424000  0.14452000  0.85258000  1.0 -0.0537873901
C  C521  1  0.52424000  0.47866000  0.14452000  1.0 -0.0554362989
C  C522  1  0.47866000  0.85258000  0.14452000  1.0 -0.0537873901
C  C523  1  0.10548000  0.39742000  0.77134000  1.0 -0.0554362989
C  C524  1  0.72576000  0.10548000  0.77134000  1.0 -0.0537873901
C  C525  1  0.47866000  0.14452000  0.52424000  1.0 -0.0537873901
C  C526  1  0.10548000  0.77134000  0.72576000  1.0 -0.0537873901
C  C527  1  0.85258000  0.47866000  0.52424000  1.0 -0.0537873901
C  C528  1  0.47866000  0.52424000  0.85258000  1.0 -0.0554362989
C  C529  1  0.10476000  0.83338000  0.35008000  1.0 0.2447822554
C  C530  1  0.14524000  0.41662000  0.53822000  1.0 0.2447822554
C  C531  1  0.41662000  0.53822000  0.14524000  1.0 0.2447822554
C  C532  1  0.53822000  0.14524000  0.41662000  1.0 0.2447822554
C  C533  1  0.41662000  0.89992000  0.53822000  1.0 0.2447822554
C  C534  1  0.83338000  0.71178000  0.35008000  1.0 0.2447822554
C  C535  1  0.89992000  0.14524000  0.53822000  1.0 0.2447822554
C  C536  1  0.71178000  0.10476000  0.35008000  1.0 0.2447822554
C  C537  1  0.89992000  0.53822000  0.41662000  1.0 0.2447822554
C  C538  1  0.71178000  0.35008000  0.83338000  1.0 0.2447822554
C  C539  1  0.83338000  0.10476000  0.71178000  1.0 0.2447822554
C  C540  1  0.41662000  0.14524000  0.89992000  1.0 0.2447822554
C  C541  1  0.89992000  0.41662000  0.14524000  1.0 0.2514913831
C  C542  1  0.71178000  0.83338000  0.10476000  1.0 0.2447822554
C  C543  1  0.14524000  0.89992000  0.41662000  1.0 0.2447822554
C  C544  1  0.10476000  0.71178000  0.83338000  1.0 0.2447822554
C  C545  1  0.10476000  0.35008000  0.71178000  1.0 0.2447822554
C  C546  1  0.35008000  0.83338000  0.71178000  1.0 0.2447822554
C  C547  1  0.53822000  0.41662000  0.89992000  1.0 0.2447822554
C  C548  1  0.14524000  0.53822000  0.89992000  1.0 0.2447822554
C  C549  1  0.35008000  0.71178000  0.10476000  1.0 0.2447822554
C  C550  1  0.53822000  0.89992000  0.14524000  1.0 0.2447822554
C  C551  1  0.83338000  0.35008000  0.10476000  1.0 0.2447822554
C  C552  1  0.35008000  0.10476000  0.83338000  1.0 0.2447822554
C  C553  1  0.64524000  0.91662000  0.39992000  1.0 0.2447822554
C  C554  1  0.60476000  0.33338000  0.21178000  1.0 0.2447822554
C  C555  1  0.33338000  0.21178000  0.60476000  1.0 0.2514913831
C  C556  1  0.21178000  0.60476000  0.33338000  1.0 0.2447822554
C  C557  1  0.33338000  0.85008000  0.21178000  1.0 0.2447822554
C  C558  1  0.91662000  0.03822000  0.39992000  1.0 0.2514913831
C  C559  1  0.85008000  0.60476000  0.21178000  1.0 0.2447822554
C  C560  1  0.03822000  0.64524000  0.39992000  1.0 0.2447822554
C  C561  1  0.85008000  0.21178000  0.33338000  1.0 0.2514913831
C  C562  1  0.03822000  0.39992000  0.91662000  1.0 0.2447822554
C  C563  1  0.91662000  0.64524000  0.03822000  1.0 0.2447822554
C  C564  1  0.33338000  0.60476000  0.85008000  1.0 0.2514913831
C  C565  1  0.85008000  0.33338000  0.60476000  1.0 0.2447822554
C  C566  1  0.03822000  0.91662000  0.64524000  1.0 0.2447822554
C  C567  1  0.60476000  0.85008000  0.33338000  1.0 0.2514913831
C  C568  1  0.64524000  0.03822000  0.91662000  1.0 0.2447822554
C  C569  1  0.64524000  0.39992000  0.03822000  1.0 0.2447822554
C  C570  1  0.39992000  0.91662000  0.03822000  1.0 0.2447822554
C  C571  1  0.21178000  0.33338000  0.85008000  1.0 0.2447822554
C  C572  1  0.60476000  0.21178000  0.85008000  1.0 0.2447822554
C  C573  1  0.39992000  0.03822000  0.64524000  1.0 0.2447822554
C  C574  1  0.21178000  0.85008000  0.60476000  1.0 0.2447822554
C  C575  1  0.91662000  0.39992000  0.64524000  1.0 0.2514913831
C  C576  1  0.39992000  0.64524000  0.91662000  1.0 0.2447822554
C  C577  1  0.24783000  0.92535000  0.10827000  1.0 -0.0554362989
C  C578  1  0.00217000  0.32465000  0.53145000  1.0 -0.0554362989
C  C579  1  0.32465000  0.53145000  0.00217000  1.0 -0.0554362989
C  C580  1  0.53145000  0.00217000  0.32465000  1.0 -0.0554362989
C  C581  1  0.32465000  0.14173000  0.53145000  1.0 -0.0554362989
C  C582  1  0.92535000  0.71855000  0.10827000  1.0 -0.0554362989
C  C583  1  0.14173000  0.00217000  0.53145000  1.0 -0.0554362989
C  C584  1  0.71855000  0.24783000  0.10827000  1.0 -0.0554362989
C  C585  1  0.14173000  0.53145000  0.32465000  1.0 -0.0554362989
C  C586  1  0.71855000  0.10827000  0.92535000  1.0 -0.0554362989
C  C587  1  0.92535000  0.24783000  0.71855000  1.0 -0.0554362989
C  C588  1  0.32465000  0.00217000  0.14173000  1.0 -0.0554362989
C  C589  1  0.14173000  0.32465000  0.00217000  1.0 -0.0554362989
C  C590  1  0.71855000  0.92535000  0.24783000  1.0 -0.0554362989
C  C591  1  0.00217000  0.14173000  0.32465000  1.0 -0.0554362989
C  C592  1  0.24783000  0.71855000  0.92535000  1.0 -0.0554362989
C  C593  1  0.24783000  0.10827000  0.71855000  1.0 -0.0554362989
C  C594  1  0.10827000  0.92535000  0.71855000  1.0 -0.0554362989
C  C595  1  0.53145000  0.32465000  0.14173000  1.0 -0.0554362989
C  C596  1  0.00217000  0.53145000  0.14173000  1.0 -0.0554362989
C  C597  1  0.10827000  0.71855000  0.24783000  1.0 -0.0554362989
C  C598  1  0.53145000  0.14173000  0.00217000  1.0 -0.0554362989
C  C599  1  0.92535000  0.10827000  0.24783000  1.0 -0.0554362989
C  C600  1  0.10827000  0.24783000  0.92535000  1.0 -0.0554362989
C  C601  1  0.50217000  0.82465000  0.64173000  1.0 -0.0554362989
C  C602  1  0.74783000  0.42535000  0.21855000  1.0 -0.0554362989
C  C603  1  0.42535000  0.21855000  0.74783000  1.0 -0.0554362989
C  C604  1  0.21855000  0.74783000  0.42535000  1.0 -0.0554362989
C  C605  1  0.42535000  0.60827000  0.21855000  1.0 -0.0554362989
C  C606  1  0.82465000  0.03145000  0.64173000  1.0 -0.0554362989
C  C607  1  0.60827000  0.74783000  0.21855000  1.0 -0.0554362989
C  C608  1  0.03145000  0.50217000  0.64173000  1.0 -0.0554362989
C  C609  1  0.60827000  0.21855000  0.42535000  1.0 -0.0554362989
C  C610  1  0.03145000  0.64173000  0.82465000  1.0 -0.0554362989
C  C611  1  0.82465000  0.50217000  0.03145000  1.0 -0.0554362989
C  C612  1  0.42535000  0.74783000  0.60827000  1.0 -0.0554362989
C  C613  1  0.60827000  0.42535000  0.74783000  1.0 -0.0554362989
C  C614  1  0.03145000  0.82465000  0.50217000  1.0 -0.0554362989
C  C615  1  0.74783000  0.60827000  0.42535000  1.0 -0.0554362989
C  C616  1  0.50217000  0.03145000  0.82465000  1.0 -0.0554362989
C  C617  1  0.50217000  0.64173000  0.03145000  1.0 -0.0554362989
C  C618  1  0.64173000  0.82465000  0.03145000  1.0 -0.0554362989
C  C619  1  0.21855000  0.42535000  0.60827000  1.0 -0.0554362989
C  C620  1  0.74783000  0.21855000  0.60827000  1.0 -0.0554362989
C  C621  1  0.64173000  0.03145000  0.50217000  1.0 -0.0554362989
C  C622  1  0.21855000  0.60827000  0.74783000  1.0 -0.0554362989
C  C623  1  0.82465000  0.64173000  0.50217000  1.0 -0.0554362989
C  C624  1  0.64173000  0.50217000  0.82465000  1.0 -0.0554362989
C  C625  1  0.14667000  0.87783000  0.17995000  1.0 0.0586787765
C  C626  1  0.10333000  0.37217000  0.45445000  1.0 0.0586787765
C  C627  1  0.37217000  0.45445000  0.10333000  1.0 0.0586787765
C  C628  1  0.45445000  0.10333000  0.37217000  1.0 0.0586787765
C  C629  1  0.37217000  0.07005000  0.45445000  1.0 0.0586787765
C  C630  1  0.87783000  0.79555000  0.17995000  1.0 0.0586787765
C  C631  1  0.07005000  0.10333000  0.45445000  1.0 0.0586787765
C  C632  1  0.79555000  0.14667000  0.17995000  1.0 0.0586787765
C  C633  1  0.07005000  0.45445000  0.37217000  1.0 0.0586787765
C  C634  1  0.79555000  0.17995000  0.87783000  1.0 0.0586787765
C  C635  1  0.87783000  0.14667000  0.79555000  1.0 0.0586787765
C  C636  1  0.37217000  0.10333000  0.07005000  1.0 0.0586787765
C  C637  1  0.07005000  0.37217000  0.10333000  1.0 0.0586787765
C  C638  1  0.79555000  0.87783000  0.14667000  1.0 0.0586787765
C  C639  1  0.10333000  0.07005000  0.37217000  1.0 0.0586787765
C  C640  1  0.14667000  0.79555000  0.87783000  1.0 0.0586787765
C  C641  1  0.14667000  0.17995000  0.79555000  1.0 0.0586787765
C  C642  1  0.17995000  0.87783000  0.79555000  1.0 0.0586787765
C  C643  1  0.45445000  0.37217000  0.07005000  1.0 0.0586787765
C  C644  1  0.10333000  0.45445000  0.07005000  1.0 0.0586787765
C  C645  1  0.17995000  0.79555000  0.14667000  1.0 0.0586787765
C  C646  1  0.45445000  0.07005000  0.10333000  1.0 0.0586787765
C  C647  1  0.87783000  0.17995000  0.14667000  1.0 0.0586787765
C  C648  1  0.17995000  0.14667000  0.87783000  1.0 0.0586787765
C  C649  1  0.60333000  0.87217000  0.57005000  1.0 0.0586787765
C  C650  1  0.64667000  0.37783000  0.29555000  1.0 0.0586787765
C  C651  1  0.37783000  0.29555000  0.64667000  1.0 0.0586787765
C  C652  1  0.29555000  0.64667000  0.37783000  1.0 0.0586787765
C  C653  1  0.37783000  0.67995000  0.29555000  1.0 0.0586787765
C  C654  1  0.87217000  0.95445000  0.57005000  1.0 0.0586787765
C  C655  1  0.67995000  0.64667000  0.29555000  1.0 0.0586787765
C  C656  1  0.95445000  0.60333000  0.57005000  1.0 0.0586787765
C  C657  1  0.67995000  0.29555000  0.37783000  1.0 0.0586787765
C  C658  1  0.95445000  0.57005000  0.87217000  1.0 0.0586787765
C  C659  1  0.87217000  0.60333000  0.95445000  1.0 0.0586787765
C  C660  1  0.37783000  0.64667000  0.67995000  1.0 0.0586787765
C  C661  1  0.67995000  0.37783000  0.64667000  1.0 0.0586787765
C  C662  1  0.95445000  0.87217000  0.60333000  1.0 0.0586787765
C  C663  1  0.64667000  0.67995000  0.37783000  1.0 0.0586787765
C  C664  1  0.60333000  0.95445000  0.87217000  1.0 0.0586787765
C  C665  1  0.60333000  0.57005000  0.95445000  1.0 0.0586787765
C  C666  1  0.57005000  0.87217000  0.95445000  1.0 0.0586787765
C  C667  1  0.29555000  0.37783000  0.67995000  1.0 0.0586787765
C  C668  1  0.64667000  0.29555000  0.67995000  1.0 0.0586787765
C  C669  1  0.57005000  0.95445000  0.60333000  1.0 0.0586787765
C  C670  1  0.29555000  0.67995000  0.64667000  1.0 0.0586787765
C  C671  1  0.87217000  0.57005000  0.60333000  1.0 0.0586787765
C  C672  1  0.57005000  0.60333000  0.87217000  1.0 0.0586787765
C  C673  1  0.27854000  0.92776000  0.07774000  1.0 -0.1355951751
C  C674  1  0.97146000  0.32224000  0.53404000  1.0 -0.1355951751
C  C675  1  0.32224000  0.53404000  0.97146000  1.0 -0.1355951751
C  C676  1  0.53404000  0.97146000  0.32224000  1.0 -0.1355951751
C  C677  1  0.32224000  0.17226000  0.53404000  1.0 -0.1355951751
C  C678  1  0.92776000  0.71596000  0.07774000  1.0 -0.1355951751
C  C679  1  0.17226000  0.97146000  0.53404000  1.0 -0.1355951751
C  C680  1  0.71596000  0.27854000  0.07774000  1.0 -0.1355951751
C  C681  1  0.17226000  0.53404000  0.32224000  1.0 -0.1355951751
C  C682  1  0.71596000  0.07774000  0.92776000  1.0 -0.1355951751
C  C683  1  0.92776000  0.27854000  0.71596000  1.0 -0.1355951751
C  C684  1  0.32224000  0.97146000  0.17226000  1.0 -0.1355951751
C  C685  1  0.17226000  0.32224000  0.97146000  1.0 -0.1355951751
C  C686  1  0.71596000  0.92776000  0.27854000  1.0 -0.1355951751
C  C687  1  0.97146000  0.17226000  0.32224000  1.0 -0.1355951751
C  C688  1  0.27854000  0.71596000  0.92776000  1.0 -0.1355951751
C  C689  1  0.27854000  0.07774000  0.71596000  1.0 -0.1355951751
C  C690  1  0.07774000  0.92776000  0.71596000  1.0 -0.1355951751
C  C691  1  0.53404000  0.32224000  0.17226000  1.0 -0.1355951751
C  C692  1  0.97146000  0.53404000  0.17226000  1.0 -0.1355951751
C  C693  1  0.07774000  0.71596000  0.27854000  1.0 -0.1355951751
C  C694  1  0.53404000  0.17226000  0.97146000  1.0 -0.1355951751
C  C695  1  0.92776000  0.07774000  0.27854000  1.0 -0.1355951751
C  C696  1  0.07774000  0.27854000  0.92776000  1.0 -0.1355951751
C  C697  1  0.47146000  0.82224000  0.67226000  1.0 -0.1355951751
C  C698  1  0.77854000  0.42776000  0.21596000  1.0 -0.1355951751
C  C699  1  0.42776000  0.21596000  0.77854000  1.0 -0.1355951751
C  C700  1  0.21596000  0.77854000  0.42776000  1.0 -0.1355951751
C  C701  1  0.42776000  0.57774000  0.21596000  1.0 -0.1355951751
C  C702  1  0.82224000  0.03404000  0.67226000  1.0 -0.1355951751
C  C703  1  0.57774000  0.77854000  0.21596000  1.0 -0.1355951751
C  C704  1  0.03404000  0.47146000  0.67226000  1.0 -0.1355951751
C  C705  1  0.57774000  0.21596000  0.42776000  1.0 -0.1355951751
C  C706  1  0.03404000  0.67226000  0.82224000  1.0 -0.1355951751
C  C707  1  0.82224000  0.47146000  0.03404000  1.0 -0.1355951751
C  C708  1  0.42776000  0.77854000  0.57774000  1.0 -0.1355951751
C  C709  1  0.57774000  0.42776000  0.77854000  1.0 -0.1355951751
C  C710  1  0.03404000  0.82224000  0.47146000  1.0 -0.1355951751
C  C711  1  0.77854000  0.57774000  0.42776000  1.0 -0.1355951751
C  C712  1  0.47146000  0.03404000  0.82224000  1.0 -0.1355951751
C  C713  1  0.47146000  0.67226000  0.03404000  1.0 -0.1355951751
C  C714  1  0.67226000  0.82224000  0.03404000  1.0 -0.1355951751
C  C715  1  0.21596000  0.42776000  0.57774000  1.0 -0.1355951751
C  C716  1  0.77854000  0.21596000  0.57774000  1.0 -0.1355951751
C  C717  1  0.67226000  0.03404000  0.47146000  1.0 -0.1355951751
C  C718  1  0.21596000  0.57774000  0.77854000  1.0 -0.1355951751
C  C719  1  0.82224000  0.67226000  0.47146000  1.0 -0.1355951751
C  C720  1  0.67226000  0.47146000  0.82224000  1.0 -0.1355951751
C  C721  1  0.14409000  0.88019000  0.21115000  1.0 -0.02964283
C  C722  1  0.10591000  0.36981000  0.48543000  1.0 -0.02964283
C  C723  1  0.36981000  0.48543000  0.10591000  1.0 -0.02964283
C  C724  1  0.48543000  0.10591000  0.36981000  1.0 -0.02964283
C  C725  1  0.36981000  0.03885000  0.48543000  1.0 -0.02964283
C  C726  1  0.88019000  0.76457000  0.21115000  1.0 -0.02964283
C  C727  1  0.03885000  0.10591000  0.48543000  1.0 -0.02964283
C  C728  1  0.76457000  0.14409000  0.21115000  1.0 -0.02964283
C  C729  1  0.03885000  0.48543000  0.36981000  1.0 -0.02964283
C  C730  1  0.76457000  0.21115000  0.88019000  1.0 -0.02964283
C  C731  1  0.88019000  0.14409000  0.76457000  1.0 -0.02964283
C  C732  1  0.36981000  0.10591000  0.03885000  1.0 -0.02964283
C  C733  1  0.03885000  0.36981000  0.10591000  1.0 -0.02964283
C  C734  1  0.76457000  0.88019000  0.14409000  1.0 -0.02964283
C  C735  1  0.10591000  0.03885000  0.36981000  1.0 -0.02964283
C  C736  1  0.14409000  0.76457000  0.88019000  1.0 -0.02964283
C  C737  1  0.14409000  0.21115000  0.76457000  1.0 -0.02964283
C  C738  1  0.21115000  0.88019000  0.76457000  1.0 -0.02964283
C  C739  1  0.48543000  0.36981000  0.03885000  1.0 -0.02964283
C  C740  1  0.10591000  0.48543000  0.03885000  1.0 -0.02964283
C  C741  1  0.21115000  0.76457000  0.14409000  1.0 -0.02964283
C  C742  1  0.48543000  0.03885000  0.10591000  1.0 -0.02964283
C  C743  1  0.88019000  0.21115000  0.14409000  1.0 -0.02964283
C  C744  1  0.21115000  0.14409000  0.88019000  1.0 -0.02964283
C  C745  1  0.60591000  0.86981000  0.53885000  1.0 -0.02964283
C  C746  1  0.64409000  0.38019000  0.26457000  1.0 -0.02964283
C  C747  1  0.38019000  0.26457000  0.64409000  1.0 -0.02964283
C  C748  1  0.26457000  0.64409000  0.38019000  1.0 -0.02964283
C  C749  1  0.38019000  0.71115000  0.26457000  1.0 -0.02964283
C  C750  1  0.86981000  0.98543000  0.53885000  1.0 -0.02964283
C  C751  1  0.71115000  0.64409000  0.26457000  1.0 -0.02964283
C  C752  1  0.98543000  0.60591000  0.53885000  1.0 -0.02964283
C  C753  1  0.71115000  0.26457000  0.38019000  1.0 -0.02964283
C  C754  1  0.98543000  0.53885000  0.86981000  1.0 -0.02964283
C  C755  1  0.86981000  0.60591000  0.98543000  1.0 -0.02964283
C  C756  1  0.38019000  0.64409000  0.71115000  1.0 -0.02964283
C  C757  1  0.71115000  0.38019000  0.64409000  1.0 -0.02964283
C  C758  1  0.98543000  0.86981000  0.60591000  1.0 -0.02964283
C  C759  1  0.64409000  0.71115000  0.38019000  1.0 -0.02964283
C  C760  1  0.60591000  0.98543000  0.86981000  1.0 -0.02964283
C  C761  1  0.60591000  0.53885000  0.98543000  1.0 -0.02964283
C  C762  1  0.53885000  0.86981000  0.98543000  1.0 -0.02964283
C  C763  1  0.26457000  0.38019000  0.71115000  1.0 -0.02964283
C  C764  1  0.64409000  0.26457000  0.71115000  1.0 -0.02964283
C  C765  1  0.53885000  0.98543000  0.60591000  1.0 -0.02964283
C  C766  1  0.26457000  0.71115000  0.64409000  1.0 -0.02964283
C  C767  1  0.86981000  0.53885000  0.60591000  1.0 -0.02964283
C  C768  1  0.53885000  0.60591000  0.86981000  1.0 -0.02964283
C  C769  1  0.09589000  0.86083000  0.21001000  1.0 0.0791283669
C  C770  1  0.15411000  0.38917000  0.41673000  1.0 0.0791283669
C  C771  1  0.38917000  0.41673000  0.15411000  1.0 0.0791283669
C  C772  1  0.41673000  0.15411000  0.38917000  1.0 0.0791283669
C  C773  1  0.38917000  0.03999000  0.41673000  1.0 0.0791283669
C  C774  1  0.86083000  0.83327000  0.21001000  1.0 0.0791283669
C  C775  1  0.03999000  0.15411000  0.41673000  1.0 0.0791283669
C  C776  1  0.83327000  0.09589000  0.21001000  1.0 0.0791283669
C  C777  1  0.03999000  0.41673000  0.38917000  1.0 0.0791283669
C  C778  1  0.83327000  0.21001000  0.86083000  1.0 0.0791283669
C  C779  1  0.86083000  0.09589000  0.83327000  1.0 0.0791283669
C  C780  1  0.38917000  0.15411000  0.03999000  1.0 0.0791283669
C  C781  1  0.03999000  0.38917000  0.15411000  1.0 0.0791283669
C  C782  1  0.83327000  0.86083000  0.09589000  1.0 0.0791283669
C  C783  1  0.15411000  0.03999000  0.38917000  1.0 0.0791283669
C  C784  1  0.09589000  0.83327000  0.86083000  1.0 0.0791283669
C  C785  1  0.09589000  0.21001000  0.83327000  1.0 0.0791283669
C  C786  1  0.21001000  0.86083000  0.83327000  1.0 0.0791283669
C  C787  1  0.41673000  0.38917000  0.03999000  1.0 0.0791283669
C  C788  1  0.15411000  0.41673000  0.03999000  1.0 0.0791283669
C  C789  1  0.21001000  0.83327000  0.09589000  1.0 0.0791283669
C  C790  1  0.41673000  0.03999000  0.15411000  1.0 0.0791283669
C  C791  1  0.86083000  0.21001000  0.09589000  1.0 0.0791283669
C  C792  1  0.21001000  0.09589000  0.86083000  1.0 0.0791283669
C  C793  1  0.65411000  0.88917000  0.53999000  1.0 0.0791283669
C  C794  1  0.59589000  0.36083000  0.33327000  1.0 0.0791283669
C  C795  1  0.36083000  0.33327000  0.59589000  1.0 0.0791283669
C  C796  1  0.33327000  0.59589000  0.36083000  1.0 0.0791283669
C  C797  1  0.36083000  0.71001000  0.33327000  1.0 0.0791283669
C  C798  1  0.88917000  0.91673000  0.53999000  1.0 0.0791283669
C  C799  1  0.71001000  0.59589000  0.33327000  1.0 0.0791283669
C  C800  1  0.91673000  0.65411000  0.53999000  1.0 0.0791283669
C  C801  1  0.71001000  0.33327000  0.36083000  1.0 0.0791283669
C  C802  1  0.91673000  0.53999000  0.88917000  1.0 0.0791283669
C  C803  1  0.88917000  0.65411000  0.91673000  1.0 0.0791283669
C  C804  1  0.36083000  0.59589000  0.71001000  1.0 0.0791283669
C  C805  1  0.71001000  0.36083000  0.59589000  1.0 0.0791283669
C  C806  1  0.91673000  0.88917000  0.65411000  1.0 0.0791283669
C  C807  1  0.59589000  0.71001000  0.36083000  1.0 0.0791283669
C  C808  1  0.65411000  0.91673000  0.88917000  1.0 0.0791283669
C  C809  1  0.65411000  0.53999000  0.91673000  1.0 0.0791283669
C  C810  1  0.53999000  0.88917000  0.91673000  1.0 0.0791283669
C  C811  1  0.33327000  0.36083000  0.71001000  1.0 0.0791283669
C  C812  1  0.59589000  0.33327000  0.71001000  1.0 0.0791283669
C  C813  1  0.53999000  0.91673000  0.65411000  1.0 0.0791283669
C  C814  1  0.33327000  0.71001000  0.59589000  1.0 0.0791283669
C  C815  1  0.88917000  0.53999000  0.65411000  1.0 0.0791283669
C  C816  1  0.53999000  0.65411000  0.88917000  1.0 0.0791283669
C  C817  1  0.17008000  0.92992000  0.07774000  1.0 0.2514913831
C  C818  1  0.07992000  0.32008000  0.42774000  1.0 0.2514913831
C  C819  1  0.32008000  0.42774000  0.07992000  1.0 0.2514913831
C  C820  1  0.42774000  0.07992000  0.32008000  1.0 0.2514913831
C  C821  1  0.32008000  0.17226000  0.42774000  1.0 0.2514913831
C  C822  1  0.92992000  0.82226000  0.07774000  1.0 0.2514913831
C  C823  1  0.17226000  0.07992000  0.42774000  1.0 0.2514913831
C  C824  1  0.82226000  0.17008000  0.07774000  1.0 0.2514913831
C  C825  1  0.17226000  0.42774000  0.32008000  1.0 0.2514913831
C  C826  1  0.82226000  0.07774000  0.92992000  1.0 0.2514913831
C  C827  1  0.92992000  0.17008000  0.82226000  1.0 0.2514913831
C  C828  1  0.32008000  0.07992000  0.17226000  1.0 0.2514913831
C  C829  1  0.17226000  0.32008000  0.07992000  1.0 0.2514913831
C  C830  1  0.82226000  0.92992000  0.17008000  1.0 0.2514913831
C  C831  1  0.07992000  0.17226000  0.32008000  1.0 0.2514913831
C  C832  1  0.17008000  0.82226000  0.92992000  1.0 0.2514913831
C  C833  1  0.17008000  0.07774000  0.82226000  1.0 0.2514913831
C  C834  1  0.07774000  0.92992000  0.82226000  1.0 0.2514913831
C  C835  1  0.42774000  0.32008000  0.17226000  1.0 0.2514913831
C  C836  1  0.07992000  0.42774000  0.17226000  1.0 0.2514913831
C  C837  1  0.07774000  0.82226000  0.17008000  1.0 0.2514913831
C  C838  1  0.42774000  0.17226000  0.07992000  1.0 0.2514913831
C  C839  1  0.92992000  0.07774000  0.17008000  1.0 0.2514913831
C  C840  1  0.07774000  0.17008000  0.92992000  1.0 0.2514913831
C  C841  1  0.57992000  0.82008000  0.67226000  1.0 0.2514913831
C  C842  1  0.67008000  0.42992000  0.32226000  1.0 0.2514913831
C  C843  1  0.42992000  0.32226000  0.67008000  1.0 0.2514913831
C  C844  1  0.32226000  0.67008000  0.42992000  1.0 0.2514913831
C  C845  1  0.42992000  0.57774000  0.32226000  1.0 0.2514913831
C  C846  1  0.82008000  0.92774000  0.67226000  1.0 0.2514913831
C  C847  1  0.57774000  0.67008000  0.32226000  1.0 0.2514913831
C  C848  1  0.92774000  0.57992000  0.67226000  1.0 0.2514913831
C  C849  1  0.57774000  0.32226000  0.42992000  1.0 0.2514913831
C  C850  1  0.92774000  0.67226000  0.82008000  1.0 0.2514913831
C  C851  1  0.82008000  0.57992000  0.92774000  1.0 0.2514913831
C  C852  1  0.42992000  0.67008000  0.57774000  1.0 0.2514913831
C  C853  1  0.57774000  0.42992000  0.67008000  1.0 0.2514913831
C  C854  1  0.92774000  0.82008000  0.57992000  1.0 0.2514913831
C  C855  1  0.67008000  0.57774000  0.42992000  1.0 0.2514913831
C  C856  1  0.57992000  0.92774000  0.82008000  1.0 0.2514913831
C  C857  1  0.57992000  0.67226000  0.92774000  1.0 0.2514913831
C  C858  1  0.67226000  0.82008000  0.92774000  1.0 0.2514913831
C  C859  1  0.32226000  0.42992000  0.57774000  1.0 0.2514913831
C  C860  1  0.67008000  0.32226000  0.57774000  1.0 0.2514913831
C  C861  1  0.67226000  0.92774000  0.57992000  1.0 0.2514913831
C  C862  1  0.32226000  0.57774000  0.67008000  1.0 0.2514913831
C  C863  1  0.82008000  0.67226000  0.57992000  1.0 0.2514913831
C  C864  1  0.67226000  0.57992000  0.82008000  1.0 0.2514913831
C  C865  1  0.22574000  0.89308000  0.30418000  1.0 -0.1355951751
C  C866  1  0.02426000  0.35692000  0.67300000  1.0 -0.1355951751
C  C867  1  0.35692000  0.67300000  0.02426000  1.0 -0.1355951751
C  C868  1  0.67300000  0.02426000  0.35692000  1.0 -0.1355951751
C  C869  1  0.35692000  0.94582000  0.67300000  1.0 -0.1355951751
C  C870  1  0.89308000  0.57700000  0.30418000  1.0 -0.1355951751
C  C871  1  0.94582000  0.02426000  0.67300000  1.0 -0.1355951751
C  C872  1  0.57700000  0.22574000  0.30418000  1.0 -0.1284728152
C  C873  1  0.94582000  0.67300000  0.35692000  1.0 -0.1284728152
C  C874  1  0.57700000  0.30418000  0.89308000  1.0 -0.1355951751
C  C875  1  0.89308000  0.22574000  0.57700000  1.0 -0.1355951751
C  C876  1  0.35692000  0.02426000  0.94582000  1.0 -0.1355951751
C  C877  1  0.94582000  0.35692000  0.02426000  1.0 -0.1284728152
C  C878  1  0.57700000  0.89308000  0.22574000  1.0 -0.1355951751
C  C879  1  0.02426000  0.94582000  0.35692000  1.0 -0.1355951751
C  C880  1  0.22574000  0.57700000  0.89308000  1.0 -0.1355951751
C  C881  1  0.22574000  0.30418000  0.57700000  1.0 -0.1355951751
C  C882  1  0.30418000  0.89308000  0.57700000  1.0 -0.1355951751
C  C883  1  0.67300000  0.35692000  0.94582000  1.0 -0.1355951751
C  C884  1  0.02426000  0.67300000  0.94582000  1.0 -0.1355951751
C  C885  1  0.30418000  0.57700000  0.22574000  1.0 -0.1355951751
C  C886  1  0.67300000  0.94582000  0.02426000  1.0 -0.1355951751
C  C887  1  0.89308000  0.30418000  0.22574000  1.0 -0.1284728152
C  C888  1  0.30418000  0.22574000  0.89308000  1.0 -0.1355951751
C  C889  1  0.52426000  0.85692000  0.44582000  1.0 -0.1355951751
C  C890  1  0.72574000  0.39308000  0.07700000  1.0 -0.1355951751
C  C891  1  0.39308000  0.07700000  0.72574000  1.0 -0.1355951751
C  C892  1  0.07700000  0.72574000  0.39308000  1.0 -0.1355951751
C  C893  1  0.39308000  0.80418000  0.07700000  1.0 -0.1355951751
C  C894  1  0.85692000  0.17300000  0.44582000  1.0 -0.1284728152
C  C895  1  0.80418000  0.72574000  0.07700000  1.0 -0.1355951751
C  C896  1  0.17300000  0.52426000  0.44582000  1.0 -0.1355951751
C  C897  1  0.80418000  0.07700000  0.39308000  1.0 -0.1284728152
C  C898  1  0.17300000  0.44582000  0.85692000  1.0 -0.1355951751
C  C899  1  0.85692000  0.52426000  0.17300000  1.0 -0.1355951751
C  C900  1  0.39308000  0.72574000  0.80418000  1.0 -0.1355951751
C  C901  1  0.80418000  0.39308000  0.72574000  1.0 -0.1284728152
C  C902  1  0.17300000  0.85692000  0.52426000  1.0 -0.1355951751
C  C903  1  0.72574000  0.80418000  0.39308000  1.0 -0.1355951751
C  C904  1  0.52426000  0.17300000  0.85692000  1.0 -0.1355951751
C  C905  1  0.52426000  0.44582000  0.17300000  1.0 -0.1355951751
C  C906  1  0.44582000  0.85692000  0.17300000  1.0 -0.1355951751
C  C907  1  0.07700000  0.39308000  0.80418000  1.0 -0.1355951751
C  C908  1  0.72574000  0.07700000  0.80418000  1.0 -0.1284728152
C  C909  1  0.44582000  0.17300000  0.52426000  1.0 -0.1355951751
C  C910  1  0.07700000  0.80418000  0.72574000  1.0 -0.1355951751
C  C911  1  0.85692000  0.44582000  0.52426000  1.0 -0.1355951751
C  C912  1  0.44582000  0.52426000  0.85692000  1.0 -0.1355951751
C  C913  1  0.09197000  0.86075000  0.24269000  1.0 -0.1284728152
C  C914  1  0.15803000  0.38925000  0.44541000  1.0 -0.1284728152
C  C915  1  0.38925000  0.44541000  0.15803000  1.0 -0.1284728152
C  C916  1  0.44541000  0.15803000  0.38925000  1.0 -0.1284728152
C  C917  1  0.38925000  0.00731000  0.44541000  1.0 -0.1284728152
C  C918  1  0.86075000  0.80459000  0.24269000  1.0 -0.1284728152
C  C919  1  0.00731000  0.15803000  0.44541000  1.0 -0.1284728152
C  C920  1  0.80459000  0.09197000  0.24269000  1.0 -0.1284728152
C  C921  1  0.00731000  0.44541000  0.38925000  1.0 -0.1284728152
C  C922  1  0.80459000  0.24269000  0.86075000  1.0 -0.1284728152
C  C923  1  0.86075000  0.09197000  0.80459000  1.0 -0.1284728152
C  C924  1  0.38925000  0.15803000  0.00731000  1.0 -0.1284728152
C  C925  1  0.00731000  0.38925000  0.15803000  1.0 -0.1284728152
C  C926  1  0.80459000  0.86075000  0.09197000  1.0 -0.1284728152
C  C927  1  0.15803000  0.00731000  0.38925000  1.0 -0.1284728152
C  C928  1  0.09197000  0.80459000  0.86075000  1.0 -0.1284728152
C  C929  1  0.09197000  0.24269000  0.80459000  1.0 -0.1284728152
C  C930  1  0.24269000  0.86075000  0.80459000  1.0 -0.1284728152
C  C931  1  0.44541000  0.38925000  0.00731000  1.0 -0.1284728152
C  C932  1  0.15803000  0.44541000  0.00731000  1.0 -0.1284728152
C  C933  1  0.24269000  0.80459000  0.09197000  1.0 -0.1284728152
C  C934  1  0.44541000  0.00731000  0.15803000  1.0 -0.1284728152
C  C935  1  0.86075000  0.24269000  0.09197000  1.0 -0.1284728152
C  C936  1  0.24269000  0.09197000  0.86075000  1.0 -0.1284728152
C  C937  1  0.65803000  0.88925000  0.50731000  1.0 -0.1284728152
C  C938  1  0.59197000  0.36075000  0.30459000  1.0 -0.1284728152
C  C939  1  0.36075000  0.30459000  0.59197000  1.0 -0.1284728152
C  C940  1  0.30459000  0.59197000  0.36075000  1.0 -0.1284728152
C  C941  1  0.36075000  0.74269000  0.30459000  1.0 -0.1284728152
C  C942  1  0.88925000  0.94541000  0.50731000  1.0 -0.1284728152
C  C943  1  0.74269000  0.59197000  0.30459000  1.0 -0.1284728152
C  C944  1  0.94541000  0.65803000  0.50731000  1.0 -0.1284728152
C  C945  1  0.74269000  0.30459000  0.36075000  1.0 -0.1284728152
C  C946  1  0.94541000  0.50731000  0.88925000  1.0 -0.1284728152
C  C947  1  0.88925000  0.65803000  0.94541000  1.0 -0.1284728152
C  C948  1  0.36075000  0.59197000  0.74269000  1.0 -0.1284728152
C  C949  1  0.74269000  0.36075000  0.59197000  1.0 -0.1284728152
C  C950  1  0.94541000  0.88925000  0.65803000  1.0 -0.1284728152
C  C951  1  0.59197000  0.74269000  0.36075000  1.0 -0.1284728152
C  C952  1  0.65803000  0.94541000  0.88925000  1.0 -0.1284728152
C  C953  1  0.65803000  0.50731000  0.94541000  1.0 -0.1284728152
C  C954  1  0.50731000  0.88925000  0.94541000  1.0 -0.1284728152
C  C955  1  0.30459000  0.36075000  0.74269000  1.0 -0.1284728152
C  C956  1  0.59197000  0.30459000  0.74269000  1.0 -0.1284728152
C  C957  1  0.50731000  0.94541000  0.65803000  1.0 -0.1284728152
C  C958  1  0.30459000  0.74269000  0.59197000  1.0 -0.1284728152
C  C959  1  0.88925000  0.50731000  0.65803000  1.0 -0.1284728152
C  C960  1  0.50731000  0.65803000  0.88925000  1.0 -0.1284728152
C  C961  1  0.01687000  0.98011000  0.14285000  1.0 -0.0537873901
C  C962  1  0.23313000  0.26989000  0.38983000  1.0 -0.0537873901
C  C963  1  0.26989000  0.38983000  0.23313000  1.0 -0.0537873901
C  C964  1  0.38983000  0.23313000  0.26989000  1.0 -0.0537873901
C  C965  1  0.26989000  0.10715000  0.38983000  1.0 -0.0537873901
C  C966  1  0.98011000  0.86017000  0.14285000  1.0 -0.0537873901
C  C967  1  0.10715000  0.23313000  0.38983000  1.0 -0.0537873901
C  C968  1  0.86017000  0.01687000  0.14285000  1.0 -0.0537873901
C  C969  1  0.10715000  0.38983000  0.26989000  1.0 -0.0537873901
C  C970  1  0.86017000  0.14285000  0.98011000  1.0 -0.0537873901
C  C971  1  0.98011000  0.01687000  0.86017000  1.0 -0.0537873901
C  C972  1  0.26989000  0.23313000  0.10715000  1.0 -0.0537873901
C  C973  1  0.10715000  0.26989000  0.23313000  1.0 -0.0537873901
C  C974  1  0.86017000  0.98011000  0.01687000  1.0 -0.0537873901
C  C975  1  0.23313000  0.10715000  0.26989000  1.0 -0.0537873901
C  C976  1  0.01687000  0.86017000  0.98011000  1.0 -0.0537873901
C  C977  1  0.01687000  0.14285000  0.86017000  1.0 -0.0537873901
C  C978  1  0.14285000  0.98011000  0.86017000  1.0 -0.0537873901
C  C979  1  0.38983000  0.26989000  0.10715000  1.0 -0.0537873901
C  C980  1  0.23313000  0.38983000  0.10715000  1.0 -0.0537873901
C  C981  1  0.14285000  0.86017000  0.01687000  1.0 -0.0537873901
C  C982  1  0.38983000  0.10715000  0.23313000  1.0 -0.0537873901
C  C983  1  0.98011000  0.14285000  0.01687000  1.0 -0.0537873901
C  C984  1  0.14285000  0.01687000  0.98011000  1.0 -0.0537873901
C  C985  1  0.73313000  0.76989000  0.60715000  1.0 -0.0537873901
C  C986  1  0.51687000  0.48011000  0.36017000  1.0 -0.0537873901
C  C987  1  0.48011000  0.36017000  0.51687000  1.0 -0.0537873901
C  C988  1  0.36017000  0.51687000  0.48011000  1.0 -0.0537873901
C  C989  1  0.48011000  0.64285000  0.36017000  1.0 -0.0537873901
C  C990  1  0.76989000  0.88983000  0.60715000  1.0 -0.0537873901
C  C991  1  0.64285000  0.51687000  0.36017000  1.0 -0.0537873901
C  C992  1  0.88983000  0.73313000  0.60715000  1.0 -0.0537873901
C  C993  1  0.64285000  0.36017000  0.48011000  1.0 -0.0537873901
C  C994  1  0.88983000  0.60715000  0.76989000  1.0 -0.0537873901
C  C995  1  0.76989000  0.73313000  0.88983000  1.0 -0.0537873901
C  C996  1  0.48011000  0.51687000  0.64285000  1.0 -0.0537873901
C  C997  1  0.64285000  0.48011000  0.51687000  1.0 -0.0537873901
C  C998  1  0.88983000  0.76989000  0.73313000  1.0 -0.0537873901
C  C999  1  0.51687000  0.64285000  0.48011000  1.0 -0.0537873901
C  C1000  1  0.73313000  0.88983000  0.76989000  1.0 -0.0537873901
C  C1001  1  0.73313000  0.60715000  0.88983000  1.0 -0.0537873901
C  C1002  1  0.60715000  0.76989000  0.88983000  1.0 -0.0537873901
C  C1003  1  0.36017000  0.48011000  0.64285000  1.0 -0.0537873901
C  C1004  1  0.51687000  0.36017000  0.64285000  1.0 -0.0537873901
C  C1005  1  0.60715000  0.88983000  0.73313000  1.0 -0.0537873901
C  C1006  1  0.36017000  0.64285000  0.51687000  1.0 -0.0537873901
C  C1007  1  0.76989000  0.60715000  0.73313000  1.0 -0.0537873901
C  C1008  1  0.60715000  0.73313000  0.76989000  1.0 -0.0537873901
C  C1009  1  0.07922000  0.94796000  0.13662000  1.0 0.0791283669
C  C1010  1  0.17078000  0.30204000  0.41380000  1.0 0.0791283669
C  C1011  1  0.30204000  0.41380000  0.17078000  1.0 0.0791283669
C  C1012  1  0.41380000  0.17078000  0.30204000  1.0 0.0791283669
C  C1013  1  0.30204000  0.11338000  0.41380000  1.0 0.0791283669
C  C1014  1  0.94796000  0.83620000  0.13662000  1.0 0.0791283669
C  C1015  1  0.11338000  0.17078000  0.41380000  1.0 0.0791283669
C  C1016  1  0.83620000  0.07922000  0.13662000  1.0 0.0791283669
C  C1017  1  0.11338000  0.41380000  0.30204000  1.0 0.0791283669
C  C1018  1  0.83620000  0.13662000  0.94796000  1.0 0.0791283669
C  C1019  1  0.94796000  0.07922000  0.83620000  1.0 0.0791283669
C  C1020  1  0.30204000  0.17078000  0.11338000  1.0 0.0791283669
C  C1021  1  0.11338000  0.30204000  0.17078000  1.0 0.0791283669
C  C1022  1  0.83620000  0.94796000  0.07922000  1.0 0.0791283669
C  C1023  1  0.17078000  0.11338000  0.30204000  1.0 0.0791283669
C  C1024  1  0.07922000  0.83620000  0.94796000  1.0 0.0791283669
C  C1025  1  0.07922000  0.13662000  0.83620000  1.0 0.0791283669
C  C1026  1  0.13662000  0.94796000  0.83620000  1.0 0.0791283669
C  C1027  1  0.41380000  0.30204000  0.11338000  1.0 0.0791283669
C  C1028  1  0.17078000  0.41380000  0.11338000  1.0 0.0791283669
C  C1029  1  0.13662000  0.83620000  0.07922000  1.0 0.0791283669
C  C1030  1  0.41380000  0.11338000  0.17078000  1.0 0.0791283669
C  C1031  1  0.94796000  0.13662000  0.07922000  1.0 0.0791283669
C  C1032  1  0.13662000  0.07922000  0.94796000  1.0 0.0791283669
C  C1033  1  0.67078000  0.80204000  0.61338000  1.0 0.0791283669
C  C1034  1  0.57922000  0.44796000  0.33620000  1.0 0.0791283669
C  C1035  1  0.44796000  0.33620000  0.57922000  1.0 0.0791283669
C  C1036  1  0.33620000  0.57922000  0.44796000  1.0 0.0791283669
C  C1037  1  0.44796000  0.63662000  0.33620000  1.0 0.0791283669
C  C1038  1  0.80204000  0.91380000  0.61338000  1.0 0.0791283669
C  C1039  1  0.63662000  0.57922000  0.33620000  1.0 0.0791283669
C  C1040  1  0.91380000  0.67078000  0.61338000  1.0 0.0791283669
C  C1041  1  0.63662000  0.33620000  0.44796000  1.0 0.0791283669
C  C1042  1  0.91380000  0.61338000  0.80204000  1.0 0.0791283669
C  C1043  1  0.80204000  0.67078000  0.91380000  1.0 0.0791283669
C  C1044  1  0.44796000  0.57922000  0.63662000  1.0 0.0791283669
C  C1045  1  0.63662000  0.44796000  0.57922000  1.0 0.0791283669
C  C1046  1  0.91380000  0.80204000  0.67078000  1.0 0.0791283669
C  C1047  1  0.57922000  0.63662000  0.44796000  1.0 0.0791283669
C  C1048  1  0.67078000  0.91380000  0.80204000  1.0 0.0791283669
C  C1049  1  0.67078000  0.61338000  0.91380000  1.0 0.0791283669
C  C1050  1  0.61338000  0.80204000  0.91380000  1.0 0.0791283669
C  C1051  1  0.33620000  0.44796000  0.63662000  1.0 0.0791283669
C  C1052  1  0.57922000  0.33620000  0.63662000  1.0 0.0791283669
C  C1053  1  0.61338000  0.91380000  0.67078000  1.0 0.0791283669
C  C1054  1  0.33620000  0.63662000  0.57922000  1.0 0.0791283669
C  C1055  1  0.80204000  0.61338000  0.67078000  1.0 0.0791283669
C  C1056  1  0.61338000  0.67078000  0.80204000  1.0 0.0791283669
C  C1057  1  0.19623000  0.88629000  0.33495000  1.0 0.0791283669
C  C1058  1  0.05377000  0.36371000  0.66747000  1.0 0.0791283669
C  C1059  1  0.36371000  0.66747000  0.05377000  1.0 0.0791283669
C  C1060  1  0.66747000  0.05377000  0.36371000  1.0 0.0791283669
C  C1061  1  0.36371000  0.91505000  0.66747000  1.0 0.0791283669
C  C1062  1  0.88629000  0.58253000  0.33495000  1.0 0.0791283669
C  C1063  1  0.91505000  0.05377000  0.66747000  1.0 0.0791283669
C  C1064  1  0.58253000  0.19623000  0.33495000  1.0 0.0791283669
C  C1065  1  0.91505000  0.66747000  0.36371000  1.0 0.0791283669
C  C1066  1  0.58253000  0.33495000  0.88629000  1.0 0.0791283669
C  C1067  1  0.88629000  0.19623000  0.58253000  1.0 0.0791283669
C  C1068  1  0.36371000  0.05377000  0.91505000  1.0 0.0791283669
C  C1069  1  0.91505000  0.36371000  0.05377000  1.0 0.0791283669
C  C1070  1  0.58253000  0.88629000  0.19623000  1.0 0.0791283669
C  C1071  1  0.05377000  0.91505000  0.36371000  1.0 0.0791283669
C  C1072  1  0.19623000  0.58253000  0.88629000  1.0 0.0791283669
C  C1073  1  0.19623000  0.33495000  0.58253000  1.0 0.0791283669
C  C1074  1  0.33495000  0.88629000  0.58253000  1.0 0.0791283669
C  C1075  1  0.66747000  0.36371000  0.91505000  1.0 0.0791283669
C  C1076  1  0.05377000  0.66747000  0.91505000  1.0 0.0791283669
C  C1077  1  0.33495000  0.58253000  0.19623000  1.0 0.0791283669
C  C1078  1  0.66747000  0.91505000  0.05377000  1.0 0.0791283669
C  C1079  1  0.88629000  0.33495000  0.19623000  1.0 0.0791283669
C  C1080  1  0.33495000  0.19623000  0.88629000  1.0 0.0791283669
C  C1081  1  0.55377000  0.86371000  0.41505000  1.0 0.0791283669
C  C1082  1  0.69623000  0.38629000  0.08253000  1.0 0.0791283669
C  C1083  1  0.38629000  0.08253000  0.69623000  1.0 0.0791283669
C  C1084  1  0.08253000  0.69623000  0.38629000  1.0 0.0791283669
C  C1085  1  0.38629000  0.83495000  0.08253000  1.0 0.0791283669
C  C1086  1  0.86371000  0.16747000  0.41505000  1.0 0.0791283669
C  C1087  1  0.83495000  0.69623000  0.08253000  1.0 0.0791283669
C  C1088  1  0.16747000  0.55377000  0.41505000  1.0 0.0791283669
C  C1089  1  0.83495000  0.08253000  0.38629000  1.0 0.0791283669
C  C1090  1  0.16747000  0.41505000  0.86371000  1.0 0.0791283669
C  C1091  1  0.86371000  0.55377000  0.16747000  1.0 0.0791283669
C  C1092  1  0.38629000  0.69623000  0.83495000  1.0 0.0791283669
C  C1093  1  0.83495000  0.38629000  0.69623000  1.0 0.0791283669
C  C1094  1  0.16747000  0.86371000  0.55377000  1.0 0.0791283669
C  C1095  1  0.69623000  0.83495000  0.38629000  1.0 0.0791283669
C  C1096  1  0.55377000  0.16747000  0.86371000  1.0 0.0791283669
C  C1097  1  0.55377000  0.41505000  0.16747000  1.0 0.0791283669
C  C1098  1  0.41505000  0.86371000  0.16747000  1.0 0.0791283669
C  C1099  1  0.08253000  0.38629000  0.83495000  1.0 0.0791283669
C  C1100  1  0.69623000  0.08253000  0.83495000  1.0 0.0791283669
C  C1101  1  0.41505000  0.16747000  0.55377000  1.0 0.0791283669
C  C1102  1  0.08253000  0.83495000  0.69623000  1.0 0.0791283669
C  C1103  1  0.86371000  0.41505000  0.55377000  1.0 0.0791283669
C  C1104  1  0.41505000  0.55377000  0.86371000  1.0 0.0791283669
C  C1105  1  0.11691000  0.87035000  0.24331000  1.0 -0.0537873901
C  C1106  1  0.13309000  0.37965000  0.48057000  1.0 -0.0537873901
C  C1107  1  0.37965000  0.48057000  0.13309000  1.0 -0.0537873901
C  C1108  1  0.48057000  0.13309000  0.37965000  1.0 -0.0537873901
C  C1109  1  0.37965000  0.00669000  0.48057000  1.0 -0.0537873901
C  C1110  1  0.87035000  0.76943000  0.24331000  1.0 -0.0537873901
C  C1111  1  0.00669000  0.13309000  0.48057000  1.0 -0.0537873901
C  C1112  1  0.76943000  0.11691000  0.24331000  1.0 -0.0537873901
C  C1113  1  0.00669000  0.48057000  0.37965000  1.0 -0.0537873901
C  C1114  1  0.76943000  0.24331000  0.87035000  1.0 -0.0537873901
C  C1115  1  0.87035000  0.11691000  0.76943000  1.0 -0.0537873901
C  C1116  1  0.37965000  0.13309000  0.00669000  1.0 -0.0537873901
C  C1117  1  0.00669000  0.37965000  0.13309000  1.0 -0.0537873901
C  C1118  1  0.76943000  0.87035000  0.11691000  1.0 -0.0537873901
C  C1119  1  0.13309000  0.00669000  0.37965000  1.0 -0.0537873901
C  C1120  1  0.11691000  0.76943000  0.87035000  1.0 -0.0537873901
C  C1121  1  0.11691000  0.24331000  0.76943000  1.0 -0.0537873901
C  C1122  1  0.24331000  0.87035000  0.76943000  1.0 -0.0537873901
C  C1123  1  0.48057000  0.37965000  0.00669000  1.0 -0.0537873901
C  C1124  1  0.13309000  0.48057000  0.00669000  1.0 -0.0537873901
C  C1125  1  0.24331000  0.76943000  0.11691000  1.0 -0.0554362989
C  C1126  1  0.48057000  0.00669000  0.13309000  1.0 -0.0537873901
C  C1127  1  0.87035000  0.24331000  0.11691000  1.0 -0.0537873901
C  C1128  1  0.24331000  0.11691000  0.87035000  1.0 -0.0537873901
C  C1129  1  0.63309000  0.87965000  0.50669000  1.0 -0.0537873901
C  C1130  1  0.61691000  0.37035000  0.26943000  1.0 -0.0537873901
C  C1131  1  0.37035000  0.26943000  0.61691000  1.0 -0.0537873901
C  C1132  1  0.26943000  0.61691000  0.37035000  1.0 -0.0554362989
C  C1133  1  0.37035000  0.74331000  0.26943000  1.0 -0.0537873901
C  C1134  1  0.87965000  0.98057000  0.50669000  1.0 -0.0537873901
C  C1135  1  0.74331000  0.61691000  0.26943000  1.0 -0.0537873901
C  C1136  1  0.98057000  0.63309000  0.50669000  1.0 -0.0537873901
C  C1137  1  0.74331000  0.26943000  0.37035000  1.0 -0.0537873901
C  C1138  1  0.98057000  0.50669000  0.87965000  1.0 -0.0537873901
C  C1139  1  0.87965000  0.63309000  0.98057000  1.0 -0.0537873901
C  C1140  1  0.37035000  0.61691000  0.74331000  1.0 -0.0537873901
C  C1141  1  0.74331000  0.37035000  0.61691000  1.0 -0.0537873901
C  C1142  1  0.98057000  0.87965000  0.63309000  1.0 -0.0554362989
C  C1143  1  0.61691000  0.74331000  0.37035000  1.0 -0.0537873901
C  C1144  1  0.63309000  0.98057000  0.87965000  1.0 -0.0554362989
C  C1145  1  0.63309000  0.50669000  0.98057000  1.0 -0.0537873901
C  C1146  1  0.50669000  0.87965000  0.98057000  1.0 -0.0554362989
C  C1147  1  0.26943000  0.37035000  0.74331000  1.0 -0.0537873901
C  C1148  1  0.61691000  0.26943000  0.74331000  1.0 -0.0537873901
C  C1149  1  0.50669000  0.98057000  0.63309000  1.0 -0.0537873901
C  C1150  1  0.26943000  0.74331000  0.61691000  1.0 -0.0537873901
C  C1151  1  0.87965000  0.50669000  0.63309000  1.0 -0.0537873901
C  C1152  1  0.50669000  0.63309000  0.87965000  1.0 -0.0537873901
C  C1153  1  0.17129000  0.89009000  0.20921000  1.0 0.3716182369
C  C1154  1  0.07871000  0.35991000  0.52059000  1.0 0.3716182369
C  C1155  1  0.35991000  0.52059000  0.07871000  1.0 0.3716182369
C  C1156  1  0.52059000  0.07871000  0.35991000  1.0 0.3716182369
C  C1157  1  0.35991000  0.04079000  0.52059000  1.0 0.3716182369
C  C1158  1  0.89009000  0.72941000  0.20921000  1.0 0.3716182369
C  C1159  1  0.04079000  0.07871000  0.52059000  1.0 0.3716182369
C  C1160  1  0.72941000  0.17129000  0.20921000  1.0 0.3716182369
C  C1161  1  0.04079000  0.52059000  0.35991000  1.0 0.3716182369
C  C1162  1  0.72941000  0.20921000  0.89009000  1.0 0.3716182369
C  C1163  1  0.89009000  0.17129000  0.72941000  1.0 0.3716182369
C  C1164  1  0.35991000  0.07871000  0.04079000  1.0 0.3716182369
C  C1165  1  0.04079000  0.35991000  0.07871000  1.0 0.3716182369
C  C1166  1  0.72941000  0.89009000  0.17129000  1.0 0.3716182369
C  C1167  1  0.07871000  0.04079000  0.35991000  1.0 0.3716182369
C  C1168  1  0.17129000  0.72941000  0.89009000  1.0 0.3716182369
C  C1169  1  0.17129000  0.20921000  0.72941000  1.0 0.3716182369
C  C1170  1  0.20921000  0.89009000  0.72941000  1.0 0.3716182369
C  C1171  1  0.52059000  0.35991000  0.04079000  1.0 0.3716182369
C  C1172  1  0.07871000  0.52059000  0.04079000  1.0 0.3716182369
C  C1173  1  0.20921000  0.72941000  0.17129000  1.0 0.3716182369
C  C1174  1  0.52059000  0.04079000  0.07871000  1.0 0.3716182369
C  C1175  1  0.89009000  0.20921000  0.17129000  1.0 0.3716182369
C  C1176  1  0.20921000  0.17129000  0.89009000  1.0 0.3716182369
C  C1177  1  0.57871000  0.85991000  0.54079000  1.0 0.3716182369
C  C1178  1  0.67129000  0.39009000  0.22941000  1.0 0.3716182369
C  C1179  1  0.39009000  0.22941000  0.67129000  1.0 0.3716182369
C  C1180  1  0.22941000  0.67129000  0.39009000  1.0 0.3716182369
C  C1181  1  0.39009000  0.70921000  0.22941000  1.0 0.3716182369
C  C1182  1  0.85991000  0.02059000  0.54079000  1.0 0.3716182369
C  C1183  1  0.70921000  0.67129000  0.22941000  1.0 0.3716182369
C  C1184  1  0.02059000  0.57871000  0.54079000  1.0 0.3716182369
C  C1185  1  0.70921000  0.22941000  0.39009000  1.0 0.3716182369
C  C1186  1  0.02059000  0.54079000  0.85991000  1.0 0.3716182369
C  C1187  1  0.85991000  0.57871000  0.02059000  1.0 0.3716182369
C  C1188  1  0.39009000  0.67129000  0.70921000  1.0 0.3716182369
C  C1189  1  0.70921000  0.39009000  0.67129000  1.0 0.3716182369
C  C1190  1  0.02059000  0.85991000  0.57871000  1.0 0.3716182369
C  C1191  1  0.67129000  0.70921000  0.39009000  1.0 0.3716182369
C  C1192  1  0.57871000  0.02059000  0.85991000  1.0 0.3716182369
C  C1193  1  0.57871000  0.54079000  0.02059000  1.0 0.3716182369
C  C1194  1  0.54079000  0.85991000  0.02059000  1.0 0.3716182369
C  C1195  1  0.22941000  0.39009000  0.70921000  1.0 0.3716182369
C  C1196  1  0.67129000  0.22941000  0.70921000  1.0 0.3716182369
C  C1197  1  0.54079000  0.02059000  0.57871000  1.0 0.3716182369
C  C1198  1  0.22941000  0.70921000  0.67129000  1.0 0.3716182369
C  C1199  1  0.85991000  0.54079000  0.57871000  1.0 0.3716182369
C  C1200  1  0.54079000  0.57871000  0.85991000  1.0 0.3716182369
C  C1201  1  0.04901000  0.97795000  0.14221000  1.0 -0.1284728152
C  C1202  1  0.20099000  0.27205000  0.41917000  1.0 -0.1284728152
C  C1203  1  0.27205000  0.41917000  0.20099000  1.0 -0.1284728152
C  C1204  1  0.41917000  0.20099000  0.27205000  1.0 -0.1284728152
C  C1205  1  0.27205000  0.10779000  0.41917000  1.0 -0.1284728152
C  C1206  1  0.97795000  0.83083000  0.14221000  1.0 -0.1284728152
C  C1207  1  0.10779000  0.20099000  0.41917000  1.0 -0.1284728152
C  C1208  1  0.83083000  0.04901000  0.14221000  1.0 -0.1284728152
C  C1209  1  0.10779000  0.41917000  0.27205000  1.0 -0.1284728152
C  C1210  1  0.83083000  0.14221000  0.97795000  1.0 -0.1284728152
C  C1211  1  0.97795000  0.04901000  0.83083000  1.0 -0.1284728152
C  C1212  1  0.27205000  0.20099000  0.10779000  1.0 -0.1284728152
C  C1213  1  0.10779000  0.27205000  0.20099000  1.0 -0.1284728152
C  C1214  1  0.83083000  0.97795000  0.04901000  1.0 -0.1284728152
C  C1215  1  0.20099000  0.10779000  0.27205000  1.0 -0.1284728152
C  C1216  1  0.04901000  0.83083000  0.97795000  1.0 -0.1284728152
C  C1217  1  0.04901000  0.14221000  0.83083000  1.0 -0.1284728152
C  C1218  1  0.14221000  0.97795000  0.83083000  1.0 -0.1284728152
C  C1219  1  0.41917000  0.27205000  0.10779000  1.0 -0.1284728152
C  C1220  1  0.20099000  0.41917000  0.10779000  1.0 -0.1284728152
C  C1221  1  0.14221000  0.83083000  0.04901000  1.0 -0.1284728152
C  C1222  1  0.41917000  0.10779000  0.20099000  1.0 -0.1284728152
C  C1223  1  0.97795000  0.14221000  0.04901000  1.0 -0.1284728152
C  C1224  1  0.14221000  0.04901000  0.97795000  1.0 -0.1284728152
C  C1225  1  0.70099000  0.77205000  0.60779000  1.0 -0.1284728152
C  C1226  1  0.54901000  0.47795000  0.33083000  1.0 -0.1284728152
C  C1227  1  0.47795000  0.33083000  0.54901000  1.0 -0.1284728152
C  C1228  1  0.33083000  0.54901000  0.47795000  1.0 -0.1284728152
C  C1229  1  0.47795000  0.64221000  0.33083000  1.0 -0.1284728152
C  C1230  1  0.77205000  0.91917000  0.60779000  1.0 -0.1284728152
C  C1231  1  0.64221000  0.54901000  0.33083000  1.0 -0.1284728152
C  C1232  1  0.91917000  0.70099000  0.60779000  1.0 -0.1284728152
C  C1233  1  0.64221000  0.33083000  0.47795000  1.0 -0.1284728152
C  C1234  1  0.91917000  0.60779000  0.77205000  1.0 -0.1284728152
C  C1235  1  0.77205000  0.70099000  0.91917000  1.0 -0.1284728152
C  C1236  1  0.47795000  0.54901000  0.64221000  1.0 -0.1284728152
C  C1237  1  0.64221000  0.47795000  0.54901000  1.0 -0.1284728152
C  C1238  1  0.91917000  0.77205000  0.70099000  1.0 -0.1284728152
C  C1239  1  0.54901000  0.64221000  0.47795000  1.0 -0.1284728152
C  C1240  1  0.70099000  0.91917000  0.77205000  1.0 -0.1284728152
C  C1241  1  0.70099000  0.60779000  0.91917000  1.0 -0.1284728152
C  C1242  1  0.60779000  0.77205000  0.91917000  1.0 -0.1284728152
C  C1243  1  0.33083000  0.47795000  0.64221000  1.0 -0.1284728152
C  C1244  1  0.54901000  0.33083000  0.64221000  1.0 -0.1284728152
C  C1245  1  0.60779000  0.91917000  0.70099000  1.0 -0.1284728152
C  C1246  1  0.33083000  0.64221000  0.54901000  1.0 -0.1284728152
C  C1247  1  0.77205000  0.60779000  0.70099000  1.0 -0.1284728152
C  C1248  1  0.60779000  0.70099000  0.77205000  1.0 -0.1284728152
S  S1  1  0.08309000  0.82153000  0.34013000  1.0 -0.3936134571
S  S2  1  0.16691000  0.42847000  0.49475000  1.0 -0.3936134571
S  S3  1  0.42847000  0.49475000  0.16691000  1.0 -0.3936134571
S  S4  1  0.49475000  0.16691000  0.42847000  1.0 -0.3936134571
S  S5  1  0.42847000  0.90987000  0.49475000  1.0 -0.3936134571
S  S6  1  0.82153000  0.75525000  0.34013000  1.0 -0.3936134571
S  S7  1  0.90987000  0.16691000  0.49475000  1.0 -0.3936134571
S  S8  1  0.75525000  0.08309000  0.34013000  1.0 -0.3936134571
S  S9  1  0.90987000  0.49475000  0.42847000  1.0 -0.3936134571
S  S10  1  0.75525000  0.34013000  0.82153000  1.0 -0.4022541636
S  S11  1  0.82153000  0.08309000  0.75525000  1.0 -0.3936134571
S  S12  1  0.42847000  0.16691000  0.90987000  1.0 -0.4022541636
S  S13  1  0.90987000  0.42847000  0.16691000  1.0 -0.4022541636
S  S14  1  0.75525000  0.82153000  0.08309000  1.0 -0.3936134571
S  S15  1  0.16691000  0.90987000  0.42847000  1.0 -0.4022541636
S  S16  1  0.08309000  0.75525000  0.82153000  1.0 -0.4022541636
S  S17  1  0.08309000  0.34013000  0.75525000  1.0 -0.4022541636
S  S18  1  0.34013000  0.82153000  0.75525000  1.0 -0.3936134571
S  S19  1  0.49475000  0.42847000  0.90987000  1.0 -0.3936134571
S  S20  1  0.16691000  0.49475000  0.90987000  1.0 -0.3936134571
S  S21  1  0.34013000  0.75525000  0.08309000  1.0 -0.4022541636
S  S22  1  0.49475000  0.90987000  0.16691000  1.0 -0.3936134571
S  S23  1  0.82153000  0.34013000  0.08309000  1.0 -0.3936134571
S  S24  1  0.34013000  0.08309000  0.82153000  1.0 -0.4022541636
S  S25  1  0.66691000  0.92847000  0.40987000  1.0 -0.3936134571
S  S26  1  0.58309000  0.32153000  0.25525000  1.0 -0.4022541636
S  S27  1  0.32153000  0.25525000  0.58309000  1.0 -0.4022541636
S  S28  1  0.25525000  0.58309000  0.32153000  1.0 -0.4022541636
S  S29  1  0.32153000  0.84013000  0.25525000  1.0 -0.3936134571
S  S30  1  0.92847000  0.99475000  0.40987000  1.0 -0.4022541636
S  S31  1  0.84013000  0.58309000  0.25525000  1.0 -0.3936134571
S  S32  1  0.99475000  0.66691000  0.40987000  1.0 -0.3936134571
S  S33  1  0.84013000  0.25525000  0.32153000  1.0 -0.4022541636
S  S34  1  0.99475000  0.40987000  0.92847000  1.0 -0.3936134571
S  S35  1  0.92847000  0.66691000  0.99475000  1.0 -0.3936134571
S  S36  1  0.32153000  0.58309000  0.84013000  1.0 -0.4022541636
S  S37  1  0.84013000  0.32153000  0.58309000  1.0 -0.4022541636
S  S38  1  0.99475000  0.92847000  0.66691000  1.0 -0.4022541636
S  S39  1  0.58309000  0.84013000  0.32153000  1.0 -0.4022541636
S  S40  1  0.66691000  0.99475000  0.92847000  1.0 -0.3936134571
S  S41  1  0.66691000  0.40987000  0.99475000  1.0 -0.3936134571
S  S42  1  0.40987000  0.92847000  0.99475000  1.0 -0.3936134571
S  S43  1  0.25525000  0.32153000  0.84013000  1.0 -0.3936134571
S  S44  1  0.58309000  0.25525000  0.84013000  1.0 -0.4022541636
S  S45  1  0.40987000  0.99475000  0.66691000  1.0 -0.4022541636
S  S46  1  0.25525000  0.84013000  0.58309000  1.0 -0.3936134571
S  S47  1  0.92847000  0.40987000  0.66691000  1.0 -0.4022541636
S  S48  1  0.40987000  0.66691000  0.92847000  1.0 -0.3936134571
S  S49  1  0.18924000  0.96212000  0.05176000  1.0 -0.40688728
S  S50  1  0.06076000  0.28788000  0.45312000  1.0 -0.40688728
S  S51  1  0.28788000  0.45312000  0.06076000  1.0 -0.4160788071
S  S52  1  0.45312000  0.06076000  0.28788000  1.0 -0.40688728
S  S53  1  0.28788000  0.19824000  0.45312000  1.0 -0.40688728
S  S54  1  0.96212000  0.79688000  0.05176000  1.0 -0.40688728
S  S55  1  0.19824000  0.06076000  0.45312000  1.0 -0.40688728
S  S56  1  0.79688000  0.18924000  0.05176000  1.0 -0.4160788071
S  S57  1  0.19824000  0.45312000  0.28788000  1.0 -0.4160788071
S  S58  1  0.79688000  0.05176000  0.96212000  1.0 -0.4160788071
S  S59  1  0.96212000  0.18924000  0.79688000  1.0 -0.40688728
S  S60  1  0.28788000  0.06076000  0.19824000  1.0 -0.40688728
S  S61  1  0.19824000  0.28788000  0.06076000  1.0 -0.40688728
S  S62  1  0.79688000  0.96212000  0.18924000  1.0 -0.40688728
S  S63  1  0.06076000  0.19824000  0.28788000  1.0 -0.40688728
S  S64  1  0.18924000  0.79688000  0.96212000  1.0 -0.4160788071
S  S65  1  0.18924000  0.05176000  0.79688000  1.0 -0.40688728
S  S66  1  0.05176000  0.96212000  0.79688000  1.0 -0.40688728
S  S67  1  0.45312000  0.28788000  0.19824000  1.0 -0.40688728
S  S68  1  0.06076000  0.45312000  0.19824000  1.0 -0.40688728
S  S69  1  0.05176000  0.79688000  0.18924000  1.0 -0.40688728
S  S70  1  0.45312000  0.19824000  0.06076000  1.0 -0.4160788071
S  S71  1  0.96212000  0.05176000  0.18924000  1.0 -0.4160788071
S  S72  1  0.05176000  0.18924000  0.96212000  1.0 -0.40688728
S  S73  1  0.56076000  0.78788000  0.69824000  1.0 -0.40688728
S  S74  1  0.68924000  0.46212000  0.29688000  1.0 -0.4160788071
S  S75  1  0.46212000  0.29688000  0.68924000  1.0 -0.40688728
S  S76  1  0.29688000  0.68924000  0.46212000  1.0 -0.4160788071
S  S77  1  0.46212000  0.55176000  0.29688000  1.0 -0.40688728
S  S78  1  0.78788000  0.95312000  0.69824000  1.0 -0.40688728
S  S79  1  0.55176000  0.68924000  0.29688000  1.0 -0.40688728
S  S80  1  0.95312000  0.56076000  0.69824000  1.0 -0.40688728
S  S81  1  0.55176000  0.29688000  0.46212000  1.0 -0.40688728
S  S82  1  0.95312000  0.69824000  0.78788000  1.0 -0.4160788071
S  S83  1  0.78788000  0.56076000  0.95312000  1.0 -0.40688728
S  S84  1  0.46212000  0.68924000  0.55176000  1.0 -0.4160788071
S  S85  1  0.55176000  0.46212000  0.68924000  1.0 -0.4160788071
S  S86  1  0.95312000  0.78788000  0.56076000  1.0 -0.4160788071
S  S87  1  0.68924000  0.55176000  0.46212000  1.0 -0.40688728
S  S88  1  0.56076000  0.95312000  0.78788000  1.0 -0.40688728
S  S89  1  0.56076000  0.69824000  0.95312000  1.0 -0.40688728
S  S90  1  0.69824000  0.78788000  0.95312000  1.0 -0.40688728
S  S91  1  0.29688000  0.46212000  0.55176000  1.0 -0.40688728
S  S92  1  0.68924000  0.29688000  0.55176000  1.0 -0.4160788071
S  S93  1  0.69824000  0.95312000  0.56076000  1.0 -0.4160788071
S  S94  1  0.29688000  0.55176000  0.68924000  1.0 -0.40688728
S  S95  1  0.78788000  0.69824000  0.56076000  1.0 -0.40688728
S  S96  1  0.69824000  0.56076000  0.78788000  1.0 -0.40688728
N  N1  1  0.07932000  0.92074000  0.13172000  1.0 -0.2092742896
N  N2  1  0.17068000  0.32926000  0.38178000  1.0 -0.2092742896
N  N3  1  0.32926000  0.38178000  0.17068000  1.0 -0.2092742896
N  N4  1  0.38178000  0.17068000  0.32926000  1.0 -0.2092742896
N  N5  1  0.32926000  0.11828000  0.38178000  1.0 -0.2092742896
N  N6  1  0.92074000  0.86822000  0.13172000  1.0 -0.2092742896
N  N7  1  0.11828000  0.17068000  0.38178000  1.0 -0.2092742896
N  N8  1  0.86822000  0.07932000  0.13172000  1.0 -0.2092742896
N  N9  1  0.11828000  0.38178000  0.32926000  1.0 -0.2092742896
N  N10  1  0.86822000  0.13172000  0.92074000  1.0 -0.2092742896
N  N11  1  0.92074000  0.07932000  0.86822000  1.0 -0.2092742896
N  N12  1  0.32926000  0.17068000  0.11828000  1.0 -0.2092742896
N  N13  1  0.11828000  0.32926000  0.17068000  1.0 -0.2092742896
N  N14  1  0.86822000  0.92074000  0.07932000  1.0 -0.2092742896
N  N15  1  0.17068000  0.11828000  0.32926000  1.0 -0.2092742896
N  N16  1  0.07932000  0.86822000  0.92074000  1.0 -0.2092742896
N  N17  1  0.07932000  0.13172000  0.86822000  1.0 -0.2092742896
N  N18  1  0.13172000  0.92074000  0.86822000  1.0 -0.2092742896
N  N19  1  0.38178000  0.32926000  0.11828000  1.0 -0.2092742896
N  N20  1  0.17068000  0.38178000  0.11828000  1.0 -0.2092742896
N  N21  1  0.13172000  0.86822000  0.07932000  1.0 -0.2092742896
N  N22  1  0.38178000  0.11828000  0.17068000  1.0 -0.2092742896
N  N23  1  0.92074000  0.13172000  0.07932000  1.0 -0.2092742896
N  N24  1  0.13172000  0.07932000  0.92074000  1.0 -0.2092742896
N  N25  1  0.67068000  0.82926000  0.61828000  1.0 -0.2092742896
N  N26  1  0.57932000  0.42074000  0.36822000  1.0 -0.2092742896
N  N27  1  0.42074000  0.36822000  0.57932000  1.0 -0.2092742896
N  N28  1  0.36822000  0.57932000  0.42074000  1.0 -0.2092742896
N  N29  1  0.42074000  0.63172000  0.36822000  1.0 -0.2092742896
N  N30  1  0.82926000  0.88178000  0.61828000  1.0 -0.2092742896
N  N31  1  0.63172000  0.57932000  0.36822000  1.0 -0.2092742896
N  N32  1  0.88178000  0.67068000  0.61828000  1.0 -0.2092742896
N  N33  1  0.63172000  0.36822000  0.42074000  1.0 -0.2092742896
N  N34  1  0.88178000  0.61828000  0.82926000  1.0 -0.2092742896
N  N35  1  0.82926000  0.67068000  0.88178000  1.0 -0.2092742896
N  N36  1  0.42074000  0.57932000  0.63172000  1.0 -0.2092742896
N  N37  1  0.63172000  0.42074000  0.57932000  1.0 -0.2092742896
N  N38  1  0.88178000  0.82926000  0.67068000  1.0 -0.2092742896
N  N39  1  0.57932000  0.63172000  0.42074000  1.0 -0.2092742896
N  N40  1  0.67068000  0.88178000  0.82926000  1.0 -0.2092742896
N  N41  1  0.67068000  0.61828000  0.88178000  1.0 -0.2092742896
N  N42  1  0.61828000  0.82926000  0.88178000  1.0 -0.2092742896
N  N43  1  0.36822000  0.42074000  0.63172000  1.0 -0.2092742896
N  N44  1  0.57932000  0.36822000  0.63172000  1.0 -0.2092742896
N  N45  1  0.61828000  0.88178000  0.67068000  1.0 -0.2092742896
N  N46  1  0.36822000  0.63172000  0.57932000  1.0 -0.2092742896
N  N47  1  0.82926000  0.61828000  0.67068000  1.0 -0.2092742896
N  N48  1  0.61828000  0.67068000  0.82926000  1.0 -0.2092742896
N  N49  1  0.17051000  0.88789000  0.24033000  1.0 -0.40688728
N  N50  1  0.07949000  0.36211000  0.54873000  1.0 -0.40688728
N  N51  1  0.36211000  0.54873000  0.07949000  1.0 -0.40688728
N  N52  1  0.54873000  0.07949000  0.36211000  1.0 -0.40688728
N  N53  1  0.36211000  0.00967000  0.54873000  1.0 -0.40688728
N  N54  1  0.88789000  0.70127000  0.24033000  1.0 -0.40688728
N  N55  1  0.00967000  0.07949000  0.54873000  1.0 -0.40688728
N  N56  1  0.70127000  0.17051000  0.24033000  1.0 -0.40688728
N  N57  1  0.00967000  0.54873000  0.36211000  1.0 -0.40688728
N  N58  1  0.70127000  0.24033000  0.88789000  1.0 -0.40688728
N  N59  1  0.88789000  0.17051000  0.70127000  1.0 -0.40688728
N  N60  1  0.36211000  0.07949000  0.00967000  1.0 -0.40688728
N  N61  1  0.00967000  0.36211000  0.07949000  1.0 -0.40688728
N  N62  1  0.70127000  0.88789000  0.17051000  1.0 -0.40688728
N  N63  1  0.07949000  0.00967000  0.36211000  1.0 -0.40688728
N  N64  1  0.17051000  0.70127000  0.88789000  1.0 -0.40688728
N  N65  1  0.17051000  0.24033000  0.70127000  1.0 -0.40688728
N  N66  1  0.24033000  0.88789000  0.70127000  1.0 -0.40688728
N  N67  1  0.54873000  0.36211000  0.00967000  1.0 -0.40688728
N  N68  1  0.07949000  0.54873000  0.00967000  1.0 -0.40688728
N  N69  1  0.24033000  0.70127000  0.17051000  1.0 -0.40688728
N  N70  1  0.54873000  0.00967000  0.07949000  1.0 -0.40688728
N  N71  1  0.88789000  0.24033000  0.17051000  1.0 -0.40688728
N  N72  1  0.24033000  0.17051000  0.88789000  1.0 -0.40688728
N  N73  1  0.57949000  0.86211000  0.50967000  1.0 -0.40688728
N  N74  1  0.67051000  0.38789000  0.20127000  1.0 -0.40688728
N  N75  1  0.38789000  0.20127000  0.67051000  1.0 -0.40688728
N  N76  1  0.20127000  0.67051000  0.38789000  1.0 -0.40688728
N  N77  1  0.38789000  0.74033000  0.20127000  1.0 -0.40688728
N  N78  1  0.86211000  0.04873000  0.50967000  1.0 -0.40688728
N  N79  1  0.74033000  0.67051000  0.20127000  1.0 -0.40688728
N  N80  1  0.04873000  0.57949000  0.50967000  1.0 -0.40688728
N  N81  1  0.74033000  0.20127000  0.38789000  1.0 -0.40688728
N  N82  1  0.04873000  0.50967000  0.86211000  1.0 -0.40688728
N  N83  1  0.86211000  0.57949000  0.04873000  1.0 -0.40688728
N  N84  1  0.38789000  0.67051000  0.74033000  1.0 -0.40688728
N  N85  1  0.74033000  0.38789000  0.67051000  1.0 -0.40688728
N  N86  1  0.04873000  0.86211000  0.57949000  1.0 -0.40688728
N  N87  1  0.67051000  0.74033000  0.38789000  1.0 -0.40688728
N  N88  1  0.57949000  0.04873000  0.86211000  1.0 -0.40688728
N  N89  1  0.57949000  0.50967000  0.04873000  1.0 -0.40688728
N  N90  1  0.50967000  0.86211000  0.04873000  1.0 -0.40688728
N  N91  1  0.20127000  0.38789000  0.74033000  1.0 -0.40688728
N  N92  1  0.67051000  0.20127000  0.74033000  1.0 -0.40688728
N  N93  1  0.50967000  0.04873000  0.57949000  1.0 -0.40688728
N  N94  1  0.20127000  0.74033000  0.67051000  1.0 -0.40688728
N  N95  1  0.86211000  0.50967000  0.57949000  1.0 -0.40688728
N  N96  1  0.50967000  0.57949000  0.86211000  1.0 -0.40688728
N  N97  1  0.22334000  0.90512000  0.20626000  1.0 -0.4022541636
N  N98  1  0.02666000  0.34488000  0.58472000  1.0 -0.4022541636
N  N99  1  0.34488000  0.58472000  0.02666000  1.0 -0.40688728
N  N100  1  0.58472000  0.02666000  0.34488000  1.0 -0.40688728
N  N101  1  0.34488000  0.04374000  0.58472000  1.0 -0.4022541636
N  N102  1  0.90512000  0.66528000  0.20626000  1.0 -0.4022541636
N  N103  1  0.04374000  0.02666000  0.58472000  1.0 -0.4022541636
N  N104  1  0.66528000  0.22334000  0.20626000  1.0 -0.40688728
N  N105  1  0.04374000  0.58472000  0.34488000  1.0 -0.4022541636
N  N106  1  0.66528000  0.20626000  0.90512000  1.0 -0.4022541636
N  N107  1  0.90512000  0.22334000  0.66528000  1.0 -0.40688728
N  N108  1  0.34488000  0.02666000  0.04374000  1.0 -0.4022541636
N  N109  1  0.04374000  0.34488000  0.02666000  1.0 -0.4022541636
N  N110  1  0.66528000  0.90512000  0.22334000  1.0 -0.4022541636
N  N111  1  0.02666000  0.04374000  0.34488000  1.0 -0.40688728
N  N112  1  0.22334000  0.66528000  0.90512000  1.0 -0.4022541636
N  N113  1  0.22334000  0.20626000  0.66528000  1.0 -0.4022541636
N  N114  1  0.20626000  0.90512000  0.66528000  1.0 -0.4022541636
N  N115  1  0.58472000  0.34488000  0.04374000  1.0 -0.4022541636
N  N116  1  0.02666000  0.58472000  0.04374000  1.0 -0.4022541636
N  N117  1  0.20626000  0.66528000  0.22334000  1.0 -0.4022541636
N  N118  1  0.58472000  0.04374000  0.02666000  1.0 -0.4022541636
N  N119  1  0.90512000  0.20626000  0.22334000  1.0 -0.4022541636
N  N120  1  0.20626000  0.22334000  0.90512000  1.0 -0.4022541636
N  N121  1  0.52666000  0.84488000  0.54374000  1.0 -0.4022541636
N  N122  1  0.72334000  0.40512000  0.16528000  1.0 -0.4022541636
N  N123  1  0.40512000  0.16528000  0.72334000  1.0 -0.4022541636
N  N124  1  0.16528000  0.72334000  0.40512000  1.0 -0.4022541636
N  N125  1  0.40512000  0.70626000  0.16528000  1.0 -0.4022541636
N  N126  1  0.84488000  0.08472000  0.54374000  1.0 -0.4022541636
N  N127  1  0.70626000  0.72334000  0.16528000  1.0 -0.4022541636
N  N128  1  0.08472000  0.52666000  0.54374000  1.0 -0.4022541636
N  N129  1  0.70626000  0.16528000  0.40512000  1.0 -0.4022541636
N  N130  1  0.08472000  0.54374000  0.84488000  1.0 -0.4022541636
N  N131  1  0.84488000  0.52666000  0.08472000  1.0 -0.4022541636
N  N132  1  0.40512000  0.72334000  0.70626000  1.0 -0.4022541636
N  N133  1  0.70626000  0.40512000  0.72334000  1.0 -0.4022541636
N  N134  1  0.08472000  0.84488000  0.52666000  1.0 -0.4022541636
N  N135  1  0.72334000  0.70626000  0.40512000  1.0 -0.4022541636
N  N136  1  0.52666000  0.08472000  0.84488000  1.0 -0.4022541636
N  N137  1  0.52666000  0.54374000  0.08472000  1.0 -0.4022541636
N  N138  1  0.54374000  0.84488000  0.08472000  1.0 -0.4022541636
N  N139  1  0.16528000  0.40512000  0.70626000  1.0 -0.4022541636
N  N140  1  0.72334000  0.16528000  0.70626000  1.0 -0.4022541636
N  N141  1  0.54374000  0.08472000  0.52666000  1.0 -0.4022541636
N  N142  1  0.16528000  0.70626000  0.72334000  1.0 -0.4022541636
N  N143  1  0.84488000  0.54374000  0.52666000  1.0 -0.4022541636
N  N144  1  0.54374000  0.52666000  0.84488000  1.0 -0.4022541636
N  N145  1  0.12317000  0.86907000  0.17901000  1.0 -0.2092742896
N  N146  1  0.12683000  0.38093000  0.42125000  1.0 -0.2092742896
N  N147  1  0.38093000  0.42125000  0.12683000  1.0 -0.2092742896
N  N148  1  0.42125000  0.12683000  0.38093000  1.0 -0.2092742896
N  N149  1  0.38093000  0.07099000  0.42125000  1.0 -0.2092742896
N  N150  1  0.86907000  0.82875000  0.17901000  1.0 -0.2092742896
N  N151  1  0.07099000  0.12683000  0.42125000  1.0 -0.2092742896
N  N152  1  0.82875000  0.12317000  0.17901000  1.0 -0.2092742896
N  N153  1  0.07099000  0.42125000  0.38093000  1.0 -0.2092742896
N  N154  1  0.82875000  0.17901000  0.86907000  1.0 -0.2092742896
N  N155  1  0.86907000  0.12317000  0.82875000  1.0 -0.2092742896
N  N156  1  0.38093000  0.12683000  0.07099000  1.0 -0.2092742896
N  N157  1  0.07099000  0.38093000  0.12683000  1.0 -0.2092742896
N  N158  1  0.82875000  0.86907000  0.12317000  1.0 -0.2092742896
N  N159  1  0.12683000  0.07099000  0.38093000  1.0 -0.2092742896
N  N160  1  0.12317000  0.82875000  0.86907000  1.0 -0.2092742896
N  N161  1  0.12317000  0.17901000  0.82875000  1.0 -0.2092742896
N  N162  1  0.17901000  0.86907000  0.82875000  1.0 -0.2092742896
N  N163  1  0.42125000  0.38093000  0.07099000  1.0 -0.2092742896
N  N164  1  0.12683000  0.42125000  0.07099000  1.0 -0.2092742896
N  N165  1  0.17901000  0.82875000  0.12317000  1.0 -0.2092742896
N  N166  1  0.42125000  0.07099000  0.12683000  1.0 -0.2092742896
N  N167  1  0.86907000  0.17901000  0.12317000  1.0 -0.2092742896
N  N168  1  0.17901000  0.12317000  0.86907000  1.0 -0.2092742896
N  N169  1  0.62683000  0.88093000  0.57099000  1.0 -0.2092742896
N  N170  1  0.62317000  0.36907000  0.32875000  1.0 -0.2092742896
N  N171  1  0.36907000  0.32875000  0.62317000  1.0 -0.2092742896
N  N172  1  0.32875000  0.62317000  0.36907000  1.0 -0.2092742896
N  N173  1  0.36907000  0.67901000  0.32875000  1.0 -0.2092742896
N  N174  1  0.88093000  0.92125000  0.57099000  1.0 -0.2092742896
N  N175  1  0.67901000  0.62317000  0.32875000  1.0 -0.2092742896
N  N176  1  0.92125000  0.62683000  0.57099000  1.0 -0.2092742896
N  N177  1  0.67901000  0.32875000  0.36907000  1.0 -0.2092742896
N  N178  1  0.92125000  0.57099000  0.88093000  1.0 -0.2092742896
N  N179  1  0.88093000  0.62683000  0.92125000  1.0 -0.2092742896
N  N180  1  0.36907000  0.62317000  0.67901000  1.0 -0.2092742896
N  N181  1  0.67901000  0.36907000  0.62317000  1.0 -0.2092742896
N  N182  1  0.92125000  0.88093000  0.62683000  1.0 -0.2092742896
N  N183  1  0.62317000  0.67901000  0.36907000  1.0 -0.2092742896
N  N184  1  0.62683000  0.92125000  0.88093000  1.0 -0.2092742896
N  N185  1  0.62683000  0.57099000  0.92125000  1.0 -0.2092742896
N  N186  1  0.57099000  0.88093000  0.92125000  1.0 -0.2092742896
N  N187  1  0.32875000  0.36907000  0.67901000  1.0 -0.2092742896
N  N188  1  0.62317000  0.32875000  0.67901000  1.0 -0.2092742896
N  N189  1  0.57099000  0.92125000  0.62683000  1.0 -0.2092742896
N  N190  1  0.32875000  0.67901000  0.62317000  1.0 -0.2092742896
N  N191  1  0.88093000  0.57099000  0.62683000  1.0 -0.2092742896
N  N192  1  0.57099000  0.62683000  0.88093000  1.0 -0.2092742896
N  N193  1  0.15643000  0.90837000  0.09607000  1.0 -0.4688872773
N  N194  1  0.09357000  0.34163000  0.41087000  1.0 -0.4688872773
N  N195  1  0.34163000  0.41087000  0.09357000  1.0 -0.4688872773
N  N196  1  0.41087000  0.09357000  0.34163000  1.0 -0.4688872773
N  N197  1  0.34163000  0.15393000  0.41087000  1.0 -0.4688872773
N  N198  1  0.90837000  0.83913000  0.09607000  1.0 -0.4688872773
N  N199  1  0.15393000  0.09357000  0.41087000  1.0 -0.4688872773
N  N200  1  0.83913000  0.15643000  0.09607000  1.0 -0.4688872773
N  N201  1  0.15393000  0.41087000  0.34163000  1.0 -0.4688872773
N  N202  1  0.83913000  0.09607000  0.90837000  1.0 -0.4688872773
N  N203  1  0.90837000  0.15643000  0.83913000  1.0 -0.4688872773
N  N204  1  0.34163000  0.09357000  0.15393000  1.0 -0.4688872773
N  N205  1  0.15393000  0.34163000  0.09357000  1.0 -0.4688872773
N  N206  1  0.83913000  0.90837000  0.15643000  1.0 -0.4688872773
N  N207  1  0.09357000  0.15393000  0.34163000  1.0 -0.4688872773
N  N208  1  0.15643000  0.83913000  0.90837000  1.0 -0.4688872773
N  N209  1  0.15643000  0.09607000  0.83913000  1.0 -0.4688872773
N  N210  1  0.09607000  0.90837000  0.83913000  1.0 -0.4688872773
N  N211  1  0.41087000  0.34163000  0.15393000  1.0 -0.4688872773
N  N212  1  0.09357000  0.41087000  0.15393000  1.0 -0.4688872773
N  N213  1  0.09607000  0.83913000  0.15643000  1.0 -0.4688872773
N  N214  1  0.41087000  0.15393000  0.09357000  1.0 -0.4688872773
N  N215  1  0.90837000  0.09607000  0.15643000  1.0 -0.4688872773
N  N216  1  0.09607000  0.15643000  0.90837000  1.0 -0.4688872773
N  N217  1  0.59357000  0.84163000  0.65393000  1.0 -0.4688872773
N  N218  1  0.65643000  0.40837000  0.33913000  1.0 -0.4688872773
N  N219  1  0.40837000  0.33913000  0.65643000  1.0 -0.4688872773
N  N220  1  0.33913000  0.65643000  0.40837000  1.0 -0.4688872773
N  N221  1  0.40837000  0.59607000  0.33913000  1.0 -0.4688872773
N  N222  1  0.84163000  0.91087000  0.65393000  1.0 -0.4688872773
N  N223  1  0.59607000  0.65643000  0.33913000  1.0 -0.4688872773
N  N224  1  0.91087000  0.59357000  0.65393000  1.0 -0.4688872773
N  N225  1  0.59607000  0.33913000  0.40837000  1.0 -0.4688872773
N  N226  1  0.91087000  0.65393000  0.84163000  1.0 -0.4688872773
N  N227  1  0.84163000  0.59357000  0.91087000  1.0 -0.4688872773
N  N228  1  0.40837000  0.65643000  0.59607000  1.0 -0.4688872773
N  N229  1  0.59607000  0.40837000  0.65643000  1.0 -0.4688872773
N  N230  1  0.91087000  0.84163000  0.59357000  1.0 -0.4688872773
N  N231  1  0.65643000  0.59607000  0.40837000  1.0 -0.4688872773
N  N232  1  0.59357000  0.91087000  0.84163000  1.0 -0.4688872773
N  N233  1  0.59357000  0.65393000  0.91087000  1.0 -0.4688872773
N  N234  1  0.65393000  0.84163000  0.91087000  1.0 -0.4688872773
N  N235  1  0.33913000  0.40837000  0.59607000  1.0 -0.4688872773
N  N236  1  0.65643000  0.33913000  0.59607000  1.0 -0.4688872773
N  N237  1  0.65393000  0.91087000  0.59357000  1.0 -0.4688872773
N  N238  1  0.33913000  0.59607000  0.65643000  1.0 -0.4688872773
N  N239  1  0.84163000  0.65393000  0.59357000  1.0 -0.4688872773
N  N240  1  0.65393000  0.59357000  0.84163000  1.0 -0.4688872773
N  N241  1  0.19605000  0.89989000  0.17641000  1.0 -0.40688728
N  N242  1  0.05395000  0.35011000  0.52235000  1.0 -0.40688728
N  N243  1  0.35011000  0.52235000  0.05395000  1.0 -0.40688728
N  N244  1  0.52235000  0.05395000  0.35011000  1.0 -0.40688728
N  N245  1  0.35011000  0.07359000  0.52235000  1.0 -0.40688728
N  N246  1  0.89989000  0.72765000  0.17641000  1.0 -0.40688728
N  N247  1  0.07359000  0.05395000  0.52235000  1.0 -0.4022541636
N  N248  1  0.72765000  0.19605000  0.17641000  1.0 -0.40688728
N  N249  1  0.07359000  0.52235000  0.35011000  1.0 -0.4022541636
N  N250  1  0.72765000  0.17641000  0.89989000  1.0 -0.4022541636
N  N251  1  0.89989000  0.19605000  0.72765000  1.0 -0.40688728
N  N252  1  0.35011000  0.05395000  0.07359000  1.0 -0.40688728
N  N253  1  0.07359000  0.35011000  0.05395000  1.0 -0.4022541636
N  N254  1  0.72765000  0.89989000  0.19605000  1.0 -0.40688728
N  N255  1  0.05395000  0.07359000  0.35011000  1.0 -0.40688728
N  N256  1  0.19605000  0.72765000  0.89989000  1.0 -0.4022541636
N  N257  1  0.19605000  0.17641000  0.72765000  1.0 -0.40688728
N  N258  1  0.17641000  0.89989000  0.72765000  1.0 -0.4022541636
N  N259  1  0.52235000  0.35011000  0.07359000  1.0 -0.4022541636
N  N260  1  0.05395000  0.52235000  0.07359000  1.0 -0.4022541636
N  N261  1  0.17641000  0.72765000  0.19605000  1.0 -0.4022541636
N  N262  1  0.52235000  0.07359000  0.05395000  1.0 -0.4022541636
N  N263  1  0.89989000  0.17641000  0.19605000  1.0 -0.40688728
N  N264  1  0.17641000  0.19605000  0.89989000  1.0 -0.40688728
N  N265  1  0.55395000  0.85011000  0.57359000  1.0 -0.4022541636
N  N266  1  0.69605000  0.39989000  0.22765000  1.0 -0.40688728
N  N267  1  0.39989000  0.22765000  0.69605000  1.0 -0.40688728
N  N268  1  0.22765000  0.69605000  0.39989000  1.0 -0.4022541636
N  N269  1  0.39989000  0.67641000  0.22765000  1.0 -0.4022541636
N  N270  1  0.85011000  0.02235000  0.57359000  1.0 -0.40688728
N  N271  1  0.67641000  0.69605000  0.22765000  1.0 -0.40688728
N  N272  1  0.02235000  0.55395000  0.57359000  1.0 -0.4022541636
N  N273  1  0.67641000  0.22765000  0.39989000  1.0 -0.40688728
N  N274  1  0.02235000  0.57359000  0.85011000  1.0 -0.4022541636
N  N275  1  0.85011000  0.55395000  0.02235000  1.0 -0.4022541636
N  N276  1  0.39989000  0.69605000  0.67641000  1.0 -0.40688728
N  N277  1  0.67641000  0.39989000  0.69605000  1.0 -0.4022541636
N  N278  1  0.02235000  0.85011000  0.55395000  1.0 -0.40688728
N  N279  1  0.69605000  0.67641000  0.39989000  1.0 -0.4022541636
N  N280  1  0.55395000  0.02235000  0.85011000  1.0 -0.40688728
N  N281  1  0.55395000  0.57359000  0.02235000  1.0 -0.40688728
N  N282  1  0.57359000  0.85011000  0.02235000  1.0 -0.4022541636
N  N283  1  0.22765000  0.39989000  0.67641000  1.0 -0.4022541636
N  N284  1  0.69605000  0.22765000  0.67641000  1.0 -0.4022541636
N  N285  1  0.57359000  0.02235000  0.55395000  1.0 -0.4022541636
N  N286  1  0.22765000  0.67641000  0.69605000  1.0 -0.40688728
N  N287  1  0.85011000  0.57359000  0.55395000  1.0 -0.4022541636
N  N288  1  0.57359000  0.55395000  0.85011000  1.0 -0.40688728
N  N289  1  0.16792000  0.88340000  0.33498000  1.0 -0.2092742896
N  N290  1  0.08208000  0.36660000  0.63630000  1.0 -0.2092742896
N  N291  1  0.36660000  0.63630000  0.08208000  1.0 -0.2092742896
N  N292  1  0.63630000  0.08208000  0.36660000  1.0 -0.2092742896
N  N293  1  0.36660000  0.91502000  0.63630000  1.0 -0.2092742896
N  N294  1  0.88340000  0.61370000  0.33498000  1.0 -0.2092742896
N  N295  1  0.91502000  0.08208000  0.63630000  1.0 -0.2092742896
N  N296  1  0.61370000  0.16792000  0.33498000  1.0 -0.2092742896
N  N297  1  0.91502000  0.63630000  0.36660000  1.0 -0.2092742896
N  N298  1  0.61370000  0.33498000  0.88340000  1.0 -0.2092742896
N  N299  1  0.88340000  0.16792000  0.61370000  1.0 -0.2092742896
N  N300  1  0.36660000  0.08208000  0.91502000  1.0 -0.2092742896
N  N301  1  0.91502000  0.36660000  0.08208000  1.0 -0.2092742896
N  N302  1  0.61370000  0.88340000  0.16792000  1.0 -0.2092742896
N  N303  1  0.08208000  0.91502000  0.36660000  1.0 -0.2092742896
N  N304  1  0.16792000  0.61370000  0.88340000  1.0 -0.2092742896
N  N305  1  0.16792000  0.33498000  0.61370000  1.0 -0.2092742896
N  N306  1  0.33498000  0.88340000  0.61370000  1.0 -0.2092742896
N  N307  1  0.63630000  0.36660000  0.91502000  1.0 -0.2092742896
N  N308  1  0.08208000  0.63630000  0.91502000  1.0 -0.2092742896
N  N309  1  0.33498000  0.61370000  0.16792000  1.0 -0.2092742896
N  N310  1  0.63630000  0.91502000  0.08208000  1.0 -0.2092742896
N  N311  1  0.88340000  0.33498000  0.16792000  1.0 -0.2092742896
N  N312  1  0.33498000  0.16792000  0.88340000  1.0 -0.2092742896
N  N313  1  0.58208000  0.86660000  0.41502000  1.0 -0.2092742896
N  N314  1  0.66792000  0.38340000  0.11370000  1.0 -0.2092742896
N  N315  1  0.38340000  0.11370000  0.66792000  1.0 -0.2092742896
N  N316  1  0.11370000  0.66792000  0.38340000  1.0 -0.2092742896
N  N317  1  0.38340000  0.83498000  0.11370000  1.0 -0.2092742896
N  N318  1  0.86660000  0.13630000  0.41502000  1.0 -0.2092742896
N  N319  1  0.83498000  0.66792000  0.11370000  1.0 -0.2092742896
N  N320  1  0.13630000  0.58208000  0.41502000  1.0 -0.2092742896
N  N321  1  0.83498000  0.11370000  0.38340000  1.0 -0.2092742896
N  N322  1  0.13630000  0.41502000  0.86660000  1.0 -0.2092742896
N  N323  1  0.86660000  0.58208000  0.13630000  1.0 -0.2092742896
N  N324  1  0.38340000  0.66792000  0.83498000  1.0 -0.2092742896
N  N325  1  0.83498000  0.38340000  0.66792000  1.0 -0.2092742896
N  N326  1  0.13630000  0.86660000  0.58208000  1.0 -0.2092742896
N  N327  1  0.66792000  0.83498000  0.38340000  1.0 -0.2092742896
N  N328  1  0.58208000  0.13630000  0.86660000  1.0 -0.2092742896
N  N329  1  0.58208000  0.41502000  0.13630000  1.0 -0.2092742896
N  N330  1  0.41502000  0.86660000  0.13630000  1.0 -0.2092742896
N  N331  1  0.11370000  0.38340000  0.83498000  1.0 -0.2092742896
N  N332  1  0.66792000  0.11370000  0.83498000  1.0 -0.2092742896
N  N333  1  0.41502000  0.13630000  0.58208000  1.0 -0.2092742896
N  N334  1  0.11370000  0.83498000  0.66792000  1.0 -0.2092742896
N  N335  1  0.86660000  0.41502000  0.58208000  1.0 -0.2092742896
N  N336  1  0.41502000  0.58208000  0.86660000  1.0 -0.2092742896
N  N337  1  0.11819000  0.84253000  0.35891000  1.0 -0.4816099719
N  N338  1  0.13181000  0.40747000  0.56963000  1.0 -0.4816099719
N  N339  1  0.40747000  0.56963000  0.13181000  1.0 -0.4816099719
N  N340  1  0.56963000  0.13181000  0.40747000  1.0 -0.4816099719
N  N341  1  0.40747000  0.89109000  0.56963000  1.0 -0.4816099719
N  N342  1  0.84253000  0.68037000  0.35891000  1.0 -0.4816099719
N  N343  1  0.89109000  0.13181000  0.56963000  1.0 -0.4816099719
N  N344  1  0.68037000  0.11819000  0.35891000  1.0 -0.4816099719
N  N345  1  0.89109000  0.56963000  0.40747000  1.0 -0.4816099719
N  N346  1  0.68037000  0.35891000  0.84253000  1.0 -0.4816099719
N  N347  1  0.84253000  0.11819000  0.68037000  1.0 -0.4816099719
N  N348  1  0.40747000  0.13181000  0.89109000  1.0 -0.4816099719
N  N349  1  0.89109000  0.40747000  0.13181000  1.0 -0.4816099719
N  N350  1  0.68037000  0.84253000  0.11819000  1.0 -0.4816099719
N  N351  1  0.13181000  0.89109000  0.40747000  1.0 -0.4816099719
N  N352  1  0.11819000  0.68037000  0.84253000  1.0 -0.4816099719
N  N353  1  0.11819000  0.35891000  0.68037000  1.0 -0.4816099719
N  N354  1  0.35891000  0.84253000  0.68037000  1.0 -0.4816099719
N  N355  1  0.56963000  0.40747000  0.89109000  1.0 -0.4816099719
N  N356  1  0.13181000  0.56963000  0.89109000  1.0 -0.4816099719
N  N357  1  0.35891000  0.68037000  0.11819000  1.0 -0.4816099719
N  N358  1  0.56963000  0.89109000  0.13181000  1.0 -0.4816099719
N  N359  1  0.84253000  0.35891000  0.11819000  1.0 -0.4816099719
N  N360  1  0.35891000  0.11819000  0.84253000  1.0 -0.4816099719
N  N361  1  0.63181000  0.90747000  0.39109000  1.0 -0.4816099719
N  N362  1  0.61819000  0.34253000  0.18037000  1.0 -0.4816099719
N  N363  1  0.34253000  0.18037000  0.61819000  1.0 -0.4816099719
N  N364  1  0.18037000  0.61819000  0.34253000  1.0 -0.4816099719
N  N365  1  0.34253000  0.85891000  0.18037000  1.0 -0.4816099719
N  N366  1  0.90747000  0.06963000  0.39109000  1.0 -0.4816099719
N  N367  1  0.85891000  0.61819000  0.18037000  1.0 -0.4816099719
N  N368  1  0.06963000  0.63181000  0.39109000  1.0 -0.4816099719
N  N369  1  0.85891000  0.18037000  0.34253000  1.0 -0.4816099719
N  N370  1  0.06963000  0.39109000  0.90747000  1.0 -0.4816099719
N  N371  1  0.90747000  0.63181000  0.06963000  1.0 -0.4816099719
N  N372  1  0.34253000  0.61819000  0.85891000  1.0 -0.4816099719
N  N373  1  0.85891000  0.34253000  0.61819000  1.0 -0.4816099719
N  N374  1  0.06963000  0.90747000  0.63181000  1.0 -0.4816099719
N  N375  1  0.61819000  0.85891000  0.34253000  1.0 -0.4816099719
N  N376  1  0.63181000  0.06963000  0.90747000  1.0 -0.4816099719
N  N377  1  0.63181000  0.39109000  0.06963000  1.0 -0.4816099719
N  N378  1  0.39109000  0.90747000  0.06963000  1.0 -0.4816099719
N  N379  1  0.18037000  0.34253000  0.85891000  1.0 -0.4816099719
N  N380  1  0.61819000  0.18037000  0.85891000  1.0 -0.4816099719
N  N381  1  0.39109000  0.06963000  0.63181000  1.0 -0.4816099719
N  N382  1  0.18037000  0.85891000  0.61819000  1.0 -0.4816099719
N  N383  1  0.90747000  0.39109000  0.63181000  1.0 -0.4816099719
N  N384  1  0.39109000  0.63181000  0.90747000  1.0 -0.4816099719
N  N385  1  0.95465000  0.98371000  0.13871000  1.0 -0.4022541636
N  N386  1  0.29535000  0.26629000  0.32707000  1.0 -0.4022541636
N  N387  1  0.26629000  0.32707000  0.29535000  1.0 -0.4022541636
N  N388  1  0.32707000  0.29535000  0.26629000  1.0 -0.4022541636
N  N389  1  0.26629000  0.11129000  0.32707000  1.0 -0.40688728
N  N390  1  0.98371000  0.92293000  0.13871000  1.0 -0.4022541636
N  N391  1  0.11129000  0.29535000  0.32707000  1.0 -0.40688728
N  N392  1  0.92293000  0.95465000  0.13871000  1.0 -0.4022541636
N  N393  1  0.11129000  0.32707000  0.26629000  1.0 -0.40688728
N  N394  1  0.92293000  0.13871000  0.98371000  1.0 -0.40688728
N  N395  1  0.98371000  0.95465000  0.92293000  1.0 -0.4022541636
N  N396  1  0.26629000  0.29535000  0.11129000  1.0 -0.40688728
N  N397  1  0.11129000  0.26629000  0.29535000  1.0 -0.4022541636
N  N398  1  0.92293000  0.98371000  0.95465000  1.0 -0.40688728
N  N399  1  0.29535000  0.11129000  0.26629000  1.0 -0.40688728
N  N400  1  0.95465000  0.92293000  0.98371000  1.0 -0.40688728
N  N401  1  0.95465000  0.13871000  0.92293000  1.0 -0.4022541636
N  N402  1  0.13871000  0.98371000  0.92293000  1.0 -0.4022541636
N  N403  1  0.32707000  0.26629000  0.11129000  1.0 -0.4022541636
N  N404  1  0.29535000  0.32707000  0.11129000  1.0 -0.4022541636
N  N405  1  0.13871000  0.92293000  0.95465000  1.0 -0.4022541636
N  N406  1  0.32707000  0.11129000  0.29535000  1.0 -0.40688728
N  N407  1  0.98371000  0.13871000  0.95465000  1.0 -0.40688728
N  N408  1  0.13871000  0.95465000  0.98371000  1.0 -0.4022541636
N  N409  1  0.79535000  0.76629000  0.61129000  1.0 -0.40688728
N  N410  1  0.45465000  0.48371000  0.42293000  1.0 -0.40688728
N  N411  1  0.48371000  0.42293000  0.45465000  1.0 -0.40688728
N  N412  1  0.42293000  0.45465000  0.48371000  1.0 -0.40688728
N  N413  1  0.48371000  0.63871000  0.42293000  1.0 -0.40688728
N  N414  1  0.76629000  0.82707000  0.61129000  1.0 -0.40688728
N  N415  1  0.63871000  0.45465000  0.42293000  1.0 -0.4022541636
N  N416  1  0.82707000  0.79535000  0.61129000  1.0 -0.40688728
N  N417  1  0.63871000  0.42293000  0.48371000  1.0 -0.4022541636
N  N418  1  0.82707000  0.61129000  0.76629000  1.0 -0.40688728
N  N419  1  0.76629000  0.79535000  0.82707000  1.0 -0.40688728
N  N420  1  0.48371000  0.45465000  0.63871000  1.0 -0.40688728
N  N421  1  0.63871000  0.48371000  0.45465000  1.0 -0.4022541636
N  N422  1  0.82707000  0.76629000  0.79535000  1.0 -0.4022541636
N  N423  1  0.45465000  0.63871000  0.48371000  1.0 -0.4022541636
N  N424  1  0.79535000  0.82707000  0.76629000  1.0 -0.40688728
N  N425  1  0.79535000  0.61129000  0.82707000  1.0 -0.40688728
N  N426  1  0.61129000  0.76629000  0.82707000  1.0 -0.4022541636
N  N427  1  0.42293000  0.48371000  0.63871000  1.0 -0.40688728
N  N428  1  0.45465000  0.42293000  0.63871000  1.0 -0.40688728
N  N429  1  0.61129000  0.82707000  0.79535000  1.0 -0.4022541636
N  N430  1  0.42293000  0.63871000  0.45465000  1.0 -0.4022541636
N  N431  1  0.76629000  0.61129000  0.79535000  1.0 -0.40688728
N  N432  1  0.61129000  0.79535000  0.76629000  1.0 -0.4022541636
N  N433  1  0.31495000  0.90549000  0.11397000  1.0 -0.2092742896
N  N434  1  0.93505000  0.34451000  0.58441000  1.0 -0.2092742896
N  N435  1  0.34451000  0.58441000  0.93505000  1.0 -0.2092742896
N  N436  1  0.58441000  0.93505000  0.34451000  1.0 -0.2092742896
N  N437  1  0.34451000  0.13603000  0.58441000  1.0 -0.2092742896
N  N438  1  0.90549000  0.66559000  0.11397000  1.0 -0.2092742896
N  N439  1  0.13603000  0.93505000  0.58441000  1.0 -0.2092742896
N  N440  1  0.66559000  0.31495000  0.11397000  1.0 -0.2092742896
N  N441  1  0.13603000  0.58441000  0.34451000  1.0 -0.2092742896
N  N442  1  0.66559000  0.11397000  0.90549000  1.0 -0.2092742896
N  N443  1  0.90549000  0.31495000  0.66559000  1.0 -0.2092742896
N  N444  1  0.34451000  0.93505000  0.13603000  1.0 -0.2092742896
N  N445  1  0.13603000  0.34451000  0.93505000  1.0 -0.2092742896
N  N446  1  0.66559000  0.90549000  0.31495000  1.0 -0.2092742896
N  N447  1  0.93505000  0.13603000  0.34451000  1.0 -0.2092742896
N  N448  1  0.31495000  0.66559000  0.90549000  1.0 -0.2092742896
N  N449  1  0.31495000  0.11397000  0.66559000  1.0 -0.2092742896
N  N450  1  0.11397000  0.90549000  0.66559000  1.0 -0.2092742896
N  N451  1  0.58441000  0.34451000  0.13603000  1.0 -0.2092742896
N  N452  1  0.93505000  0.58441000  0.13603000  1.0 -0.2092742896
N  N453  1  0.11397000  0.66559000  0.31495000  1.0 -0.2092742896
N  N454  1  0.58441000  0.13603000  0.93505000  1.0 -0.2092742896
N  N455  1  0.90549000  0.11397000  0.31495000  1.0 -0.2092742896
N  N456  1  0.11397000  0.31495000  0.90549000  1.0 -0.2092742896
N  N457  1  0.43505000  0.84451000  0.63603000  1.0 -0.2092742896
N  N458  1  0.81495000  0.40549000  0.16559000  1.0 -0.2092742896
N  N459  1  0.40549000  0.16559000  0.81495000  1.0 -0.2092742896
N  N460  1  0.16559000  0.81495000  0.40549000  1.0 -0.2092742896
N  N461  1  0.40549000  0.61397000  0.16559000  1.0 -0.2092742896
N  N462  1  0.84451000  0.08441000  0.63603000  1.0 -0.2092742896
N  N463  1  0.61397000  0.81495000  0.16559000  1.0 -0.2092742896
N  N464  1  0.08441000  0.43505000  0.63603000  1.0 -0.2092742896
N  N465  1  0.61397000  0.16559000  0.40549000  1.0 -0.2092742896
N  N466  1  0.08441000  0.63603000  0.84451000  1.0 -0.2092742896
N  N467  1  0.84451000  0.43505000  0.08441000  1.0 -0.2092742896
N  N468  1  0.40549000  0.81495000  0.61397000  1.0 -0.2092742896
N  N469  1  0.61397000  0.40549000  0.81495000  1.0 -0.2092742896
N  N470  1  0.08441000  0.84451000  0.43505000  1.0 -0.2092742896
N  N471  1  0.81495000  0.61397000  0.40549000  1.0 -0.2092742896
N  N472  1  0.43505000  0.08441000  0.84451000  1.0 -0.2092742896
N  N473  1  0.43505000  0.63603000  0.08441000  1.0 -0.2092742896
N  N474  1  0.63603000  0.84451000  0.08441000  1.0 -0.2092742896
N  N475  1  0.16559000  0.40549000  0.61397000  1.0 -0.2092742896
N  N476  1  0.81495000  0.16559000  0.61397000  1.0 -0.2092742896
N  N477  1  0.63603000  0.08441000  0.43505000  1.0 -0.2092742896
N  N478  1  0.16559000  0.61397000  0.81495000  1.0 -0.2092742896
N  N479  1  0.84451000  0.63603000  0.43505000  1.0 -0.2092742896
N  N480  1  0.63603000  0.43505000  0.84451000  1.0 -0.2092742896
