# DDEC6 charges by PACMAN v1.1 (https://github.com/mtap-research/PACMAN-charge/)
data_LAHVAU_ASR_pacman
_symmetry_space_group_name_H-M   'P 1'
_cell_length_a   12.20000000
_cell_length_b   26.58000000
_cell_length_c   18.62000000
_cell_angle_alpha   90.00000000
_cell_angle_beta   104.82000000
_cell_angle_gamma   90.00000000
_symmetry_Int_Tables_number   1
_chemical_formula_structural   Cd2H19C37(N3O4)2
_chemical_formula_sum   'Cd8 H76 C148 N24 O32'
_cell_volume   5837.15935600
_cell_formula_units_Z   4
loop_
 _symmetry_equiv_pos_site_id
 _symmetry_equiv_pos_as_xyz
  1  'x, y, z'
loop_
 _atom_site_type_symbol
 _atom_site_label
 _atom_site_symmetry_multiplicity
 _atom_site_fract_x
 _atom_site_fract_y
 _atom_site_fract_z
 _atom_site_occupancy
 _atom_site_charge
Cd  Cd1  1  0.21596000  0.17001000  0.20362000  1.0 0.8289604183
Cd  Cd2  1  0.78404000  0.17001000  0.79638000  1.0 0.8289604183
Cd  Cd3  1  0.78404000  0.82999000  0.79638000  1.0 0.8289604183
Cd  Cd4  1  0.21596000  0.82999000  0.20362000  1.0 0.8289604183
Cd  Cd5  1  0.61612000  0.32871000  0.22147000  1.0 0.8768206086
Cd  Cd6  1  0.38388000  0.32871000  0.77853000  1.0 0.8768206086
Cd  Cd7  1  0.38388000  0.67129000  0.77853000  1.0 0.8768206086
Cd  Cd8  1  0.61612000  0.67129000  0.22147000  1.0 0.8768206086
H  H1  1  0.46320000  0.19570000  0.29730000  1.0 0.1190287765
H  H2  1  0.53680000  0.19570000  0.70270000  1.0 0.1190287765
H  H3  1  0.53680000  0.80430000  0.70270000  1.0 0.1190287765
H  H4  1  0.46320000  0.80430000  0.29730000  1.0 0.1190287765
H  H5  1  0.13540000  0.00000000  0.18690000  1.0 0.1383364327
H  H6  1  0.86460000  0.00000000  0.81310000  1.0 0.1383364327
H  H7  1  0.95140000  0.29980000  0.12100000  1.0 0.1282784235
H  H8  1  0.04860000  0.29980000  0.87900000  1.0 0.1282784235
H  H9  1  0.04860000  0.70020000  0.87900000  1.0 0.1282784235
H  H10  1  0.95140000  0.70020000  0.12100000  1.0 0.1282784235
H  H11  1  0.66980000  0.14990000  0.27990000  1.0 0.1282784235
H  H12  1  0.33020000  0.14990000  0.72010000  1.0 0.1282784235
H  H13  1  0.33020000  0.85010000  0.72010000  1.0 0.1282784235
H  H14  1  0.66980000  0.85010000  0.27990000  1.0 0.1282784235
H  H15  1  0.05570000  0.50000000  0.21530000  1.0 0.1190287765
H  H16  1  0.94430000  0.50000000  0.78470000  1.0 0.1190287765
H  H17  1  0.78630000  0.19970000  0.11100000  1.0 0.1383364327
H  H18  1  0.21370000  0.19970000  0.88900000  1.0 0.1383364327
H  H19  1  0.21370000  0.80030000  0.88900000  1.0 0.1383364327
H  H20  1  0.78630000  0.80030000  0.11100000  1.0 0.1383364327
H  H21  1  0.50620000  0.23020000  0.06670000  1.0 0.1383364327
H  H22  1  0.49380000  0.23020000  0.93330000  1.0 0.1383364327
H  H23  1  0.49380000  0.76980000  0.93330000  1.0 0.1383364327
H  H24  1  0.50620000  0.76980000  0.06670000  1.0 0.1383364327
H  H25  1  0.75880000  0.00000000  0.18820000  1.0 0.1190287765
H  H26  1  0.24120000  0.00000000  0.81180000  1.0 0.1190287765
H  H27  1  0.70670000  0.37000000  0.38700000  1.0 0.1190287765
H  H28  1  0.29330000  0.37000000  0.61300000  1.0 0.1190287765
H  H29  1  0.29330000  0.63000000  0.61300000  1.0 0.1190287765
H  H30  1  0.70670000  0.63000000  0.38700000  1.0 0.1190287765
H  H31  1  0.28160000  0.09790000  0.08480000  1.0 0.1282784235
H  H32  1  0.71840000  0.09790000  0.91520000  1.0 0.1282784235
H  H33  1  0.71840000  0.90210000  0.91520000  1.0 0.1282784235
H  H34  1  0.28160000  0.90210000  0.08480000  1.0 0.1282784235
H  H35  1  0.88840000  0.12830000  0.11320000  1.0 0.1282784235
H  H36  1  0.11160000  0.12830000  0.88680000  1.0 0.1282784235
H  H37  1  0.11160000  0.87170000  0.88680000  1.0 0.1282784235
H  H38  1  0.88840000  0.87170000  0.11320000  1.0 0.1282784235
H  H39  1  0.74680000  0.07420000  0.26720000  1.0 0.1282784235
H  H40  1  0.25320000  0.07420000  0.73280000  1.0 0.1282784235
H  H41  1  0.25320000  0.92580000  0.73280000  1.0 0.1282784235
H  H42  1  0.74680000  0.92580000  0.26720000  1.0 0.1282784235
H  H43  1  0.42810000  0.30360000  0.30120000  1.0 0.1282784235
H  H44  1  0.57190000  0.30360000  0.69880000  1.0 0.1282784235
H  H45  1  0.57190000  0.69640000  0.69880000  1.0 0.1282784235
H  H46  1  0.42810000  0.69640000  0.30120000  1.0 0.1282784235
H  H47  1  0.85900000  0.37340000  0.13510000  1.0 0.1190287765
H  H48  1  0.14100000  0.37340000  0.86490000  1.0 0.1190287765
H  H49  1  0.14100000  0.62660000  0.86490000  1.0 0.1190287765
H  H50  1  0.85900000  0.62660000  0.13510000  1.0 0.1190287765
H  H51  1  0.39290000  0.23180000  0.14260000  1.0 0.1190287765
H  H52  1  0.60710000  0.23180000  0.85740000  1.0 0.1190287765
H  H53  1  0.60710000  0.76820000  0.85740000  1.0 0.1190287765
H  H54  1  0.39290000  0.76820000  0.14260000  1.0 0.1190287765
H  H55  1  0.68340000  0.50000000  0.21920000  1.0 0.1383364327
H  H56  1  0.31660000  0.50000000  0.78080000  1.0 0.1383364327
H  H57  1  0.22740000  0.34730000  0.27670000  1.0 0.1282784235
H  H58  1  0.77260000  0.34730000  0.72330000  1.0 0.1282784235
H  H59  1  0.77260000  0.65270000  0.72330000  1.0 0.1282784235
H  H60  1  0.22740000  0.65270000  0.27670000  1.0 0.1282784235
H  H61  1  0.22990000  0.12230000  0.35920000  1.0 0.1190287765
H  H62  1  0.77010000  0.12230000  0.64080000  1.0 0.1190287765
H  H63  1  0.77010000  0.87770000  0.64080000  1.0 0.1190287765
H  H64  1  0.22990000  0.87770000  0.35920000  1.0 0.1190287765
H  H65  1  0.32070000  0.13490000  0.48020000  1.0 0.1282784235
H  H66  1  0.67930000  0.13490000  0.51980000  1.0 0.1282784235
H  H67  1  0.67930000  0.86510000  0.51980000  1.0 0.1282784235
H  H68  1  0.32070000  0.86510000  0.48020000  1.0 0.1282784235
H  H69  1  0.12860000  0.42260000  0.28940000  1.0 0.1190287765
H  H70  1  0.87140000  0.42260000  0.71060000  1.0 0.1190287765
H  H71  1  0.87140000  0.57740000  0.71060000  1.0 0.1190287765
H  H72  1  0.12860000  0.57740000  0.28940000  1.0 0.1190287765
H  H73  1  0.67420000  0.36480000  0.50270000  1.0 0.1282784235
H  H74  1  0.32580000  0.36480000  0.49730000  1.0 0.1282784235
H  H75  1  0.32580000  0.63520000  0.49730000  1.0 0.1282784235
H  H76  1  0.67420000  0.63520000  0.50270000  1.0 0.1282784235
C  C1  1  0.43850000  0.18080000  0.33560000  1.0 -0.0020744402
C  C2  1  0.56150000  0.18080000  0.66440000  1.0 -0.0020744402
C  C3  1  0.56150000  0.81920000  0.66440000  1.0 -0.0020744402
C  C4  1  0.43850000  0.81920000  0.33560000  1.0 -0.0020744402
C  C5  1  0.06090000  0.00000000  0.19080000  1.0 -0.0890568498
C  C6  1  0.93910000  0.00000000  0.80920000  1.0 -0.0890568498
C  C7  1  0.46480000  0.16130000  0.02660000  1.0 0.0596117034
C  C8  1  0.53520000  0.16130000  0.97340000  1.0 0.0596117034
C  C9  1  0.53520000  0.83870000  0.97340000  1.0 0.0596117034
C  C10  1  0.46480000  0.83870000  0.02660000  1.0 0.0596117034
C  C11  1  0.98650000  0.32360000  0.15600000  1.0 -0.0802826736
C  C12  1  0.01350000  0.32360000  0.84400000  1.0 -0.0802826736
C  C13  1  0.01350000  0.67640000  0.84400000  1.0 -0.0802826736
C  C14  1  0.98650000  0.67640000  0.15600000  1.0 -0.0802826736
C  C15  1  0.74910000  0.40630000  0.22360000  1.0 0.5293600704
C  C16  1  0.25090000  0.40630000  0.77640000  1.0 0.5293600704
C  C17  1  0.25090000  0.59370000  0.77640000  1.0 0.5293600704
C  C18  1  0.74910000  0.59370000  0.22360000  1.0 0.5293600704
C  C19  1  0.71130000  0.14510000  0.24490000  1.0 -0.0802826736
C  C20  1  0.28870000  0.14510000  0.75510000  1.0 -0.0802826736
C  C21  1  0.28870000  0.85490000  0.75510000  1.0 -0.0802826736
C  C22  1  0.71130000  0.85490000  0.24490000  1.0 -0.0802826736
C  C23  1  0.14540000  0.26500000  0.19750000  1.0 0.5293600704
C  C24  1  0.85460000  0.26500000  0.80250000  1.0 0.5293600704
C  C25  1  0.85460000  0.73500000  0.80250000  1.0 0.5293600704
C  C26  1  0.14540000  0.73500000  0.19750000  1.0 0.5293600704
C  C27  1  0.07740000  0.09100000  0.19990000  1.0 0.5573279556
C  C28  1  0.92260000  0.09100000  0.80010000  1.0 0.5573279556
C  C29  1  0.92260000  0.90900000  0.80010000  1.0 0.5573279556
C  C30  1  0.07740000  0.90900000  0.19990000  1.0 0.5573279556
C  C31  1  0.51220000  0.18390000  0.40490000  1.0 0.1564698141
C  C32  1  0.48780000  0.18390000  0.59510000  1.0 0.1564698141
C  C33  1  0.48780000  0.81610000  0.59510000  1.0 0.1564698141
C  C34  1  0.51220000  0.81610000  0.40490000  1.0 0.1564698141
C  C35  1  0.97890000  0.50000000  0.21390000  1.0 -0.1775207622
C  C36  1  0.02110000  0.50000000  0.78610000  1.0 -0.1775207622
C  C37  1  0.98720000  0.40640000  0.21110000  1.0 0.0699550226
C  C38  1  0.01280000  0.40640000  0.78890000  1.0 0.0699550226
C  C39  1  0.01280000  0.59360000  0.78890000  1.0 0.0699550226
C  C40  1  0.98720000  0.59360000  0.21110000  1.0 0.0699550226
C  C41  1  0.78450000  0.17510000  0.14620000  1.0 -0.0802826736
C  C42  1  0.21550000  0.17510000  0.85380000  1.0 -0.0890568498
C  C43  1  0.21550000  0.82490000  0.85380000  1.0 -0.0890568498
C  C44  1  0.78450000  0.82490000  0.14620000  1.0 -0.0802826736
C  C45  1  0.89460000  0.04450000  0.19480000  1.0 0.0596117034
C  C46  1  0.10540000  0.04450000  0.80520000  1.0 0.0596117034
C  C47  1  0.10540000  0.95550000  0.80520000  1.0 0.0596117034
C  C48  1  0.89460000  0.95550000  0.19480000  1.0 0.0596117034
C  C49  1  0.92710000  0.45390000  0.21290000  1.0 0.0596117034
C  C50  1  0.07290000  0.45390000  0.78710000  1.0 0.0596117034
C  C51  1  0.07290000  0.54610000  0.78710000  1.0 0.0596117034
C  C52  1  0.92710000  0.54610000  0.21290000  1.0 0.0596117034
C  C53  1  0.72460000  0.18370000  0.19650000  1.0 -0.0300152983
C  C54  1  0.27540000  0.18370000  0.80350000  1.0 -0.0300152983
C  C55  1  0.27540000  0.81630000  0.80350000  1.0 -0.0300152983
C  C56  1  0.72460000  0.81630000  0.19650000  1.0 -0.0300152983
C  C57  1  0.00790000  0.04480000  0.19360000  1.0 -0.0590801112
C  C58  1  0.99210000  0.04480000  0.80640000  1.0 -0.0590801112
C  C59  1  0.99210000  0.95520000  0.80640000  1.0 -0.0590801112
C  C60  1  0.00790000  0.95520000  0.19360000  1.0 -0.0590801112
C  C61  1  0.46150000  0.20230000  0.06960000  1.0 -0.2084888075
C  C62  1  0.53850000  0.20230000  0.93040000  1.0 -0.2084888075
C  C63  1  0.53850000  0.79770000  0.93040000  1.0 -0.2084888075
C  C64  1  0.46150000  0.79770000  0.06960000  1.0 -0.2084888075
C  C65  1  0.83630000  0.00000000  0.19200000  1.0 -0.1724276323
C  C66  1  0.16370000  0.00000000  0.80800000  1.0 -0.1724276323
C  C67  1  0.63920000  0.35560000  0.39150000  1.0 0.0699550226
C  C68  1  0.36080000  0.35560000  0.60850000  1.0 0.0699550226
C  C69  1  0.36080000  0.64440000  0.60850000  1.0 0.0699550226
C  C70  1  0.63920000  0.64440000  0.39150000  1.0 0.0699550226
C  C71  1  0.32910000  0.12450000  0.08070000  1.0 -0.070629354
C  C72  1  0.67090000  0.12450000  0.91930000  1.0 -0.070629354
C  C73  1  0.67090000  0.87550000  0.91930000  1.0 -0.070629354
C  C74  1  0.32910000  0.87550000  0.08070000  1.0 -0.070629354
C  C75  1  0.67870000  0.23390000  0.20600000  1.0 0.5573279556
C  C76  1  0.32130000  0.23390000  0.79400000  1.0 0.5573279556
C  C77  1  0.32130000  0.76610000  0.79400000  1.0 0.5573279556
C  C78  1  0.67870000  0.76610000  0.20600000  1.0 0.5573279556
C  C79  1  0.83020000  0.09170000  0.19430000  1.0 0.084383003
C  C80  1  0.16980000  0.09170000  0.80570000  1.0 0.084383003
C  C81  1  0.16980000  0.90830000  0.80570000  1.0 0.084383003
C  C82  1  0.83020000  0.90830000  0.19430000  1.0 0.084383003
C  C83  1  0.84170000  0.13200000  0.14530000  1.0 -0.1191640664
C  C84  1  0.15830000  0.13200000  0.85470000  1.0 -0.1191640664
C  C85  1  0.15830000  0.86800000  0.85470000  1.0 -0.1191640664
C  C86  1  0.84170000  0.86800000  0.14530000  1.0 -0.1191640664
C  C87  1  0.76130000  0.10080000  0.23850000  1.0 -0.137307499
C  C88  1  0.23870000  0.10080000  0.76150000  1.0 -0.137307499
C  C89  1  0.23870000  0.89920000  0.76150000  1.0 -0.137307499
C  C90  1  0.76130000  0.89920000  0.23850000  1.0 -0.137307499
C  C91  1  0.46620000  0.16200000  0.46250000  1.0 0.0596117034
C  C92  1  0.53380000  0.16200000  0.53750000  1.0 0.0596117034
C  C93  1  0.53380000  0.83800000  0.53750000  1.0 0.0596117034
C  C94  1  0.46620000  0.83800000  0.46250000  1.0 0.0596117034
C  C95  1  0.10050000  0.31400000  0.20520000  1.0 -0.0542318154
C  C96  1  0.89950000  0.31400000  0.79480000  1.0 -0.0542318154
C  C97  1  0.89950000  0.68600000  0.79480000  1.0 -0.0542318154
C  C98  1  0.10050000  0.68600000  0.20520000  1.0 -0.0542318154
C  C99  1  0.47600000  0.31800000  0.34310000  1.0 -0.0374833759
C  C100  1  0.52400000  0.31800000  0.65690000  1.0 -0.0374833759
C  C101  1  0.52400000  0.68200000  0.65690000  1.0 -0.0374833759
C  C102  1  0.47600000  0.68200000  0.34310000  1.0 -0.0374833759
C  C103  1  0.93310000  0.36840000  0.16310000  1.0 -0.1191640664
C  C104  1  0.06690000  0.36840000  0.83690000  1.0 -0.1191640664
C  C105  1  0.06690000  0.63160000  0.83690000  1.0 -0.1191640664
C  C106  1  0.93310000  0.63160000  0.16310000  1.0 -0.1191640664
C  C107  1  0.81170000  0.45400000  0.21330000  1.0 -0.0300152983
C  C108  1  0.18830000  0.45400000  0.78670000  1.0 -0.0300152983
C  C109  1  0.18830000  0.54600000  0.78670000  1.0 -0.0300152983
C  C110  1  0.81170000  0.54600000  0.21330000  1.0 -0.0300152983
C  C111  1  0.39430000  0.20240000  0.11570000  1.0 0.0859752219
C  C112  1  0.60570000  0.20240000  0.88430000  1.0 0.0859752219
C  C113  1  0.60570000  0.79760000  0.88430000  1.0 0.0859752219
C  C114  1  0.39430000  0.79760000  0.11570000  1.0 0.0859752219
C  C115  1  0.75810000  0.50000000  0.21580000  1.0 -0.1191640664
C  C116  1  0.24190000  0.50000000  0.78420000  1.0 -0.1191640664
C  C117  1  0.43820000  0.31400000  0.40080000  1.0 0.1190287765
C  C118  1  0.56180000  0.31400000  0.59920000  1.0 0.1190287765
C  C119  1  0.56180000  0.68600000  0.59920000  1.0 0.1190287765
C  C120  1  0.43820000  0.68600000  0.40080000  1.0 0.1190287765
C  C121  1  0.38920000  0.12020000  0.03180000  1.0 0.1383364327
C  C122  1  0.61080000  0.12020000  0.96820000  1.0 0.1383364327
C  C123  1  0.61080000  0.87980000  0.96820000  1.0 0.1383364327
C  C124  1  0.38920000  0.87980000  0.03180000  1.0 0.1383364327
C  C125  1  0.15260000  0.35140000  0.24940000  1.0 -0.070629354
C  C126  1  0.84740000  0.35140000  0.75060000  1.0 -0.070629354
C  C127  1  0.84740000  0.64860000  0.75060000  1.0 -0.070629354
C  C128  1  0.15260000  0.64860000  0.24940000  1.0 -0.070629354
C  C129  1  0.29830000  0.13970000  0.37110000  1.0 0.0531989146
C  C130  1  0.70170000  0.13970000  0.62890000  1.0 0.0531989146
C  C131  1  0.70170000  0.86030000  0.62890000  1.0 0.0531989146
C  C132  1  0.29830000  0.86030000  0.37110000  1.0 0.0531989146
C  C133  1  0.35560000  0.14400000  0.44320000  1.0 -0.1775207622
C  C134  1  0.64440000  0.14400000  0.55680000  1.0 -0.1775207622
C  C135  1  0.64440000  0.85600000  0.55680000  1.0 -0.1775207622
C  C136  1  0.35560000  0.85600000  0.44320000  1.0 -0.1775207622
C  C137  1  0.09370000  0.39820000  0.25540000  1.0 -0.137307499
C  C138  1  0.90630000  0.39820000  0.74460000  1.0 -0.137307499
C  C139  1  0.90630000  0.60180000  0.74460000  1.0 -0.137307499
C  C140  1  0.09370000  0.60180000  0.25540000  1.0 -0.137307499
C  C141  1  0.62080000  0.35400000  0.46050000  1.0 -0.1629600082
C  C142  1  0.37920000  0.35400000  0.53950000  1.0 -0.1629600082
C  C143  1  0.37920000  0.64600000  0.53950000  1.0 -0.1629600082
C  C144  1  0.62080000  0.64600000  0.46050000  1.0 -0.1629600082
C  C145  1  0.51080000  0.33390000  0.46270000  1.0 0.0323557347
C  C146  1  0.48920000  0.33390000  0.53730000  1.0 0.0323557347
C  C147  1  0.48920000  0.66610000  0.53730000  1.0 0.0323557347
C  C148  1  0.51080000  0.66610000  0.46270000  1.0 0.0323557347
N  N1  1  0.33090000  0.16600000  0.12700000  1.0 -0.2525185499
N  N2  1  0.66910000  0.16600000  0.87300000  1.0 -0.2525185499
N  N3  1  0.66910000  0.83400000  0.87300000  1.0 -0.2525185499
N  N4  1  0.33090000  0.83400000  0.12700000  1.0 -0.2525185499
N  N5  1  0.56800000  0.33810000  0.32960000  1.0 -0.2587325726
N  N6  1  0.43200000  0.33810000  0.67040000  1.0 -0.2587325726
N  N7  1  0.43200000  0.66190000  0.67040000  1.0 -0.2587325726
N  N8  1  0.56800000  0.66190000  0.32960000  1.0 -0.2587325726
N  N9  1  0.33700000  0.15970000  0.31600000  1.0 -0.2436174717
N  N10  1  0.66300000  0.15970000  0.68400000  1.0 -0.2436174717
N  N11  1  0.66300000  0.84030000  0.68400000  1.0 -0.2436174717
N  N12  1  0.33700000  0.84030000  0.31600000  1.0 -0.2436174717
N  N13  1  0.62600000  0.20130000  0.41310000  1.0 -0.1515187588
N  N14  1  0.37400000  0.20130000  0.58690000  1.0 -0.1515187588
N  N15  1  0.37400000  0.79870000  0.58690000  1.0 -0.1515187588
N  N16  1  0.62600000  0.79870000  0.41310000  1.0 -0.1515187588
N  N17  1  0.33720000  0.29350000  0.39560000  1.0 -0.2801938061
N  N18  1  0.66280000  0.29350000  0.60440000  1.0 -0.2801938061
N  N19  1  0.66280000  0.70650000  0.60440000  1.0 -0.2801938061
N  N20  1  0.33720000  0.70650000  0.39560000  1.0 -0.2801938061
N  N21  1  0.38880000  0.07310000  0.99590000  1.0 -0.1870836061
N  N22  1  0.61120000  0.07310000  0.00410000  1.0 -0.1870836061
N  N23  1  0.61120000  0.92690000  0.00410000  1.0 -0.1870836061
N  N24  1  0.38880000  0.92690000  0.99590000  1.0 -0.1870836061
O  O1  1  0.78470000  0.37730000  0.27000000  1.0 -0.4346792255
O  O2  1  0.21530000  0.37730000  0.73000000  1.0 -0.4383434359
O  O3  1  0.21530000  0.62270000  0.73000000  1.0 -0.4383434359
O  O4  1  0.78470000  0.62270000  0.27000000  1.0 -0.4346792255
O  O5  1  0.07580000  0.12390000  0.24760000  1.0 -0.5092024062
O  O6  1  0.92420000  0.12390000  0.75240000  1.0 -0.5092024062
O  O7  1  0.92420000  0.87610000  0.75240000  1.0 -0.5092024062
O  O8  1  0.07580000  0.87610000  0.24760000  1.0 -0.5092024062
O  O9  1  0.65500000  0.40400000  0.17840000  1.0 -0.4863778207
O  O10  1  0.34500000  0.40400000  0.82160000  1.0 -0.4863778207
O  O11  1  0.34500000  0.59600000  0.82160000  1.0 -0.4863778207
O  O12  1  0.65500000  0.59600000  0.17840000  1.0 -0.4863778207
O  O13  1  0.69320000  0.27000000  0.16350000  1.0 -0.5464057181
O  O14  1  0.30680000  0.27000000  0.83650000  1.0 -0.5464057181
O  O15  1  0.30680000  0.73000000  0.83650000  1.0 -0.5464057181
O  O16  1  0.69320000  0.73000000  0.16350000  1.0 -0.5464057181
O  O17  1  0.14090000  0.09510000  0.15560000  1.0 -0.5260811601
O  O18  1  0.85910000  0.09510000  0.84440000  1.0 -0.5260811601
O  O19  1  0.85910000  0.90490000  0.84440000  1.0 -0.5260811601
O  O20  1  0.14090000  0.90490000  0.15560000  1.0 -0.5260811601
O  O21  1  0.09650000  0.23300000  0.15870000  1.0 -0.4383434359
O  O22  1  0.90350000  0.23300000  0.84130000  1.0 -0.4383434359
O  O23  1  0.90350000  0.76700000  0.84130000  1.0 -0.4383434359
O  O24  1  0.09650000  0.76700000  0.15870000  1.0 -0.4383434359
O  O25  1  0.63140000  0.24170000  0.25920000  1.0 -0.5365001116
O  O26  1  0.36860000  0.24170000  0.74080000  1.0 -0.5365001116
O  O27  1  0.36860000  0.75830000  0.74080000  1.0 -0.5365001116
O  O28  1  0.63140000  0.75830000  0.25920000  1.0 -0.5365001116
O  O29  1  0.24780000  0.25790000  0.23930000  1.0 -0.5365001116
O  O30  1  0.75220000  0.25790000  0.76070000  1.0 -0.5365001116
O  O31  1  0.75220000  0.74210000  0.76070000  1.0 -0.5365001116
O  O32  1  0.24780000  0.74210000  0.23930000  1.0 -0.5365001116
