# DDEC6 charges by PACMAN v1.1 (https://github.com/mtap-research/PACMAN-charge/)
data_LAJFAG_FSR_pacman
_symmetry_space_group_name_H-M   'P 1'
_cell_length_a   15.82480000
_cell_length_b   15.82480000
_cell_length_c   22.25400000
_cell_angle_alpha   66.97550000
_cell_angle_beta   113.02500000
_cell_angle_gamma   135.69200000
_symmetry_Int_Tables_number   1
_chemical_formula_structural   NiH53C29(N2O)4
_chemical_formula_sum   'Ni4 H212 C116 N32 O16'
_cell_volume   3528.62778932
_cell_formula_units_Z   4
loop_
 _symmetry_equiv_pos_site_id
 _symmetry_equiv_pos_as_xyz
  1  'x, y, z'
loop_
 _atom_site_type_symbol
 _atom_site_label
 _atom_site_symmetry_multiplicity
 _atom_site_fract_x
 _atom_site_fract_y
 _atom_site_fract_z
 _atom_site_occupancy
 _atom_site_charge
Ni  Ni1  1  0.00000000  0.00000000  0.00000000  1.0 0.6625527662
Ni  Ni2  1  0.00000000  0.00000000  0.50000000  1.0 0.6625527662
Ni  Ni3  1  0.50000000  0.00000000  0.50000000  1.0 0.2599390171
Ni  Ni4  1  0.00000000  0.50000000  0.00000000  1.0 0.2599390171
H  H1  1  0.81400000  0.84060000  0.05670000  1.0 0.2599390171
H  H2  1  0.84060000  0.81400000  0.44330000  1.0 0.2599390171
H  H3  1  0.18600000  0.15940000  0.94330000  1.0 0.2599390171
H  H4  1  0.15940000  0.18600000  0.55670000  1.0 0.2599390171
H  H5  1  0.98260000  0.13560000  0.01920000  1.0 0.2656773549
H  H6  1  0.13560000  0.98260000  0.48080000  1.0 0.2656773549
H  H7  1  0.01740000  0.86440000  0.98080000  1.0 0.2656773549
H  H8  1  0.86440000  0.01740000  0.51920000  1.0 0.2656773549
H  H9  1  0.73150000  0.66490000  0.03470000  1.0 0.101396208
H  H10  1  0.66490000  0.73150000  0.46530000  1.0 0.101396208
H  H11  1  0.26850000  0.33510000  0.96530000  1.0 0.101396208
H  H12  1  0.33510000  0.26850000  0.53470000  1.0 0.101396208
H  H13  1  0.79020000  0.73300000  0.96870000  1.0 0.1117451514
H  H14  1  0.73300000  0.79020000  0.53130000  1.0 0.1117451514
H  H15  1  0.20980000  0.26700000  0.03130000  1.0 0.1117451514
H  H16  1  0.26700000  0.20980000  0.46870000  1.0 0.1117451514
H  H17  1  0.64750000  0.77870000  0.97260000  1.0 0.0908120841
H  H18  1  0.77870000  0.64750000  0.52740000  1.0 0.0908120841
H  H19  1  0.35250000  0.22130000  0.02740000  1.0 0.0908120841
H  H20  1  0.22130000  0.35250000  0.47260000  1.0 0.0908120841
H  H21  1  0.73450000  0.85990000  0.91830000  1.0 0.1117451514
H  H22  1  0.85990000  0.73450000  0.58170000  1.0 0.1117451514
H  H23  1  0.26550000  0.14010000  0.08170000  1.0 0.1117451514
H  H24  1  0.14010000  0.26550000  0.41830000  1.0 0.1117451514
H  H25  1  0.85070000  0.07210000  0.89140000  1.0 0.0908120841
H  H26  1  0.07210000  0.85070000  0.60860000  1.0 0.0908120841
H  H27  1  0.14930000  0.92790000  0.10860000  1.0 0.0908120841
H  H28  1  0.92790000  0.14930000  0.39140000  1.0 0.0908120841
H  H29  1  0.84770000  0.13770000  0.92890000  1.0 0.0803539203
H  H30  1  0.13770000  0.84770000  0.57110000  1.0 0.0803539203
H  H31  1  0.15230000  0.86230000  0.07110000  1.0 0.0803539203
H  H32  1  0.86230000  0.15230000  0.42890000  1.0 0.0803539203
H  H33  1  0.06910000  0.23210000  0.89930000  1.0 0.101396208
H  H34  1  0.23210000  0.06910000  0.60070000  1.0 0.101396208
H  H35  1  0.93090000  0.76790000  0.10070000  1.0 0.101396208
H  H36  1  0.76790000  0.93090000  0.39930000  1.0 0.101396208
H  H37  1  0.08960000  0.30640000  0.94380000  1.0 0.0908120841
H  H38  1  0.30640000  0.08960000  0.55620000  1.0 0.0908120841
H  H39  1  0.91040000  0.69360000  0.05620000  1.0 0.0908120841
H  H40  1  0.69360000  0.91040000  0.44380000  1.0 0.0908120841
H  H41  1  0.69240000  0.87200000  0.05180000  1.0 0.101396208
H  H42  1  0.87200000  0.69240000  0.44820000  1.0 0.101396208
H  H43  1  0.30760000  0.12800000  0.94820000  1.0 0.101396208
H  H44  1  0.12800000  0.30760000  0.55180000  1.0 0.101396208
H  H45  1  0.80820000  0.01620000  0.04900000  1.0 0.101396208
H  H46  1  0.01620000  0.80820000  0.45100000  1.0 0.101396208
H  H47  1  0.19180000  0.98380000  0.95100000  1.0 0.101396208
H  H48  1  0.98380000  0.19180000  0.54900000  1.0 0.101396208
H  H49  1  0.67790000  0.05670000  0.97880000  1.0 0.0803539203
H  H50  1  0.05670000  0.67790000  0.52120000  1.0 0.0803539203
H  H51  1  0.32210000  0.94330000  0.02120000  1.0 0.0803539203
H  H52  1  0.94330000  0.32210000  0.47880000  1.0 0.0803539203
H  H53  1  0.56260000  0.91180000  0.98510000  1.0 0.0803539203
H  H54  1  0.91180000  0.56260000  0.51490000  1.0 0.0803539203
H  H55  1  0.43740000  0.08820000  0.01490000  1.0 0.0803539203
H  H56  1  0.08820000  0.43740000  0.48510000  1.0 0.0803539203
H  H57  1  0.70540000  0.04880000  0.09120000  1.0 0.101396208
H  H58  1  0.04880000  0.70540000  0.40880000  1.0 0.101396208
H  H59  1  0.29460000  0.95120000  0.90880000  1.0 0.101396208
H  H60  1  0.95120000  0.29460000  0.59120000  1.0 0.101396208
H  H61  1  0.56310000  0.97790000  0.06200000  1.0 0.0908120841
H  H62  1  0.97790000  0.56310000  0.43800000  1.0 0.0908120841
H  H63  1  0.43690000  0.02210000  0.93800000  1.0 0.0908120841
H  H64  1  0.02210000  0.43690000  0.56200000  1.0 0.0908120841
H  H65  1  0.60560000  0.90180000  0.10400000  1.0 0.1117451514
H  H66  1  0.90180000  0.60560000  0.39600000  1.0 0.1117451514
H  H67  1  0.39440000  0.09820000  0.89600000  1.0 0.1117451514
H  H68  1  0.09820000  0.39440000  0.60400000  1.0 0.1117451514
H  H69  1  0.57600000  0.92560000  0.47140000  1.0 0.1774516922
H  H70  1  0.92560000  0.57600000  0.02860000  1.0 0.1774516922
H  H71  1  0.42400000  0.07440000  0.52860000  1.0 0.1774516922
H  H72  1  0.07440000  0.42400000  0.97140000  1.0 0.1774516922
H  H73  1  0.44130000  0.81130000  0.58500000  1.0 0.1774516922
H  H74  1  0.81130000  0.44130000  0.91500000  1.0 0.1774516922
H  H75  1  0.55870000  0.18870000  0.41500000  1.0 0.1774516922
H  H76  1  0.18870000  0.55870000  0.08500000  1.0 0.1774516922
H  H77  1  0.25680000  0.82120000  0.55300000  1.0 0.0678238853
H  H78  1  0.82120000  0.25680000  0.94700000  1.0 0.0678238853
H  H79  1  0.74320000  0.17880000  0.44700000  1.0 0.0678238853
H  H80  1  0.17880000  0.74320000  0.05300000  1.0 0.0678238853
H  H81  1  0.28910000  0.75410000  0.62070000  1.0 0.0509860883
H  H82  1  0.75410000  0.28910000  0.87930000  1.0 0.0509860883
H  H83  1  0.71090000  0.24590000  0.37930000  1.0 0.0509860883
H  H84  1  0.24590000  0.71090000  0.12070000  1.0 0.0509860883
H  H85  1  0.24590000  0.74330000  0.47500000  1.0 0.0803539203
H  H86  1  0.74330000  0.24590000  0.02500000  1.0 0.0803539203
H  H87  1  0.75410000  0.25670000  0.52500000  1.0 0.0803539203
H  H88  1  0.25670000  0.75410000  0.97500000  1.0 0.0803539203
H  H89  1  0.25110000  0.64950000  0.53560000  1.0 0.0803539203
H  H90  1  0.64950000  0.25110000  0.96440000  1.0 0.0803539203
H  H91  1  0.74890000  0.35050000  0.46440000  1.0 0.0803539203
H  H92  1  0.35050000  0.74890000  0.03560000  1.0 0.0803539203
H  H93  1  0.35860000  0.84140000  0.38880000  1.0 0.0599346323
H  H94  1  0.84140000  0.35860000  0.11120000  1.0 0.0599346323
H  H95  1  0.64140000  0.15860000  0.61120000  1.0 0.0599346323
H  H96  1  0.15860000  0.64140000  0.88880000  1.0 0.0599346323
H  H97  1  0.44450000  0.81750000  0.39430000  1.0 0.0599346323
H  H98  1  0.81750000  0.44450000  0.10570000  1.0 0.0599346323
H  H99  1  0.55550000  0.18250000  0.60570000  1.0 0.0599346323
H  H100  1  0.18250000  0.55550000  0.89430000  1.0 0.0599346323
H  H101  1  0.51940000  0.05520000  0.35210000  1.0 0.0678238853
H  H102  1  0.05520000  0.51940000  0.14790000  1.0 0.0678238853
H  H103  1  0.48060000  0.94480000  0.64790000  1.0 0.0678238853
H  H104  1  0.94480000  0.48060000  0.85210000  1.0 0.0678238853
H  H105  1  0.62380000  0.05120000  0.36610000  1.0 0.0803539203
H  H106  1  0.05120000  0.62380000  0.13390000  1.0 0.0803539203
H  H107  1  0.37620000  0.94880000  0.63390000  1.0 0.0803539203
H  H108  1  0.94880000  0.37620000  0.86610000  1.0 0.0803539203
H  H109  1  0.43980000  0.69060000  0.55860000  1.0 0.0803539203
H  H110  1  0.69060000  0.43980000  0.94140000  1.0 0.0803539203
H  H111  1  0.56020000  0.30940000  0.44140000  1.0 0.0803539203
H  H112  1  0.30940000  0.56020000  0.05860000  1.0 0.0803539203
H  H113  1  0.51880000  0.76800000  0.50140000  1.0 0.0803539203
H  H114  1  0.76800000  0.51880000  0.99860000  1.0 0.0803539203
H  H115  1  0.48120000  0.23200000  0.49860000  1.0 0.0803539203
H  H116  1  0.23200000  0.48120000  0.00140000  1.0 0.0803539203
H  H117  1  0.32270000  0.55130000  0.49170000  1.0 0.0908120841
H  H118  1  0.55130000  0.32270000  0.00830000  1.0 0.0908120841
H  H119  1  0.67730000  0.44870000  0.50830000  1.0 0.0908120841
H  H120  1  0.44870000  0.67730000  0.99170000  1.0 0.0908120841
H  H121  1  0.45490000  0.63590000  0.47430000  1.0 0.0599346323
H  H122  1  0.63590000  0.45490000  0.02570000  1.0 0.0599346323
H  H123  1  0.54510000  0.36410000  0.52570000  1.0 0.0599346323
H  H124  1  0.36410000  0.54510000  0.97430000  1.0 0.0599346323
H  H125  1  0.37020000  0.45540000  0.59280000  1.0 0.0678238853
H  H126  1  0.45540000  0.37020000  0.90720000  1.0 0.0678238853
H  H127  1  0.62980000  0.54460000  0.40720000  1.0 0.0678238853
H  H128  1  0.54460000  0.62980000  0.09280000  1.0 0.0678238853
H  H129  1  0.49370000  0.52550000  0.56950000  1.0 0.0509860883
H  H130  1  0.52550000  0.49370000  0.93050000  1.0 0.0509860883
H  H131  1  0.50630000  0.47450000  0.43050000  1.0 0.0509860883
H  H132  1  0.47450000  0.50630000  0.06950000  1.0 0.0509860883
H  H133  1  0.49520000  0.58460000  0.61440000  1.0 0.0803539203
H  H134  1  0.58460000  0.49520000  0.88560000  1.0 0.0803539203
H  H135  1  0.50480000  0.41540000  0.38560000  1.0 0.0803539203
H  H136  1  0.41540000  0.50480000  0.11440000  1.0 0.0803539203
H  H137  1  0.88080000  0.11420000  0.78750000  1.0 0.1117451514
H  H138  1  0.11420000  0.88080000  0.71250000  1.0 0.1117451514
H  H139  1  0.11920000  0.88580000  0.21250000  1.0 0.1117451514
H  H140  1  0.88580000  0.11920000  0.28750000  1.0 0.1117451514
H  H141  1  0.76410000  0.10030000  0.68210000  1.0 0.101396208
H  H142  1  0.10030000  0.76410000  0.81790000  1.0 0.101396208
H  H143  1  0.23590000  0.89970000  0.31790000  1.0 0.101396208
H  H144  1  0.89970000  0.23590000  0.18210000  1.0 0.101396208
H  H145  1  0.83370000  0.92370000  0.64720000  1.0 0.1202700917
H  H146  1  0.92370000  0.83370000  0.85280000  1.0 0.1202700917
H  H147  1  0.16630000  0.07630000  0.35280000  1.0 0.1202700917
H  H148  1  0.07630000  0.16630000  0.14720000  1.0 0.1202700917
H  H149  1  0.43260000  0.81860000  0.59780000  1.0 0.2016878944
H  H150  1  0.81860000  0.43260000  0.90220000  1.0 0.2016878944
H  H151  1  0.56740000  0.18140000  0.40220000  1.0 0.2016878944
H  H152  1  0.18140000  0.56740000  0.09780000  1.0 0.2016878944
H  H153  1  0.27800000  0.86580000  0.56100000  1.0 0.0599346323
H  H154  1  0.86580000  0.27800000  0.93900000  1.0 0.0599346323
H  H155  1  0.72200000  0.13420000  0.43900000  1.0 0.0599346323
H  H156  1  0.13420000  0.72200000  0.06100000  1.0 0.0599346323
H  H157  1  0.30990000  0.80530000  0.63230000  1.0 0.0678238853
H  H158  1  0.80530000  0.30990000  0.86770000  1.0 0.0678238853
H  H159  1  0.69010000  0.19470000  0.36770000  1.0 0.0678238853
H  H160  1  0.19470000  0.69010000  0.13230000  1.0 0.0678238853
H  H161  1  0.23220000  0.74640000  0.49290000  1.0 0.0599346323
H  H162  1  0.74640000  0.23220000  0.00710000  1.0 0.0599346323
H  H163  1  0.76780000  0.25360000  0.50710000  1.0 0.0599346323
H  H164  1  0.25360000  0.76780000  0.99290000  1.0 0.0599346323
H  H165  1  0.23440000  0.65740000  0.55870000  1.0 0.0509860883
H  H166  1  0.65740000  0.23440000  0.94130000  1.0 0.0509860883
H  H167  1  0.76560000  0.34260000  0.44130000  1.0 0.0509860883
H  H168  1  0.34260000  0.76560000  0.05870000  1.0 0.0509860883
H  H169  1  0.38870000  0.75790000  0.41340000  1.0 0.0803539203
H  H170  1  0.75790000  0.38870000  0.08660000  1.0 0.0803539203
H  H171  1  0.61130000  0.24210000  0.58660000  1.0 0.0803539203
H  H172  1  0.24210000  0.61130000  0.91340000  1.0 0.0803539203
H  H173  1  0.31990000  0.80190000  0.40540000  1.0 0.0678238853
H  H174  1  0.80190000  0.31990000  0.09460000  1.0 0.0678238853
H  H175  1  0.68010000  0.19810000  0.59460000  1.0 0.0678238853
H  H176  1  0.19810000  0.68010000  0.90540000  1.0 0.0678238853
H  H177  1  0.57660000  0.98380000  0.36860000  1.0 0.0509860883
H  H178  1  0.98380000  0.57660000  0.13140000  1.0 0.0509860883
H  H179  1  0.42340000  0.01620000  0.63140000  1.0 0.0509860883
H  H180  1  0.01620000  0.42340000  0.86860000  1.0 0.0509860883
H  H181  1  0.48270000  0.00210000  0.35630000  1.0 0.0678238853
H  H182  1  0.00210000  0.48270000  0.14370000  1.0 0.0678238853
H  H183  1  0.51730000  0.99790000  0.64370000  1.0 0.0678238853
H  H184  1  0.99790000  0.51730000  0.85630000  1.0 0.0678238853
H  H185  1  0.40120000  0.67160000  0.58550000  1.0 0.0678238853
H  H186  1  0.67160000  0.40120000  0.91450000  1.0 0.0678238853
H  H187  1  0.59880000  0.32840000  0.41450000  1.0 0.0678238853
H  H188  1  0.32840000  0.59880000  0.08550000  1.0 0.0678238853
H  H189  1  0.47910000  0.73010000  0.53090000  1.0 0.0803539203
H  H190  1  0.73010000  0.47910000  0.96910000  1.0 0.0803539203
H  H191  1  0.52090000  0.26990000  0.46910000  1.0 0.0803539203
H  H192  1  0.26990000  0.52090000  0.03090000  1.0 0.0803539203
H  H193  1  0.31310000  0.51570000  0.58070000  1.0 0.0599346323
H  H194  1  0.51570000  0.31310000  0.91930000  1.0 0.0599346323
H  H195  1  0.68690000  0.48430000  0.41930000  1.0 0.0599346323
H  H196  1  0.48430000  0.68690000  0.08070000  1.0 0.0599346323
H  H197  1  0.30490000  0.54110000  0.50330000  1.0 0.0803539203
H  H198  1  0.54110000  0.30490000  0.99670000  1.0 0.0803539203
H  H199  1  0.69510000  0.45890000  0.49670000  1.0 0.0803539203
H  H200  1  0.45890000  0.69510000  0.00330000  1.0 0.0803539203
H  H201  1  0.53240000  0.60640000  0.58200000  1.0 0.0678238853
H  H202  1  0.60640000  0.53240000  0.91800000  1.0 0.0678238853
H  H203  1  0.46760000  0.39360000  0.41800000  1.0 0.0678238853
H  H204  1  0.39360000  0.46760000  0.08200000  1.0 0.0678238853
H  H205  1  0.41490000  0.46270000  0.58400000  1.0 0.0678238853
H  H206  1  0.46270000  0.41490000  0.91600000  1.0 0.0678238853
H  H207  1  0.58510000  0.53730000  0.41600000  1.0 0.0678238853
H  H208  1  0.53730000  0.58510000  0.08400000  1.0 0.0678238853
H  H209  1  0.46090000  0.54990000  0.51520000  1.0 0.0383416998
H  H210  1  0.54990000  0.46090000  0.98480000  1.0 0.0383416998
H  H211  1  0.53910000  0.45010000  0.48480000  1.0 0.0383416998
H  H212  1  0.45010000  0.53910000  0.01520000  1.0 0.0383416998
C  C1  1  0.80403000  0.74141000  0.01416000  1.0 -0.1492653579
C  C2  1  0.74141000  0.80403000  0.48584000  1.0 -0.1492653579
C  C3  1  0.19597000  0.25859000  0.98584000  1.0 -0.1492653579
C  C4  1  0.25859000  0.19597000  0.51416000  1.0 -0.1492653579
C  C5  1  0.73083000  0.85499000  0.96308000  1.0 -0.0057014687
C  C6  1  0.85499000  0.73083000  0.53692000  1.0 -0.0057014687
C  C7  1  0.26917000  0.14501000  0.03692000  1.0 -0.0057014687
C  C8  1  0.14501000  0.26917000  0.46308000  1.0 -0.0018422386
C  C9  1  0.85423000  0.07681000  0.93553000  1.0 0.0024166853
C  C10  1  0.07681000  0.85423000  0.56447000  1.0 0.0024166853
C  C11  1  0.14577000  0.92319000  0.06447000  1.0 0.0024166853
C  C12  1  0.92319000  0.14577000  0.43553000  1.0 0.0024166853
C  C13  1  0.08132000  0.23738000  0.94527000  1.0 -0.1298048686
C  C14  1  0.23738000  0.08132000  0.55473000  1.0 -0.1298048686
C  C15  1  0.91868000  0.76262000  0.05473000  1.0 -0.1298048686
C  C16  1  0.76262000  0.91868000  0.44527000  1.0 -0.1298048686
C  C17  1  0.72854000  0.95366000  0.02367000  1.0 -0.1163620728
C  C18  1  0.95366000  0.72854000  0.47633000  1.0 -0.1163620728
C  C19  1  0.27146000  0.04634000  0.97633000  1.0 -0.1163620728
C  C20  1  0.04634000  0.27146000  0.52367000  1.0 -0.1139354679
C  C21  1  0.64375000  0.97645000  0.00844000  1.0 -0.2782379467
C  C22  1  0.97645000  0.64375000  0.49156000  1.0 -0.2782379467
C  C23  1  0.35625000  0.02355000  0.99156000  1.0 -0.2782379467
C  C24  1  0.02355000  0.35625000  0.50844000  1.0 -0.2782379467
C  C25  1  0.62810000  0.97630000  0.07212000  1.0 -0.4977719042
C  C26  1  0.97630000  0.62810000  0.42788000  1.0 -0.4977719042
C  C27  1  0.37190000  0.02370000  0.92788000  1.0 -0.4977719042
C  C28  1  0.02370000  0.37190000  0.57212000  1.0 -0.4977719042
C  C29  1  0.32440000  0.82620000  0.58460000  1.0 0.0059789064
C  C30  1  0.82620000  0.32440000  0.91540000  1.0 0.0059789064
C  C31  1  0.67560000  0.17380000  0.41540000  1.0 0.0059789064
C  C32  1  0.17380000  0.67560000  0.08460000  1.0 0.0059789064
C  C33  1  0.30190000  0.73110000  0.50750000  1.0 0.0383416998
C  C34  1  0.73110000  0.30190000  0.99250000  1.0 0.0383416998
C  C35  1  0.69810000  0.26890000  0.49250000  1.0 0.0383416998
C  C36  1  0.26890000  0.69810000  0.00750000  1.0 0.0383416998
C  C37  1  0.41780000  0.83240000  0.41950000  1.0 -0.0803573254
C  C38  1  0.83240000  0.41780000  0.08050000  1.0 -0.0747286606
C  C39  1  0.58220000  0.16760000  0.58050000  1.0 -0.0803573254
C  C40  1  0.16760000  0.58220000  0.91950000  1.0 -0.0747286606
C  C41  1  0.58180000  0.05520000  0.38690000  1.0 -0.0898543624
C  C42  1  0.05520000  0.58180000  0.11310000  1.0 -0.0898543624
C  C43  1  0.41820000  0.94480000  0.61310000  1.0 -0.0898543624
C  C44  1  0.94480000  0.41820000  0.88690000  1.0 -0.0898543624
C  C45  1  0.43470000  0.69690000  0.51140000  1.0 -0.0954617584
C  C46  1  0.69690000  0.43470000  0.98860000  1.0 -0.0954617584
C  C47  1  0.56530000  0.30310000  0.48860000  1.0 -0.0954617584
C  C48  1  0.30310000  0.56530000  0.01140000  1.0 -0.0898543624
C  C49  1  0.41193000  0.61147000  0.50830000  1.0 -0.0898543624
C  C50  1  0.61147000  0.41193000  0.99170000  1.0 -0.0898543624
C  C51  1  0.58807000  0.38853000  0.49170000  1.0 -0.0898543624
C  C52  1  0.38853000  0.58807000  0.00830000  1.0 -0.0898543624
C  C53  1  0.44650000  0.53610000  0.57890000  1.0 -0.19922746
C  C54  1  0.53610000  0.44650000  0.92110000  1.0 -0.19922746
C  C55  1  0.55350000  0.46390000  0.42110000  1.0 -0.19922746
C  C56  1  0.46390000  0.55350000  0.07890000  1.0 -0.19922746
C  C57  1  0.00578000  0.04668000  0.84974000  1.0 0.545644648
C  C58  1  0.04668000  0.00578000  0.65026000  1.0 0.545644648
C  C59  1  0.99422000  0.95332000  0.15026000  1.0 0.545644648
C  C60  1  0.95332000  0.99422000  0.34974000  1.0 0.545644648
C  C61  1  0.92873000  0.02837000  0.78106000  1.0 -0.0580809183
C  C62  1  0.02837000  0.92873000  0.71894000  1.0 -0.0580809183
C  C63  1  0.07127000  0.97163000  0.21894000  1.0 -0.0548044186
C  C64  1  0.97163000  0.07127000  0.28106000  1.0 -0.0580809183
C  C65  1  0.87163000  0.07561000  0.75893000  1.0 -0.1139354679
C  C66  1  0.07561000  0.87163000  0.74107000  1.0 -0.1139354679
C  C67  1  0.12837000  0.92439000  0.24107000  1.0 -0.1139354679
C  C68  1  0.92439000  0.12837000  0.25893000  1.0 -0.1139354679
C  C69  1  0.80205000  0.06733000  0.69629000  1.0 -0.1492653579
C  C70  1  0.06733000  0.80205000  0.80371000  1.0 -0.1492653579
C  C71  1  0.19795000  0.93267000  0.30371000  1.0 -0.1492653579
C  C72  1  0.93267000  0.19795000  0.19629000  1.0 -0.1492653579
C  C73  1  0.78758000  0.01050000  0.65396000  1.0 0.0024166853
C  C74  1  0.01050000  0.78758000  0.84604000  1.0 0.0059789064
C  C75  1  0.21242000  0.98950000  0.34604000  1.0 0.0024166853
C  C76  1  0.98950000  0.21242000  0.15396000  1.0 0.0024166853
C  C77  1  0.84413000  0.96299000  0.67586000  1.0 -0.1421118531
C  C78  1  0.96299000  0.84413000  0.82414000  1.0 -0.1421118531
C  C79  1  0.15587000  0.03701000  0.32414000  1.0 -0.1421118531
C  C80  1  0.03701000  0.15587000  0.17586000  1.0 -0.1421118531
C  C81  1  0.91607000  0.97149000  0.73902000  1.0 0.0599346323
C  C82  1  0.97149000  0.91607000  0.76098000  1.0 0.0599346323
C  C83  1  0.08393000  0.02851000  0.26098000  1.0 0.0599346323
C  C84  1  0.02851000  0.08393000  0.23902000  1.0 0.0599346323
C  C85  1  0.71080000  0.99988000  0.58568000  1.0 0.0803539203
C  C86  1  0.99988000  0.71080000  0.91432000  1.0 0.0803539203
C  C87  1  0.28920000  0.00012000  0.41432000  1.0 0.0803539203
C  C88  1  0.00012000  0.28920000  0.08568000  1.0 0.0803539203
C  C89  1  0.34380000  0.86740000  0.59230000  1.0 -0.0580809183
C  C90  1  0.86740000  0.34380000  0.90770000  1.0 -0.0580809183
C  C91  1  0.65620000  0.13260000  0.40770000  1.0 -0.0580809183
C  C92  1  0.13260000  0.65620000  0.09230000  1.0 -0.0580809183
C  C93  1  0.28560000  0.73180000  0.52670000  1.0 -0.0018422386
C  C94  1  0.73180000  0.28560000  0.97330000  1.0 -0.0018422386
C  C95  1  0.71440000  0.26820000  0.47330000  1.0 -0.0018422386
C  C96  1  0.26820000  0.71440000  0.02670000  1.0 -0.0018422386
C  C97  1  0.38010000  0.79390000  0.43580000  1.0 0.0225549454
C  C98  1  0.79390000  0.38010000  0.06420000  1.0 0.0225549454
C  C99  1  0.61990000  0.20610000  0.56420000  1.0 0.0225549454
C  C100  1  0.20610000  0.61990000  0.93580000  1.0 0.0225549454
C  C101  1  0.54950000  0.00590000  0.38830000  1.0 -0.0954617584
C  C102  1  0.00590000  0.54950000  0.11170000  1.0 -0.0954617584
C  C103  1  0.45050000  0.99410000  0.61170000  1.0 -0.0954617584
C  C104  1  0.99410000  0.45050000  0.88830000  1.0 -0.0954617584
C  C105  1  0.39458000  0.66682000  0.54060000  1.0 -0.0803573254
C  C106  1  0.66682000  0.39458000  0.95940000  1.0 -0.0803573254
C  C107  1  0.60542000  0.33318000  0.45940000  1.0 -0.0803573254
C  C108  1  0.33318000  0.60542000  0.04060000  1.0 -0.0803573254
C  C109  1  0.36280000  0.57140000  0.54480000  1.0 -0.0803573254
C  C110  1  0.57140000  0.36280000  0.95520000  1.0 -0.0803573254
C  C111  1  0.63720000  0.42860000  0.45520000  1.0 -0.0803573254
C  C112  1  0.42860000  0.63720000  0.04480000  1.0 -0.0803573254
C  C113  1  0.45160000  0.54500000  0.55780000  1.0 -0.1866114888
C  C114  1  0.54500000  0.45160000  0.94220000  1.0 -0.1866114888
C  C115  1  0.54840000  0.45500000  0.44220000  1.0 -0.1866114888
C  C116  1  0.45500000  0.54840000  0.05780000  1.0 -0.1866114888
N  N1  1  0.82152000  0.84788000  0.01199000  1.0 -0.3076351772
N  N2  1  0.84788000  0.82152000  0.48801000  1.0 -0.3076351772
N  N3  1  0.17848000  0.15212000  0.98801000  1.0 -0.3076351772
N  N4  1  0.15212000  0.17848000  0.51199000  1.0 -0.3076351772
N  N5  1  0.97595000  0.12177000  0.97677000  1.0 -0.3076351772
N  N6  1  0.12177000  0.97595000  0.52323000  1.0 -0.3076351772
N  N7  1  0.02405000  0.87823000  0.02323000  1.0 -0.3076351772
N  N8  1  0.87823000  0.02405000  0.47677000  1.0 -0.3076351772
N  N9  1  0.75015000  0.95875000  0.96312000  1.0 -0.1421118531
N  N10  1  0.95875000  0.75015000  0.53688000  1.0 -0.1421118531
N  N11  1  0.24985000  0.04125000  0.03688000  1.0 -0.1421118531
N  N12  1  0.04125000  0.24985000  0.46312000  1.0 -0.1421118531
N  N13  1  0.51336000  0.93306000  0.44498000  1.0 -0.2611455474
N  N14  1  0.93306000  0.51336000  0.05502000  1.0 -0.2611455474
N  N15  1  0.48664000  0.06694000  0.55502000  1.0 -0.2611455474
N  N16  1  0.06694000  0.48664000  0.94498000  1.0 -0.2611455474
N  N17  1  0.38860000  0.82760000  0.55050000  1.0 -0.208474316
N  N18  1  0.82760000  0.38860000  0.94950000  1.0 -0.208474316
N  N19  1  0.61140000  0.17240000  0.44950000  1.0 -0.208474316
N  N20  1  0.17240000  0.61140000  0.05050000  1.0 -0.208474316
N  N21  1  0.36102000  0.73158000  0.47260000  1.0 0.0803539203
N  N22  1  0.73158000  0.36102000  0.02740000  1.0 0.0803539203
N  N23  1  0.63898000  0.26842000  0.52740000  1.0 0.0803539203
N  N24  1  0.26842000  0.63898000  0.97260000  1.0 0.0803539203
N  N25  1  0.38230000  0.83670000  0.56210000  1.0 -0.1492653579
N  N26  1  0.83670000  0.38230000  0.93790000  1.0 -0.1492653579
N  N27  1  0.61770000  0.16330000  0.43790000  1.0 -0.1492653579
N  N28  1  0.16330000  0.61770000  0.06210000  1.0 -0.1492653579
N  N29  1  0.32825000  0.70755000  0.49430000  1.0 0.0509860883
N  N30  1  0.70755000  0.32825000  0.00570000  1.0 0.0509860883
N  N31  1  0.67175000  0.29245000  0.50570000  1.0 0.0509860883
N  N32  1  0.29245000  0.67175000  0.99430000  1.0 0.0509860883
O  O1  1  0.94666000  0.98726000  0.89690000  1.0 -0.5605382401
O  O2  1  0.98726000  0.94666000  0.60310000  1.0 -0.5605382401
O  O3  1  0.05334000  0.01274000  0.10310000  1.0 -0.5605382401
O  O4  1  0.01274000  0.05334000  0.39690000  1.0 -0.5605382401
O  O5  1  0.11948000  0.12178000  0.85442000  1.0 -0.5504022318
O  O6  1  0.12178000  0.11948000  0.64558000  1.0 -0.5504022318
O  O7  1  0.88052000  0.87822000  0.14558000  1.0 -0.5504022318
O  O8  1  0.87822000  0.88052000  0.35442000  1.0 -0.5504022318
O  O9  1  0.64950000  0.02980000  0.57364000  1.0 -0.5184081722
O  O10  1  0.02980000  0.64950000  0.92636000  1.0 -0.5184081722
O  O11  1  0.35050000  0.97020000  0.42636000  1.0 -0.5184081722
O  O12  1  0.97020000  0.35050000  0.07364000  1.0 -0.5184081722
O  O13  1  0.71312000  0.96294000  0.54651000  1.0 -0.5425576049
O  O14  1  0.96294000  0.71312000  0.95349000  1.0 -0.5425576049
O  O15  1  0.28688000  0.03706000  0.45349000  1.0 -0.5425576049
O  O16  1  0.03706000  0.28688000  0.04651000  1.0 -0.5425576049
