# DDEC6 charges by PACMAN v1.1 (https://github.com/mtap-research/PACMAN-charge/)
data_LAJKUE_ASR_pacman
_symmetry_space_group_name_H-M   'P 1'
_cell_length_a   26.73250000
_cell_length_b   26.73250000
_cell_length_c   26.73250000
_cell_angle_alpha   109.47100000
_cell_angle_beta   109.47100000
_cell_angle_gamma   109.47100000
_symmetry_Int_Tables_number   1
_chemical_formula_structural   CsH38(C6O5)4
_chemical_formula_sum   'Cs12 H456 C288 O240'
_cell_volume   14706.19713477
_cell_formula_units_Z   12
loop_
 _symmetry_equiv_pos_site_id
 _symmetry_equiv_pos_as_xyz
  1  'x, y, z'
loop_
 _atom_site_type_symbol
 _atom_site_label
 _atom_site_symmetry_multiplicity
 _atom_site_fract_x
 _atom_site_fract_y
 _atom_site_fract_z
 _atom_site_occupancy
 _atom_site_charge
Cs  Cs1  1  0.32142000  0.64284000  0.32142000  1.0 0.6966580991
Cs  Cs2  1  0.64284000  0.32142000  0.32142000  1.0 0.6966580991
Cs  Cs3  1  0.67858000  0.00000000  0.32142000  1.0 0.6966580991
Cs  Cs4  1  0.32142000  0.32142000  0.64284000  1.0 0.6966580991
Cs  Cs5  1  0.32142000  0.00000000  0.67858000  1.0 0.6966580991
Cs  Cs6  1  0.00000000  0.67858000  0.32142000  1.0 0.6966580991
Cs  Cs7  1  0.32142000  0.67858000  0.00000000  1.0 0.6966580991
Cs  Cs8  1  0.00000000  0.32142000  0.67858000  1.0 0.6966580991
Cs  Cs9  1  0.67858000  0.35716000  0.67858000  1.0 0.6966580991
Cs  Cs10  1  0.67858000  0.67858000  0.35716000  1.0 0.6966580991
Cs  Cs11  1  0.35716000  0.67858000  0.67858000  1.0 0.6966580991
Cs  Cs12  1  0.67858000  0.32142000  0.00000000  1.0 0.6966580991
H  H1  1  0.54350000  0.66570000  0.45320000  1.0 0.1084618811
H  H2  1  0.66570000  0.21250000  0.12220000  1.0 0.1084618811
H  H3  1  0.45650000  0.90970000  0.12220000  1.0 0.1084618811
H  H4  1  0.45320000  0.54350000  0.66570000  1.0 0.1084618811
H  H5  1  0.21250000  0.09030000  0.54680000  1.0 0.1084618811
H  H6  1  0.90970000  0.78750000  0.45320000  1.0 0.1084618811
H  H7  1  0.54350000  0.87780000  0.09030000  1.0 0.1084618811
H  H8  1  0.09030000  0.54350000  0.87780000  1.0 0.1084618811
H  H9  1  0.78750000  0.33430000  0.87780000  1.0 0.1084618811
H  H10  1  0.87780000  0.78750000  0.33430000  1.0 0.1084618811
H  H11  1  0.33430000  0.45650000  0.54680000  1.0 0.1084618811
H  H12  1  0.78750000  0.45320000  0.90970000  1.0 0.1084618811
H  H13  1  0.54680000  0.21250000  0.09030000  1.0 0.1084618811
H  H14  1  0.45650000  0.54680000  0.33430000  1.0 0.1084618811
H  H15  1  0.12220000  0.45650000  0.90970000  1.0 0.1084618811
H  H16  1  0.21250000  0.12220000  0.66570000  1.0 0.1084618811
H  H17  1  0.66570000  0.45320000  0.54350000  1.0 0.1084618811
H  H18  1  0.45320000  0.90970000  0.78750000  1.0 0.1084618811
H  H19  1  0.87780000  0.09030000  0.54350000  1.0 0.1084618811
H  H20  1  0.33430000  0.87780000  0.78750000  1.0 0.1084618811
H  H21  1  0.54680000  0.33430000  0.45650000  1.0 0.1084618811
H  H22  1  0.09030000  0.54680000  0.21250000  1.0 0.1084618811
H  H23  1  0.90970000  0.12220000  0.45650000  1.0 0.1084618811
H  H24  1  0.12220000  0.66570000  0.21250000  1.0 0.1084618811
H  H25  1  0.47330000  0.70370000  0.39300000  1.0 0.1981030151
H  H26  1  0.70370000  0.31070000  0.23040000  1.0 0.1981030151
H  H27  1  0.52670000  0.91970000  0.23040000  1.0 0.1981030151
H  H28  1  0.39300000  0.47330000  0.70370000  1.0 0.1981030151
H  H29  1  0.31070000  0.08030000  0.60700000  1.0 0.1981030151
H  H30  1  0.91970000  0.68930000  0.39300000  1.0 0.1981030151
H  H31  1  0.47330000  0.76960000  0.08030000  1.0 0.1981030151
H  H32  1  0.08030000  0.47330000  0.76960000  1.0 0.1981030151
H  H33  1  0.68930000  0.29630000  0.76960000  1.0 0.1981030151
H  H34  1  0.76960000  0.68930000  0.29630000  1.0 0.1981030151
H  H35  1  0.29630000  0.52670000  0.60700000  1.0 0.1981030151
H  H36  1  0.68930000  0.39300000  0.91970000  1.0 0.1981030151
H  H37  1  0.60700000  0.31070000  0.08030000  1.0 0.1981030151
H  H38  1  0.52670000  0.60700000  0.29630000  1.0 0.1981030151
H  H39  1  0.23040000  0.52670000  0.91970000  1.0 0.1981030151
H  H40  1  0.31070000  0.23040000  0.70370000  1.0 0.1981030151
H  H41  1  0.70370000  0.39300000  0.47330000  1.0 0.1981030151
H  H42  1  0.39300000  0.91970000  0.68930000  1.0 0.1981030151
H  H43  1  0.76960000  0.08030000  0.47330000  1.0 0.1981030151
H  H44  1  0.29630000  0.76960000  0.68930000  1.0 0.1981030151
H  H45  1  0.60700000  0.29630000  0.52670000  1.0 0.1981030151
H  H46  1  0.08030000  0.60700000  0.31070000  1.0 0.1981030151
H  H47  1  0.91970000  0.23040000  0.52670000  1.0 0.1981030151
H  H48  1  0.23040000  0.70370000  0.31070000  1.0 0.1981030151
H  H49  1  0.44900000  0.62880000  0.43820000  1.0 0.1084618811
H  H50  1  0.62880000  0.19060000  0.17980000  1.0 0.1084618811
H  H51  1  0.55100000  0.98920000  0.17980000  1.0 0.1084618811
H  H52  1  0.43820000  0.44900000  0.62880000  1.0 0.1084618811
H  H53  1  0.19060000  0.01080000  0.56180000  1.0 0.1084618811
H  H54  1  0.98920000  0.80940000  0.43820000  1.0 0.1084618811
H  H55  1  0.44900000  0.82020000  0.01080000  1.0 0.1084618811
H  H56  1  0.01080000  0.44900000  0.82020000  1.0 0.1084618811
H  H57  1  0.80940000  0.37120000  0.82020000  1.0 0.1084618811
H  H58  1  0.82020000  0.80940000  0.37120000  1.0 0.1084618811
H  H59  1  0.37120000  0.55100000  0.56180000  1.0 0.1084618811
H  H60  1  0.80940000  0.43820000  0.98920000  1.0 0.1084618811
H  H61  1  0.56180000  0.19060000  0.01080000  1.0 0.1084618811
H  H62  1  0.55100000  0.56180000  0.37120000  1.0 0.1084618811
H  H63  1  0.17980000  0.55100000  0.98920000  1.0 0.1084618811
H  H64  1  0.19060000  0.17980000  0.62880000  1.0 0.1084618811
H  H65  1  0.62880000  0.43820000  0.44900000  1.0 0.1084618811
H  H66  1  0.43820000  0.98920000  0.80940000  1.0 0.1084618811
H  H67  1  0.82020000  0.01080000  0.44900000  1.0 0.1084618811
H  H68  1  0.37120000  0.82020000  0.80940000  1.0 0.1084618811
H  H69  1  0.56180000  0.37120000  0.55100000  1.0 0.1084618811
H  H70  1  0.01080000  0.56180000  0.19060000  1.0 0.1084618811
H  H71  1  0.98920000  0.17980000  0.55100000  1.0 0.1084618811
H  H72  1  0.17980000  0.62880000  0.19060000  1.0 0.1084618811
H  H73  1  0.37720000  0.69670000  0.42750000  1.0 0.2615620104
H  H74  1  0.69670000  0.26920000  0.31950000  1.0 0.2615620104
H  H75  1  0.62280000  0.05030000  0.31950000  1.0 0.2615620104
H  H76  1  0.42750000  0.37720000  0.69670000  1.0 0.2615620104
H  H77  1  0.26920000  0.94970000  0.57250000  1.0 0.2615620104
H  H78  1  0.05030000  0.73080000  0.42750000  1.0 0.2615620104
H  H79  1  0.37720000  0.68050000  0.94970000  1.0 0.2615620104
H  H80  1  0.94970000  0.37720000  0.68050000  1.0 0.2615620104
H  H81  1  0.73080000  0.30330000  0.68050000  1.0 0.2615620104
H  H82  1  0.68050000  0.73080000  0.30330000  1.0 0.2615620104
H  H83  1  0.30330000  0.62280000  0.57250000  1.0 0.2615620104
H  H84  1  0.73080000  0.42750000  0.05030000  1.0 0.2615620104
H  H85  1  0.57250000  0.26920000  0.94970000  1.0 0.2615620104
H  H86  1  0.62280000  0.57250000  0.30330000  1.0 0.2615620104
H  H87  1  0.31950000  0.62280000  0.05030000  1.0 0.2615620104
H  H88  1  0.26920000  0.31950000  0.69670000  1.0 0.2615620104
H  H89  1  0.69670000  0.42750000  0.37720000  1.0 0.2615620104
H  H90  1  0.42750000  0.05030000  0.73080000  1.0 0.2615620104
H  H91  1  0.68050000  0.94970000  0.37720000  1.0 0.2615620104
H  H92  1  0.30330000  0.68050000  0.73080000  1.0 0.2615620104
H  H93  1  0.57250000  0.30330000  0.62280000  1.0 0.2615620104
H  H94  1  0.94970000  0.57250000  0.26920000  1.0 0.2615620104
H  H95  1  0.05030000  0.31950000  0.62280000  1.0 0.2615620104
H  H96  1  0.31950000  0.69670000  0.26920000  1.0 0.2615620104
H  H97  1  0.47080000  0.75320000  0.48820000  1.0 0.0822808414
H  H98  1  0.75320000  0.26500000  0.28240000  1.0 0.0822808414
H  H99  1  0.52920000  0.01740000  0.28240000  1.0 0.0822808414
H  H100  1  0.48820000  0.47080000  0.75320000  1.0 0.0822808414
H  H101  1  0.26500000  0.98260000  0.51180000  1.0 0.0822808414
H  H102  1  0.01740000  0.73500000  0.48820000  1.0 0.0822808414
H  H103  1  0.47080000  0.71760000  0.98260000  1.0 0.0822808414
H  H104  1  0.98260000  0.47080000  0.71760000  1.0 0.0822808414
H  H105  1  0.73500000  0.24680000  0.71760000  1.0 0.0822808414
H  H106  1  0.71760000  0.73500000  0.24680000  1.0 0.0822808414
H  H107  1  0.24680000  0.52920000  0.51180000  1.0 0.0822808414
H  H108  1  0.73500000  0.48820000  0.01740000  1.0 0.0822808414
H  H109  1  0.51180000  0.26500000  0.98260000  1.0 0.0822808414
H  H110  1  0.52920000  0.51180000  0.24680000  1.0 0.0822808414
H  H111  1  0.28240000  0.52920000  0.01740000  1.0 0.0822808414
H  H112  1  0.26500000  0.28240000  0.75320000  1.0 0.0822808414
H  H113  1  0.75320000  0.48820000  0.47080000  1.0 0.0822808414
H  H114  1  0.48820000  0.01740000  0.73500000  1.0 0.0822808414
H  H115  1  0.71760000  0.98260000  0.47080000  1.0 0.0822808414
H  H116  1  0.24680000  0.71760000  0.73500000  1.0 0.0822808414
H  H117  1  0.51180000  0.24680000  0.52920000  1.0 0.0822808414
H  H118  1  0.98260000  0.51180000  0.26500000  1.0 0.0822808414
H  H119  1  0.01740000  0.28240000  0.52920000  1.0 0.0822808414
H  H120  1  0.28240000  0.75320000  0.26500000  1.0 0.0822808414
H  H121  1  0.45930000  0.68170000  0.54940000  1.0 0.0998398901
H  H122  1  0.68170000  0.13230000  0.22240000  1.0 0.0998398901
H  H123  1  0.54070000  0.09010000  0.22240000  1.0 0.0998398901
H  H124  1  0.54940000  0.45930000  0.68170000  1.0 0.0998398901
H  H125  1  0.13230000  0.90990000  0.45060000  1.0 0.0998398901
H  H126  1  0.09010000  0.86770000  0.54940000  1.0 0.0998398901
H  H127  1  0.45930000  0.77760000  0.90990000  1.0 0.0998398901
H  H128  1  0.90990000  0.45930000  0.77760000  1.0 0.0998398901
H  H129  1  0.86770000  0.31830000  0.77760000  1.0 0.0998398901
H  H130  1  0.77760000  0.86770000  0.31830000  1.0 0.0998398901
H  H131  1  0.31830000  0.54070000  0.45060000  1.0 0.0998398901
H  H132  1  0.86770000  0.54940000  0.09010000  1.0 0.0998398901
H  H133  1  0.45060000  0.13230000  0.90990000  1.0 0.0998398901
H  H134  1  0.54070000  0.45060000  0.31830000  1.0 0.0998398901
H  H135  1  0.22240000  0.54070000  0.09010000  1.0 0.0998398901
H  H136  1  0.13230000  0.22240000  0.68170000  1.0 0.0998398901
H  H137  1  0.68170000  0.54940000  0.45930000  1.0 0.0998398901
H  H138  1  0.54940000  0.09010000  0.86770000  1.0 0.0998398901
H  H139  1  0.77760000  0.90990000  0.45930000  1.0 0.0998398901
H  H140  1  0.31830000  0.77760000  0.86770000  1.0 0.0998398901
H  H141  1  0.45060000  0.31830000  0.54070000  1.0 0.0998398901
H  H142  1  0.90990000  0.45060000  0.13230000  1.0 0.0998398901
H  H143  1  0.09010000  0.22240000  0.54070000  1.0 0.0998398901
H  H144  1  0.22240000  0.68170000  0.13230000  1.0 0.0998398901
H  H145  1  0.51980000  0.67820000  0.64700000  1.0 0.2615620104
H  H146  1  0.67820000  0.03120000  0.15840000  1.0 0.2615620104
H  H147  1  0.48020000  0.12720000  0.15840000  1.0 0.2615620104
H  H148  1  0.64700000  0.51980000  0.67820000  1.0 0.2615620104
H  H149  1  0.03120000  0.87280000  0.35300000  1.0 0.2615620104
H  H150  1  0.12720000  0.96880000  0.64700000  1.0 0.2615620104
H  H151  1  0.51980000  0.84160000  0.87280000  1.0 0.2615620104
H  H152  1  0.87280000  0.51980000  0.84160000  1.0 0.2615620104
H  H153  1  0.96880000  0.32180000  0.84160000  1.0 0.2615620104
H  H154  1  0.84160000  0.96880000  0.32180000  1.0 0.2615620104
H  H155  1  0.32180000  0.48020000  0.35300000  1.0 0.2615620104
H  H156  1  0.96880000  0.64700000  0.12720000  1.0 0.2615620104
H  H157  1  0.35300000  0.03120000  0.87280000  1.0 0.2615620104
H  H158  1  0.48020000  0.35300000  0.32180000  1.0 0.2615620104
H  H159  1  0.15840000  0.48020000  0.12720000  1.0 0.2615620104
H  H160  1  0.03120000  0.15840000  0.67820000  1.0 0.2615620104
H  H161  1  0.67820000  0.64700000  0.51980000  1.0 0.2615620104
H  H162  1  0.64700000  0.12720000  0.96880000  1.0 0.2615620104
H  H163  1  0.84160000  0.87280000  0.51980000  1.0 0.2615620104
H  H164  1  0.32180000  0.84160000  0.96880000  1.0 0.2615620104
H  H165  1  0.35300000  0.32180000  0.48020000  1.0 0.2615620104
H  H166  1  0.87280000  0.35300000  0.03120000  1.0 0.2615620104
H  H167  1  0.12720000  0.15840000  0.48020000  1.0 0.2615620104
H  H168  1  0.15840000  0.67820000  0.03120000  1.0 0.2615620104
H  H169  1  0.58590000  0.77250000  0.67300000  1.0 0.0998398901
H  H170  1  0.77250000  0.09950000  0.18660000  1.0 0.0998398901
H  H171  1  0.41410000  0.08710000  0.18660000  1.0 0.0998398901
H  H172  1  0.67300000  0.58590000  0.77250000  1.0 0.0998398901
H  H173  1  0.09950000  0.91290000  0.32700000  1.0 0.0998398901
H  H174  1  0.08710000  0.90050000  0.67300000  1.0 0.0998398901
H  H175  1  0.58590000  0.81340000  0.91290000  1.0 0.0998398901
H  H176  1  0.91290000  0.58590000  0.81340000  1.0 0.0998398901
H  H177  1  0.90050000  0.22750000  0.81340000  1.0 0.0998398901
H  H178  1  0.81340000  0.90050000  0.22750000  1.0 0.0998398901
H  H179  1  0.22750000  0.41410000  0.32700000  1.0 0.0998398901
H  H180  1  0.90050000  0.67300000  0.08710000  1.0 0.0998398901
H  H181  1  0.32700000  0.09950000  0.91290000  1.0 0.0998398901
H  H182  1  0.41410000  0.32700000  0.22750000  1.0 0.0998398901
H  H183  1  0.18660000  0.41410000  0.08710000  1.0 0.0998398901
H  H184  1  0.09950000  0.18660000  0.77250000  1.0 0.0998398901
H  H185  1  0.77250000  0.67300000  0.58590000  1.0 0.0998398901
H  H186  1  0.67300000  0.08710000  0.90050000  1.0 0.0998398901
H  H187  1  0.81340000  0.91290000  0.58590000  1.0 0.0998398901
H  H188  1  0.22750000  0.81340000  0.90050000  1.0 0.0998398901
H  H189  1  0.32700000  0.22750000  0.41410000  1.0 0.0998398901
H  H190  1  0.91290000  0.32700000  0.09950000  1.0 0.0998398901
H  H191  1  0.08710000  0.18660000  0.41410000  1.0 0.0998398901
H  H192  1  0.18660000  0.77250000  0.09950000  1.0 0.0998398901
H  H193  1  0.62540000  0.74770000  0.64890000  1.0 0.1225439367
H  H194  1  0.74770000  0.09880000  0.12230000  1.0 0.1225439367
H  H195  1  0.37460000  0.02350000  0.12230000  1.0 0.1225439367
H  H196  1  0.64890000  0.62540000  0.74770000  1.0 0.1225439367
H  H197  1  0.09880000  0.97650000  0.35110000  1.0 0.1225439367
H  H198  1  0.02350000  0.90120000  0.64890000  1.0 0.1225439367
H  H199  1  0.62540000  0.87770000  0.97650000  1.0 0.1225439367
H  H200  1  0.97650000  0.62540000  0.87770000  1.0 0.1225439367
H  H201  1  0.90120000  0.25230000  0.87770000  1.0 0.1225439367
H  H202  1  0.87770000  0.90120000  0.25230000  1.0 0.1225439367
H  H203  1  0.25230000  0.37460000  0.35110000  1.0 0.1225439367
H  H204  1  0.90120000  0.64890000  0.02350000  1.0 0.1225439367
H  H205  1  0.35110000  0.09880000  0.97650000  1.0 0.1225439367
H  H206  1  0.37460000  0.35110000  0.25230000  1.0 0.1225439367
H  H207  1  0.12230000  0.37460000  0.02350000  1.0 0.1225439367
H  H208  1  0.09880000  0.12230000  0.74770000  1.0 0.1225439367
H  H209  1  0.74770000  0.64890000  0.62540000  1.0 0.1225439367
H  H210  1  0.64890000  0.02350000  0.90120000  1.0 0.1225439367
H  H211  1  0.87770000  0.97650000  0.62540000  1.0 0.1225439367
H  H212  1  0.25230000  0.87770000  0.90120000  1.0 0.1225439367
H  H213  1  0.35110000  0.25230000  0.37460000  1.0 0.1225439367
H  H214  1  0.97650000  0.35110000  0.09880000  1.0 0.1225439367
H  H215  1  0.02350000  0.12230000  0.37460000  1.0 0.1225439367
H  H216  1  0.12230000  0.74770000  0.09880000  1.0 0.1225439367
H  H217  1  0.40230000  0.69740000  0.58050000  1.0 0.0822808414
H  H218  1  0.69740000  0.11690000  0.29510000  1.0 0.0822808414
H  H219  1  0.59770000  0.17820000  0.29510000  1.0 0.0822808414
H  H220  1  0.58050000  0.40230000  0.69740000  1.0 0.0822808414
H  H221  1  0.11690000  0.82180000  0.41950000  1.0 0.0822808414
H  H222  1  0.17820000  0.88310000  0.58050000  1.0 0.0822808414
H  H223  1  0.40230000  0.70490000  0.82180000  1.0 0.0822808414
H  H224  1  0.82180000  0.40230000  0.70490000  1.0 0.0822808414
H  H225  1  0.88310000  0.30260000  0.70490000  1.0 0.0822808414
H  H226  1  0.70490000  0.88310000  0.30260000  1.0 0.0822808414
H  H227  1  0.30260000  0.59770000  0.41950000  1.0 0.0822808414
H  H228  1  0.88310000  0.58050000  0.17820000  1.0 0.0822808414
H  H229  1  0.41950000  0.11690000  0.82180000  1.0 0.0822808414
H  H230  1  0.59770000  0.41950000  0.30260000  1.0 0.0822808414
H  H231  1  0.29510000  0.59770000  0.17820000  1.0 0.0822808414
H  H232  1  0.11690000  0.29510000  0.69740000  1.0 0.0822808414
H  H233  1  0.69740000  0.58050000  0.40230000  1.0 0.0822808414
H  H234  1  0.58050000  0.17820000  0.88310000  1.0 0.0822808414
H  H235  1  0.70490000  0.82180000  0.40230000  1.0 0.0822808414
H  H236  1  0.30260000  0.70490000  0.88310000  1.0 0.0822808414
H  H237  1  0.41950000  0.30260000  0.59770000  1.0 0.0822808414
H  H238  1  0.82180000  0.41950000  0.11690000  1.0 0.0822808414
H  H239  1  0.17820000  0.29510000  0.59770000  1.0 0.0822808414
H  H240  1  0.29510000  0.69740000  0.11690000  1.0 0.0822808414
H  H241  1  0.38000000  0.73650000  0.50690000  1.0 0.3343421762
H  H242  1  0.73650000  0.22960000  0.35650000  1.0 0.3343421762
H  H243  1  0.62000000  0.12690000  0.35650000  1.0 0.3343421762
H  H244  1  0.50690000  0.38000000  0.73650000  1.0 0.3343421762
H  H245  1  0.22960000  0.87310000  0.49310000  1.0 0.3343421762
H  H246  1  0.12690000  0.77040000  0.50690000  1.0 0.3343421762
H  H247  1  0.38000000  0.64350000  0.87310000  1.0 0.3343421762
H  H248  1  0.87310000  0.38000000  0.64350000  1.0 0.3343421762
H  H249  1  0.77040000  0.26350000  0.64350000  1.0 0.3343421762
H  H250  1  0.64350000  0.77040000  0.26350000  1.0 0.3343421762
H  H251  1  0.26350000  0.62000000  0.49310000  1.0 0.3343421762
H  H252  1  0.77040000  0.50690000  0.12690000  1.0 0.3343421762
H  H253  1  0.49310000  0.22960000  0.87310000  1.0 0.3343421762
H  H254  1  0.62000000  0.49310000  0.26350000  1.0 0.3343421762
H  H255  1  0.35650000  0.62000000  0.12690000  1.0 0.3343421762
H  H256  1  0.22960000  0.35650000  0.73650000  1.0 0.3343421762
H  H257  1  0.73650000  0.50690000  0.38000000  1.0 0.3343421762
H  H258  1  0.50690000  0.12690000  0.77040000  1.0 0.3343421762
H  H259  1  0.64350000  0.87310000  0.38000000  1.0 0.3343421762
H  H260  1  0.26350000  0.64350000  0.77040000  1.0 0.3343421762
H  H261  1  0.49310000  0.26350000  0.62000000  1.0 0.3343421762
H  H262  1  0.87310000  0.49310000  0.22960000  1.0 0.3343421762
H  H263  1  0.12690000  0.35650000  0.62000000  1.0 0.3343421762
H  H264  1  0.35650000  0.73650000  0.22960000  1.0 0.3343421762
H  H265  1  0.35480000  0.74860000  0.60320000  1.0 0.0998398901
H  H266  1  0.74860000  0.14540000  0.39380000  1.0 0.0998398901
H  H267  1  0.64520000  0.24840000  0.39380000  1.0 0.0998398901
H  H268  1  0.60320000  0.35480000  0.74860000  1.0 0.0998398901
H  H269  1  0.14540000  0.75160000  0.39680000  1.0 0.0998398901
H  H270  1  0.24840000  0.85460000  0.60320000  1.0 0.0998398901
H  H271  1  0.35480000  0.60620000  0.75160000  1.0 0.0998398901
H  H272  1  0.75160000  0.35480000  0.60620000  1.0 0.0998398901
H  H273  1  0.85460000  0.25140000  0.60620000  1.0 0.0998398901
H  H274  1  0.60620000  0.85460000  0.25140000  1.0 0.0998398901
H  H275  1  0.25140000  0.64520000  0.39680000  1.0 0.0998398901
H  H276  1  0.85460000  0.60320000  0.24840000  1.0 0.0998398901
H  H277  1  0.39680000  0.14540000  0.75160000  1.0 0.0998398901
H  H278  1  0.64520000  0.39680000  0.25140000  1.0 0.0998398901
H  H279  1  0.39380000  0.64520000  0.24840000  1.0 0.0998398901
H  H280  1  0.14540000  0.39380000  0.74860000  1.0 0.0998398901
H  H281  1  0.74860000  0.60320000  0.35480000  1.0 0.0998398901
H  H282  1  0.60320000  0.24840000  0.85460000  1.0 0.0998398901
H  H283  1  0.60620000  0.75160000  0.35480000  1.0 0.0998398901
H  H284  1  0.25140000  0.60620000  0.85460000  1.0 0.0998398901
H  H285  1  0.39680000  0.25140000  0.64520000  1.0 0.0998398901
H  H286  1  0.75160000  0.39680000  0.14540000  1.0 0.0998398901
H  H287  1  0.24840000  0.39380000  0.64520000  1.0 0.0998398901
H  H288  1  0.39380000  0.74860000  0.14540000  1.0 0.0998398901
H  H289  1  0.38420000  0.88370000  0.65390000  1.0 0.2368302588
H  H290  1  0.88370000  0.22980000  0.49950000  1.0 0.2368302588
H  H291  1  0.61580000  0.26970000  0.49950000  1.0 0.2368302588
H  H292  1  0.65390000  0.38420000  0.88370000  1.0 0.2368302588
H  H293  1  0.22980000  0.73030000  0.34610000  1.0 0.2368302588
H  H294  1  0.26970000  0.77020000  0.65390000  1.0 0.2368302588
H  H295  1  0.38420000  0.50050000  0.73030000  1.0 0.2368302588
H  H296  1  0.73030000  0.38420000  0.50050000  1.0 0.2368302588
H  H297  1  0.77020000  0.11630000  0.50050000  1.0 0.2368302588
H  H298  1  0.50050000  0.77020000  0.11630000  1.0 0.2368302588
H  H299  1  0.11630000  0.61580000  0.34610000  1.0 0.2368302588
H  H300  1  0.77020000  0.65390000  0.26970000  1.0 0.2368302588
H  H301  1  0.34610000  0.22980000  0.73030000  1.0 0.2368302588
H  H302  1  0.61580000  0.34610000  0.11630000  1.0 0.2368302588
H  H303  1  0.49950000  0.61580000  0.26970000  1.0 0.2368302588
H  H304  1  0.22980000  0.49950000  0.88370000  1.0 0.2368302588
H  H305  1  0.88370000  0.65390000  0.38420000  1.0 0.2368302588
H  H306  1  0.65390000  0.26970000  0.77020000  1.0 0.2368302588
H  H307  1  0.50050000  0.73030000  0.38420000  1.0 0.2368302588
H  H308  1  0.11630000  0.50050000  0.77020000  1.0 0.2368302588
H  H309  1  0.34610000  0.11630000  0.61580000  1.0 0.2368302588
H  H310  1  0.73030000  0.34610000  0.22980000  1.0 0.2368302588
H  H311  1  0.26970000  0.49950000  0.61580000  1.0 0.2368302588
H  H312  1  0.49950000  0.88370000  0.22980000  1.0 0.2368302588
H  H313  1  0.44330000  0.84810000  0.61320000  1.0 0.0998398901
H  H314  1  0.84810000  0.23490000  0.40480000  1.0 0.0998398901
H  H315  1  0.55670000  0.16990000  0.40480000  1.0 0.0998398901
H  H316  1  0.61320000  0.44330000  0.84810000  1.0 0.0998398901
H  H317  1  0.23490000  0.83010000  0.38680000  1.0 0.0998398901
H  H318  1  0.16990000  0.76510000  0.61320000  1.0 0.0998398901
H  H319  1  0.44330000  0.59520000  0.83010000  1.0 0.0998398901
H  H320  1  0.83010000  0.44330000  0.59520000  1.0 0.0998398901
H  H321  1  0.76510000  0.15190000  0.59520000  1.0 0.0998398901
H  H322  1  0.59520000  0.76510000  0.15190000  1.0 0.0998398901
H  H323  1  0.15190000  0.55670000  0.38680000  1.0 0.0998398901
H  H324  1  0.76510000  0.61320000  0.16990000  1.0 0.0998398901
H  H325  1  0.38680000  0.23490000  0.83010000  1.0 0.0998398901
H  H326  1  0.55670000  0.38680000  0.15190000  1.0 0.0998398901
H  H327  1  0.40480000  0.55670000  0.16990000  1.0 0.0998398901
H  H328  1  0.23490000  0.40480000  0.84810000  1.0 0.0998398901
H  H329  1  0.84810000  0.61320000  0.44330000  1.0 0.0998398901
H  H330  1  0.61320000  0.16990000  0.76510000  1.0 0.0998398901
H  H331  1  0.59520000  0.83010000  0.44330000  1.0 0.0998398901
H  H332  1  0.15190000  0.59520000  0.76510000  1.0 0.0998398901
H  H333  1  0.38680000  0.15190000  0.55670000  1.0 0.0998398901
H  H334  1  0.83010000  0.38680000  0.23490000  1.0 0.0998398901
H  H335  1  0.16990000  0.40480000  0.55670000  1.0 0.0998398901
H  H336  1  0.40480000  0.84810000  0.23490000  1.0 0.0998398901
H  H337  1  0.42230000  0.83100000  0.71310000  1.0 0.0998398901
H  H338  1  0.83100000  0.11790000  0.40870000  1.0 0.0998398901
H  H339  1  0.57770000  0.29080000  0.40870000  1.0 0.0998398901
H  H340  1  0.71310000  0.42230000  0.83100000  1.0 0.0998398901
H  H341  1  0.11790000  0.70920000  0.28690000  1.0 0.0998398901
H  H342  1  0.29080000  0.88210000  0.71310000  1.0 0.0998398901
H  H343  1  0.42230000  0.59130000  0.70920000  1.0 0.0998398901
H  H344  1  0.70920000  0.42230000  0.59130000  1.0 0.0998398901
H  H345  1  0.88210000  0.16900000  0.59130000  1.0 0.0998398901
H  H346  1  0.59130000  0.88210000  0.16900000  1.0 0.0998398901
H  H347  1  0.16900000  0.57770000  0.28690000  1.0 0.0998398901
H  H348  1  0.88210000  0.71310000  0.29080000  1.0 0.0998398901
H  H349  1  0.28690000  0.11790000  0.70920000  1.0 0.0998398901
H  H350  1  0.57770000  0.28690000  0.16900000  1.0 0.0998398901
H  H351  1  0.40870000  0.57770000  0.29080000  1.0 0.0998398901
H  H352  1  0.11790000  0.40870000  0.83100000  1.0 0.0998398901
H  H353  1  0.83100000  0.71310000  0.42230000  1.0 0.0998398901
H  H354  1  0.71310000  0.29080000  0.88210000  1.0 0.0998398901
H  H355  1  0.59130000  0.70920000  0.42230000  1.0 0.0998398901
H  H356  1  0.16900000  0.59130000  0.88210000  1.0 0.0998398901
H  H357  1  0.28690000  0.16900000  0.57770000  1.0 0.0998398901
H  H358  1  0.70920000  0.28690000  0.11790000  1.0 0.0998398901
H  H359  1  0.29080000  0.40870000  0.57770000  1.0 0.0998398901
H  H360  1  0.40870000  0.83100000  0.11790000  1.0 0.0998398901
H  H361  1  0.51950000  0.85100000  0.68930000  1.0 0.0998398901
H  H362  1  0.85100000  0.16170000  0.33150000  1.0 0.0998398901
H  H363  1  0.48050000  0.16980000  0.33150000  1.0 0.0998398901
H  H364  1  0.68930000  0.51950000  0.85100000  1.0 0.0998398901
H  H365  1  0.16170000  0.83020000  0.31070000  1.0 0.0998398901
H  H366  1  0.16980000  0.83830000  0.68930000  1.0 0.0998398901
H  H367  1  0.51950000  0.66850000  0.83020000  1.0 0.0998398901
H  H368  1  0.83020000  0.51950000  0.66850000  1.0 0.0998398901
H  H369  1  0.83830000  0.14900000  0.66850000  1.0 0.0998398901
H  H370  1  0.66850000  0.83830000  0.14900000  1.0 0.0998398901
H  H371  1  0.14900000  0.48050000  0.31070000  1.0 0.0998398901
H  H372  1  0.83830000  0.68930000  0.16980000  1.0 0.0998398901
H  H373  1  0.31070000  0.16170000  0.83020000  1.0 0.0998398901
H  H374  1  0.48050000  0.31070000  0.14900000  1.0 0.0998398901
H  H375  1  0.33150000  0.48050000  0.16980000  1.0 0.0998398901
H  H376  1  0.16170000  0.33150000  0.85100000  1.0 0.0998398901
H  H377  1  0.85100000  0.68930000  0.51950000  1.0 0.0998398901
H  H378  1  0.68930000  0.16980000  0.83830000  1.0 0.0998398901
H  H379  1  0.66850000  0.83020000  0.51950000  1.0 0.0998398901
H  H380  1  0.14900000  0.66850000  0.83830000  1.0 0.0998398901
H  H381  1  0.31070000  0.14900000  0.48050000  1.0 0.0998398901
H  H382  1  0.83020000  0.31070000  0.16170000  1.0 0.0998398901
H  H383  1  0.16980000  0.33150000  0.48050000  1.0 0.0998398901
H  H384  1  0.33150000  0.85100000  0.16170000  1.0 0.0998398901
H  H385  1  0.51240000  0.83240000  0.83640000  1.0 0.2615620104
H  H386  1  0.83240000  0.99600000  0.32000000  1.0 0.2615620104
H  H387  1  0.48760000  0.32400000  0.32000000  1.0 0.2615620104
H  H388  1  0.83640000  0.51240000  0.83240000  1.0 0.2615620104
H  H389  1  0.99600000  0.67600000  0.16360000  1.0 0.2615620104
H  H390  1  0.32400000  0.00400000  0.83640000  1.0 0.2615620104
H  H391  1  0.51240000  0.68000000  0.67600000  1.0 0.2615620104
H  H392  1  0.67600000  0.51240000  0.68000000  1.0 0.2615620104
H  H393  1  0.00400000  0.16760000  0.68000000  1.0 0.2615620104
H  H394  1  0.68000000  0.00400000  0.16760000  1.0 0.2615620104
H  H395  1  0.16760000  0.48760000  0.16360000  1.0 0.2615620104
H  H396  1  0.00400000  0.83640000  0.32400000  1.0 0.2615620104
H  H397  1  0.16360000  0.99600000  0.67600000  1.0 0.2615620104
H  H398  1  0.48760000  0.16360000  0.16760000  1.0 0.2615620104
H  H399  1  0.32000000  0.48760000  0.32400000  1.0 0.2615620104
H  H400  1  0.99600000  0.32000000  0.83240000  1.0 0.2615620104
H  H401  1  0.83240000  0.83640000  0.51240000  1.0 0.2615620104
H  H402  1  0.83640000  0.32400000  0.00400000  1.0 0.2615620104
H  H403  1  0.68000000  0.67600000  0.51240000  1.0 0.2615620104
H  H404  1  0.16760000  0.68000000  0.00400000  1.0 0.2615620104
H  H405  1  0.16360000  0.16760000  0.48760000  1.0 0.2615620104
H  H406  1  0.67600000  0.16360000  0.99600000  1.0 0.2615620104
H  H407  1  0.32400000  0.32000000  0.48760000  1.0 0.2615620104
H  H408  1  0.32000000  0.83240000  0.99600000  1.0 0.2615620104
H  H409  1  0.55690000  0.82220000  0.77210000  1.0 0.0998398901
H  H410  1  0.82220000  0.05010000  0.26530000  1.0 0.0998398901
H  H411  1  0.44310000  0.21520000  0.26530000  1.0 0.0998398901
H  H412  1  0.77210000  0.55690000  0.82220000  1.0 0.0998398901
H  H413  1  0.05010000  0.78480000  0.22790000  1.0 0.0998398901
H  H414  1  0.21520000  0.94990000  0.77210000  1.0 0.0998398901
H  H415  1  0.55690000  0.73470000  0.78480000  1.0 0.0998398901
H  H416  1  0.78480000  0.55690000  0.73470000  1.0 0.0998398901
H  H417  1  0.94990000  0.17780000  0.73470000  1.0 0.0998398901
H  H418  1  0.73470000  0.94990000  0.17780000  1.0 0.0998398901
H  H419  1  0.17780000  0.44310000  0.22790000  1.0 0.0998398901
H  H420  1  0.94990000  0.77210000  0.21520000  1.0 0.0998398901
H  H421  1  0.22790000  0.05010000  0.78480000  1.0 0.0998398901
H  H422  1  0.44310000  0.22790000  0.17780000  1.0 0.0998398901
H  H423  1  0.26530000  0.44310000  0.21520000  1.0 0.0998398901
H  H424  1  0.05010000  0.26530000  0.82220000  1.0 0.0998398901
H  H425  1  0.82220000  0.77210000  0.55690000  1.0 0.0998398901
H  H426  1  0.77210000  0.21520000  0.94990000  1.0 0.0998398901
H  H427  1  0.73470000  0.78480000  0.55690000  1.0 0.0998398901
H  H428  1  0.17780000  0.73470000  0.94990000  1.0 0.0998398901
H  H429  1  0.22790000  0.17780000  0.44310000  1.0 0.0998398901
H  H430  1  0.78480000  0.22790000  0.05010000  1.0 0.0998398901
H  H431  1  0.21520000  0.26530000  0.44310000  1.0 0.0998398901
H  H432  1  0.26530000  0.82220000  0.05010000  1.0 0.0998398901
H  H433  1  0.56100000  0.88750000  0.80250000  1.0 0.0911064838
H  H434  1  0.88750000  0.08500000  0.32650000  1.0 0.0911064838
H  H435  1  0.43900000  0.24150000  0.32650000  1.0 0.0911064838
H  H436  1  0.80250000  0.56100000  0.88750000  1.0 0.0911064838
H  H437  1  0.08500000  0.75850000  0.19750000  1.0 0.0911064838
H  H438  1  0.24150000  0.91500000  0.80250000  1.0 0.0911064838
H  H439  1  0.56100000  0.67350000  0.75850000  1.0 0.0911064838
H  H440  1  0.75850000  0.56100000  0.67350000  1.0 0.0911064838
H  H441  1  0.91500000  0.11250000  0.67350000  1.0 0.0911064838
H  H442  1  0.67350000  0.91500000  0.11250000  1.0 0.0911064838
H  H443  1  0.11250000  0.43900000  0.19750000  1.0 0.0911064838
H  H444  1  0.91500000  0.80250000  0.24150000  1.0 0.0911064838
H  H445  1  0.19750000  0.08500000  0.75850000  1.0 0.0911064838
H  H446  1  0.43900000  0.19750000  0.11250000  1.0 0.0911064838
H  H447  1  0.32650000  0.43900000  0.24150000  1.0 0.0911064838
H  H448  1  0.08500000  0.32650000  0.88750000  1.0 0.0911064838
H  H449  1  0.88750000  0.80250000  0.56100000  1.0 0.0911064838
H  H450  1  0.80250000  0.24150000  0.91500000  1.0 0.0911064838
H  H451  1  0.67350000  0.75850000  0.56100000  1.0 0.0911064838
H  H452  1  0.11250000  0.67350000  0.91500000  1.0 0.0911064838
H  H453  1  0.19750000  0.11250000  0.43900000  1.0 0.0911064838
H  H454  1  0.75850000  0.19750000  0.08500000  1.0 0.0911064838
H  H455  1  0.24150000  0.32650000  0.43900000  1.0 0.0911064838
H  H456  1  0.32650000  0.88750000  0.08500000  1.0 0.0911064838
C  C1  1  0.53480000  0.69520000  0.47840000  1.0 0.1225439367
C  C2  1  0.69520000  0.21680000  0.16040000  1.0 0.1225439367
C  C3  1  0.46520000  0.94360000  0.16040000  1.0 0.1225439367
C  C4  1  0.47840000  0.53480000  0.69520000  1.0 0.1225439367
C  C5  1  0.21680000  0.05640000  0.52160000  1.0 0.1225439367
C  C6  1  0.94360000  0.78320000  0.47840000  1.0 0.1225439367
C  C7  1  0.53480000  0.83960000  0.05640000  1.0 0.1225439367
C  C8  1  0.05640000  0.53480000  0.83960000  1.0 0.1225439367
C  C9  1  0.78320000  0.30480000  0.83960000  1.0 0.1225439367
C  C10  1  0.83960000  0.78320000  0.30480000  1.0 0.1225439367
C  C11  1  0.30480000  0.46520000  0.52160000  1.0 0.1225439367
C  C12  1  0.78320000  0.47840000  0.94360000  1.0 0.1225439367
C  C13  1  0.52160000  0.21680000  0.05640000  1.0 0.1225439367
C  C14  1  0.46520000  0.52160000  0.30480000  1.0 0.1225439367
C  C15  1  0.16040000  0.46520000  0.94360000  1.0 0.1225439367
C  C16  1  0.21680000  0.16040000  0.69520000  1.0 0.1225439367
C  C17  1  0.69520000  0.47840000  0.53480000  1.0 0.1225439367
C  C18  1  0.47840000  0.94360000  0.78320000  1.0 0.1225439367
C  C19  1  0.83960000  0.05640000  0.53480000  1.0 0.1225439367
C  C20  1  0.30480000  0.83960000  0.78320000  1.0 0.1225439367
C  C21  1  0.52160000  0.30480000  0.46520000  1.0 0.1225439367
C  C22  1  0.05640000  0.52160000  0.21680000  1.0 0.1225439367
C  C23  1  0.94360000  0.16040000  0.46520000  1.0 0.1225439367
C  C24  1  0.16040000  0.69520000  0.21680000  1.0 0.1225439367
C  C25  1  0.46970000  0.67050000  0.44340000  1.0 0.0669583697
C  C26  1  0.67050000  0.22710000  0.20080000  1.0 0.0669583697
C  C27  1  0.53030000  0.97370000  0.20080000  1.0 0.0669583697
C  C28  1  0.44340000  0.46970000  0.67050000  1.0 0.0669583697
C  C29  1  0.22710000  0.02630000  0.55660000  1.0 0.0669583697
C  C30  1  0.97370000  0.77290000  0.44340000  1.0 0.0669583697
C  C31  1  0.46970000  0.79920000  0.02630000  1.0 0.0669583697
C  C32  1  0.02630000  0.46970000  0.79920000  1.0 0.0669583697
C  C33  1  0.77290000  0.32950000  0.79920000  1.0 0.0669583697
C  C34  1  0.79920000  0.77290000  0.32950000  1.0 0.0669583697
C  C35  1  0.32950000  0.53030000  0.55660000  1.0 0.0669583697
C  C36  1  0.77290000  0.44340000  0.97370000  1.0 0.0669583697
C  C37  1  0.55660000  0.22710000  0.02630000  1.0 0.0669583697
C  C38  1  0.53030000  0.55660000  0.32950000  1.0 0.0669583697
C  C39  1  0.20080000  0.53030000  0.97370000  1.0 0.0669583697
C  C40  1  0.22710000  0.20080000  0.67050000  1.0 0.0669583697
C  C41  1  0.67050000  0.44340000  0.46970000  1.0 0.0669583697
C  C42  1  0.44340000  0.97370000  0.77290000  1.0 0.0669583697
C  C43  1  0.79920000  0.02630000  0.46970000  1.0 0.0669583697
C  C44  1  0.32950000  0.79920000  0.77290000  1.0 0.0669583697
C  C45  1  0.55660000  0.32950000  0.53030000  1.0 0.0669583697
C  C46  1  0.02630000  0.55660000  0.22710000  1.0 0.0669583697
C  C47  1  0.97370000  0.20080000  0.53030000  1.0 0.0669583697
C  C48  1  0.20080000  0.67050000  0.22710000  1.0 0.0669583697
C  C49  1  0.45470000  0.71240000  0.48570000  1.0 0.0669583697
C  C50  1  0.71240000  0.22670000  0.25770000  1.0 0.0669583697
C  C51  1  0.54530000  0.03100000  0.25770000  1.0 0.0669583697
C  C52  1  0.48570000  0.45470000  0.71240000  1.0 0.0669583697
C  C53  1  0.22670000  0.96900000  0.51430000  1.0 0.0669583697
C  C54  1  0.03100000  0.77330000  0.48570000  1.0 0.0669583697
C  C55  1  0.45470000  0.74230000  0.96900000  1.0 0.0669583697
C  C56  1  0.96900000  0.45470000  0.74230000  1.0 0.0669583697
C  C57  1  0.77330000  0.28760000  0.74230000  1.0 0.0669583697
C  C58  1  0.74230000  0.77330000  0.28760000  1.0 0.0669583697
C  C59  1  0.28760000  0.54530000  0.51430000  1.0 0.0669583697
C  C60  1  0.77330000  0.48570000  0.03100000  1.0 0.0669583697
C  C61  1  0.51430000  0.22670000  0.96900000  1.0 0.0669583697
C  C62  1  0.54530000  0.51430000  0.28760000  1.0 0.0669583697
C  C63  1  0.25770000  0.54530000  0.03100000  1.0 0.0669583697
C  C64  1  0.22670000  0.25770000  0.71240000  1.0 0.0669583697
C  C65  1  0.71240000  0.48570000  0.45470000  1.0 0.0669583697
C  C66  1  0.48570000  0.03100000  0.77330000  1.0 0.0669583697
C  C67  1  0.74230000  0.96900000  0.45470000  1.0 0.0669583697
C  C68  1  0.28760000  0.74230000  0.77330000  1.0 0.0669583697
C  C69  1  0.51430000  0.28760000  0.54530000  1.0 0.0669583697
C  C70  1  0.96900000  0.51430000  0.22670000  1.0 0.0669583697
C  C71  1  0.03100000  0.25770000  0.54530000  1.0 0.0669583697
C  C72  1  0.25770000  0.71240000  0.22670000  1.0 0.0669583697
C  C73  1  0.48150000  0.72140000  0.55150000  1.0 0.0998398901
C  C74  1  0.72140000  0.16990000  0.23990000  1.0 0.0998398901
C  C75  1  0.51850000  0.07000000  0.23990000  1.0 0.0998398901
C  C76  1  0.55150000  0.48150000  0.72140000  1.0 0.0998398901
C  C77  1  0.16990000  0.93000000  0.44850000  1.0 0.0998398901
C  C78  1  0.07000000  0.83010000  0.55150000  1.0 0.0998398901
C  C79  1  0.48150000  0.76010000  0.93000000  1.0 0.0998398901
C  C80  1  0.93000000  0.48150000  0.76010000  1.0 0.0998398901
C  C81  1  0.83010000  0.27860000  0.76010000  1.0 0.0998398901
C  C82  1  0.76010000  0.83010000  0.27860000  1.0 0.0998398901
C  C83  1  0.27860000  0.51850000  0.44850000  1.0 0.0998398901
C  C84  1  0.83010000  0.55150000  0.07000000  1.0 0.0998398901
C  C85  1  0.44850000  0.16990000  0.93000000  1.0 0.0998398901
C  C86  1  0.51850000  0.44850000  0.27860000  1.0 0.0998398901
C  C87  1  0.23990000  0.51850000  0.07000000  1.0 0.0998398901
C  C88  1  0.16990000  0.23990000  0.72140000  1.0 0.0998398901
C  C89  1  0.72140000  0.55150000  0.48150000  1.0 0.0998398901
C  C90  1  0.55150000  0.07000000  0.83010000  1.0 0.0998398901
C  C91  1  0.76010000  0.93000000  0.48150000  1.0 0.0998398901
C  C92  1  0.27860000  0.76010000  0.83010000  1.0 0.0998398901
C  C93  1  0.44850000  0.27860000  0.51850000  1.0 0.0998398901
C  C94  1  0.93000000  0.44850000  0.16990000  1.0 0.0998398901
C  C95  1  0.07000000  0.23990000  0.51850000  1.0 0.0998398901
C  C96  1  0.23990000  0.72140000  0.16990000  1.0 0.0998398901
C  C97  1  0.55260000  0.74160000  0.57800000  1.0 0.0097198655
C  C98  1  0.74160000  0.16360000  0.18900000  1.0 0.0097198655
C  C99  1  0.44740000  0.02540000  0.18900000  1.0 0.0097198655
C  C100  1  0.57800000  0.55260000  0.74160000  1.0 0.0097198655
C  C101  1  0.16360000  0.97460000  0.42200000  1.0 0.0097198655
C  C102  1  0.02540000  0.83640000  0.57800000  1.0 0.0097198655
C  C103  1  0.55260000  0.81100000  0.97460000  1.0 0.0097198655
C  C104  1  0.97460000  0.55260000  0.81100000  1.0 0.0097198655
C  C105  1  0.83640000  0.25840000  0.81100000  1.0 0.0097198655
C  C106  1  0.81100000  0.83640000  0.25840000  1.0 0.0097198655
C  C107  1  0.25840000  0.44740000  0.42200000  1.0 0.0097198655
C  C108  1  0.83640000  0.57800000  0.02540000  1.0 0.0097198655
C  C109  1  0.42200000  0.16360000  0.97460000  1.0 0.0097198655
C  C110  1  0.44740000  0.42200000  0.25840000  1.0 0.0097198655
C  C111  1  0.18900000  0.44740000  0.02540000  1.0 0.0097198655
C  C112  1  0.16360000  0.18900000  0.74160000  1.0 0.0097198655
C  C113  1  0.74160000  0.57800000  0.55260000  1.0 0.0097198655
C  C114  1  0.57800000  0.02540000  0.83640000  1.0 0.0097198655
C  C115  1  0.81100000  0.97460000  0.55260000  1.0 0.0097198655
C  C116  1  0.25840000  0.81100000  0.83640000  1.0 0.0097198655
C  C117  1  0.42200000  0.25840000  0.44740000  1.0 0.0097198655
C  C118  1  0.97460000  0.42200000  0.16360000  1.0 0.0097198655
C  C119  1  0.02540000  0.18900000  0.44740000  1.0 0.0097198655
C  C120  1  0.18900000  0.74160000  0.16360000  1.0 0.0097198655
C  C121  1  0.58360000  0.74080000  0.63840000  1.0 -0.1044776793
C  C122  1  0.74080000  0.10240000  0.15720000  1.0 -0.1044776793
C  C123  1  0.41640000  0.05480000  0.15720000  1.0 -0.1044776793
C  C124  1  0.63840000  0.58360000  0.74080000  1.0 -0.1044776793
C  C125  1  0.10240000  0.94520000  0.36160000  1.0 -0.1050994451
C  C126  1  0.05480000  0.89760000  0.63840000  1.0 -0.1050994451
C  C127  1  0.58360000  0.84280000  0.94520000  1.0 -0.1044776793
C  C128  1  0.94520000  0.58360000  0.84280000  1.0 -0.1044776793
C  C129  1  0.89760000  0.25920000  0.84280000  1.0 -0.1044776793
C  C130  1  0.84280000  0.89760000  0.25920000  1.0 -0.1044776793
C  C131  1  0.25920000  0.41640000  0.36160000  1.0 -0.1044776793
C  C132  1  0.89760000  0.63840000  0.05480000  1.0 -0.1044776793
C  C133  1  0.36160000  0.10240000  0.94520000  1.0 -0.1044776793
C  C134  1  0.41640000  0.36160000  0.25920000  1.0 -0.1044776793
C  C135  1  0.15720000  0.41640000  0.05480000  1.0 -0.1044776793
C  C136  1  0.10240000  0.15720000  0.74080000  1.0 -0.1044776793
C  C137  1  0.74080000  0.63840000  0.58360000  1.0 -0.1044776793
C  C138  1  0.63840000  0.05480000  0.89760000  1.0 -0.1044776793
C  C139  1  0.84280000  0.94520000  0.58360000  1.0 -0.1044776793
C  C140  1  0.25920000  0.84280000  0.89760000  1.0 -0.1044776793
C  C141  1  0.36160000  0.25920000  0.41640000  1.0 -0.1044776793
C  C142  1  0.94520000  0.36160000  0.10240000  1.0 -0.1044776793
C  C143  1  0.05480000  0.15720000  0.41640000  1.0 -0.1044776793
C  C144  1  0.15720000  0.74080000  0.10240000  1.0 -0.1050994451
C  C145  1  0.42740000  0.74320000  0.60480000  1.0 0.1084618811
C  C146  1  0.74320000  0.13840000  0.31580000  1.0 0.1084618811
C  C147  1  0.57260000  0.17740000  0.31580000  1.0 0.1084618811
C  C148  1  0.60480000  0.42740000  0.74320000  1.0 0.1084618811
C  C149  1  0.13840000  0.82260000  0.39520000  1.0 0.1084618811
C  C150  1  0.17740000  0.86160000  0.60480000  1.0 0.1084618811
C  C151  1  0.42740000  0.68420000  0.82260000  1.0 0.1084618811
C  C152  1  0.82260000  0.42740000  0.68420000  1.0 0.1084618811
C  C153  1  0.86160000  0.25680000  0.68420000  1.0 0.1084618811
C  C154  1  0.68420000  0.86160000  0.25680000  1.0 0.1084618811
C  C155  1  0.25680000  0.57260000  0.39520000  1.0 0.1084618811
C  C156  1  0.86160000  0.60480000  0.17740000  1.0 0.1084618811
C  C157  1  0.39520000  0.13840000  0.82260000  1.0 0.1084618811
C  C158  1  0.57260000  0.39520000  0.25680000  1.0 0.1084618811
C  C159  1  0.31580000  0.57260000  0.17740000  1.0 0.1084618811
C  C160  1  0.13840000  0.31580000  0.74320000  1.0 0.1084618811
C  C161  1  0.74320000  0.60480000  0.42740000  1.0 0.1084618811
C  C162  1  0.60480000  0.17740000  0.86160000  1.0 0.1084618811
C  C163  1  0.68420000  0.82260000  0.42740000  1.0 0.1084618811
C  C164  1  0.25680000  0.68420000  0.86160000  1.0 0.1084618811
C  C165  1  0.39520000  0.25680000  0.57260000  1.0 0.1084618811
C  C166  1  0.82260000  0.39520000  0.13840000  1.0 0.1084618811
C  C167  1  0.17740000  0.31580000  0.57260000  1.0 0.1084618811
C  C168  1  0.31580000  0.74320000  0.13840000  1.0 0.1084618811
C  C169  1  0.38590000  0.76600000  0.59190000  1.0 0.004055942
C  C170  1  0.76600000  0.17410000  0.38010000  1.0 0.004055942
C  C171  1  0.61410000  0.20600000  0.38010000  1.0 0.004055942
C  C172  1  0.59190000  0.38590000  0.76600000  1.0 0.004055942
C  C173  1  0.17410000  0.79400000  0.40810000  1.0 0.004055942
C  C174  1  0.20600000  0.82590000  0.59190000  1.0 0.004055942
C  C175  1  0.38590000  0.61990000  0.79400000  1.0 0.004055942
C  C176  1  0.79400000  0.38590000  0.61990000  1.0 0.004055942
C  C177  1  0.82590000  0.23400000  0.61990000  1.0 0.004055942
C  C178  1  0.61990000  0.82590000  0.23400000  1.0 0.004055942
C  C179  1  0.23400000  0.61410000  0.40810000  1.0 0.004055942
C  C180  1  0.82590000  0.59190000  0.20600000  1.0 0.004055942
C  C181  1  0.40810000  0.17410000  0.79400000  1.0 0.004055942
C  C182  1  0.61410000  0.40810000  0.23400000  1.0 0.004055942
C  C183  1  0.38010000  0.61410000  0.20600000  1.0 0.004055942
C  C184  1  0.17410000  0.38010000  0.76600000  1.0 0.004055942
C  C185  1  0.76600000  0.59190000  0.38590000  1.0 0.004055942
C  C186  1  0.59190000  0.20600000  0.82590000  1.0 0.004055942
C  C187  1  0.61990000  0.79400000  0.38590000  1.0 0.004055942
C  C188  1  0.23400000  0.61990000  0.82590000  1.0 0.004055942
C  C189  1  0.40810000  0.23400000  0.61410000  1.0 0.004055942
C  C190  1  0.79400000  0.40810000  0.17410000  1.0 0.004055942
C  C191  1  0.20600000  0.38010000  0.61410000  1.0 0.004055942
C  C192  1  0.38010000  0.76600000  0.17410000  1.0 0.004055942
C  C193  1  0.41450000  0.82790000  0.62540000  1.0 0.063918225
C  C194  1  0.82790000  0.20250000  0.41340000  1.0 0.063918225
C  C195  1  0.58550000  0.21090000  0.41340000  1.0 0.063918225
C  C196  1  0.62540000  0.41450000  0.82790000  1.0 0.063918225
C  C197  1  0.20250000  0.78910000  0.37460000  1.0 0.063918225
C  C198  1  0.21090000  0.79750000  0.62540000  1.0 0.063918225
C  C199  1  0.41450000  0.58660000  0.78910000  1.0 0.063918225
C  C200  1  0.78910000  0.41450000  0.58660000  1.0 0.063918225
C  C201  1  0.79750000  0.17210000  0.58660000  1.0 0.063918225
C  C202  1  0.58660000  0.79750000  0.17210000  1.0 0.063918225
C  C203  1  0.17210000  0.58550000  0.37460000  1.0 0.063918225
C  C204  1  0.79750000  0.62540000  0.21090000  1.0 0.063918225
C  C205  1  0.37460000  0.20250000  0.78910000  1.0 0.063918225
C  C206  1  0.58550000  0.37460000  0.17210000  1.0 0.063918225
C  C207  1  0.41340000  0.58550000  0.21090000  1.0 0.063918225
C  C208  1  0.20250000  0.41340000  0.82790000  1.0 0.063918225
C  C209  1  0.82790000  0.62540000  0.41450000  1.0 0.063918225
C  C210  1  0.62540000  0.21090000  0.79750000  1.0 0.063918225
C  C211  1  0.58660000  0.78910000  0.41450000  1.0 0.063918225
C  C212  1  0.17210000  0.58660000  0.79750000  1.0 0.063918225
C  C213  1  0.37460000  0.17210000  0.58550000  1.0 0.063918225
C  C214  1  0.78910000  0.37460000  0.20250000  1.0 0.063918225
C  C215  1  0.21090000  0.41340000  0.58550000  1.0 0.063918225
C  C216  1  0.41340000  0.82790000  0.20250000  1.0 0.063918225
C  C217  1  0.45030000  0.84970000  0.69940000  1.0 0.004055942
C  C218  1  0.84970000  0.15030000  0.39940000  1.0 0.004055942
C  C219  1  0.54970000  0.24910000  0.39940000  1.0 0.004055942
C  C220  1  0.69940000  0.45030000  0.84970000  1.0 0.004055942
C  C221  1  0.15030000  0.75090000  0.30060000  1.0 0.004055942
C  C222  1  0.24910000  0.84970000  0.69940000  1.0 0.004055942
C  C223  1  0.45030000  0.60060000  0.75090000  1.0 0.004055942
C  C224  1  0.75090000  0.45030000  0.60060000  1.0 0.004055942
C  C225  1  0.84970000  0.15030000  0.60060000  1.0 0.004055942
C  C226  1  0.60060000  0.84970000  0.15030000  1.0 0.004055942
C  C227  1  0.15030000  0.54970000  0.30060000  1.0 0.004055942
C  C228  1  0.84970000  0.69940000  0.24910000  1.0 0.004055942
C  C229  1  0.30060000  0.15030000  0.75090000  1.0 0.004055942
C  C230  1  0.54970000  0.30060000  0.15030000  1.0 0.004055942
C  C231  1  0.39940000  0.54970000  0.24910000  1.0 0.004055942
C  C232  1  0.15030000  0.39940000  0.84970000  1.0 0.004055942
C  C233  1  0.84970000  0.69940000  0.45030000  1.0 0.004055942
C  C234  1  0.69940000  0.24910000  0.84970000  1.0 0.004055942
C  C235  1  0.60060000  0.75090000  0.45030000  1.0 0.004055942
C  C236  1  0.15030000  0.60060000  0.84970000  1.0 0.004055942
C  C237  1  0.30060000  0.15030000  0.54970000  1.0 0.004055942
C  C238  1  0.75090000  0.30060000  0.15030000  1.0 0.004055942
C  C239  1  0.24910000  0.39940000  0.54970000  1.0 0.004055942
C  C240  1  0.39940000  0.84970000  0.15030000  1.0 0.004055942
C  C241  1  0.49210000  0.83170000  0.70320000  1.0 0.0262372458
C  C242  1  0.83170000  0.12850000  0.33960000  1.0 0.0262372458
C  C243  1  0.50790000  0.21110000  0.33960000  1.0 0.0262372458
C  C244  1  0.70320000  0.49210000  0.83170000  1.0 0.0262372458
C  C245  1  0.12850000  0.78890000  0.29680000  1.0 0.0262372458
C  C246  1  0.21110000  0.87150000  0.70320000  1.0 0.0262372458
C  C247  1  0.49210000  0.66040000  0.78890000  1.0 0.0262372458
C  C248  1  0.78890000  0.49210000  0.66040000  1.0 0.0262372458
C  C249  1  0.87150000  0.16830000  0.66040000  1.0 0.0262372458
C  C250  1  0.66040000  0.87150000  0.16830000  1.0 0.0262372458
C  C251  1  0.16830000  0.50790000  0.29680000  1.0 0.0262372458
C  C252  1  0.87150000  0.70320000  0.21110000  1.0 0.0262372458
C  C253  1  0.29680000  0.12850000  0.78890000  1.0 0.0262372458
C  C254  1  0.50790000  0.29680000  0.16830000  1.0 0.0262372458
C  C255  1  0.33960000  0.50790000  0.21110000  1.0 0.0262372458
C  C256  1  0.12850000  0.33960000  0.83170000  1.0 0.0262372458
C  C257  1  0.83170000  0.70320000  0.49210000  1.0 0.0262372458
C  C258  1  0.70320000  0.21110000  0.87150000  1.0 0.0262372458
C  C259  1  0.66040000  0.78890000  0.49210000  1.0 0.0262372458
C  C260  1  0.16830000  0.66040000  0.87150000  1.0 0.0262372458
C  C261  1  0.29680000  0.16830000  0.50790000  1.0 0.0262372458
C  C262  1  0.78890000  0.29680000  0.12850000  1.0 0.0262372458
C  C263  1  0.21110000  0.33960000  0.50790000  1.0 0.0262372458
C  C264  1  0.33960000  0.83170000  0.12850000  1.0 0.0262372458
C  C265  1  0.53250000  0.84310000  0.77320000  1.0 -0.0543834177
C  C266  1  0.84310000  0.06990000  0.31060000  1.0 -0.0543834177
C  C267  1  0.46750000  0.24070000  0.31060000  1.0 -0.0543834177
C  C268  1  0.77320000  0.53250000  0.84310000  1.0 -0.0543834177
C  C269  1  0.06990000  0.75930000  0.22680000  1.0 -0.0550861265
C  C270  1  0.24070000  0.93010000  0.77320000  1.0 -0.0543834177
C  C271  1  0.53250000  0.68940000  0.75930000  1.0 -0.0543834177
C  C272  1  0.75930000  0.53250000  0.68940000  1.0 -0.0543834177
C  C273  1  0.93010000  0.15690000  0.68940000  1.0 -0.0543834177
C  C274  1  0.68940000  0.93010000  0.15690000  1.0 -0.0543834177
C  C275  1  0.15690000  0.46750000  0.22680000  1.0 -0.0543834177
C  C276  1  0.93010000  0.77320000  0.24070000  1.0 -0.0543834177
C  C277  1  0.22680000  0.06990000  0.75930000  1.0 -0.0543834177
C  C278  1  0.46750000  0.22680000  0.15690000  1.0 -0.0543834177
C  C279  1  0.31060000  0.46750000  0.24070000  1.0 -0.0543834177
C  C280  1  0.06990000  0.31060000  0.84310000  1.0 -0.0543834177
C  C281  1  0.84310000  0.77320000  0.53250000  1.0 -0.0543834177
C  C282  1  0.77320000  0.24070000  0.93010000  1.0 -0.0543834177
C  C283  1  0.68940000  0.75930000  0.53250000  1.0 -0.0543834177
C  C284  1  0.15690000  0.68940000  0.93010000  1.0 -0.0543834177
C  C285  1  0.22680000  0.15690000  0.46750000  1.0 -0.0543834177
C  C286  1  0.75930000  0.22680000  0.06990000  1.0 -0.0543834177
C  C287  1  0.24070000  0.31060000  0.46750000  1.0 -0.0543834177
C  C288  1  0.31060000  0.84310000  0.06990000  1.0 -0.0543834177
O  O1  1  0.56100000  0.70080000  0.53780000  1.0 -0.1923694579
O  O2  1  0.70080000  0.16300000  0.13980000  1.0 -0.1923694579
O  O3  1  0.43900000  0.97680000  0.13980000  1.0 -0.1923694579
O  O4  1  0.53780000  0.56100000  0.70080000  1.0 -0.1923694579
O  O5  1  0.16300000  0.02320000  0.46220000  1.0 -0.1923694579
O  O6  1  0.97680000  0.83700000  0.53780000  1.0 -0.1923694579
O  O7  1  0.56100000  0.86020000  0.02320000  1.0 -0.1923694579
O  O8  1  0.02320000  0.56100000  0.86020000  1.0 -0.1923694579
O  O9  1  0.83700000  0.29920000  0.86020000  1.0 -0.1923694579
O  O10  1  0.86020000  0.83700000  0.29920000  1.0 -0.1923694579
O  O11  1  0.29920000  0.43900000  0.46220000  1.0 -0.1923694579
O  O12  1  0.83700000  0.53780000  0.97680000  1.0 -0.1923694579
O  O13  1  0.46220000  0.16300000  0.02320000  1.0 -0.1923694579
O  O14  1  0.43900000  0.46220000  0.29920000  1.0 -0.1923694579
O  O15  1  0.13980000  0.43900000  0.97680000  1.0 -0.1923694579
O  O16  1  0.16300000  0.13980000  0.70080000  1.0 -0.1923694579
O  O17  1  0.70080000  0.53780000  0.56100000  1.0 -0.1923694579
O  O18  1  0.53780000  0.97680000  0.83700000  1.0 -0.1923694579
O  O19  1  0.86020000  0.02320000  0.56100000  1.0 -0.1923694579
O  O20  1  0.29920000  0.86020000  0.83700000  1.0 -0.1923694579
O  O21  1  0.46220000  0.29920000  0.43900000  1.0 -0.1923694579
O  O22  1  0.02320000  0.46220000  0.16300000  1.0 -0.1923694579
O  O23  1  0.97680000  0.13980000  0.43900000  1.0 -0.1923694579
O  O24  1  0.13980000  0.70080000  0.16300000  1.0 -0.1923694579
O  O25  1  0.45310000  0.66370000  0.38960000  1.0 -0.4361874174
O  O26  1  0.66370000  0.27410000  0.21060000  1.0 -0.4361874174
O  O27  1  0.54690000  0.93650000  0.21060000  1.0 -0.4361874174
O  O28  1  0.38960000  0.45310000  0.66370000  1.0 -0.4361874174
O  O29  1  0.27410000  0.06350000  0.61040000  1.0 -0.4361874174
O  O30  1  0.93650000  0.72590000  0.38960000  1.0 -0.4361874174
O  O31  1  0.45310000  0.78940000  0.06350000  1.0 -0.4361874174
O  O32  1  0.06350000  0.45310000  0.78940000  1.0 -0.4361874174
O  O33  1  0.72590000  0.33630000  0.78940000  1.0 -0.4361874174
O  O34  1  0.78940000  0.72590000  0.33630000  1.0 -0.4361874174
O  O35  1  0.33630000  0.54690000  0.61040000  1.0 -0.4361874174
O  O36  1  0.72590000  0.38960000  0.93650000  1.0 -0.4361874174
O  O37  1  0.61040000  0.27410000  0.06350000  1.0 -0.4361874174
O  O38  1  0.54690000  0.61040000  0.33630000  1.0 -0.4361874174
O  O39  1  0.21060000  0.54690000  0.93650000  1.0 -0.4361874174
O  O40  1  0.27410000  0.21060000  0.66370000  1.0 -0.4361874174
O  O41  1  0.66370000  0.38960000  0.45310000  1.0 -0.4361874174
O  O42  1  0.38960000  0.93650000  0.72590000  1.0 -0.4361874174
O  O43  1  0.78940000  0.06350000  0.45310000  1.0 -0.4361874174
O  O44  1  0.33630000  0.78940000  0.72590000  1.0 -0.4361874174
O  O45  1  0.61040000  0.33630000  0.54690000  1.0 -0.4361874174
O  O46  1  0.06350000  0.61040000  0.27410000  1.0 -0.4361874174
O  O47  1  0.93650000  0.21060000  0.54690000  1.0 -0.4361874174
O  O48  1  0.21060000  0.66370000  0.27410000  1.0 -0.4361874174
O  O49  1  0.39210000  0.68300000  0.45610000  1.0 -0.4821199097
O  O50  1  0.68300000  0.22690000  0.29090000  1.0 -0.4821199097
O  O51  1  0.60790000  0.06400000  0.29090000  1.0 -0.4821199097
O  O52  1  0.45610000  0.39210000  0.68300000  1.0 -0.4821199097
O  O53  1  0.22690000  0.93600000  0.54390000  1.0 -0.4821199097
O  O54  1  0.06400000  0.77310000  0.45610000  1.0 -0.4821199097
O  O55  1  0.39210000  0.70910000  0.93600000  1.0 -0.4821199097
O  O56  1  0.93600000  0.39210000  0.70910000  1.0 -0.4821199097
O  O57  1  0.77310000  0.31700000  0.70910000  1.0 -0.4821199097
O  O58  1  0.70910000  0.77310000  0.31700000  1.0 -0.4821199097
O  O59  1  0.31700000  0.60790000  0.54390000  1.0 -0.4821199097
O  O60  1  0.77310000  0.45610000  0.06400000  1.0 -0.4821199097
O  O61  1  0.54390000  0.22690000  0.93600000  1.0 -0.4821199097
O  O62  1  0.60790000  0.54390000  0.31700000  1.0 -0.4821199097
O  O63  1  0.29090000  0.60790000  0.06400000  1.0 -0.4821199097
O  O64  1  0.22690000  0.29090000  0.68300000  1.0 -0.4821199097
O  O65  1  0.68300000  0.45610000  0.39210000  1.0 -0.4821199097
O  O66  1  0.45610000  0.06400000  0.77310000  1.0 -0.4821199097
O  O67  1  0.70910000  0.93600000  0.39210000  1.0 -0.4821199097
O  O68  1  0.31700000  0.70910000  0.77310000  1.0 -0.4821199097
O  O69  1  0.54390000  0.31700000  0.60790000  1.0 -0.4821199097
O  O70  1  0.93600000  0.54390000  0.22690000  1.0 -0.4821199097
O  O71  1  0.06400000  0.29090000  0.60790000  1.0 -0.4821199097
O  O72  1  0.29090000  0.68300000  0.22690000  1.0 -0.4821199097
O  O73  1  0.47470000  0.76180000  0.58570000  1.0 -0.1518618072
O  O74  1  0.76180000  0.17610000  0.28710000  1.0 -0.1518618072
O  O75  1  0.52530000  0.11100000  0.28710000  1.0 -0.1518618072
O  O76  1  0.58570000  0.47470000  0.76180000  1.0 -0.1518618072
O  O77  1  0.17610000  0.88900000  0.41430000  1.0 -0.1518618072
O  O78  1  0.11100000  0.82390000  0.58570000  1.0 -0.1518618072
O  O79  1  0.47470000  0.71290000  0.88900000  1.0 -0.1518618072
O  O80  1  0.88900000  0.47470000  0.71290000  1.0 -0.1518618072
O  O81  1  0.82390000  0.23820000  0.71290000  1.0 -0.1518618072
O  O82  1  0.71290000  0.82390000  0.23820000  1.0 -0.1518618072
O  O83  1  0.23820000  0.52530000  0.41430000  1.0 -0.1518618072
O  O84  1  0.82390000  0.58570000  0.11100000  1.0 -0.1518618072
O  O85  1  0.41430000  0.17610000  0.88900000  1.0 -0.1518618072
O  O86  1  0.52530000  0.41430000  0.23820000  1.0 -0.1518618072
O  O87  1  0.28710000  0.52530000  0.11100000  1.0 -0.1518618072
O  O88  1  0.17610000  0.28710000  0.76180000  1.0 -0.1518618072
O  O89  1  0.76180000  0.58570000  0.47470000  1.0 -0.1518618072
O  O90  1  0.58570000  0.11100000  0.82390000  1.0 -0.1518618072
O  O91  1  0.71290000  0.88900000  0.47470000  1.0 -0.1518618072
O  O92  1  0.23820000  0.71290000  0.82390000  1.0 -0.1518618072
O  O93  1  0.41430000  0.23820000  0.52530000  1.0 -0.1518618072
O  O94  1  0.88900000  0.41430000  0.17610000  1.0 -0.1518618072
O  O95  1  0.11100000  0.28710000  0.52530000  1.0 -0.1518618072
O  O96  1  0.28710000  0.76180000  0.17610000  1.0 -0.1518618072
O  O97  1  0.54030000  0.67540000  0.62270000  1.0 -0.4361874174
O  O98  1  0.67540000  0.05270000  0.13510000  1.0 -0.4361874174
O  O99  1  0.45970000  0.08240000  0.13510000  1.0 -0.4361874174
O  O100  1  0.62270000  0.54030000  0.67540000  1.0 -0.4361874174
O  O101  1  0.05270000  0.91760000  0.37730000  1.0 -0.4361874174
O  O102  1  0.08240000  0.94730000  0.62270000  1.0 -0.4361874174
O  O103  1  0.54030000  0.86490000  0.91760000  1.0 -0.4361874174
O  O104  1  0.91760000  0.54030000  0.86490000  1.0 -0.4361874174
O  O105  1  0.94730000  0.32460000  0.86490000  1.0 -0.4361874174
O  O106  1  0.86490000  0.94730000  0.32460000  1.0 -0.4361874174
O  O107  1  0.32460000  0.45970000  0.37730000  1.0 -0.4361874174
O  O108  1  0.94730000  0.62270000  0.08240000  1.0 -0.4361874174
O  O109  1  0.37730000  0.05270000  0.91760000  1.0 -0.4361874174
O  O110  1  0.45970000  0.37730000  0.32460000  1.0 -0.4361874174
O  O111  1  0.13510000  0.45970000  0.08240000  1.0 -0.4361874174
O  O112  1  0.05270000  0.13510000  0.67540000  1.0 -0.4361874174
O  O113  1  0.67540000  0.62270000  0.54030000  1.0 -0.4361874174
O  O114  1  0.62270000  0.08240000  0.94730000  1.0 -0.4361874174
O  O115  1  0.86490000  0.91760000  0.54030000  1.0 -0.4311203713
O  O116  1  0.32460000  0.86490000  0.94730000  1.0 -0.4361874174
O  O117  1  0.37730000  0.32460000  0.45970000  1.0 -0.4361874174
O  O118  1  0.91760000  0.37730000  0.05270000  1.0 -0.4361874174
O  O119  1  0.08240000  0.13510000  0.45970000  1.0 -0.4361874174
O  O120  1  0.13510000  0.67540000  0.05270000  1.0 -0.4361874174
O  O121  1  0.46150000  0.76000000  0.66830000  1.0 -0.3069563045
O  O122  1  0.76000000  0.09170000  0.29850000  1.0 -0.3069563045
O  O123  1  0.53850000  0.20680000  0.29850000  1.0 -0.3069563045
O  O124  1  0.66830000  0.46150000  0.76000000  1.0 -0.3069563045
O  O125  1  0.09170000  0.79320000  0.33170000  1.0 -0.3069563045
O  O126  1  0.20680000  0.90830000  0.66830000  1.0 -0.3069563045
O  O127  1  0.46150000  0.70150000  0.79320000  1.0 -0.3069563045
O  O128  1  0.79320000  0.46150000  0.70150000  1.0 -0.3069563045
O  O129  1  0.90830000  0.24000000  0.70150000  1.0 -0.3069563045
O  O130  1  0.70150000  0.90830000  0.24000000  1.0 -0.3069563045
O  O131  1  0.24000000  0.53850000  0.33170000  1.0 -0.3069563045
O  O132  1  0.90830000  0.66830000  0.20680000  1.0 -0.3069563045
O  O133  1  0.33170000  0.09170000  0.79320000  1.0 -0.3069563045
O  O134  1  0.53850000  0.33170000  0.24000000  1.0 -0.3069563045
O  O135  1  0.29850000  0.53850000  0.20680000  1.0 -0.3069563045
O  O136  1  0.09170000  0.29850000  0.76000000  1.0 -0.3069563045
O  O137  1  0.76000000  0.66830000  0.46150000  1.0 -0.3069563045
O  O138  1  0.66830000  0.20680000  0.90830000  1.0 -0.3069563045
O  O139  1  0.70150000  0.79320000  0.46150000  1.0 -0.3069563045
O  O140  1  0.24000000  0.70150000  0.90830000  1.0 -0.3069563045
O  O141  1  0.33170000  0.24000000  0.53850000  1.0 -0.3069563045
O  O142  1  0.79320000  0.33170000  0.09170000  1.0 -0.3033239896
O  O143  1  0.20680000  0.29850000  0.53850000  1.0 -0.3069563045
O  O144  1  0.29850000  0.76000000  0.09170000  1.0 -0.3069563045
O  O145  1  0.35240000  0.74010000  0.52270000  1.0 -0.4539664294
O  O146  1  0.74010000  0.21740000  0.38770000  1.0 -0.4539664294
O  O147  1  0.64760000  0.17030000  0.38770000  1.0 -0.4539664294
O  O148  1  0.52270000  0.35240000  0.74010000  1.0 -0.4539664294
O  O149  1  0.21740000  0.82970000  0.47730000  1.0 -0.4539664294
O  O150  1  0.17030000  0.78260000  0.52270000  1.0 -0.4539664294
O  O151  1  0.35240000  0.61230000  0.82970000  1.0 -0.4539664294
O  O152  1  0.82970000  0.35240000  0.61230000  1.0 -0.4539664294
O  O153  1  0.78260000  0.25990000  0.61230000  1.0 -0.4539664294
O  O154  1  0.61230000  0.78260000  0.25990000  1.0 -0.4539664294
O  O155  1  0.25990000  0.64760000  0.47730000  1.0 -0.4539664294
O  O156  1  0.78260000  0.52270000  0.17030000  1.0 -0.4539664294
O  O157  1  0.47730000  0.21740000  0.82970000  1.0 -0.4539664294
O  O158  1  0.64760000  0.47730000  0.25990000  1.0 -0.4539664294
O  O159  1  0.38770000  0.64760000  0.17030000  1.0 -0.4539664294
O  O160  1  0.21740000  0.38770000  0.74010000  1.0 -0.4539664294
O  O161  1  0.74010000  0.52270000  0.35240000  1.0 -0.4539664294
O  O162  1  0.52270000  0.17030000  0.78260000  1.0 -0.4539664294
O  O163  1  0.61230000  0.82970000  0.35240000  1.0 -0.4539664294
O  O164  1  0.25990000  0.61230000  0.78260000  1.0 -0.4539664294
O  O165  1  0.47730000  0.25990000  0.64760000  1.0 -0.4539664294
O  O166  1  0.82970000  0.47730000  0.21740000  1.0 -0.4539664294
O  O167  1  0.17030000  0.38770000  0.64760000  1.0 -0.4539664294
O  O168  1  0.38770000  0.74010000  0.21740000  1.0 -0.4539664294
O  O169  1  0.36850000  0.84490000  0.61760000  1.0 -0.4311203713
O  O170  1  0.84490000  0.22730000  0.47640000  1.0 -0.4311203713
O  O171  1  0.63150000  0.24910000  0.47640000  1.0 -0.4311203713
O  O172  1  0.61760000  0.36850000  0.84490000  1.0 -0.4311203713
O  O173  1  0.22730000  0.75090000  0.38240000  1.0 -0.4311203713
O  O174  1  0.24910000  0.77270000  0.61760000  1.0 -0.4311203713
O  O175  1  0.36850000  0.52360000  0.75090000  1.0 -0.4311203713
O  O176  1  0.75090000  0.36850000  0.52360000  1.0 -0.4311203713
O  O177  1  0.77270000  0.15510000  0.52360000  1.0 -0.4311203713
O  O178  1  0.52360000  0.77270000  0.15510000  1.0 -0.4311203713
O  O179  1  0.15510000  0.63150000  0.38240000  1.0 -0.4311203713
O  O180  1  0.77270000  0.61760000  0.24910000  1.0 -0.4311203713
O  O181  1  0.38240000  0.22730000  0.75090000  1.0 -0.4311203713
O  O182  1  0.63150000  0.38240000  0.15510000  1.0 -0.4311203713
O  O183  1  0.47640000  0.63150000  0.24910000  1.0 -0.4311203713
O  O184  1  0.22730000  0.47640000  0.84490000  1.0 -0.4311203713
O  O185  1  0.84490000  0.61760000  0.36850000  1.0 -0.4311203713
O  O186  1  0.61760000  0.24910000  0.77270000  1.0 -0.4311203713
O  O187  1  0.52360000  0.75090000  0.36850000  1.0 -0.4311203713
O  O188  1  0.15510000  0.52360000  0.77270000  1.0 -0.4311203713
O  O189  1  0.38240000  0.15510000  0.63150000  1.0 -0.4311203713
O  O190  1  0.75090000  0.38240000  0.22730000  1.0 -0.4311203713
O  O191  1  0.24910000  0.47640000  0.63150000  1.0 -0.4311203713
O  O192  1  0.47640000  0.84490000  0.22730000  1.0 -0.4311203713
O  O193  1  0.56680000  0.75010000  0.48110000  1.0 -0.255337661
O  O194  1  0.75010000  0.26900000  0.18330000  1.0 -0.255337661
O  O195  1  0.43320000  0.91430000  0.18330000  1.0 -0.255337661
O  O196  1  0.48110000  0.56680000  0.75010000  1.0 -0.255337661
O  O197  1  0.26900000  0.08570000  0.51890000  1.0 -0.255337661
O  O198  1  0.91430000  0.73100000  0.48110000  1.0 -0.255337661
O  O199  1  0.56680000  0.81670000  0.08570000  1.0 -0.255337661
O  O200  1  0.08570000  0.56680000  0.81670000  1.0 -0.2547152395
O  O201  1  0.73100000  0.24990000  0.81670000  1.0 -0.255337661
O  O202  1  0.81670000  0.73100000  0.24990000  1.0 -0.255337661
O  O203  1  0.24990000  0.43320000  0.51890000  1.0 -0.255337661
O  O204  1  0.73100000  0.48110000  0.91430000  1.0 -0.255337661
O  O205  1  0.51890000  0.26900000  0.08570000  1.0 -0.255337661
O  O206  1  0.43320000  0.51890000  0.24990000  1.0 -0.255337661
O  O207  1  0.18330000  0.43320000  0.91430000  1.0 -0.255337661
O  O208  1  0.26900000  0.18330000  0.75010000  1.0 -0.255337661
O  O209  1  0.75010000  0.48110000  0.56680000  1.0 -0.255337661
O  O210  1  0.48110000  0.91430000  0.73100000  1.0 -0.255337661
O  O211  1  0.81670000  0.08570000  0.56680000  1.0 -0.2547152395
O  O212  1  0.24990000  0.81670000  0.73100000  1.0 -0.2547152395
O  O213  1  0.51890000  0.24990000  0.43320000  1.0 -0.255337661
O  O214  1  0.08570000  0.51890000  0.26900000  1.0 -0.255337661
O  O215  1  0.91430000  0.18330000  0.43320000  1.0 -0.255337661
O  O216  1  0.18330000  0.75010000  0.26900000  1.0 -0.255337661
O  O217  1  0.48980000  0.81850000  0.79270000  1.0 -0.4644206979
O  O218  1  0.81850000  0.02580000  0.32870000  1.0 -0.4644206979
O  O219  1  0.51020000  0.30290000  0.32870000  1.0 -0.4644206979
O  O220  1  0.79270000  0.48980000  0.81850000  1.0 -0.4644206979
O  O221  1  0.02580000  0.69710000  0.20730000  1.0 -0.4644206979
O  O222  1  0.30290000  0.97420000  0.79270000  1.0 -0.4644206979
O  O223  1  0.48980000  0.67130000  0.69710000  1.0 -0.4644206979
O  O224  1  0.69710000  0.48980000  0.67130000  1.0 -0.4644206979
O  O225  1  0.97420000  0.18150000  0.67130000  1.0 -0.4644206979
O  O226  1  0.67130000  0.97420000  0.18150000  1.0 -0.4644206979
O  O227  1  0.18150000  0.51020000  0.20730000  1.0 -0.4644206979
O  O228  1  0.97420000  0.79270000  0.30290000  1.0 -0.4644206979
O  O229  1  0.20730000  0.02580000  0.69710000  1.0 -0.4644206979
O  O230  1  0.51020000  0.20730000  0.18150000  1.0 -0.4644206979
O  O231  1  0.32870000  0.51020000  0.30290000  1.0 -0.4644206979
O  O232  1  0.02580000  0.32870000  0.81850000  1.0 -0.4644206979
O  O233  1  0.81850000  0.79270000  0.48980000  1.0 -0.4644206979
O  O234  1  0.79270000  0.30290000  0.97420000  1.0 -0.4644206979
O  O235  1  0.67130000  0.69710000  0.48980000  1.0 -0.4644206979
O  O236  1  0.18150000  0.67130000  0.97420000  1.0 -0.4644206979
O  O237  1  0.20730000  0.18150000  0.51020000  1.0 -0.4644206979
O  O238  1  0.69710000  0.20730000  0.02580000  1.0 -0.4644206979
O  O239  1  0.30290000  0.32870000  0.51020000  1.0 -0.4644206979
O  O240  1  0.32870000  0.81850000  0.02580000  1.0 -0.4644206979
