# DDEC6 charges by PACMAN v1.1 (https://github.com/mtap-research/PACMAN-charge/)
data_LAJLAL_ASR_pacman
_symmetry_space_group_name_H-M   'P 1'
_cell_length_a   26.85200000
_cell_length_b   26.85200000
_cell_length_c   26.85200000
_cell_angle_alpha   109.47100000
_cell_angle_beta   109.47100000
_cell_angle_gamma   109.47100000
_symmetry_Int_Tables_number   1
_chemical_formula_structural   KH40(C6O5)4
_chemical_formula_sum   'K12 H480 C288 O240'
_cell_volume   14904.29961404
_cell_formula_units_Z   12
loop_
 _symmetry_equiv_pos_site_id
 _symmetry_equiv_pos_as_xyz
  1  'x, y, z'
loop_
 _atom_site_type_symbol
 _atom_site_label
 _atom_site_symmetry_multiplicity
 _atom_site_fract_x
 _atom_site_fract_y
 _atom_site_fract_z
 _atom_site_occupancy
 _atom_site_charge
K  K1  1  0.31116000  0.62232000  0.31116000  1.0 0.7734647942
K  K2  1  0.62232000  0.31116000  0.31116000  1.0 0.7734647942
K  K3  1  0.68884000  0.00000000  0.31116000  1.0 0.7734647942
K  K4  1  0.31116000  0.31116000  0.62232000  1.0 0.7734647942
K  K5  1  0.31116000  0.00000000  0.68884000  1.0 0.7734647942
K  K6  1  0.00000000  0.68884000  0.31116000  1.0 0.7734647942
K  K7  1  0.31116000  0.68884000  0.00000000  1.0 0.7734647942
K  K8  1  0.00000000  0.31116000  0.68884000  1.0 0.7734647942
K  K9  1  0.68884000  0.37768000  0.68884000  1.0 0.7734647942
K  K10  1  0.68884000  0.68884000  0.37768000  1.0 0.7734647942
K  K11  1  0.37768000  0.68884000  0.68884000  1.0 0.7734647942
K  K12  1  0.68884000  0.31116000  0.00000000  1.0 0.7734647942
H  H1  1  0.53570000  0.66430000  0.44680000  1.0 0.100615902
H  H2  1  0.66430000  0.21750000  0.12860000  1.0 0.100615902
H  H3  1  0.46430000  0.91110000  0.12860000  1.0 0.100615902
H  H4  1  0.44680000  0.53570000  0.66430000  1.0 0.100615902
H  H5  1  0.21750000  0.08890000  0.55320000  1.0 0.100615902
H  H6  1  0.91110000  0.78250000  0.44680000  1.0 0.100615902
H  H7  1  0.53570000  0.87140000  0.08890000  1.0 0.100615902
H  H8  1  0.08890000  0.53570000  0.87140000  1.0 0.100615902
H  H9  1  0.78250000  0.33570000  0.87140000  1.0 0.100615902
H  H10  1  0.87140000  0.78250000  0.33570000  1.0 0.100615902
H  H11  1  0.33570000  0.46430000  0.55320000  1.0 0.100615902
H  H12  1  0.78250000  0.44680000  0.91110000  1.0 0.100615902
H  H13  1  0.55320000  0.21750000  0.08890000  1.0 0.100615902
H  H14  1  0.46430000  0.55320000  0.33570000  1.0 0.100615902
H  H15  1  0.12860000  0.46430000  0.91110000  1.0 0.100615902
H  H16  1  0.21750000  0.12860000  0.66430000  1.0 0.100615902
H  H17  1  0.66430000  0.44680000  0.53570000  1.0 0.100615902
H  H18  1  0.44680000  0.91110000  0.78250000  1.0 0.100615902
H  H19  1  0.87140000  0.08890000  0.53570000  1.0 0.100615902
H  H20  1  0.33570000  0.87140000  0.78250000  1.0 0.100615902
H  H21  1  0.55320000  0.33570000  0.46430000  1.0 0.100615902
H  H22  1  0.08890000  0.55320000  0.21750000  1.0 0.100615902
H  H23  1  0.91110000  0.12860000  0.46430000  1.0 0.100615902
H  H24  1  0.12860000  0.66430000  0.21750000  1.0 0.100615902
H  H25  1  0.46640000  0.69960000  0.37900000  1.0 0.2125322883
H  H26  1  0.69960000  0.32060000  0.23320000  1.0 0.2125322883
H  H27  1  0.53360000  0.91260000  0.23320000  1.0 0.2125322883
H  H28  1  0.37900000  0.46640000  0.69960000  1.0 0.2125322883
H  H29  1  0.32060000  0.08740000  0.62100000  1.0 0.2125322883
H  H30  1  0.91260000  0.67940000  0.37900000  1.0 0.2125322883
H  H31  1  0.46640000  0.76680000  0.08740000  1.0 0.2125322883
H  H32  1  0.08740000  0.46640000  0.76680000  1.0 0.2125322883
H  H33  1  0.67940000  0.30040000  0.76680000  1.0 0.2125322883
H  H34  1  0.76680000  0.67940000  0.30040000  1.0 0.2125322883
H  H35  1  0.30040000  0.53360000  0.62100000  1.0 0.2125322883
H  H36  1  0.67940000  0.37900000  0.91260000  1.0 0.2125322883
H  H37  1  0.62100000  0.32060000  0.08740000  1.0 0.2125322883
H  H38  1  0.53360000  0.62100000  0.30040000  1.0 0.2125322883
H  H39  1  0.23320000  0.53360000  0.91260000  1.0 0.2125322883
H  H40  1  0.32060000  0.23320000  0.69960000  1.0 0.2125322883
H  H41  1  0.69960000  0.37900000  0.46640000  1.0 0.2125322883
H  H42  1  0.37900000  0.91260000  0.67940000  1.0 0.2125322883
H  H43  1  0.76680000  0.08740000  0.46640000  1.0 0.2125322883
H  H44  1  0.30040000  0.76680000  0.67940000  1.0 0.2125322883
H  H45  1  0.62100000  0.30040000  0.53360000  1.0 0.2125322883
H  H46  1  0.08740000  0.62100000  0.32060000  1.0 0.2125322883
H  H47  1  0.91260000  0.23320000  0.53360000  1.0 0.2125322883
H  H48  1  0.23320000  0.69960000  0.32060000  1.0 0.2125322883
H  H49  1  0.42770000  0.63360000  0.42670000  1.0 0.1157462276
H  H50  1  0.63360000  0.20690000  0.20590000  1.0 0.1157462276
H  H51  1  0.57230000  0.99900000  0.20590000  1.0 0.1157462276
H  H52  1  0.42670000  0.42770000  0.63360000  1.0 0.1157462276
H  H53  1  0.20690000  0.00100000  0.57330000  1.0 0.1157462276
H  H54  1  0.99900000  0.79310000  0.42670000  1.0 0.1157462276
H  H55  1  0.42770000  0.79410000  0.00100000  1.0 0.1157462276
H  H56  1  0.00100000  0.42770000  0.79410000  1.0 0.1157462276
H  H57  1  0.79310000  0.36640000  0.79410000  1.0 0.1157462276
H  H58  1  0.79410000  0.79310000  0.36640000  1.0 0.1157462276
H  H59  1  0.36640000  0.57230000  0.57330000  1.0 0.1157462276
H  H60  1  0.79310000  0.42670000  0.99900000  1.0 0.1157462276
H  H61  1  0.57330000  0.20690000  0.00100000  1.0 0.1157462276
H  H62  1  0.57230000  0.57330000  0.36640000  1.0 0.1157462276
H  H63  1  0.20590000  0.57230000  0.99900000  1.0 0.1157462276
H  H64  1  0.20690000  0.20590000  0.63360000  1.0 0.1157462276
H  H65  1  0.63360000  0.42670000  0.42770000  1.0 0.1157462276
H  H66  1  0.42670000  0.99900000  0.79310000  1.0 0.1157462276
H  H67  1  0.79410000  0.00100000  0.42770000  1.0 0.1157462276
H  H68  1  0.36640000  0.79410000  0.79310000  1.0 0.1157462276
H  H69  1  0.57330000  0.36640000  0.57230000  1.0 0.1157462276
H  H70  1  0.00100000  0.57330000  0.20690000  1.0 0.1157462276
H  H71  1  0.99900000  0.20590000  0.57230000  1.0 0.1157462276
H  H72  1  0.20590000  0.63360000  0.20690000  1.0 0.1157462276
H  H73  1  0.36900000  0.70230000  0.41170000  1.0 0.3071305891
H  H74  1  0.70230000  0.29060000  0.33333333  1.0 0.3071305891
H  H75  1  0.63100000  0.04270000  0.33333333  1.0 0.3071305891
H  H76  1  0.41170000  0.36900000  0.70230000  1.0 0.3071305891
H  H77  1  0.29060000  0.95730000  0.58830000  1.0 0.3071305891
H  H78  1  0.04270000  0.70940000  0.41170000  1.0 0.3071305891
H  H79  1  0.36900000  0.66666667  0.95730000  1.0 0.3071305891
H  H80  1  0.95730000  0.36900000  0.66666667  1.0 0.3071305891
H  H81  1  0.70940000  0.29770000  0.66666667  1.0 0.3071305891
H  H82  1  0.66666667  0.70940000  0.29770000  1.0 0.3071305891
H  H83  1  0.29770000  0.63100000  0.58830000  1.0 0.3071305891
H  H84  1  0.70940000  0.41170000  0.04270000  1.0 0.3071305891
H  H85  1  0.58830000  0.29060000  0.95730000  1.0 0.3071305891
H  H86  1  0.63100000  0.58830000  0.29770000  1.0 0.3071305891
H  H87  1  0.33333333  0.63100000  0.04270000  1.0 0.3071305891
H  H88  1  0.29060000  0.33333333  0.70230000  1.0 0.3071305891
H  H89  1  0.70230000  0.41170000  0.36900000  1.0 0.3071305891
H  H90  1  0.41170000  0.04270000  0.70940000  1.0 0.3071305891
H  H91  1  0.66666667  0.95730000  0.36900000  1.0 0.3071305891
H  H92  1  0.29770000  0.66666667  0.70940000  1.0 0.3071305891
H  H93  1  0.58830000  0.29770000  0.63100000  1.0 0.3071305891
H  H94  1  0.95730000  0.58830000  0.29060000  1.0 0.3071305891
H  H95  1  0.04270000  0.33333333  0.63100000  1.0 0.3071305891
H  H96  1  0.33333333  0.70230000  0.29060000  1.0 0.3071305891
H  H97  1  0.46330000  0.75420000  0.47830000  1.0 0.100615902
H  H98  1  0.75420000  0.27590000  0.29090000  1.0 0.100615902
H  H99  1  0.53670000  0.01500000  0.29090000  1.0 0.100615902
H  H100  1  0.47830000  0.46330000  0.75420000  1.0 0.100615902
H  H101  1  0.27590000  0.98500000  0.52170000  1.0 0.100615902
H  H102  1  0.01500000  0.72410000  0.47830000  1.0 0.100615902
H  H103  1  0.46330000  0.70910000  0.98500000  1.0 0.100615902
H  H104  1  0.98500000  0.46330000  0.70910000  1.0 0.100615902
H  H105  1  0.72410000  0.24580000  0.70910000  1.0 0.100615902
H  H106  1  0.70910000  0.72410000  0.24580000  1.0 0.100615902
H  H107  1  0.24580000  0.53670000  0.52170000  1.0 0.100615902
H  H108  1  0.72410000  0.47830000  0.01500000  1.0 0.100615902
H  H109  1  0.52170000  0.27590000  0.98500000  1.0 0.100615902
H  H110  1  0.53670000  0.52170000  0.24580000  1.0 0.100615902
H  H111  1  0.29090000  0.53670000  0.01500000  1.0 0.100615902
H  H112  1  0.27590000  0.29090000  0.75420000  1.0 0.100615902
H  H113  1  0.75420000  0.47830000  0.46330000  1.0 0.100615902
H  H114  1  0.47830000  0.01500000  0.72410000  1.0 0.100615902
H  H115  1  0.70910000  0.98500000  0.46330000  1.0 0.100615902
H  H116  1  0.24580000  0.70910000  0.72410000  1.0 0.100615902
H  H117  1  0.52170000  0.24580000  0.53670000  1.0 0.100615902
H  H118  1  0.98500000  0.52170000  0.27590000  1.0 0.100615902
H  H119  1  0.01500000  0.29090000  0.53670000  1.0 0.100615902
H  H120  1  0.29090000  0.75420000  0.27590000  1.0 0.100615902
H  H121  1  0.44970000  0.68080000  0.54150000  1.0 0.0840023273
H  H122  1  0.68080000  0.13930000  0.23110000  1.0 0.0840023273
H  H123  1  0.55030000  0.09180000  0.23110000  1.0 0.0840023273
H  H124  1  0.54150000  0.44970000  0.68080000  1.0 0.0840023273
H  H125  1  0.13930000  0.90820000  0.45850000  1.0 0.0840023273
H  H126  1  0.09180000  0.86070000  0.54150000  1.0 0.0840023273
H  H127  1  0.44970000  0.76890000  0.90820000  1.0 0.0840023273
H  H128  1  0.90820000  0.44970000  0.76890000  1.0 0.0840023273
H  H129  1  0.86070000  0.31920000  0.76890000  1.0 0.0840023273
H  H130  1  0.76890000  0.86070000  0.31920000  1.0 0.0840023273
H  H131  1  0.31920000  0.55030000  0.45850000  1.0 0.0840023273
H  H132  1  0.86070000  0.54150000  0.09180000  1.0 0.0840023273
H  H133  1  0.45850000  0.13930000  0.90820000  1.0 0.0840023273
H  H134  1  0.55030000  0.45850000  0.31920000  1.0 0.0840023273
H  H135  1  0.23110000  0.55030000  0.09180000  1.0 0.0840023273
H  H136  1  0.13930000  0.23110000  0.68080000  1.0 0.0840023273
H  H137  1  0.68080000  0.54150000  0.44970000  1.0 0.0840023273
H  H138  1  0.54150000  0.09180000  0.86070000  1.0 0.0840023273
H  H139  1  0.76890000  0.90820000  0.44970000  1.0 0.0840023273
H  H140  1  0.31920000  0.76890000  0.86070000  1.0 0.0840023273
H  H141  1  0.45850000  0.31920000  0.55030000  1.0 0.0840023273
H  H142  1  0.90820000  0.45850000  0.13930000  1.0 0.0840023273
H  H143  1  0.09180000  0.23110000  0.55030000  1.0 0.0840023273
H  H144  1  0.23110000  0.68080000  0.13930000  1.0 0.0840023273
H  H145  1  0.56770000  0.78730000  0.58260000  1.0 0.100615902
H  H146  1  0.78730000  0.20470000  0.21960000  1.0 0.100615902
H  H147  1  0.43230000  0.01490000  0.21960000  1.0 0.100615902
H  H148  1  0.58260000  0.56770000  0.78730000  1.0 0.100615902
H  H149  1  0.20470000  0.98510000  0.41740000  1.0 0.100615902
H  H150  1  0.01490000  0.79530000  0.58260000  1.0 0.100615902
H  H151  1  0.56770000  0.78040000  0.98510000  1.0 0.100615902
H  H152  1  0.98510000  0.56770000  0.78040000  1.0 0.100615902
H  H153  1  0.79530000  0.21270000  0.78040000  1.0 0.100615902
H  H154  1  0.78040000  0.79530000  0.21270000  1.0 0.100615902
H  H155  1  0.21270000  0.43230000  0.41740000  1.0 0.100615902
H  H156  1  0.79530000  0.58260000  0.01490000  1.0 0.100615902
H  H157  1  0.41740000  0.20470000  0.98510000  1.0 0.100615902
H  H158  1  0.43230000  0.41740000  0.21270000  1.0 0.100615902
H  H159  1  0.21960000  0.43230000  0.01490000  1.0 0.100615902
H  H160  1  0.20470000  0.21960000  0.78730000  1.0 0.100615902
H  H161  1  0.78730000  0.58260000  0.56770000  1.0 0.100615902
H  H162  1  0.58260000  0.01490000  0.79530000  1.0 0.100615902
H  H163  1  0.78040000  0.98510000  0.56770000  1.0 0.100615902
H  H164  1  0.21270000  0.78040000  0.79530000  1.0 0.100615902
H  H165  1  0.41740000  0.21270000  0.43230000  1.0 0.100615902
H  H166  1  0.98510000  0.41740000  0.20470000  1.0 0.100615902
H  H167  1  0.01490000  0.21960000  0.43230000  1.0 0.100615902
H  H168  1  0.21960000  0.78730000  0.20470000  1.0 0.100615902
H  H169  1  0.51820000  0.64920000  0.58960000  1.0 0.3320088104
H  H170  1  0.64920000  0.05960000  0.13100000  1.0 0.3320088104
H  H171  1  0.48180000  0.07140000  0.13100000  1.0 0.3320088104
H  H172  1  0.58960000  0.51820000  0.64920000  1.0 0.3320088104
H  H173  1  0.05960000  0.92860000  0.41040000  1.0 0.3320088104
H  H174  1  0.07140000  0.94040000  0.58960000  1.0 0.3320088104
H  H175  1  0.51820000  0.86900000  0.92860000  1.0 0.3320088104
H  H176  1  0.92860000  0.51820000  0.86900000  1.0 0.3320088104
H  H177  1  0.94040000  0.35080000  0.86900000  1.0 0.3320088104
H  H178  1  0.86900000  0.94040000  0.35080000  1.0 0.3320088104
H  H179  1  0.35080000  0.48180000  0.41040000  1.0 0.3320088104
H  H180  1  0.94040000  0.58960000  0.07140000  1.0 0.3320088104
H  H181  1  0.41040000  0.05960000  0.92860000  1.0 0.3320088104
H  H182  1  0.48180000  0.41040000  0.35080000  1.0 0.3320088104
H  H183  1  0.13100000  0.48180000  0.07140000  1.0 0.3320088104
H  H184  1  0.05960000  0.13100000  0.64920000  1.0 0.3320088104
H  H185  1  0.64920000  0.58960000  0.51820000  1.0 0.3320088104
H  H186  1  0.58960000  0.07140000  0.94040000  1.0 0.3320088104
H  H187  1  0.86900000  0.92860000  0.51820000  1.0 0.3320088104
H  H188  1  0.35080000  0.86900000  0.94040000  1.0 0.3320088104
H  H189  1  0.41040000  0.35080000  0.48180000  1.0 0.3320088104
H  H190  1  0.92860000  0.41040000  0.05960000  1.0 0.3320088104
H  H191  1  0.07140000  0.13100000  0.48180000  1.0 0.3320088104
H  H192  1  0.13100000  0.64920000  0.05960000  1.0 0.3320088104
H  H193  1  0.56850000  0.77580000  0.66470000  1.0 0.1102999696
H  H194  1  0.77580000  0.11110000  0.20730000  1.0 0.1102999696
H  H195  1  0.43150000  0.09620000  0.20730000  1.0 0.1102999696
H  H196  1  0.66470000  0.56850000  0.77580000  1.0 0.1102999696
H  H197  1  0.11110000  0.90380000  0.33530000  1.0 0.1102999696
H  H198  1  0.09620000  0.88890000  0.66470000  1.0 0.1102999696
H  H199  1  0.56850000  0.79270000  0.90380000  1.0 0.1102999696
H  H200  1  0.90380000  0.56850000  0.79270000  1.0 0.1102999696
H  H201  1  0.88890000  0.22420000  0.79270000  1.0 0.1102999696
H  H202  1  0.79270000  0.88890000  0.22420000  1.0 0.1102999696
H  H203  1  0.22420000  0.43150000  0.33530000  1.0 0.1102999696
H  H204  1  0.88890000  0.66470000  0.09620000  1.0 0.1102999696
H  H205  1  0.33530000  0.11110000  0.90380000  1.0 0.1102999696
H  H206  1  0.43150000  0.33530000  0.22420000  1.0 0.1102999696
H  H207  1  0.20730000  0.43150000  0.09620000  1.0 0.1102999696
H  H208  1  0.11110000  0.20730000  0.77580000  1.0 0.1102999696
H  H209  1  0.77580000  0.66470000  0.56850000  1.0 0.1102999696
H  H210  1  0.66470000  0.09620000  0.88890000  1.0 0.1102999696
H  H211  1  0.79270000  0.90380000  0.56850000  1.0 0.1102999696
H  H212  1  0.22420000  0.79270000  0.88890000  1.0 0.1102999696
H  H213  1  0.33530000  0.22420000  0.43150000  1.0 0.1102999696
H  H214  1  0.90380000  0.33530000  0.11110000  1.0 0.1102999696
H  H215  1  0.09620000  0.20730000  0.43150000  1.0 0.1102999696
H  H216  1  0.20730000  0.77580000  0.11110000  1.0 0.1102999696
H  H217  1  0.60630000  0.74600000  0.64510000  1.0 0.100615902
H  H218  1  0.74600000  0.10090000  0.13970000  1.0 0.100615902
H  H219  1  0.39370000  0.03880000  0.13970000  1.0 0.100615902
H  H220  1  0.64510000  0.60630000  0.74600000  1.0 0.100615902
H  H221  1  0.10090000  0.96120000  0.35490000  1.0 0.100615902
H  H222  1  0.03880000  0.89910000  0.64510000  1.0 0.100615902
H  H223  1  0.60630000  0.86030000  0.96120000  1.0 0.100615902
H  H224  1  0.96120000  0.60630000  0.86030000  1.0 0.100615902
H  H225  1  0.89910000  0.25400000  0.86030000  1.0 0.100615902
H  H226  1  0.86030000  0.89910000  0.25400000  1.0 0.100615902
H  H227  1  0.25400000  0.39370000  0.35490000  1.0 0.100615902
H  H228  1  0.89910000  0.64510000  0.03880000  1.0 0.100615902
H  H229  1  0.35490000  0.10090000  0.96120000  1.0 0.100615902
H  H230  1  0.39370000  0.35490000  0.25400000  1.0 0.100615902
H  H231  1  0.13970000  0.39370000  0.03880000  1.0 0.100615902
H  H232  1  0.10090000  0.13970000  0.74600000  1.0 0.100615902
H  H233  1  0.74600000  0.64510000  0.60630000  1.0 0.100615902
H  H234  1  0.64510000  0.03880000  0.89910000  1.0 0.100615902
H  H235  1  0.86030000  0.96120000  0.60630000  1.0 0.100615902
H  H236  1  0.25400000  0.86030000  0.89910000  1.0 0.100615902
H  H237  1  0.35490000  0.25400000  0.39370000  1.0 0.100615902
H  H238  1  0.96120000  0.35490000  0.10090000  1.0 0.100615902
H  H239  1  0.03880000  0.13970000  0.39370000  1.0 0.100615902
H  H240  1  0.13970000  0.74600000  0.10090000  1.0 0.100615902
H  H241  1  0.39740000  0.70150000  0.57270000  1.0 0.0840023273
H  H242  1  0.70150000  0.12880000  0.30410000  1.0 0.0840023273
H  H243  1  0.60260000  0.17530000  0.30410000  1.0 0.0840023273
H  H244  1  0.57270000  0.39740000  0.70150000  1.0 0.0840023273
H  H245  1  0.12880000  0.82470000  0.42730000  1.0 0.0840023273
H  H246  1  0.17530000  0.87120000  0.57270000  1.0 0.0840023273
H  H247  1  0.39740000  0.69590000  0.82470000  1.0 0.0840023273
H  H248  1  0.82470000  0.39740000  0.69590000  1.0 0.0840023273
H  H249  1  0.87120000  0.29850000  0.69590000  1.0 0.0840023273
H  H250  1  0.69590000  0.87120000  0.29850000  1.0 0.0840023273
H  H251  1  0.29850000  0.60260000  0.42730000  1.0 0.0840023273
H  H252  1  0.87120000  0.57270000  0.17530000  1.0 0.0840023273
H  H253  1  0.42730000  0.12880000  0.82470000  1.0 0.0840023273
H  H254  1  0.60260000  0.42730000  0.29850000  1.0 0.0840023273
H  H255  1  0.30410000  0.60260000  0.17530000  1.0 0.0840023273
H  H256  1  0.12880000  0.30410000  0.70150000  1.0 0.0840023273
H  H257  1  0.70150000  0.57270000  0.39740000  1.0 0.0840023273
H  H258  1  0.57270000  0.17530000  0.87120000  1.0 0.0840023273
H  H259  1  0.69590000  0.82470000  0.39740000  1.0 0.0840023273
H  H260  1  0.29850000  0.69590000  0.87120000  1.0 0.0840023273
H  H261  1  0.42730000  0.29850000  0.60260000  1.0 0.0840023273
H  H262  1  0.82470000  0.42730000  0.12880000  1.0 0.0840023273
H  H263  1  0.17530000  0.30410000  0.60260000  1.0 0.0840023273
H  H264  1  0.30410000  0.70150000  0.12880000  1.0 0.0840023273
H  H265  1  0.36510000  0.73330000  0.49880000  1.0 0.3320088104
H  H266  1  0.73330000  0.23450000  0.36820000  1.0 0.3320088104
H  H267  1  0.63490000  0.13370000  0.36820000  1.0 0.3320088104
H  H268  1  0.49880000  0.36510000  0.73330000  1.0 0.3320088104
H  H269  1  0.23450000  0.86630000  0.50120000  1.0 0.3320088104
H  H270  1  0.13370000  0.76550000  0.49880000  1.0 0.3320088104
H  H271  1  0.36510000  0.63180000  0.86630000  1.0 0.3320088104
H  H272  1  0.86630000  0.36510000  0.63180000  1.0 0.3320088104
H  H273  1  0.76550000  0.26670000  0.63180000  1.0 0.3320088104
H  H274  1  0.63180000  0.76550000  0.26670000  1.0 0.3320088104
H  H275  1  0.26670000  0.63490000  0.50120000  1.0 0.3320088104
H  H276  1  0.76550000  0.49880000  0.13370000  1.0 0.3320088104
H  H277  1  0.50120000  0.23450000  0.86630000  1.0 0.3320088104
H  H278  1  0.63490000  0.50120000  0.26670000  1.0 0.3320088104
H  H279  1  0.36820000  0.63490000  0.13370000  1.0 0.3320088104
H  H280  1  0.23450000  0.36820000  0.73330000  1.0 0.3320088104
H  H281  1  0.73330000  0.49880000  0.36510000  1.0 0.3320088104
H  H282  1  0.49880000  0.13370000  0.76550000  1.0 0.3320088104
H  H283  1  0.63180000  0.86630000  0.36510000  1.0 0.3320088104
H  H284  1  0.26670000  0.63180000  0.76550000  1.0 0.3320088104
H  H285  1  0.50120000  0.26670000  0.63490000  1.0 0.3320088104
H  H286  1  0.86630000  0.50120000  0.23450000  1.0 0.3320088104
H  H287  1  0.13370000  0.36820000  0.63490000  1.0 0.3320088104
H  H288  1  0.36820000  0.73330000  0.23450000  1.0 0.3320088104
H  H289  1  0.35000000  0.74640000  0.59540000  1.0 0.100615902
H  H290  1  0.74640000  0.15100000  0.39640000  1.0 0.100615902
H  H291  1  0.65000000  0.24540000  0.39640000  1.0 0.100615902
H  H292  1  0.59540000  0.35000000  0.74640000  1.0 0.100615902
H  H293  1  0.15100000  0.75460000  0.40460000  1.0 0.100615902
H  H294  1  0.24540000  0.84900000  0.59540000  1.0 0.100615902
H  H295  1  0.35000000  0.60360000  0.75460000  1.0 0.100615902
H  H296  1  0.75460000  0.35000000  0.60360000  1.0 0.100615902
H  H297  1  0.84900000  0.25360000  0.60360000  1.0 0.100615902
H  H298  1  0.60360000  0.84900000  0.25360000  1.0 0.100615902
H  H299  1  0.25360000  0.65000000  0.40460000  1.0 0.100615902
H  H300  1  0.84900000  0.59540000  0.24540000  1.0 0.100615902
H  H301  1  0.40460000  0.15100000  0.75460000  1.0 0.100615902
H  H302  1  0.65000000  0.40460000  0.25360000  1.0 0.100615902
H  H303  1  0.39640000  0.65000000  0.24540000  1.0 0.100615902
H  H304  1  0.15100000  0.39640000  0.74640000  1.0 0.100615902
H  H305  1  0.74640000  0.59540000  0.35000000  1.0 0.100615902
H  H306  1  0.59540000  0.24540000  0.84900000  1.0 0.100615902
H  H307  1  0.60360000  0.75460000  0.35000000  1.0 0.100615902
H  H308  1  0.25360000  0.60360000  0.84900000  1.0 0.100615902
H  H309  1  0.40460000  0.25360000  0.65000000  1.0 0.100615902
H  H310  1  0.75460000  0.40460000  0.15100000  1.0 0.100615902
H  H311  1  0.24540000  0.39640000  0.65000000  1.0 0.100615902
H  H312  1  0.39640000  0.74640000  0.15100000  1.0 0.100615902
H  H313  1  0.38130000  0.89110000  0.65820000  1.0 0.2255278878
H  H314  1  0.89110000  0.23290000  0.50980000  1.0 0.2255278878
H  H315  1  0.61870000  0.27690000  0.50980000  1.0 0.2255278878
H  H316  1  0.65820000  0.38130000  0.89110000  1.0 0.2255278878
H  H317  1  0.23290000  0.72310000  0.34180000  1.0 0.2255278878
H  H318  1  0.27690000  0.76710000  0.65820000  1.0 0.2255278878
H  H319  1  0.38130000  0.49020000  0.72310000  1.0 0.2255278878
H  H320  1  0.72310000  0.38130000  0.49020000  1.0 0.2255278878
H  H321  1  0.76710000  0.10890000  0.49020000  1.0 0.2255278878
H  H322  1  0.49020000  0.76710000  0.10890000  1.0 0.2255278878
H  H323  1  0.10890000  0.61870000  0.34180000  1.0 0.2255278878
H  H324  1  0.76710000  0.65820000  0.27690000  1.0 0.2255278878
H  H325  1  0.34180000  0.23290000  0.72310000  1.0 0.2249040954
H  H326  1  0.61870000  0.34180000  0.10890000  1.0 0.2255278878
H  H327  1  0.50980000  0.61870000  0.27690000  1.0 0.2255278878
H  H328  1  0.23290000  0.50980000  0.89110000  1.0 0.2255278878
H  H329  1  0.89110000  0.65820000  0.38130000  1.0 0.2255278878
H  H330  1  0.65820000  0.27690000  0.76710000  1.0 0.2249040954
H  H331  1  0.49020000  0.72310000  0.38130000  1.0 0.2255278878
H  H332  1  0.10890000  0.49020000  0.76710000  1.0 0.2249040954
H  H333  1  0.34180000  0.10890000  0.61870000  1.0 0.2249040954
H  H334  1  0.72310000  0.34180000  0.23290000  1.0 0.2255278878
H  H335  1  0.27690000  0.50980000  0.61870000  1.0 0.2255278878
H  H336  1  0.50980000  0.89110000  0.23290000  1.0 0.2255278878
H  H337  1  0.44160000  0.85830000  0.61650000  1.0 0.0894110796
H  H338  1  0.85830000  0.24180000  0.41670000  1.0 0.0894110796
H  H339  1  0.55840000  0.17490000  0.41670000  1.0 0.0894110796
H  H340  1  0.61650000  0.44160000  0.85830000  1.0 0.0894110796
H  H341  1  0.24180000  0.82510000  0.38350000  1.0 0.0894110796
H  H342  1  0.17490000  0.75820000  0.61650000  1.0 0.0894110796
H  H343  1  0.44160000  0.58330000  0.82510000  1.0 0.0894110796
H  H344  1  0.82510000  0.44160000  0.58330000  1.0 0.0894110796
H  H345  1  0.75820000  0.14170000  0.58330000  1.0 0.0894110796
H  H346  1  0.58330000  0.75820000  0.14170000  1.0 0.0894110796
H  H347  1  0.14170000  0.55840000  0.38350000  1.0 0.0894110796
H  H348  1  0.75820000  0.61650000  0.17490000  1.0 0.0894110796
H  H349  1  0.38350000  0.24180000  0.82510000  1.0 0.0894110796
H  H350  1  0.55840000  0.38350000  0.14170000  1.0 0.0894110796
H  H351  1  0.41670000  0.55840000  0.17490000  1.0 0.0894110796
H  H352  1  0.24180000  0.41670000  0.85830000  1.0 0.0894110796
H  H353  1  0.85830000  0.61650000  0.44160000  1.0 0.0894110796
H  H354  1  0.61650000  0.17490000  0.75820000  1.0 0.0894110796
H  H355  1  0.58330000  0.82510000  0.44160000  1.0 0.0894110796
H  H356  1  0.14170000  0.58330000  0.75820000  1.0 0.0894110796
H  H357  1  0.38350000  0.14170000  0.55840000  1.0 0.0894110796
H  H358  1  0.82510000  0.38350000  0.24180000  1.0 0.0894110796
H  H359  1  0.17490000  0.41670000  0.55840000  1.0 0.0894110796
H  H360  1  0.41670000  0.85830000  0.24180000  1.0 0.0894110796
H  H361  1  0.41600000  0.83190000  0.70330000  1.0 0.0840023273
H  H362  1  0.83190000  0.12860000  0.41590000  1.0 0.0840023273
H  H363  1  0.58400000  0.28730000  0.41590000  1.0 0.0840023273
H  H364  1  0.70330000  0.41600000  0.83190000  1.0 0.0894110796
H  H365  1  0.12860000  0.71270000  0.29670000  1.0 0.0840023273
H  H366  1  0.28730000  0.87140000  0.70330000  1.0 0.0840023273
H  H367  1  0.41600000  0.58410000  0.71270000  1.0 0.0840023273
H  H368  1  0.71270000  0.41600000  0.58410000  1.0 0.0840023273
H  H369  1  0.87140000  0.16810000  0.58410000  1.0 0.0840023273
H  H370  1  0.58410000  0.87140000  0.16810000  1.0 0.0840023273
H  H371  1  0.16810000  0.58400000  0.29670000  1.0 0.0840023273
H  H372  1  0.87140000  0.70330000  0.28730000  1.0 0.0840023273
H  H373  1  0.29670000  0.12860000  0.71270000  1.0 0.0840023273
H  H374  1  0.58400000  0.29670000  0.16810000  1.0 0.0894110796
H  H375  1  0.41590000  0.58400000  0.28730000  1.0 0.0840023273
H  H376  1  0.12860000  0.41590000  0.83190000  1.0 0.0894110796
H  H377  1  0.83190000  0.70330000  0.41600000  1.0 0.0894110796
H  H378  1  0.70330000  0.28730000  0.87140000  1.0 0.0840023273
H  H379  1  0.58410000  0.71270000  0.41600000  1.0 0.0840023273
H  H380  1  0.16810000  0.58410000  0.87140000  1.0 0.0840023273
H  H381  1  0.29670000  0.16810000  0.58400000  1.0 0.0840023273
H  H382  1  0.71270000  0.29670000  0.12860000  1.0 0.0840023273
H  H383  1  0.28730000  0.41590000  0.58400000  1.0 0.0840023273
H  H384  1  0.41590000  0.83190000  0.12860000  1.0 0.0840023273
H  H385  1  0.52240000  0.84760000  0.69700000  1.0 0.0894110796
H  H386  1  0.84760000  0.15060000  0.32520000  1.0 0.0894110796
H  H387  1  0.47760000  0.17460000  0.32520000  1.0 0.0894110796
H  H388  1  0.69700000  0.52240000  0.84760000  1.0 0.0894110796
H  H389  1  0.15060000  0.82540000  0.30300000  1.0 0.0894110796
H  H390  1  0.17460000  0.84940000  0.69700000  1.0 0.0894110796
H  H391  1  0.52240000  0.67480000  0.82540000  1.0 0.0894110796
H  H392  1  0.82540000  0.52240000  0.67480000  1.0 0.0894110796
H  H393  1  0.84940000  0.15240000  0.67480000  1.0 0.0894110796
H  H394  1  0.67480000  0.84940000  0.15240000  1.0 0.0894110796
H  H395  1  0.15240000  0.47760000  0.30300000  1.0 0.0894110796
H  H396  1  0.84940000  0.69700000  0.17460000  1.0 0.0894110796
H  H397  1  0.30300000  0.15060000  0.82540000  1.0 0.0894110796
H  H398  1  0.47760000  0.30300000  0.15240000  1.0 0.0894110796
H  H399  1  0.32520000  0.47760000  0.17460000  1.0 0.0894110796
H  H400  1  0.15060000  0.32520000  0.84760000  1.0 0.0894110796
H  H401  1  0.84760000  0.69700000  0.52240000  1.0 0.0894110796
H  H402  1  0.69700000  0.17460000  0.84940000  1.0 0.0894110796
H  H403  1  0.67480000  0.82540000  0.52240000  1.0 0.0894110796
H  H404  1  0.15240000  0.67480000  0.84940000  1.0 0.0894110796
H  H405  1  0.30300000  0.15240000  0.47760000  1.0 0.0894110796
H  H406  1  0.82540000  0.30300000  0.15060000  1.0 0.0894110796
H  H407  1  0.17460000  0.32520000  0.47760000  1.0 0.0894110796
H  H408  1  0.32520000  0.84760000  0.15060000  1.0 0.0894110796
H  H409  1  0.49580000  0.82250000  0.82130000  1.0 0.3194704468
H  H410  1  0.82250000  0.00120000  0.32670000  1.0 0.3194704468
H  H411  1  0.50420000  0.32550000  0.32670000  1.0 0.3194704468
H  H412  1  0.82130000  0.49580000  0.82250000  1.0 0.3194704468
H  H413  1  0.00120000  0.67450000  0.17870000  1.0 0.3194704468
H  H414  1  0.32550000  0.99880000  0.82130000  1.0 0.3194704468
H  H415  1  0.49580000  0.67330000  0.67450000  1.0 0.3194704468
H  H416  1  0.67450000  0.49580000  0.67330000  1.0 0.3194704468
H  H417  1  0.99880000  0.17750000  0.67330000  1.0 0.3194704468
H  H418  1  0.67330000  0.99880000  0.17750000  1.0 0.3194704468
H  H419  1  0.17750000  0.50420000  0.17870000  1.0 0.3194704468
H  H420  1  0.99880000  0.82130000  0.32550000  1.0 0.3194704468
H  H421  1  0.17870000  0.00120000  0.67450000  1.0 0.3194704468
H  H422  1  0.50420000  0.17870000  0.17750000  1.0 0.3194704468
H  H423  1  0.32670000  0.50420000  0.32550000  1.0 0.3194704468
H  H424  1  0.00120000  0.32670000  0.82250000  1.0 0.3194704468
H  H425  1  0.82250000  0.82130000  0.49580000  1.0 0.3194704468
H  H426  1  0.82130000  0.32550000  0.99880000  1.0 0.3194704468
H  H427  1  0.67330000  0.67450000  0.49580000  1.0 0.3194704468
H  H428  1  0.17750000  0.67330000  0.99880000  1.0 0.3194704468
H  H429  1  0.17870000  0.17750000  0.50420000  1.0 0.3194704468
H  H430  1  0.67450000  0.17870000  0.00120000  1.0 0.3194704468
H  H431  1  0.32550000  0.32670000  0.50420000  1.0 0.3194704468
H  H432  1  0.32670000  0.82250000  0.00120000  1.0 0.3194704468
H  H433  1  0.53870000  0.81410000  0.76440000  1.0 0.100615902
H  H434  1  0.81410000  0.04970000  0.27540000  1.0 0.100615902
H  H435  1  0.46130000  0.22570000  0.27540000  1.0 0.100615902
H  H436  1  0.76440000  0.53870000  0.81410000  1.0 0.100615902
H  H437  1  0.04970000  0.77430000  0.23560000  1.0 0.100615902
H  H438  1  0.22570000  0.95030000  0.76440000  1.0 0.100615902
H  H439  1  0.53870000  0.72460000  0.77430000  1.0 0.100615902
H  H440  1  0.77430000  0.53870000  0.72460000  1.0 0.100615902
H  H441  1  0.95030000  0.18590000  0.72460000  1.0 0.100615902
H  H442  1  0.72460000  0.95030000  0.18590000  1.0 0.100615902
H  H443  1  0.18590000  0.46130000  0.23560000  1.0 0.100615902
H  H444  1  0.95030000  0.76440000  0.22570000  1.0 0.100615902
H  H445  1  0.23560000  0.04970000  0.77430000  1.0 0.100615902
H  H446  1  0.46130000  0.23560000  0.18590000  1.0 0.100615902
H  H447  1  0.27540000  0.46130000  0.22570000  1.0 0.100615902
H  H448  1  0.04970000  0.27540000  0.81410000  1.0 0.100615902
H  H449  1  0.81410000  0.76440000  0.53870000  1.0 0.100615902
H  H450  1  0.76440000  0.22570000  0.95030000  1.0 0.100615902
H  H451  1  0.72460000  0.77430000  0.53870000  1.0 0.100615902
H  H452  1  0.18590000  0.72460000  0.95030000  1.0 0.100615902
H  H453  1  0.23560000  0.18590000  0.46130000  1.0 0.100615902
H  H454  1  0.77430000  0.23560000  0.04970000  1.0 0.100615902
H  H455  1  0.22570000  0.27540000  0.46130000  1.0 0.100615902
H  H456  1  0.27540000  0.81410000  0.04970000  1.0 0.100615902
H  H457  1  0.54000000  0.87740000  0.79260000  1.0 0.0894110796
H  H458  1  0.87740000  0.08480000  0.33740000  1.0 0.0894110796
H  H459  1  0.46000000  0.25260000  0.33740000  1.0 0.0894110796
H  H460  1  0.79260000  0.54000000  0.87740000  1.0 0.0894110796
H  H461  1  0.08480000  0.74740000  0.20740000  1.0 0.0894110796
H  H462  1  0.25260000  0.91520000  0.79260000  1.0 0.0894110796
H  H463  1  0.54000000  0.66260000  0.74740000  1.0 0.0894110796
H  H464  1  0.74740000  0.54000000  0.66260000  1.0 0.0894110796
H  H465  1  0.91520000  0.12260000  0.66260000  1.0 0.0894110796
H  H466  1  0.66260000  0.91520000  0.12260000  1.0 0.0894110796
H  H467  1  0.12260000  0.46000000  0.20740000  1.0 0.0894110796
H  H468  1  0.91520000  0.79260000  0.25260000  1.0 0.0894110796
H  H469  1  0.20740000  0.08480000  0.74740000  1.0 0.0894110796
H  H470  1  0.46000000  0.20740000  0.12260000  1.0 0.0894110796
H  H471  1  0.33740000  0.46000000  0.25260000  1.0 0.0894110796
H  H472  1  0.08480000  0.33740000  0.87740000  1.0 0.0894110796
H  H473  1  0.87740000  0.79260000  0.54000000  1.0 0.0894110796
H  H474  1  0.79260000  0.25260000  0.91520000  1.0 0.0894110796
H  H475  1  0.66260000  0.74740000  0.54000000  1.0 0.0894110796
H  H476  1  0.12260000  0.66260000  0.91520000  1.0 0.0894110796
H  H477  1  0.20740000  0.12260000  0.46000000  1.0 0.0894110796
H  H478  1  0.74740000  0.20740000  0.08480000  1.0 0.0894110796
H  H479  1  0.25260000  0.33740000  0.46000000  1.0 0.0894110796
H  H480  1  0.33740000  0.87740000  0.08480000  1.0 0.0894110796
C  C1  1  0.52810000  0.69420000  0.47250000  1.0 0.2020925038
C  C2  1  0.69420000  0.22170000  0.16610000  1.0 0.2020925038
C  C3  1  0.47190000  0.94440000  0.16610000  1.0 0.2020925038
C  C4  1  0.47250000  0.52810000  0.69420000  1.0 0.2020925038
C  C5  1  0.22170000  0.05560000  0.52750000  1.0 0.2020925038
C  C6  1  0.94440000  0.77830000  0.47250000  1.0 0.2020925038
C  C7  1  0.52810000  0.83390000  0.05560000  1.0 0.2020925038
C  C8  1  0.05560000  0.52810000  0.83390000  1.0 0.2020925038
C  C9  1  0.77830000  0.30580000  0.83390000  1.0 0.2020925038
C  C10  1  0.83390000  0.77830000  0.30580000  1.0 0.2020925038
C  C11  1  0.30580000  0.47190000  0.52750000  1.0 0.2020925038
C  C12  1  0.77830000  0.47250000  0.94440000  1.0 0.2020925038
C  C13  1  0.52750000  0.22170000  0.05560000  1.0 0.2020925038
C  C14  1  0.47190000  0.52750000  0.30580000  1.0 0.2020925038
C  C15  1  0.16610000  0.47190000  0.94440000  1.0 0.2020925038
C  C16  1  0.22170000  0.16610000  0.69420000  1.0 0.2020925038
C  C17  1  0.69420000  0.47250000  0.52810000  1.0 0.2020925038
C  C18  1  0.47250000  0.94440000  0.77830000  1.0 0.2020925038
C  C19  1  0.83390000  0.05560000  0.52810000  1.0 0.2020925038
C  C20  1  0.30580000  0.83390000  0.77830000  1.0 0.2020925038
C  C21  1  0.52750000  0.30580000  0.47190000  1.0 0.2020925038
C  C22  1  0.05560000  0.52750000  0.22170000  1.0 0.2020925038
C  C23  1  0.94440000  0.16610000  0.47190000  1.0 0.2020925038
C  C24  1  0.16610000  0.69420000  0.22170000  1.0 0.2020925038
C  C25  1  0.45150000  0.67480000  0.43270000  1.0 -0.0224571424
C  C26  1  0.67480000  0.24210000  0.22330000  1.0 -0.0224571424
C  C27  1  0.54850000  0.98120000  0.22330000  1.0 -0.0224571424
C  C28  1  0.43270000  0.45150000  0.67480000  1.0 -0.0224571424
C  C29  1  0.24210000  0.01880000  0.56730000  1.0 -0.0224571424
C  C30  1  0.98120000  0.75790000  0.43270000  1.0 -0.0224571424
C  C31  1  0.45150000  0.77670000  0.01880000  1.0 -0.0224571424
C  C32  1  0.01880000  0.45150000  0.77670000  1.0 -0.0224571424
C  C33  1  0.75790000  0.32520000  0.77670000  1.0 -0.0224571424
C  C34  1  0.77670000  0.75790000  0.32520000  1.0 -0.0224571424
C  C35  1  0.32520000  0.54850000  0.56730000  1.0 -0.0224571424
C  C36  1  0.75790000  0.43270000  0.98120000  1.0 -0.0224571424
C  C37  1  0.56730000  0.24210000  0.01880000  1.0 -0.0224571424
C  C38  1  0.54850000  0.56730000  0.32520000  1.0 -0.0224571424
C  C39  1  0.22330000  0.54850000  0.98120000  1.0 -0.0224571424
C  C40  1  0.24210000  0.22330000  0.67480000  1.0 -0.0224571424
C  C41  1  0.67480000  0.43270000  0.45150000  1.0 -0.0224571424
C  C42  1  0.43270000  0.98120000  0.75790000  1.0 -0.0224571424
C  C43  1  0.77670000  0.01880000  0.45150000  1.0 -0.0224571424
C  C44  1  0.32520000  0.77670000  0.75790000  1.0 -0.0224571424
C  C45  1  0.56730000  0.32520000  0.54850000  1.0 -0.0224571424
C  C46  1  0.01880000  0.56730000  0.24210000  1.0 -0.0224571424
C  C47  1  0.98120000  0.22330000  0.54850000  1.0 -0.0224571424
C  C48  1  0.22330000  0.67480000  0.24210000  1.0 -0.0224571424
C  C49  1  0.44150000  0.71270000  0.47280000  1.0 0.0331124786
C  C50  1  0.71270000  0.23990000  0.27120000  1.0 0.0331124786
C  C51  1  0.55850000  0.03130000  0.27120000  1.0 0.0331124786
C  C52  1  0.47280000  0.44150000  0.71270000  1.0 0.0331124786
C  C53  1  0.23990000  0.96870000  0.52720000  1.0 0.0331124786
C  C54  1  0.03130000  0.76010000  0.47280000  1.0 0.0331124786
C  C55  1  0.44150000  0.72880000  0.96870000  1.0 0.0331124786
C  C56  1  0.96870000  0.44150000  0.72880000  1.0 0.0331124786
C  C57  1  0.76010000  0.28730000  0.72880000  1.0 0.0331124786
C  C58  1  0.72880000  0.76010000  0.28730000  1.0 0.0331124786
C  C59  1  0.28730000  0.55850000  0.52720000  1.0 0.0331124786
C  C60  1  0.76010000  0.47280000  0.03130000  1.0 0.0331124786
C  C61  1  0.52720000  0.23990000  0.96870000  1.0 0.0331124786
C  C62  1  0.55850000  0.52720000  0.28730000  1.0 0.0331124786
C  C63  1  0.27120000  0.55850000  0.03130000  1.0 0.0331124786
C  C64  1  0.23990000  0.27120000  0.71270000  1.0 0.0331124786
C  C65  1  0.71270000  0.47280000  0.44150000  1.0 0.0331124786
C  C66  1  0.47280000  0.03130000  0.76010000  1.0 0.0331124786
C  C67  1  0.72880000  0.96870000  0.44150000  1.0 0.0331124786
C  C68  1  0.28730000  0.72880000  0.76010000  1.0 0.0331124786
C  C69  1  0.52720000  0.28730000  0.55850000  1.0 0.0331124786
C  C70  1  0.96870000  0.52720000  0.23990000  1.0 0.0331124786
C  C71  1  0.03130000  0.27120000  0.55850000  1.0 0.0331124786
C  C72  1  0.27120000  0.71270000  0.23990000  1.0 0.0331124786
C  C73  1  0.47180000  0.72000000  0.54300000  1.0 0.0331124786
C  C74  1  0.72000000  0.17700000  0.24820000  1.0 0.0331124786
C  C75  1  0.52820000  0.07120000  0.24820000  1.0 0.0331124786
C  C76  1  0.54300000  0.47180000  0.72000000  1.0 0.0331124786
C  C77  1  0.17700000  0.92880000  0.45700000  1.0 0.0331124786
C  C78  1  0.07120000  0.82300000  0.54300000  1.0 0.0331124786
C  C79  1  0.47180000  0.75180000  0.92880000  1.0 0.0331124786
C  C80  1  0.92880000  0.47180000  0.75180000  1.0 0.0331124786
C  C81  1  0.82300000  0.28000000  0.75180000  1.0 0.0331124786
C  C82  1  0.75180000  0.82300000  0.28000000  1.0 0.0331124786
C  C83  1  0.28000000  0.52820000  0.45700000  1.0 0.0331124786
C  C84  1  0.82300000  0.54300000  0.07120000  1.0 0.0331124786
C  C85  1  0.45700000  0.17700000  0.92880000  1.0 0.0331124786
C  C86  1  0.52820000  0.45700000  0.28000000  1.0 0.0331124786
C  C87  1  0.24820000  0.52820000  0.07120000  1.0 0.0331124786
C  C88  1  0.17700000  0.24820000  0.72000000  1.0 0.0331124786
C  C89  1  0.72000000  0.54300000  0.47180000  1.0 0.0331124786
C  C90  1  0.54300000  0.07120000  0.82300000  1.0 0.0331124786
C  C91  1  0.75180000  0.92880000  0.47180000  1.0 0.0331124786
C  C92  1  0.28000000  0.75180000  0.82300000  1.0 0.0331124786
C  C93  1  0.45700000  0.28000000  0.52820000  1.0 0.0331124786
C  C94  1  0.92880000  0.45700000  0.17700000  1.0 0.0331124786
C  C95  1  0.07120000  0.24820000  0.52820000  1.0 0.0331124786
C  C96  1  0.24820000  0.72000000  0.17700000  1.0 0.0331124786
C  C97  1  0.54420000  0.74520000  0.57500000  1.0 0.0394459608
C  C98  1  0.74520000  0.17020000  0.20100000  1.0 0.0394459608
C  C99  1  0.45580000  0.03080000  0.20100000  1.0 0.0394459608
C  C100  1  0.57500000  0.54420000  0.74520000  1.0 0.0394459608
C  C101  1  0.17020000  0.96920000  0.42500000  1.0 0.0394459608
C  C102  1  0.03080000  0.82980000  0.57500000  1.0 0.0394459608
C  C103  1  0.54420000  0.79900000  0.96920000  1.0 0.0394459608
C  C104  1  0.96920000  0.54420000  0.79900000  1.0 0.0394459608
C  C105  1  0.82980000  0.25480000  0.79900000  1.0 0.0394459608
C  C106  1  0.79900000  0.82980000  0.25480000  1.0 0.0394459608
C  C107  1  0.25480000  0.45580000  0.42500000  1.0 0.0394459608
C  C108  1  0.82980000  0.57500000  0.03080000  1.0 0.0394459608
C  C109  1  0.42500000  0.17020000  0.96920000  1.0 0.0394459608
C  C110  1  0.45580000  0.42500000  0.25480000  1.0 0.0394459608
C  C111  1  0.20100000  0.45580000  0.03080000  1.0 0.0394459608
C  C112  1  0.17020000  0.20100000  0.74520000  1.0 0.0394459608
C  C113  1  0.74520000  0.57500000  0.54420000  1.0 0.0394459608
C  C114  1  0.57500000  0.03080000  0.82980000  1.0 0.0394459608
C  C115  1  0.79900000  0.96920000  0.54420000  1.0 0.0394459608
C  C116  1  0.25480000  0.79900000  0.82980000  1.0 0.0394459608
C  C117  1  0.42500000  0.25480000  0.45580000  1.0 0.0394459608
C  C118  1  0.96920000  0.42500000  0.17020000  1.0 0.0394459608
C  C119  1  0.03080000  0.20100000  0.45580000  1.0 0.0394459608
C  C120  1  0.20100000  0.74520000  0.17020000  1.0 0.0394459608
C  C121  1  0.56530000  0.74170000  0.63200000  1.0 -0.0568207483
C  C122  1  0.74170000  0.10970000  0.17640000  1.0 -0.0568207483
C  C123  1  0.43470000  0.06670000  0.17640000  1.0 -0.0568207483
C  C124  1  0.63200000  0.56530000  0.74170000  1.0 -0.0568207483
C  C125  1  0.10970000  0.93330000  0.36800000  1.0 -0.0568207483
C  C126  1  0.06670000  0.89030000  0.63200000  1.0 -0.0568207483
C  C127  1  0.56530000  0.82360000  0.93330000  1.0 -0.0568207483
C  C128  1  0.93330000  0.56530000  0.82360000  1.0 -0.0568207483
C  C129  1  0.89030000  0.25830000  0.82360000  1.0 -0.0568207483
C  C130  1  0.82360000  0.89030000  0.25830000  1.0 -0.0568207483
C  C131  1  0.25830000  0.43470000  0.36800000  1.0 -0.0568207483
C  C132  1  0.89030000  0.63200000  0.06670000  1.0 -0.0568207483
C  C133  1  0.36800000  0.10970000  0.93330000  1.0 -0.0568207483
C  C134  1  0.43470000  0.36800000  0.25830000  1.0 -0.0568207483
C  C135  1  0.17640000  0.43470000  0.06670000  1.0 -0.0568207483
C  C136  1  0.10970000  0.17640000  0.74170000  1.0 -0.0568207483
C  C137  1  0.74170000  0.63200000  0.56530000  1.0 -0.0568207483
C  C138  1  0.63200000  0.06670000  0.89030000  1.0 -0.0568207483
C  C139  1  0.82360000  0.93330000  0.56530000  1.0 -0.0568207483
C  C140  1  0.25830000  0.82360000  0.89030000  1.0 -0.0568207483
C  C141  1  0.36800000  0.25830000  0.43470000  1.0 -0.0568207483
C  C142  1  0.93330000  0.36800000  0.10970000  1.0 -0.0568207483
C  C143  1  0.06670000  0.17640000  0.43470000  1.0 -0.0568207483
C  C144  1  0.17640000  0.74170000  0.10970000  1.0 -0.0568207483
C  C145  1  0.42110000  0.74700000  0.59770000  1.0 0.1102999696
C  C146  1  0.74700000  0.14930000  0.32590000  1.0 0.1102999696
C  C147  1  0.57890000  0.17660000  0.32590000  1.0 0.1102999696
C  C148  1  0.59770000  0.42110000  0.74700000  1.0 0.1102999696
C  C149  1  0.14930000  0.82340000  0.40230000  1.0 0.1102999696
C  C150  1  0.17660000  0.85070000  0.59770000  1.0 0.1102999696
C  C151  1  0.42110000  0.67410000  0.82340000  1.0 0.1102999696
C  C152  1  0.82340000  0.42110000  0.67410000  1.0 0.1102999696
C  C153  1  0.85070000  0.25300000  0.67410000  1.0 0.1102999696
C  C154  1  0.67410000  0.85070000  0.25300000  1.0 0.1102999696
C  C155  1  0.25300000  0.57890000  0.40230000  1.0 0.1102999696
C  C156  1  0.85070000  0.59770000  0.17660000  1.0 0.1102999696
C  C157  1  0.40230000  0.14930000  0.82340000  1.0 0.1102999696
C  C158  1  0.57890000  0.40230000  0.25300000  1.0 0.1102999696
C  C159  1  0.32590000  0.57890000  0.17660000  1.0 0.1102999696
C  C160  1  0.14930000  0.32590000  0.74700000  1.0 0.1102999696
C  C161  1  0.74700000  0.59770000  0.42110000  1.0 0.1102999696
C  C162  1  0.59770000  0.17660000  0.85070000  1.0 0.1102999696
C  C163  1  0.67410000  0.82340000  0.42110000  1.0 0.1102999696
C  C164  1  0.25300000  0.67410000  0.85070000  1.0 0.1102999696
C  C165  1  0.40230000  0.25300000  0.57890000  1.0 0.1102999696
C  C166  1  0.82340000  0.40230000  0.14930000  1.0 0.1102999696
C  C167  1  0.17660000  0.32590000  0.57890000  1.0 0.1102999696
C  C168  1  0.32590000  0.74700000  0.14930000  1.0 0.1102999696
C  C169  1  0.38190000  0.76670000  0.58660000  1.0 -0.0017695189
C  C170  1  0.76670000  0.18010000  0.38480000  1.0 -0.0017695189
C  C171  1  0.61810000  0.20470000  0.38480000  1.0 -0.0017695189
C  C172  1  0.58660000  0.38190000  0.76670000  1.0 -0.0017695189
C  C173  1  0.18010000  0.79530000  0.41340000  1.0 -0.0017695189
C  C174  1  0.20470000  0.81990000  0.58660000  1.0 -0.0017695189
C  C175  1  0.38190000  0.61520000  0.79530000  1.0 -0.0017695189
C  C176  1  0.79530000  0.38190000  0.61520000  1.0 -0.0017695189
C  C177  1  0.81990000  0.23330000  0.61520000  1.0 -0.0017695189
C  C178  1  0.61520000  0.81990000  0.23330000  1.0 -0.0017695189
C  C179  1  0.23330000  0.61810000  0.41340000  1.0 -0.0017695189
C  C180  1  0.81990000  0.58660000  0.20470000  1.0 -0.0017695189
C  C181  1  0.41340000  0.18010000  0.79530000  1.0 -0.0017695189
C  C182  1  0.61810000  0.41340000  0.23330000  1.0 -0.0017695189
C  C183  1  0.38480000  0.61810000  0.20470000  1.0 -0.0017695189
C  C184  1  0.18010000  0.38480000  0.76670000  1.0 -0.0017695189
C  C185  1  0.76670000  0.58660000  0.38190000  1.0 -0.0017695189
C  C186  1  0.58660000  0.20470000  0.81990000  1.0 -0.0017695189
C  C187  1  0.61520000  0.79530000  0.38190000  1.0 -0.0017695189
C  C188  1  0.23330000  0.61520000  0.81990000  1.0 -0.0017695189
C  C189  1  0.41340000  0.23330000  0.61810000  1.0 -0.0017695189
C  C190  1  0.79530000  0.41340000  0.18010000  1.0 -0.0017695189
C  C191  1  0.20470000  0.38480000  0.61810000  1.0 -0.0017695189
C  C192  1  0.38480000  0.76670000  0.18010000  1.0 -0.0017695189
C  C193  1  0.41150000  0.83750000  0.62700000  1.0 0.128498806
C  C194  1  0.83750000  0.21050000  0.42600000  1.0 0.128498806
C  C195  1  0.58850000  0.21550000  0.42600000  1.0 0.128498806
C  C196  1  0.62700000  0.41150000  0.83750000  1.0 0.128498806
C  C197  1  0.21050000  0.78450000  0.37300000  1.0 0.128498806
C  C198  1  0.21550000  0.78950000  0.62700000  1.0 0.128498806
C  C199  1  0.41150000  0.57400000  0.78450000  1.0 0.128498806
C  C200  1  0.78450000  0.41150000  0.57400000  1.0 0.128498806
C  C201  1  0.78950000  0.16250000  0.57400000  1.0 0.128498806
C  C202  1  0.57400000  0.78950000  0.16250000  1.0 0.128498806
C  C203  1  0.16250000  0.58850000  0.37300000  1.0 0.128498806
C  C204  1  0.78950000  0.62700000  0.21550000  1.0 0.128498806
C  C205  1  0.37300000  0.21050000  0.78450000  1.0 0.128498806
C  C206  1  0.58850000  0.37300000  0.16250000  1.0 0.128498806
C  C207  1  0.42600000  0.58850000  0.21550000  1.0 0.128498806
C  C208  1  0.21050000  0.42600000  0.83750000  1.0 0.128498806
C  C209  1  0.83750000  0.62700000  0.41150000  1.0 0.128498806
C  C210  1  0.62700000  0.21550000  0.78950000  1.0 0.128498806
C  C211  1  0.57400000  0.78450000  0.41150000  1.0 0.128498806
C  C212  1  0.16250000  0.57400000  0.78950000  1.0 0.128498806
C  C213  1  0.37300000  0.16250000  0.58850000  1.0 0.128498806
C  C214  1  0.78450000  0.37300000  0.21050000  1.0 0.128498806
C  C215  1  0.21550000  0.42600000  0.58850000  1.0 0.128498806
C  C216  1  0.42600000  0.83750000  0.21050000  1.0 0.128498806
C  C217  1  0.44650000  0.84920000  0.69150000  1.0 -0.034166615
C  C218  1  0.84920000  0.15770000  0.40270000  1.0 -0.034166615
C  C219  1  0.55350000  0.24500000  0.40270000  1.0 -0.034166615
C  C220  1  0.69150000  0.44650000  0.84920000  1.0 -0.034166615
C  C221  1  0.15770000  0.75500000  0.30850000  1.0 -0.034166615
C  C222  1  0.24500000  0.84230000  0.69150000  1.0 -0.034166615
C  C223  1  0.44650000  0.59730000  0.75500000  1.0 -0.0351377487
C  C224  1  0.75500000  0.44650000  0.59730000  1.0 -0.0351377487
C  C225  1  0.84230000  0.15080000  0.59730000  1.0 -0.034166615
C  C226  1  0.59730000  0.84230000  0.15080000  1.0 -0.0351377487
C  C227  1  0.15080000  0.55350000  0.30850000  1.0 -0.0351377487
C  C228  1  0.84230000  0.69150000  0.24500000  1.0 -0.034166615
C  C229  1  0.30850000  0.15770000  0.75500000  1.0 -0.034166615
C  C230  1  0.55350000  0.30850000  0.15080000  1.0 -0.034166615
C  C231  1  0.40270000  0.55350000  0.24500000  1.0 -0.034166615
C  C232  1  0.15770000  0.40270000  0.84920000  1.0 -0.034166615
C  C233  1  0.84920000  0.69150000  0.44650000  1.0 -0.0351377487
C  C234  1  0.69150000  0.24500000  0.84230000  1.0 -0.034166615
C  C235  1  0.59730000  0.75500000  0.44650000  1.0 -0.034166615
C  C236  1  0.15080000  0.59730000  0.84230000  1.0 -0.034166615
C  C237  1  0.30850000  0.15080000  0.55350000  1.0 -0.034166615
C  C238  1  0.75500000  0.30850000  0.15770000  1.0 -0.0351377487
C  C239  1  0.24500000  0.40270000  0.55350000  1.0 -0.034166615
C  C240  1  0.40270000  0.84920000  0.15770000  1.0 -0.034166615
C  C241  1  0.48860000  0.82730000  0.70390000  1.0 0.0477888189
C  C242  1  0.82730000  0.12340000  0.33870000  1.0 0.0477888189
C  C243  1  0.51140000  0.21530000  0.33870000  1.0 0.0477888189
C  C244  1  0.70390000  0.48860000  0.82730000  1.0 0.0477888189
C  C245  1  0.12340000  0.78470000  0.29610000  1.0 0.0477888189
C  C246  1  0.21530000  0.87660000  0.70390000  1.0 0.0477888189
C  C247  1  0.48860000  0.66130000  0.78470000  1.0 0.0477888189
C  C248  1  0.78470000  0.48860000  0.66130000  1.0 0.0477888189
C  C249  1  0.87660000  0.17270000  0.66130000  1.0 0.0477888189
C  C250  1  0.66130000  0.87660000  0.17270000  1.0 0.0477888189
C  C251  1  0.17270000  0.51140000  0.29610000  1.0 0.0477888189
C  C252  1  0.87660000  0.70390000  0.21530000  1.0 0.0477888189
C  C253  1  0.29610000  0.12340000  0.78470000  1.0 0.0477888189
C  C254  1  0.51140000  0.29610000  0.17270000  1.0 0.0477888189
C  C255  1  0.33870000  0.51140000  0.21530000  1.0 0.0477888189
C  C256  1  0.12340000  0.33870000  0.82730000  1.0 0.0477888189
C  C257  1  0.82730000  0.70390000  0.48860000  1.0 0.0477888189
C  C258  1  0.70390000  0.21530000  0.87660000  1.0 0.0477888189
C  C259  1  0.66130000  0.78470000  0.48860000  1.0 0.0477888189
C  C260  1  0.17270000  0.66130000  0.87660000  1.0 0.0477888189
C  C261  1  0.29610000  0.17270000  0.51140000  1.0 0.0477888189
C  C262  1  0.78470000  0.29610000  0.12340000  1.0 0.0477888189
C  C263  1  0.21530000  0.33870000  0.51140000  1.0 0.0477888189
C  C264  1  0.33870000  0.82730000  0.12340000  1.0 0.0477888189
C  C265  1  0.51290000  0.83340000  0.76210000  1.0 -0.034166615
C  C266  1  0.83340000  0.07130000  0.32050000  1.0 -0.034166615
C  C267  1  0.48710000  0.24920000  0.32050000  1.0 -0.034166615
C  C268  1  0.76210000  0.51290000  0.83340000  1.0 -0.034166615
C  C269  1  0.07130000  0.75080000  0.23790000  1.0 -0.034166615
C  C270  1  0.24920000  0.92870000  0.76210000  1.0 -0.034166615
C  C271  1  0.51290000  0.67950000  0.75080000  1.0 -0.034166615
C  C272  1  0.75080000  0.51290000  0.67950000  1.0 -0.034166615
C  C273  1  0.92870000  0.16660000  0.67950000  1.0 -0.034166615
C  C274  1  0.67950000  0.92870000  0.16660000  1.0 -0.034166615
C  C275  1  0.16660000  0.48710000  0.23790000  1.0 -0.034166615
C  C276  1  0.92870000  0.76210000  0.24920000  1.0 -0.034166615
C  C277  1  0.23790000  0.07130000  0.75080000  1.0 -0.034166615
C  C278  1  0.48710000  0.23790000  0.16660000  1.0 -0.034166615
C  C279  1  0.32050000  0.48710000  0.24920000  1.0 -0.034166615
C  C280  1  0.07130000  0.32050000  0.83340000  1.0 -0.034166615
C  C281  1  0.83340000  0.76210000  0.51290000  1.0 -0.0351377487
C  C282  1  0.76210000  0.24920000  0.92870000  1.0 -0.034166615
C  C283  1  0.67950000  0.75080000  0.51290000  1.0 -0.034166615
C  C284  1  0.16660000  0.67950000  0.92870000  1.0 -0.034166615
C  C285  1  0.23790000  0.16660000  0.48710000  1.0 -0.034166615
C  C286  1  0.75080000  0.23790000  0.07130000  1.0 -0.034166615
C  C287  1  0.24920000  0.32050000  0.48710000  1.0 -0.034166615
C  C288  1  0.32050000  0.83340000  0.07130000  1.0 -0.034166615
O  O1  1  0.54510000  0.69750000  0.52520000  1.0 -0.1747020878
O  O2  1  0.69750000  0.17230000  0.15240000  1.0 -0.1747020878
O  O3  1  0.45490000  0.98010000  0.15240000  1.0 -0.1765804629
O  O4  1  0.52520000  0.54510000  0.69750000  1.0 -0.1765804629
O  O5  1  0.17230000  0.01990000  0.47480000  1.0 -0.1765804629
O  O6  1  0.98010000  0.82770000  0.52520000  1.0 -0.1765804629
O  O7  1  0.54510000  0.84760000  0.01990000  1.0 -0.1765804629
O  O8  1  0.01990000  0.54510000  0.84760000  1.0 -0.1765804629
O  O9  1  0.82770000  0.30250000  0.84760000  1.0 -0.1765804629
O  O10  1  0.84760000  0.82770000  0.30250000  1.0 -0.1765804629
O  O11  1  0.30250000  0.45490000  0.47480000  1.0 -0.1765804629
O  O12  1  0.82770000  0.52520000  0.98010000  1.0 -0.1765804629
O  O13  1  0.47480000  0.17230000  0.01990000  1.0 -0.1765804629
O  O14  1  0.45490000  0.47480000  0.30250000  1.0 -0.1765804629
O  O15  1  0.15240000  0.45490000  0.98010000  1.0 -0.1765804629
O  O16  1  0.17230000  0.15240000  0.69750000  1.0 -0.1765804629
O  O17  1  0.69750000  0.52520000  0.54510000  1.0 -0.1765804629
O  O18  1  0.52520000  0.98010000  0.82770000  1.0 -0.1765804629
O  O19  1  0.84760000  0.01990000  0.54510000  1.0 -0.1765804629
O  O20  1  0.30250000  0.84760000  0.82770000  1.0 -0.1765804629
O  O21  1  0.47480000  0.30250000  0.45490000  1.0 -0.1747020878
O  O22  1  0.01990000  0.47480000  0.17230000  1.0 -0.1765804629
O  O23  1  0.98010000  0.15240000  0.45490000  1.0 -0.1765804629
O  O24  1  0.15240000  0.69750000  0.17230000  1.0 -0.1765804629
O  O25  1  0.43580000  0.66570000  0.37750000  1.0 -0.469673154
O  O26  1  0.66570000  0.28820000  0.22990000  1.0 -0.469673154
O  O27  1  0.56420000  0.94170000  0.22990000  1.0 -0.469673154
O  O28  1  0.37750000  0.43580000  0.66570000  1.0 -0.469673154
O  O29  1  0.28820000  0.05830000  0.62250000  1.0 -0.469673154
O  O30  1  0.94170000  0.71180000  0.37750000  1.0 -0.469673154
O  O31  1  0.43580000  0.77010000  0.05830000  1.0 -0.469673154
O  O32  1  0.05830000  0.43580000  0.77010000  1.0 -0.469673154
O  O33  1  0.71180000  0.33430000  0.77010000  1.0 -0.469673154
O  O34  1  0.77010000  0.71180000  0.33430000  1.0 -0.469673154
O  O35  1  0.33430000  0.56420000  0.62250000  1.0 -0.469673154
O  O36  1  0.71180000  0.37750000  0.94170000  1.0 -0.469673154
O  O37  1  0.62250000  0.28820000  0.05830000  1.0 -0.469673154
O  O38  1  0.56420000  0.62250000  0.33430000  1.0 -0.469673154
O  O39  1  0.22990000  0.56420000  0.94170000  1.0 -0.469673154
O  O40  1  0.28820000  0.22990000  0.66570000  1.0 -0.469673154
O  O41  1  0.66570000  0.37750000  0.43580000  1.0 -0.469673154
O  O42  1  0.37750000  0.94170000  0.71180000  1.0 -0.469673154
O  O43  1  0.77010000  0.05830000  0.43580000  1.0 -0.469673154
O  O44  1  0.33430000  0.77010000  0.71180000  1.0 -0.469673154
O  O45  1  0.62250000  0.33430000  0.56420000  1.0 -0.469673154
O  O46  1  0.05830000  0.62250000  0.28820000  1.0 -0.469673154
O  O47  1  0.94170000  0.22990000  0.56420000  1.0 -0.469673154
O  O48  1  0.22990000  0.66570000  0.28820000  1.0 -0.469673154
O  O49  1  0.38030000  0.69450000  0.44580000  1.0 -0.486812631
O  O50  1  0.69450000  0.24870000  0.31420000  1.0 -0.486812631
O  O51  1  0.61970000  0.06550000  0.31420000  1.0 -0.486812631
O  O52  1  0.44580000  0.38030000  0.69450000  1.0 -0.486812631
O  O53  1  0.24870000  0.93450000  0.55420000  1.0 -0.486812631
O  O54  1  0.06550000  0.75130000  0.44580000  1.0 -0.486812631
O  O55  1  0.38030000  0.68580000  0.93450000  1.0 -0.486812631
O  O56  1  0.93450000  0.38030000  0.68580000  1.0 -0.486812631
O  O57  1  0.75130000  0.30550000  0.68580000  1.0 -0.486812631
O  O58  1  0.68580000  0.75130000  0.30550000  1.0 -0.486812631
O  O59  1  0.30550000  0.61970000  0.55420000  1.0 -0.486812631
O  O60  1  0.75130000  0.44580000  0.06550000  1.0 -0.486812631
O  O61  1  0.55420000  0.24870000  0.93450000  1.0 -0.486812631
O  O62  1  0.61970000  0.55420000  0.30550000  1.0 -0.486812631
O  O63  1  0.31420000  0.61970000  0.06550000  1.0 -0.486812631
O  O64  1  0.24870000  0.31420000  0.69450000  1.0 -0.486812631
O  O65  1  0.69450000  0.44580000  0.38030000  1.0 -0.486812631
O  O66  1  0.44580000  0.06550000  0.75130000  1.0 -0.486812631
O  O67  1  0.68580000  0.93450000  0.38030000  1.0 -0.486812631
O  O68  1  0.30550000  0.68580000  0.75130000  1.0 -0.486812631
O  O69  1  0.55420000  0.30550000  0.61970000  1.0 -0.486812631
O  O70  1  0.93450000  0.55420000  0.24870000  1.0 -0.486812631
O  O71  1  0.06550000  0.31420000  0.61970000  1.0 -0.486812631
O  O72  1  0.31420000  0.69450000  0.24870000  1.0 -0.486812631
O  O73  1  0.46582000  0.76782000  0.58140000  1.0 -0.2661543647
O  O74  1  0.76782000  0.18642000  0.30200000  1.0 -0.2661543647
O  O75  1  0.53418000  0.11558000  0.30200000  1.0 -0.2661543647
O  O76  1  0.58140000  0.46582000  0.76782000  1.0 -0.2661543647
O  O77  1  0.18642000  0.88442000  0.41860000  1.0 -0.2661543647
O  O78  1  0.11558000  0.81358000  0.58140000  1.0 -0.2661543647
O  O79  1  0.46582000  0.69800000  0.88442000  1.0 -0.2661543647
O  O80  1  0.88442000  0.46582000  0.69800000  1.0 -0.2661543647
O  O81  1  0.81358000  0.23218000  0.69800000  1.0 -0.2661543647
O  O82  1  0.69800000  0.81358000  0.23218000  1.0 -0.2661543647
O  O83  1  0.23218000  0.53418000  0.41860000  1.0 -0.2661543647
O  O84  1  0.81358000  0.58140000  0.11558000  1.0 -0.2661543647
O  O85  1  0.41860000  0.18642000  0.88442000  1.0 -0.2661543647
O  O86  1  0.53418000  0.41860000  0.23218000  1.0 -0.2661543647
O  O87  1  0.30200000  0.53418000  0.11558000  1.0 -0.2661543647
O  O88  1  0.18642000  0.30200000  0.76782000  1.0 -0.2661543647
O  O89  1  0.76782000  0.58140000  0.46582000  1.0 -0.2661543647
O  O90  1  0.58140000  0.11558000  0.81358000  1.0 -0.2661543647
O  O91  1  0.69800000  0.88442000  0.46582000  1.0 -0.2661543647
O  O92  1  0.23218000  0.69800000  0.81358000  1.0 -0.2661543647
O  O93  1  0.41860000  0.23218000  0.53418000  1.0 -0.2661543647
O  O94  1  0.88442000  0.41860000  0.18642000  1.0 -0.2661543647
O  O95  1  0.11558000  0.30200000  0.53418000  1.0 -0.2661543647
O  O96  1  0.30200000  0.76782000  0.18642000  1.0 -0.2661543647
O  O97  1  0.52300000  0.68320000  0.62320000  1.0 -0.4823758823
O  O98  1  0.68320000  0.06000000  0.16020000  1.0 -0.4823758823
O  O99  1  0.47700000  0.10020000  0.16020000  1.0 -0.4823758823
O  O100  1  0.62320000  0.52300000  0.68320000  1.0 -0.4823758823
O  O101  1  0.06000000  0.89980000  0.37680000  1.0 -0.4823758823
O  O102  1  0.10020000  0.94000000  0.62320000  1.0 -0.4823758823
O  O103  1  0.52300000  0.83980000  0.89980000  1.0 -0.4823758823
O  O104  1  0.89980000  0.52300000  0.83980000  1.0 -0.4823758823
O  O105  1  0.94000000  0.31680000  0.83980000  1.0 -0.4823758823
O  O106  1  0.83980000  0.94000000  0.31680000  1.0 -0.4823758823
O  O107  1  0.31680000  0.47700000  0.37680000  1.0 -0.4823758823
O  O108  1  0.94000000  0.62320000  0.10020000  1.0 -0.4823758823
O  O109  1  0.37680000  0.06000000  0.89980000  1.0 -0.4823758823
O  O110  1  0.47700000  0.37680000  0.31680000  1.0 -0.4823758823
O  O111  1  0.16020000  0.47700000  0.10020000  1.0 -0.4823758823
O  O112  1  0.06000000  0.16020000  0.68320000  1.0 -0.4823758823
O  O113  1  0.68320000  0.62320000  0.52300000  1.0 -0.4823758823
O  O114  1  0.62320000  0.10020000  0.94000000  1.0 -0.4823758823
O  O115  1  0.83980000  0.89980000  0.52300000  1.0 -0.4823758823
O  O116  1  0.31680000  0.83980000  0.94000000  1.0 -0.4823758823
O  O117  1  0.37680000  0.31680000  0.47700000  1.0 -0.4823758823
O  O118  1  0.89980000  0.37680000  0.06000000  1.0 -0.4823758823
O  O119  1  0.10020000  0.16020000  0.47700000  1.0 -0.4823758823
O  O120  1  0.16020000  0.68320000  0.06000000  1.0 -0.4823758823
O  O121  1  0.45521000  0.76351000  0.66270000  1.0 -0.360114383
O  O122  1  0.76351000  0.10081000  0.30830000  1.0 -0.360114383
O  O123  1  0.54479000  0.20749000  0.30830000  1.0 -0.360114383
O  O124  1  0.66270000  0.45521000  0.76351000  1.0 -0.360114383
O  O125  1  0.10081000  0.79251000  0.33730000  1.0 -0.360114383
O  O126  1  0.20749000  0.89919000  0.66270000  1.0 -0.360114383
O  O127  1  0.45521000  0.69170000  0.79251000  1.0 -0.360114383
O  O128  1  0.79251000  0.45521000  0.69170000  1.0 -0.360114383
O  O129  1  0.89919000  0.23649000  0.69170000  1.0 -0.360114383
O  O130  1  0.69170000  0.89919000  0.23649000  1.0 -0.360114383
O  O131  1  0.23649000  0.54479000  0.33730000  1.0 -0.360114383
O  O132  1  0.89919000  0.66270000  0.20749000  1.0 -0.360114383
O  O133  1  0.33730000  0.10081000  0.79251000  1.0 -0.360114383
O  O134  1  0.54479000  0.33730000  0.23649000  1.0 -0.360114383
O  O135  1  0.30830000  0.54479000  0.20749000  1.0 -0.360114383
O  O136  1  0.10081000  0.30830000  0.76351000  1.0 -0.360114383
O  O137  1  0.76351000  0.66270000  0.45521000  1.0 -0.360114383
O  O138  1  0.66270000  0.20749000  0.89919000  1.0 -0.360114383
O  O139  1  0.69170000  0.79251000  0.45521000  1.0 -0.360114383
O  O140  1  0.23649000  0.69170000  0.89919000  1.0 -0.360114383
O  O141  1  0.33730000  0.23649000  0.54479000  1.0 -0.360114383
O  O142  1  0.79251000  0.33730000  0.10081000  1.0 -0.360114383
O  O143  1  0.20749000  0.30830000  0.54479000  1.0 -0.360114383
O  O144  1  0.30830000  0.76351000  0.10081000  1.0 -0.360114383
O  O145  1  0.35030000  0.75420000  0.52270000  1.0 -0.469673154
O  O146  1  0.75420000  0.23150000  0.40390000  1.0 -0.469673154
O  O147  1  0.64970000  0.17240000  0.40390000  1.0 -0.469673154
O  O148  1  0.52270000  0.35030000  0.75420000  1.0 -0.469673154
O  O149  1  0.23150000  0.82760000  0.47730000  1.0 -0.469673154
O  O150  1  0.17240000  0.76850000  0.52270000  1.0 -0.469673154
O  O151  1  0.35030000  0.59610000  0.82760000  1.0 -0.469673154
O  O152  1  0.82760000  0.35030000  0.59610000  1.0 -0.469673154
O  O153  1  0.76850000  0.24580000  0.59610000  1.0 -0.469673154
O  O154  1  0.59610000  0.76850000  0.24580000  1.0 -0.469673154
O  O155  1  0.24580000  0.64970000  0.47730000  1.0 -0.469673154
O  O156  1  0.76850000  0.52270000  0.17240000  1.0 -0.469673154
O  O157  1  0.47730000  0.23150000  0.82760000  1.0 -0.469673154
O  O158  1  0.64970000  0.47730000  0.24580000  1.0 -0.469673154
O  O159  1  0.40390000  0.64970000  0.17240000  1.0 -0.469673154
O  O160  1  0.23150000  0.40390000  0.75420000  1.0 -0.469673154
O  O161  1  0.75420000  0.52270000  0.35030000  1.0 -0.469673154
O  O162  1  0.52270000  0.17240000  0.76850000  1.0 -0.469673154
O  O163  1  0.59610000  0.82760000  0.35030000  1.0 -0.469673154
O  O164  1  0.24580000  0.59610000  0.76850000  1.0 -0.469673154
O  O165  1  0.47730000  0.24580000  0.64970000  1.0 -0.469673154
O  O166  1  0.82760000  0.47730000  0.23150000  1.0 -0.469673154
O  O167  1  0.17240000  0.40390000  0.64970000  1.0 -0.469673154
O  O168  1  0.40390000  0.75420000  0.23150000  1.0 -0.469673154
O  O169  1  0.36900000  0.85790000  0.61890000  1.0 -0.4599809222
O  O170  1  0.85790000  0.23900000  0.48890000  1.0 -0.4599809222
O  O171  1  0.63100000  0.24990000  0.48890000  1.0 -0.4599809222
O  O172  1  0.61890000  0.36900000  0.85790000  1.0 -0.4599809222
O  O173  1  0.23900000  0.75010000  0.38110000  1.0 -0.4599809222
O  O174  1  0.24990000  0.76100000  0.61890000  1.0 -0.4599809222
O  O175  1  0.36900000  0.51110000  0.75010000  1.0 -0.4599809222
O  O176  1  0.75010000  0.36900000  0.51110000  1.0 -0.4599809222
O  O177  1  0.76100000  0.14210000  0.51110000  1.0 -0.4599809222
O  O178  1  0.51110000  0.76100000  0.14210000  1.0 -0.4599809222
O  O179  1  0.14210000  0.63100000  0.38110000  1.0 -0.4599809222
O  O180  1  0.76100000  0.61890000  0.24990000  1.0 -0.4599809222
O  O181  1  0.38110000  0.23900000  0.75010000  1.0 -0.4599809222
O  O182  1  0.63100000  0.38110000  0.14210000  1.0 -0.4599809222
O  O183  1  0.48890000  0.63100000  0.24990000  1.0 -0.4599809222
O  O184  1  0.23900000  0.48890000  0.85790000  1.0 -0.4599809222
O  O185  1  0.85790000  0.61890000  0.36900000  1.0 -0.4599809222
O  O186  1  0.61890000  0.24990000  0.76100000  1.0 -0.4599809222
O  O187  1  0.51110000  0.75010000  0.36900000  1.0 -0.4599809222
O  O188  1  0.14210000  0.51110000  0.76100000  1.0 -0.4599809222
O  O189  1  0.38110000  0.14210000  0.63100000  1.0 -0.4599809222
O  O190  1  0.75010000  0.38110000  0.23900000  1.0 -0.4599809222
O  O191  1  0.24990000  0.48890000  0.63100000  1.0 -0.4599809222
O  O192  1  0.48890000  0.85790000  0.23900000  1.0 -0.4599809222
O  O193  1  0.55785000  0.75015000  0.47690000  1.0 -0.2868787408
O  O194  1  0.75015000  0.27325000  0.19230000  1.0 -0.2868787408
O  O195  1  0.44215000  0.91905000  0.19230000  1.0 -0.2868787408
O  O196  1  0.47690000  0.55785000  0.75015000  1.0 -0.2868787408
O  O197  1  0.27325000  0.08095000  0.52310000  1.0 -0.2868787408
O  O198  1  0.91905000  0.72675000  0.47690000  1.0 -0.2868787408
O  O199  1  0.55785000  0.80770000  0.08095000  1.0 -0.2868787408
O  O200  1  0.08095000  0.55785000  0.80770000  1.0 -0.2868787408
O  O201  1  0.72675000  0.24985000  0.80770000  1.0 -0.2868787408
O  O202  1  0.80770000  0.72675000  0.24985000  1.0 -0.2868787408
O  O203  1  0.24985000  0.44215000  0.52310000  1.0 -0.2868787408
O  O204  1  0.72675000  0.47690000  0.91905000  1.0 -0.2868787408
O  O205  1  0.52310000  0.27325000  0.08095000  1.0 -0.2868787408
O  O206  1  0.44215000  0.52310000  0.24985000  1.0 -0.2868787408
O  O207  1  0.19230000  0.44215000  0.91905000  1.0 -0.2868787408
O  O208  1  0.27325000  0.19230000  0.75015000  1.0 -0.2868787408
O  O209  1  0.75015000  0.47690000  0.55785000  1.0 -0.2868787408
O  O210  1  0.47690000  0.91905000  0.72675000  1.0 -0.2868787408
O  O211  1  0.80770000  0.08095000  0.55785000  1.0 -0.2868787408
O  O212  1  0.24985000  0.80770000  0.72675000  1.0 -0.2868787408
O  O213  1  0.52310000  0.24985000  0.44215000  1.0 -0.2868787408
O  O214  1  0.08095000  0.52310000  0.27325000  1.0 -0.2868787408
O  O215  1  0.91905000  0.19230000  0.44215000  1.0 -0.2868787408
O  O216  1  0.19230000  0.75015000  0.27325000  1.0 -0.2868787408
O  O217  1  0.47390000  0.81010000  0.77800000  1.0 -0.4528687843
O  O218  1  0.81010000  0.03210000  0.33620000  1.0 -0.4528687843
O  O219  1  0.52610000  0.30410000  0.33620000  1.0 -0.4528687843
O  O220  1  0.77800000  0.47390000  0.81010000  1.0 -0.4528687843
O  O221  1  0.03210000  0.69590000  0.22200000  1.0 -0.4528687843
O  O222  1  0.30410000  0.96790000  0.77800000  1.0 -0.4528687843
O  O223  1  0.47390000  0.66380000  0.69590000  1.0 -0.4528687843
O  O224  1  0.69590000  0.47390000  0.66380000  1.0 -0.4528687843
O  O225  1  0.96790000  0.18990000  0.66380000  1.0 -0.4528687843
O  O226  1  0.66380000  0.96790000  0.18990000  1.0 -0.4528687843
O  O227  1  0.18990000  0.52610000  0.22200000  1.0 -0.4528687843
O  O228  1  0.96790000  0.77800000  0.30410000  1.0 -0.4528687843
O  O229  1  0.22200000  0.03210000  0.69590000  1.0 -0.4528687843
O  O230  1  0.52610000  0.22200000  0.18990000  1.0 -0.4528687843
O  O231  1  0.33620000  0.52610000  0.30410000  1.0 -0.4528687843
O  O232  1  0.03210000  0.33620000  0.81010000  1.0 -0.4528687843
O  O233  1  0.81010000  0.77800000  0.47390000  1.0 -0.4528687843
O  O234  1  0.77800000  0.30410000  0.96790000  1.0 -0.4528687843
O  O235  1  0.66380000  0.69590000  0.47390000  1.0 -0.4528687843
O  O236  1  0.18990000  0.66380000  0.96790000  1.0 -0.4528687843
O  O237  1  0.22200000  0.18990000  0.52610000  1.0 -0.4528687843
O  O238  1  0.69590000  0.22200000  0.03210000  1.0 -0.4528687843
O  O239  1  0.30410000  0.33620000  0.52610000  1.0 -0.4528687843
O  O240  1  0.33620000  0.81010000  0.03210000  1.0 -0.4528687843
