# DDEC6 charges by PACMAN v1.1 (https://github.com/mtap-research/PACMAN-charge/)
data_LAJLEP_ASR_pacman
_symmetry_space_group_name_H-M   'P 1'
_cell_length_a   26.91520000
_cell_length_b   26.91520000
_cell_length_c   26.91520000
_cell_angle_alpha   109.47100000
_cell_angle_beta   109.47100000
_cell_angle_gamma   109.47100000
_symmetry_Int_Tables_number   1
_chemical_formula_structural   RbH40(C6O5)4
_chemical_formula_sum   'Rb12 H480 C288 O240'
_cell_volume   15009.78566636
_cell_formula_units_Z   12
loop_
 _symmetry_equiv_pos_site_id
 _symmetry_equiv_pos_as_xyz
  1  'x, y, z'
loop_
 _atom_site_type_symbol
 _atom_site_label
 _atom_site_symmetry_multiplicity
 _atom_site_fract_x
 _atom_site_fract_y
 _atom_site_fract_z
 _atom_site_occupancy
 _atom_site_charge
Rb  Rb1  1  0.31338000  0.62676000  0.31338000  1.0 0.7900581648
Rb  Rb2  1  0.62676000  0.31338000  0.31338000  1.0 0.7900581648
Rb  Rb3  1  0.68662000  0.00000000  0.31338000  1.0 0.7900581648
Rb  Rb4  1  0.31338000  0.31338000  0.62676000  1.0 0.7900581648
Rb  Rb5  1  0.31338000  0.00000000  0.68662000  1.0 0.7900581648
Rb  Rb6  1  0.00000000  0.68662000  0.31338000  1.0 0.7900581648
Rb  Rb7  1  0.31338000  0.68662000  0.00000000  1.0 0.7900581648
Rb  Rb8  1  0.00000000  0.31338000  0.68662000  1.0 0.7900581648
Rb  Rb9  1  0.68662000  0.37324000  0.68662000  1.0 0.7900581648
Rb  Rb10  1  0.68662000  0.68662000  0.37324000  1.0 0.7900581648
Rb  Rb11  1  0.37324000  0.68662000  0.68662000  1.0 0.7900581648
Rb  Rb12  1  0.68662000  0.31338000  0.00000000  1.0 0.7900581648
H  H1  1  0.53600000  0.66210000  0.44610000  1.0 0.0991096649
H  H2  1  0.66210000  0.21600000  0.12610000  1.0 0.0991096649
H  H3  1  0.46400000  0.91010000  0.12610000  1.0 0.0991096649
H  H4  1  0.44610000  0.53600000  0.66210000  1.0 0.0991096649
H  H5  1  0.21600000  0.08990000  0.55390000  1.0 0.0991096649
H  H6  1  0.91010000  0.78400000  0.44610000  1.0 0.0991096649
H  H7  1  0.53600000  0.87390000  0.08990000  1.0 0.0991096649
H  H8  1  0.08990000  0.53600000  0.87390000  1.0 0.0991096649
H  H9  1  0.78400000  0.33790000  0.87390000  1.0 0.0991096649
H  H10  1  0.87390000  0.78400000  0.33790000  1.0 0.0991096649
H  H11  1  0.33790000  0.46400000  0.55390000  1.0 0.0991096649
H  H12  1  0.78400000  0.44610000  0.91010000  1.0 0.0991096649
H  H13  1  0.55390000  0.21600000  0.08990000  1.0 0.0991096649
H  H14  1  0.46400000  0.55390000  0.33790000  1.0 0.0991096649
H  H15  1  0.12610000  0.46400000  0.91010000  1.0 0.0991096649
H  H16  1  0.21600000  0.12610000  0.66210000  1.0 0.0991096649
H  H17  1  0.66210000  0.44610000  0.53600000  1.0 0.0991096649
H  H18  1  0.44610000  0.91010000  0.78400000  1.0 0.0991096649
H  H19  1  0.87390000  0.08990000  0.53600000  1.0 0.0991096649
H  H20  1  0.33790000  0.87390000  0.78400000  1.0 0.0991096649
H  H21  1  0.55390000  0.33790000  0.46400000  1.0 0.0991096649
H  H22  1  0.08990000  0.55390000  0.21600000  1.0 0.0991096649
H  H23  1  0.91010000  0.12610000  0.46400000  1.0 0.0991096649
H  H24  1  0.12610000  0.66210000  0.21600000  1.0 0.0991096649
H  H25  1  0.46970000  0.70170000  0.38520000  1.0 0.2512940233
H  H26  1  0.70170000  0.31650000  0.23200000  1.0 0.2512940233
H  H27  1  0.53030000  0.91550000  0.23200000  1.0 0.2512940233
H  H28  1  0.38520000  0.46970000  0.70170000  1.0 0.2512940233
H  H29  1  0.31650000  0.08450000  0.61480000  1.0 0.2512940233
H  H30  1  0.91550000  0.68350000  0.38520000  1.0 0.2512940233
H  H31  1  0.46970000  0.76800000  0.08450000  1.0 0.2512940233
H  H32  1  0.08450000  0.46970000  0.76800000  1.0 0.2512940233
H  H33  1  0.68350000  0.29830000  0.76800000  1.0 0.2512940233
H  H34  1  0.76800000  0.68350000  0.29830000  1.0 0.2512940233
H  H35  1  0.29830000  0.53030000  0.61480000  1.0 0.2512940233
H  H36  1  0.68350000  0.38520000  0.91550000  1.0 0.2512940233
H  H37  1  0.61480000  0.31650000  0.08450000  1.0 0.2512940233
H  H38  1  0.53030000  0.61480000  0.29830000  1.0 0.2512940233
H  H39  1  0.23200000  0.53030000  0.91550000  1.0 0.2512940233
H  H40  1  0.31650000  0.23200000  0.70170000  1.0 0.2512940233
H  H41  1  0.70170000  0.38520000  0.46970000  1.0 0.2512940233
H  H42  1  0.38520000  0.91550000  0.68350000  1.0 0.2512940233
H  H43  1  0.76800000  0.08450000  0.46970000  1.0 0.2512940233
H  H44  1  0.29830000  0.76800000  0.68350000  1.0 0.2512940233
H  H45  1  0.61480000  0.29830000  0.53030000  1.0 0.2512940233
H  H46  1  0.08450000  0.61480000  0.31650000  1.0 0.2512940233
H  H47  1  0.91550000  0.23200000  0.53030000  1.0 0.2512940233
H  H48  1  0.23200000  0.70170000  0.31650000  1.0 0.2512940233
H  H49  1  0.43920000  0.62940000  0.43500000  1.0 0.0991096649
H  H50  1  0.62940000  0.19440000  0.19020000  1.0 0.0991096649
H  H51  1  0.56080000  0.99580000  0.19020000  1.0 0.0991096649
H  H52  1  0.43500000  0.43920000  0.62940000  1.0 0.0991096649
H  H53  1  0.19440000  0.00420000  0.56500000  1.0 0.0991096649
H  H54  1  0.99580000  0.80560000  0.43500000  1.0 0.0991096649
H  H55  1  0.43920000  0.80980000  0.00420000  1.0 0.0991096649
H  H56  1  0.00420000  0.43920000  0.80980000  1.0 0.0991096649
H  H57  1  0.80560000  0.37060000  0.80980000  1.0 0.0991096649
H  H58  1  0.80980000  0.80560000  0.37060000  1.0 0.0991096649
H  H59  1  0.37060000  0.56080000  0.56500000  1.0 0.0991096649
H  H60  1  0.80560000  0.43500000  0.99580000  1.0 0.0991096649
H  H61  1  0.56500000  0.19440000  0.00420000  1.0 0.0991096649
H  H62  1  0.56080000  0.56500000  0.37060000  1.0 0.0991096649
H  H63  1  0.19020000  0.56080000  0.99580000  1.0 0.0991096649
H  H64  1  0.19440000  0.19020000  0.62940000  1.0 0.0991096649
H  H65  1  0.62940000  0.43500000  0.43920000  1.0 0.0991096649
H  H66  1  0.43500000  0.99580000  0.80560000  1.0 0.0991096649
H  H67  1  0.80980000  0.00420000  0.43920000  1.0 0.0991096649
H  H68  1  0.37060000  0.80980000  0.80560000  1.0 0.0991096649
H  H69  1  0.56500000  0.37060000  0.56080000  1.0 0.0991096649
H  H70  1  0.00420000  0.56500000  0.19440000  1.0 0.0991096649
H  H71  1  0.99580000  0.19020000  0.56080000  1.0 0.0991096649
H  H72  1  0.19020000  0.62940000  0.19440000  1.0 0.0991096649
H  H73  1  0.37140000  0.70020000  0.41920000  1.0 0.3100370432
H  H74  1  0.70020000  0.28100000  0.32880000  1.0 0.3100370432
H  H75  1  0.62860000  0.04780000  0.32880000  1.0 0.3100370432
H  H76  1  0.41920000  0.37140000  0.70020000  1.0 0.3100370432
H  H77  1  0.28100000  0.95220000  0.58080000  1.0 0.3100370432
H  H78  1  0.04780000  0.71900000  0.41920000  1.0 0.3100370432
H  H79  1  0.37140000  0.67120000  0.95220000  1.0 0.3100370432
H  H80  1  0.95220000  0.37140000  0.67120000  1.0 0.3100370432
H  H81  1  0.71900000  0.29980000  0.67120000  1.0 0.3100370432
H  H82  1  0.67120000  0.71900000  0.29980000  1.0 0.3100370432
H  H83  1  0.29980000  0.62860000  0.58080000  1.0 0.3100370432
H  H84  1  0.71900000  0.41920000  0.04780000  1.0 0.3100370432
H  H85  1  0.58080000  0.28100000  0.95220000  1.0 0.3100370432
H  H86  1  0.62860000  0.58080000  0.29980000  1.0 0.3100370432
H  H87  1  0.32880000  0.62860000  0.04780000  1.0 0.3100370432
H  H88  1  0.28100000  0.32880000  0.70020000  1.0 0.3100370432
H  H89  1  0.70020000  0.41920000  0.37140000  1.0 0.3100370432
H  H90  1  0.41920000  0.04780000  0.71900000  1.0 0.3100370432
H  H91  1  0.67120000  0.95220000  0.37140000  1.0 0.3100370432
H  H92  1  0.29980000  0.67120000  0.71900000  1.0 0.3100370432
H  H93  1  0.58080000  0.29980000  0.62860000  1.0 0.3100370432
H  H94  1  0.95220000  0.58080000  0.28100000  1.0 0.3100370432
H  H95  1  0.04780000  0.32880000  0.62860000  1.0 0.3100370432
H  H96  1  0.32880000  0.70020000  0.28100000  1.0 0.3100370432
H  H97  1  0.46900000  0.75330000  0.48230000  1.0 0.0905127921
H  H98  1  0.75330000  0.27100000  0.28430000  1.0 0.0905127921
H  H99  1  0.53100000  0.01330000  0.28430000  1.0 0.0905127921
H  H100  1  0.48230000  0.46900000  0.75330000  1.0 0.0905127921
H  H101  1  0.27100000  0.98670000  0.51770000  1.0 0.0905127921
H  H102  1  0.01330000  0.72900000  0.48230000  1.0 0.0905127921
H  H103  1  0.46900000  0.71570000  0.98670000  1.0 0.0905127921
H  H104  1  0.98670000  0.46900000  0.71570000  1.0 0.0905127921
H  H105  1  0.72900000  0.24670000  0.71570000  1.0 0.0905127921
H  H106  1  0.71570000  0.72900000  0.24670000  1.0 0.0905127921
H  H107  1  0.24670000  0.53100000  0.51770000  1.0 0.0905127921
H  H108  1  0.72900000  0.48230000  0.01330000  1.0 0.0905127921
H  H109  1  0.51770000  0.27100000  0.98670000  1.0 0.0905127921
H  H110  1  0.53100000  0.51770000  0.24670000  1.0 0.0905127921
H  H111  1  0.28430000  0.53100000  0.01330000  1.0 0.0905127921
H  H112  1  0.27100000  0.28430000  0.75330000  1.0 0.0905127921
H  H113  1  0.75330000  0.48230000  0.46900000  1.0 0.0905127921
H  H114  1  0.48230000  0.01330000  0.72900000  1.0 0.0905127921
H  H115  1  0.71570000  0.98670000  0.46900000  1.0 0.0905127921
H  H116  1  0.24670000  0.71570000  0.72900000  1.0 0.0905127921
H  H117  1  0.51770000  0.24670000  0.53100000  1.0 0.0905127921
H  H118  1  0.98670000  0.51770000  0.27100000  1.0 0.0905127921
H  H119  1  0.01330000  0.28430000  0.53100000  1.0 0.0905127921
H  H120  1  0.28430000  0.75330000  0.27100000  1.0 0.0905127921
H  H121  1  0.45080000  0.68060000  0.54020000  1.0 0.0991096649
H  H122  1  0.68060000  0.14040000  0.22980000  1.0 0.0991096649
H  H123  1  0.54920000  0.08940000  0.22980000  1.0 0.0991096649
H  H124  1  0.54020000  0.45080000  0.68060000  1.0 0.0991096649
H  H125  1  0.14040000  0.91060000  0.45980000  1.0 0.0905127921
H  H126  1  0.08940000  0.85960000  0.54020000  1.0 0.0991096649
H  H127  1  0.45080000  0.77020000  0.91060000  1.0 0.0991096649
H  H128  1  0.91060000  0.45080000  0.77020000  1.0 0.0991096649
H  H129  1  0.85960000  0.31940000  0.77020000  1.0 0.0991096649
H  H130  1  0.77020000  0.85960000  0.31940000  1.0 0.0991096649
H  H131  1  0.31940000  0.54920000  0.45980000  1.0 0.0991096649
H  H132  1  0.85960000  0.54020000  0.08940000  1.0 0.0991096649
H  H133  1  0.45980000  0.14040000  0.91060000  1.0 0.0991096649
H  H134  1  0.54920000  0.45980000  0.31940000  1.0 0.0991096649
H  H135  1  0.22980000  0.54920000  0.08940000  1.0 0.0905127921
H  H136  1  0.14040000  0.22980000  0.68060000  1.0 0.0905127921
H  H137  1  0.68060000  0.54020000  0.45080000  1.0 0.0991096649
H  H138  1  0.54020000  0.08940000  0.85960000  1.0 0.0991096649
H  H139  1  0.77020000  0.91060000  0.45080000  1.0 0.0991096649
H  H140  1  0.31940000  0.77020000  0.85960000  1.0 0.0905127921
H  H141  1  0.45980000  0.31940000  0.54920000  1.0 0.0991096649
H  H142  1  0.91060000  0.45980000  0.14040000  1.0 0.0991096649
H  H143  1  0.08940000  0.22980000  0.54920000  1.0 0.0905127921
H  H144  1  0.22980000  0.68060000  0.14040000  1.0 0.0991096649
H  H145  1  0.56490000  0.78200000  0.57710000  1.0 0.0812232637
H  H146  1  0.78200000  0.20490000  0.21710000  1.0 0.0812232637
H  H147  1  0.43510000  0.01220000  0.21710000  1.0 0.0812232637
H  H148  1  0.57710000  0.56490000  0.78200000  1.0 0.0812232637
H  H149  1  0.20490000  0.98780000  0.42290000  1.0 0.0812232637
H  H150  1  0.01220000  0.79510000  0.57710000  1.0 0.0812232637
H  H151  1  0.56490000  0.78290000  0.98780000  1.0 0.0812232637
H  H152  1  0.98780000  0.56490000  0.78290000  1.0 0.0812232637
H  H153  1  0.79510000  0.21800000  0.78290000  1.0 0.0812232637
H  H154  1  0.78290000  0.79510000  0.21800000  1.0 0.0812232637
H  H155  1  0.21800000  0.43510000  0.42290000  1.0 0.0812232637
H  H156  1  0.79510000  0.57710000  0.01220000  1.0 0.0812232637
H  H157  1  0.42290000  0.20490000  0.98780000  1.0 0.0812232637
H  H158  1  0.43510000  0.42290000  0.21800000  1.0 0.0812232637
H  H159  1  0.21710000  0.43510000  0.01220000  1.0 0.0812232637
H  H160  1  0.20490000  0.21710000  0.78200000  1.0 0.0812232637
H  H161  1  0.78200000  0.57710000  0.56490000  1.0 0.0812232637
H  H162  1  0.57710000  0.01220000  0.79510000  1.0 0.0812232637
H  H163  1  0.78290000  0.98780000  0.56490000  1.0 0.0812232637
H  H164  1  0.21800000  0.78290000  0.79510000  1.0 0.0812232637
H  H165  1  0.42290000  0.21800000  0.43510000  1.0 0.0812232637
H  H166  1  0.98780000  0.42290000  0.20490000  1.0 0.0812232637
H  H167  1  0.01220000  0.21710000  0.43510000  1.0 0.0812232637
H  H168  1  0.21710000  0.78200000  0.20490000  1.0 0.0812232637
H  H169  1  0.51620000  0.68670000  0.65410000  1.0 0.2620484024
H  H170  1  0.68670000  0.03260000  0.17050000  1.0 0.2620484024
H  H171  1  0.48380000  0.13790000  0.17050000  1.0 0.2620484024
H  H172  1  0.65410000  0.51620000  0.68670000  1.0 0.2620484024
H  H173  1  0.03260000  0.86210000  0.34590000  1.0 0.2620484024
H  H174  1  0.13790000  0.96740000  0.65410000  1.0 0.2620484024
H  H175  1  0.51620000  0.82950000  0.86210000  1.0 0.2620484024
H  H176  1  0.86210000  0.51620000  0.82950000  1.0 0.2620484024
H  H177  1  0.96740000  0.31330000  0.82950000  1.0 0.2620484024
H  H178  1  0.82950000  0.96740000  0.31330000  1.0 0.2620484024
H  H179  1  0.31330000  0.48380000  0.34590000  1.0 0.2620484024
H  H180  1  0.96740000  0.65410000  0.13790000  1.0 0.2620484024
H  H181  1  0.34590000  0.03260000  0.86210000  1.0 0.2620484024
H  H182  1  0.48380000  0.34590000  0.31330000  1.0 0.2620484024
H  H183  1  0.17050000  0.48380000  0.13790000  1.0 0.2620484024
H  H184  1  0.03260000  0.17050000  0.68670000  1.0 0.2620484024
H  H185  1  0.68670000  0.65410000  0.51620000  1.0 0.2620484024
H  H186  1  0.65410000  0.13790000  0.96740000  1.0 0.2620484024
H  H187  1  0.82950000  0.86210000  0.51620000  1.0 0.2620484024
H  H188  1  0.31330000  0.82950000  0.96740000  1.0 0.2620484024
H  H189  1  0.34590000  0.31330000  0.48380000  1.0 0.2620484024
H  H190  1  0.86210000  0.34590000  0.03260000  1.0 0.2620484024
H  H191  1  0.13790000  0.17050000  0.48380000  1.0 0.2620484024
H  H192  1  0.17050000  0.68670000  0.03260000  1.0 0.2620484024
H  H193  1  0.60880000  0.74940000  0.64420000  1.0 0.0991096649
H  H194  1  0.74940000  0.10520000  0.14060000  1.0 0.0991096649
H  H195  1  0.39120000  0.03540000  0.14060000  1.0 0.0991096649
H  H196  1  0.64420000  0.60880000  0.74940000  1.0 0.0991096649
H  H197  1  0.10520000  0.96460000  0.35580000  1.0 0.0991096649
H  H198  1  0.03540000  0.89480000  0.64420000  1.0 0.0991096649
H  H199  1  0.60880000  0.85940000  0.96460000  1.0 0.0991096649
H  H200  1  0.96460000  0.60880000  0.85940000  1.0 0.0991096649
H  H201  1  0.89480000  0.25060000  0.85940000  1.0 0.0991096649
H  H202  1  0.85940000  0.89480000  0.25060000  1.0 0.0991096649
H  H203  1  0.25060000  0.39120000  0.35580000  1.0 0.0991096649
H  H204  1  0.89480000  0.64420000  0.03540000  1.0 0.0991096649
H  H205  1  0.35580000  0.10520000  0.96460000  1.0 0.0991096649
H  H206  1  0.39120000  0.35580000  0.25060000  1.0 0.0991096649
H  H207  1  0.14060000  0.39120000  0.03540000  1.0 0.0991096649
H  H208  1  0.10520000  0.14060000  0.74940000  1.0 0.0991096649
H  H209  1  0.74940000  0.64420000  0.60880000  1.0 0.0991096649
H  H210  1  0.64420000  0.03540000  0.89480000  1.0 0.0991096649
H  H211  1  0.85940000  0.96460000  0.60880000  1.0 0.0991096649
H  H212  1  0.25060000  0.85940000  0.89480000  1.0 0.0991096649
H  H213  1  0.35580000  0.25060000  0.39120000  1.0 0.0991096649
H  H214  1  0.96460000  0.35580000  0.10520000  1.0 0.0991096649
H  H215  1  0.03540000  0.14060000  0.39120000  1.0 0.0991096649
H  H216  1  0.14060000  0.74940000  0.10520000  1.0 0.0991096649
H  H217  1  0.56620000  0.77280000  0.66140000  1.0 0.0812232637
H  H218  1  0.77280000  0.11140000  0.20660000  1.0 0.0812232637
H  H219  1  0.43380000  0.09520000  0.20660000  1.0 0.0812232637
H  H220  1  0.66140000  0.56620000  0.77280000  1.0 0.0812232637
H  H221  1  0.11140000  0.90480000  0.33860000  1.0 0.0812232637
H  H222  1  0.09520000  0.88860000  0.66140000  1.0 0.0812232637
H  H223  1  0.56620000  0.79340000  0.90480000  1.0 0.0812232637
H  H224  1  0.90480000  0.56620000  0.79340000  1.0 0.0812232637
H  H225  1  0.88860000  0.22720000  0.79340000  1.0 0.0812232637
H  H226  1  0.79340000  0.88860000  0.22720000  1.0 0.0812232637
H  H227  1  0.22720000  0.43380000  0.33860000  1.0 0.0812232637
H  H228  1  0.88860000  0.66140000  0.09520000  1.0 0.0812232637
H  H229  1  0.33860000  0.11140000  0.90480000  1.0 0.0812232637
H  H230  1  0.43380000  0.33860000  0.22720000  1.0 0.0812232637
H  H231  1  0.20660000  0.43380000  0.09520000  1.0 0.0812232637
H  H232  1  0.11140000  0.20660000  0.77280000  1.0 0.0812232637
H  H233  1  0.77280000  0.66140000  0.56620000  1.0 0.0812232637
H  H234  1  0.66140000  0.09520000  0.88860000  1.0 0.0812232637
H  H235  1  0.79340000  0.90480000  0.56620000  1.0 0.0812232637
H  H236  1  0.22720000  0.79340000  0.88860000  1.0 0.0812232637
H  H237  1  0.33860000  0.22720000  0.43380000  1.0 0.0812232637
H  H238  1  0.90480000  0.33860000  0.11140000  1.0 0.0812232637
H  H239  1  0.09520000  0.20660000  0.43380000  1.0 0.0812232637
H  H240  1  0.20660000  0.77280000  0.11140000  1.0 0.0812232637
H  H241  1  0.40180000  0.69870000  0.57630000  1.0 0.0812232637
H  H242  1  0.69870000  0.12240000  0.29690000  1.0 0.0812232637
H  H243  1  0.59820000  0.17450000  0.29690000  1.0 0.0812232637
H  H244  1  0.57630000  0.40180000  0.69870000  1.0 0.0812232637
H  H245  1  0.12240000  0.82550000  0.42370000  1.0 0.0812232637
H  H246  1  0.17450000  0.87760000  0.57630000  1.0 0.0812232637
H  H247  1  0.40180000  0.70310000  0.82550000  1.0 0.0812232637
H  H248  1  0.82550000  0.40180000  0.70310000  1.0 0.0812232637
H  H249  1  0.87760000  0.30130000  0.70310000  1.0 0.0812232637
H  H250  1  0.70310000  0.87760000  0.30130000  1.0 0.0812232637
H  H251  1  0.30130000  0.59820000  0.42370000  1.0 0.0812232637
H  H252  1  0.87760000  0.57630000  0.17450000  1.0 0.0812232637
H  H253  1  0.42370000  0.12240000  0.82550000  1.0 0.0812232637
H  H254  1  0.59820000  0.42370000  0.30130000  1.0 0.0812232637
H  H255  1  0.29690000  0.59820000  0.17450000  1.0 0.0812232637
H  H256  1  0.12240000  0.29690000  0.69870000  1.0 0.0812232637
H  H257  1  0.69870000  0.57630000  0.40180000  1.0 0.0812232637
H  H258  1  0.57630000  0.17450000  0.87760000  1.0 0.0812232637
H  H259  1  0.70310000  0.82550000  0.40180000  1.0 0.0812232637
H  H260  1  0.30130000  0.70310000  0.87760000  1.0 0.0812232637
H  H261  1  0.42370000  0.30130000  0.59820000  1.0 0.0812232637
H  H262  1  0.82550000  0.42370000  0.12240000  1.0 0.0812232637
H  H263  1  0.17450000  0.29690000  0.59820000  1.0 0.0812232637
H  H264  1  0.29690000  0.69870000  0.12240000  1.0 0.0812232637
H  H265  1  0.37200000  0.73400000  0.50460000  1.0 0.330724976
H  H266  1  0.73400000  0.22940000  0.36200000  1.0 0.330724976
H  H267  1  0.62800000  0.13260000  0.36200000  1.0 0.330724976
H  H268  1  0.50460000  0.37200000  0.73400000  1.0 0.330724976
H  H269  1  0.22940000  0.86740000  0.49540000  1.0 0.330724976
H  H270  1  0.13260000  0.77060000  0.50460000  1.0 0.330724976
H  H271  1  0.37200000  0.63800000  0.86740000  1.0 0.330724976
H  H272  1  0.86740000  0.37200000  0.63800000  1.0 0.330724976
H  H273  1  0.77060000  0.26600000  0.63800000  1.0 0.330724976
H  H274  1  0.63800000  0.77060000  0.26600000  1.0 0.330724976
H  H275  1  0.26600000  0.62800000  0.49540000  1.0 0.330724976
H  H276  1  0.77060000  0.50460000  0.13260000  1.0 0.330724976
H  H277  1  0.49540000  0.22940000  0.86740000  1.0 0.330724976
H  H278  1  0.62800000  0.49540000  0.26600000  1.0 0.330724976
H  H279  1  0.36200000  0.62800000  0.13260000  1.0 0.330724976
H  H280  1  0.22940000  0.36200000  0.73400000  1.0 0.330724976
H  H281  1  0.73400000  0.50460000  0.37200000  1.0 0.330724976
H  H282  1  0.50460000  0.13260000  0.77060000  1.0 0.330724976
H  H283  1  0.63800000  0.86740000  0.37200000  1.0 0.330724976
H  H284  1  0.26600000  0.63800000  0.77060000  1.0 0.330724976
H  H285  1  0.49540000  0.26600000  0.62800000  1.0 0.330724976
H  H286  1  0.86740000  0.49540000  0.22940000  1.0 0.330724976
H  H287  1  0.13260000  0.36200000  0.62800000  1.0 0.330724976
H  H288  1  0.36200000  0.73400000  0.22940000  1.0 0.330724976
H  H289  1  0.35130000  0.74640000  0.59790000  1.0 0.0991096649
H  H290  1  0.74640000  0.14850000  0.39510000  1.0 0.0991096649
H  H291  1  0.64870000  0.24660000  0.39510000  1.0 0.0991096649
H  H292  1  0.59790000  0.35130000  0.74640000  1.0 0.0991096649
H  H293  1  0.14850000  0.75340000  0.40210000  1.0 0.0991096649
H  H294  1  0.24660000  0.85150000  0.59790000  1.0 0.0991096649
H  H295  1  0.35130000  0.60490000  0.75340000  1.0 0.0991096649
H  H296  1  0.75340000  0.35130000  0.60490000  1.0 0.0991096649
H  H297  1  0.85150000  0.25360000  0.60490000  1.0 0.0991096649
H  H298  1  0.60490000  0.85150000  0.25360000  1.0 0.0991096649
H  H299  1  0.25360000  0.64870000  0.40210000  1.0 0.0991096649
H  H300  1  0.85150000  0.59790000  0.24660000  1.0 0.0991096649
H  H301  1  0.40210000  0.14850000  0.75340000  1.0 0.0991096649
H  H302  1  0.64870000  0.40210000  0.25360000  1.0 0.0991096649
H  H303  1  0.39510000  0.64870000  0.24660000  1.0 0.0991096649
H  H304  1  0.14850000  0.39510000  0.74640000  1.0 0.0991096649
H  H305  1  0.74640000  0.59790000  0.35130000  1.0 0.0991096649
H  H306  1  0.59790000  0.24660000  0.85150000  1.0 0.0991096649
H  H307  1  0.60490000  0.75340000  0.35130000  1.0 0.0991096649
H  H308  1  0.25360000  0.60490000  0.85150000  1.0 0.0991096649
H  H309  1  0.40210000  0.25360000  0.64870000  1.0 0.0991096649
H  H310  1  0.75340000  0.40210000  0.14850000  1.0 0.0991096649
H  H311  1  0.24660000  0.39510000  0.64870000  1.0 0.0991096649
H  H312  1  0.39510000  0.74640000  0.14850000  1.0 0.0991096649
H  H313  1  0.37850000  0.88760000  0.65410000  1.0 0.2512940233
H  H314  1  0.88760000  0.23350000  0.50910000  1.0 0.2512940233
H  H315  1  0.62150000  0.27560000  0.50910000  1.0 0.2512940233
H  H316  1  0.65410000  0.37850000  0.88760000  1.0 0.2512940233
H  H317  1  0.23350000  0.72440000  0.34590000  1.0 0.2512940233
H  H318  1  0.27560000  0.76650000  0.65410000  1.0 0.2512940233
H  H319  1  0.37850000  0.49090000  0.72440000  1.0 0.2512940233
H  H320  1  0.72440000  0.37850000  0.49090000  1.0 0.2512940233
H  H321  1  0.76650000  0.11240000  0.49090000  1.0 0.2512940233
H  H322  1  0.49090000  0.76650000  0.11240000  1.0 0.2512940233
H  H323  1  0.11240000  0.62150000  0.34590000  1.0 0.2512940233
H  H324  1  0.76650000  0.65410000  0.27560000  1.0 0.2512940233
H  H325  1  0.34590000  0.23350000  0.72440000  1.0 0.2512940233
H  H326  1  0.62150000  0.34590000  0.11240000  1.0 0.2512940233
H  H327  1  0.50910000  0.62150000  0.27560000  1.0 0.2512940233
H  H328  1  0.23350000  0.50910000  0.88760000  1.0 0.2512940233
H  H329  1  0.88760000  0.65410000  0.37850000  1.0 0.2512940233
H  H330  1  0.65410000  0.27560000  0.76650000  1.0 0.2512940233
H  H331  1  0.49090000  0.72440000  0.37850000  1.0 0.2512940233
H  H332  1  0.11240000  0.49090000  0.76650000  1.0 0.2512940233
H  H333  1  0.34590000  0.11240000  0.62150000  1.0 0.2512940233
H  H334  1  0.72440000  0.34590000  0.23350000  1.0 0.2512940233
H  H335  1  0.27560000  0.50910000  0.62150000  1.0 0.2512940233
H  H336  1  0.50910000  0.88760000  0.23350000  1.0 0.2512940233
H  H337  1  0.44070000  0.85390000  0.61640000  1.0 0.0905127921
H  H338  1  0.85390000  0.23750000  0.41320000  1.0 0.0905127921
H  H339  1  0.55930000  0.17570000  0.41320000  1.0 0.0905127921
H  H340  1  0.61640000  0.44070000  0.85390000  1.0 0.0905127921
H  H341  1  0.23750000  0.82430000  0.38360000  1.0 0.0905127921
H  H342  1  0.17570000  0.76250000  0.61640000  1.0 0.0905127921
H  H343  1  0.44070000  0.58680000  0.82430000  1.0 0.0905127921
H  H344  1  0.82430000  0.44070000  0.58680000  1.0 0.0905127921
H  H345  1  0.76250000  0.14610000  0.58680000  1.0 0.0905127921
H  H346  1  0.58680000  0.76250000  0.14610000  1.0 0.0905127921
H  H347  1  0.14610000  0.55930000  0.38360000  1.0 0.0905127921
H  H348  1  0.76250000  0.61640000  0.17570000  1.0 0.0905127921
H  H349  1  0.38360000  0.23750000  0.82430000  1.0 0.0905127921
H  H350  1  0.55930000  0.38360000  0.14610000  1.0 0.0905127921
H  H351  1  0.41320000  0.55930000  0.17570000  1.0 0.0905127921
H  H352  1  0.23750000  0.41320000  0.85390000  1.0 0.0905127921
H  H353  1  0.85390000  0.61640000  0.44070000  1.0 0.0905127921
H  H354  1  0.61640000  0.17570000  0.76250000  1.0 0.0905127921
H  H355  1  0.58680000  0.82430000  0.44070000  1.0 0.0905127921
H  H356  1  0.14610000  0.58680000  0.76250000  1.0 0.0905127921
H  H357  1  0.38360000  0.14610000  0.55930000  1.0 0.0905127921
H  H358  1  0.82430000  0.38360000  0.23750000  1.0 0.0905127921
H  H359  1  0.17570000  0.41320000  0.55930000  1.0 0.0905127921
H  H360  1  0.41320000  0.85390000  0.23750000  1.0 0.0905127921
H  H361  1  0.41520000  0.83370000  0.70630000  1.0 0.0991096649
H  H362  1  0.83370000  0.12740000  0.41850000  1.0 0.0991096649
H  H363  1  0.58480000  0.29110000  0.41850000  1.0 0.0991096649
H  H364  1  0.70630000  0.41520000  0.83370000  1.0 0.0991096649
H  H365  1  0.12740000  0.70890000  0.29370000  1.0 0.0991096649
H  H366  1  0.29110000  0.87260000  0.70630000  1.0 0.0991096649
H  H367  1  0.41520000  0.58150000  0.70890000  1.0 0.0991096649
H  H368  1  0.70890000  0.41520000  0.58150000  1.0 0.0991096649
H  H369  1  0.87260000  0.16630000  0.58150000  1.0 0.0991096649
H  H370  1  0.58150000  0.87260000  0.16630000  1.0 0.0991096649
H  H371  1  0.16630000  0.58480000  0.29370000  1.0 0.0991096649
H  H372  1  0.87260000  0.70630000  0.29110000  1.0 0.0991096649
H  H373  1  0.29370000  0.12740000  0.70890000  1.0 0.0991096649
H  H374  1  0.58480000  0.29370000  0.16630000  1.0 0.0991096649
H  H375  1  0.41850000  0.58480000  0.29110000  1.0 0.0991096649
H  H376  1  0.12740000  0.41850000  0.83370000  1.0 0.0991096649
H  H377  1  0.83370000  0.70630000  0.41520000  1.0 0.0991096649
H  H378  1  0.70630000  0.29110000  0.87260000  1.0 0.0991096649
H  H379  1  0.58150000  0.70890000  0.41520000  1.0 0.0991096649
H  H380  1  0.16630000  0.58150000  0.87260000  1.0 0.0991096649
H  H381  1  0.29370000  0.16630000  0.58480000  1.0 0.0991096649
H  H382  1  0.70890000  0.29370000  0.12740000  1.0 0.0991096649
H  H383  1  0.29110000  0.41850000  0.58480000  1.0 0.0991096649
H  H384  1  0.41850000  0.83370000  0.12740000  1.0 0.0991096649
H  H385  1  0.52000000  0.84750000  0.69410000  1.0 0.0905127921
H  H386  1  0.84750000  0.15340000  0.32750000  1.0 0.0905127921
H  H387  1  0.48000000  0.17410000  0.32750000  1.0 0.0905127921
H  H388  1  0.69410000  0.52000000  0.84750000  1.0 0.0905127921
H  H389  1  0.15340000  0.82590000  0.30590000  1.0 0.0905127921
H  H390  1  0.17410000  0.84660000  0.69410000  1.0 0.0905127921
H  H391  1  0.52000000  0.67250000  0.82590000  1.0 0.0905127921
H  H392  1  0.82590000  0.52000000  0.67250000  1.0 0.0905127921
H  H393  1  0.84660000  0.15250000  0.67250000  1.0 0.0905127921
H  H394  1  0.67250000  0.84660000  0.15250000  1.0 0.0905127921
H  H395  1  0.15250000  0.48000000  0.30590000  1.0 0.0905127921
H  H396  1  0.84660000  0.69410000  0.17410000  1.0 0.0905127921
H  H397  1  0.30590000  0.15340000  0.82590000  1.0 0.0905127921
H  H398  1  0.48000000  0.30590000  0.15250000  1.0 0.0905127921
H  H399  1  0.32750000  0.48000000  0.17410000  1.0 0.0905127921
H  H400  1  0.15340000  0.32750000  0.84750000  1.0 0.0905127921
H  H401  1  0.84750000  0.69410000  0.52000000  1.0 0.0905127921
H  H402  1  0.69410000  0.17410000  0.84660000  1.0 0.0905127921
H  H403  1  0.67250000  0.82590000  0.52000000  1.0 0.0905127921
H  H404  1  0.15250000  0.67250000  0.84660000  1.0 0.0905127921
H  H405  1  0.30590000  0.15250000  0.48000000  1.0 0.0905127921
H  H406  1  0.82590000  0.30590000  0.15340000  1.0 0.0905127921
H  H407  1  0.17410000  0.32750000  0.48000000  1.0 0.0905127921
H  H408  1  0.32750000  0.84750000  0.15340000  1.0 0.0905127921
H  H409  1  0.49950000  0.82430000  0.82460000  1.0 0.2620484024
H  H410  1  0.82430000  0.99970000  0.32480000  1.0 0.2620484024
H  H411  1  0.50050000  0.32510000  0.32480000  1.0 0.2620484024
H  H412  1  0.82460000  0.49950000  0.82430000  1.0 0.2620484024
H  H413  1  0.99970000  0.67490000  0.17540000  1.0 0.2620484024
H  H414  1  0.32510000  0.00030000  0.82460000  1.0 0.2620484024
H  H415  1  0.49950000  0.67520000  0.67490000  1.0 0.2620484024
H  H416  1  0.67490000  0.49950000  0.67520000  1.0 0.2620484024
H  H417  1  0.00030000  0.17570000  0.67520000  1.0 0.2620484024
H  H418  1  0.67520000  0.00030000  0.17570000  1.0 0.2620484024
H  H419  1  0.17570000  0.50050000  0.17540000  1.0 0.2620484024
H  H420  1  0.00030000  0.82460000  0.32510000  1.0 0.2620484024
H  H421  1  0.17540000  0.99970000  0.67490000  1.0 0.2620484024
H  H422  1  0.50050000  0.17540000  0.17570000  1.0 0.2620484024
H  H423  1  0.32480000  0.50050000  0.32510000  1.0 0.2620484024
H  H424  1  0.99970000  0.32480000  0.82430000  1.0 0.2620484024
H  H425  1  0.82430000  0.82460000  0.49950000  1.0 0.2620484024
H  H426  1  0.82460000  0.32510000  0.00030000  1.0 0.2620484024
H  H427  1  0.67520000  0.67490000  0.49950000  1.0 0.2620484024
H  H428  1  0.17570000  0.67520000  0.00030000  1.0 0.2620484024
H  H429  1  0.17540000  0.17570000  0.50050000  1.0 0.2620484024
H  H430  1  0.67490000  0.17540000  0.99970000  1.0 0.2620484024
H  H431  1  0.32510000  0.32480000  0.50050000  1.0 0.2620484024
H  H432  1  0.32480000  0.82430000  0.99970000  1.0 0.2620484024
H  H433  1  0.54700000  0.81980000  0.76920000  1.0 0.0905127921
H  H434  1  0.81980000  0.05060000  0.27280000  1.0 0.0905127921
H  H435  1  0.45300000  0.22220000  0.27280000  1.0 0.0905127921
H  H436  1  0.76920000  0.54700000  0.81980000  1.0 0.0905127921
H  H437  1  0.05060000  0.77780000  0.23080000  1.0 0.0905127921
H  H438  1  0.22220000  0.94940000  0.76920000  1.0 0.0905127921
H  H439  1  0.54700000  0.72720000  0.77780000  1.0 0.0905127921
H  H440  1  0.77780000  0.54700000  0.72720000  1.0 0.0905127921
H  H441  1  0.94940000  0.18020000  0.72720000  1.0 0.0905127921
H  H442  1  0.72720000  0.94940000  0.18020000  1.0 0.0905127921
H  H443  1  0.18020000  0.45300000  0.23080000  1.0 0.0905127921
H  H444  1  0.94940000  0.76920000  0.22220000  1.0 0.0905127921
H  H445  1  0.23080000  0.05060000  0.77780000  1.0 0.0905127921
H  H446  1  0.45300000  0.23080000  0.18020000  1.0 0.0905127921
H  H447  1  0.27280000  0.45300000  0.22220000  1.0 0.0905127921
H  H448  1  0.05060000  0.27280000  0.81980000  1.0 0.0905127921
H  H449  1  0.81980000  0.76920000  0.54700000  1.0 0.0905127921
H  H450  1  0.76920000  0.22220000  0.94940000  1.0 0.0905127921
H  H451  1  0.72720000  0.77780000  0.54700000  1.0 0.0905127921
H  H452  1  0.18020000  0.72720000  0.94940000  1.0 0.0905127921
H  H453  1  0.23080000  0.18020000  0.45300000  1.0 0.0905127921
H  H454  1  0.77780000  0.23080000  0.05060000  1.0 0.0905127921
H  H455  1  0.22220000  0.27280000  0.45300000  1.0 0.0905127921
H  H456  1  0.27280000  0.81980000  0.05060000  1.0 0.0905127921
H  H457  1  0.54810000  0.88340000  0.79590000  1.0 0.0991096649
H  H458  1  0.88340000  0.08750000  0.33530000  1.0 0.0991096649
H  H459  1  0.45190000  0.24780000  0.33530000  1.0 0.0991096649
H  H460  1  0.79590000  0.54810000  0.88340000  1.0 0.0991096649
H  H461  1  0.08750000  0.75220000  0.20410000  1.0 0.0991096649
H  H462  1  0.24780000  0.91250000  0.79590000  1.0 0.0991096649
H  H463  1  0.54810000  0.66470000  0.75220000  1.0 0.0991096649
H  H464  1  0.75220000  0.54810000  0.66470000  1.0 0.0991096649
H  H465  1  0.91250000  0.11660000  0.66470000  1.0 0.0991096649
H  H466  1  0.66470000  0.91250000  0.11660000  1.0 0.0991096649
H  H467  1  0.11660000  0.45190000  0.20410000  1.0 0.0991096649
H  H468  1  0.91250000  0.79590000  0.24780000  1.0 0.0991096649
H  H469  1  0.20410000  0.08750000  0.75220000  1.0 0.0991096649
H  H470  1  0.45190000  0.20410000  0.11660000  1.0 0.0991096649
H  H471  1  0.33530000  0.45190000  0.24780000  1.0 0.0991096649
H  H472  1  0.08750000  0.33530000  0.88340000  1.0 0.0991096649
H  H473  1  0.88340000  0.79590000  0.54810000  1.0 0.0991096649
H  H474  1  0.79590000  0.24780000  0.91250000  1.0 0.0991096649
H  H475  1  0.66470000  0.75220000  0.54810000  1.0 0.0991096649
H  H476  1  0.11660000  0.66470000  0.91250000  1.0 0.0991096649
H  H477  1  0.20410000  0.11660000  0.45190000  1.0 0.0991096649
H  H478  1  0.75220000  0.20410000  0.08750000  1.0 0.0991096649
H  H479  1  0.24780000  0.33530000  0.45190000  1.0 0.0991096649
H  H480  1  0.33530000  0.88340000  0.08750000  1.0 0.0991096649
C  C1  1  0.52860000  0.69220000  0.47180000  1.0 0.1859277937
C  C2  1  0.69220000  0.22040000  0.16360000  1.0 0.1859277937
C  C3  1  0.47140000  0.94320000  0.16360000  1.0 0.1859277937
C  C4  1  0.47180000  0.52860000  0.69220000  1.0 0.1859277937
C  C5  1  0.22040000  0.05680000  0.52820000  1.0 0.1859277937
C  C6  1  0.94320000  0.77960000  0.47180000  1.0 0.1859277937
C  C7  1  0.52860000  0.83640000  0.05680000  1.0 0.1859277937
C  C8  1  0.05680000  0.52860000  0.83640000  1.0 0.1859277937
C  C9  1  0.77960000  0.30780000  0.83640000  1.0 0.1859277937
C  C10  1  0.83640000  0.77960000  0.30780000  1.0 0.1859277937
C  C11  1  0.30780000  0.47140000  0.52820000  1.0 0.1859277937
C  C12  1  0.77960000  0.47180000  0.94320000  1.0 0.1859277937
C  C13  1  0.52820000  0.22040000  0.05680000  1.0 0.1859277937
C  C14  1  0.47140000  0.52820000  0.30780000  1.0 0.1859277937
C  C15  1  0.16360000  0.47140000  0.94320000  1.0 0.1859277937
C  C16  1  0.22040000  0.16360000  0.69220000  1.0 0.1859277937
C  C17  1  0.69220000  0.47180000  0.52860000  1.0 0.1859277937
C  C18  1  0.47180000  0.94320000  0.77960000  1.0 0.1859277937
C  C19  1  0.83640000  0.05680000  0.52860000  1.0 0.1859277937
C  C20  1  0.30780000  0.83640000  0.77960000  1.0 0.1859277937
C  C21  1  0.52820000  0.30780000  0.47140000  1.0 0.1859277937
C  C22  1  0.05680000  0.52820000  0.22040000  1.0 0.1859277937
C  C23  1  0.94320000  0.16360000  0.47140000  1.0 0.1859277937
C  C24  1  0.16360000  0.69220000  0.22040000  1.0 0.1859277937
C  C25  1  0.46160000  0.67050000  0.44030000  1.0 0.0177542912
C  C26  1  0.67050000  0.23020000  0.20890000  1.0 0.0177542912
C  C27  1  0.53840000  0.97870000  0.20890000  1.0 0.0177542912
C  C28  1  0.44030000  0.46160000  0.67050000  1.0 0.0177542912
C  C29  1  0.23020000  0.02130000  0.55970000  1.0 0.0177542912
C  C30  1  0.97870000  0.76980000  0.44030000  1.0 0.0177542912
C  C31  1  0.46160000  0.79110000  0.02130000  1.0 0.0177542912
C  C32  1  0.02130000  0.46160000  0.79110000  1.0 0.0177542912
C  C33  1  0.76980000  0.32950000  0.79110000  1.0 0.0177542912
C  C34  1  0.79110000  0.76980000  0.32950000  1.0 0.0177542912
C  C35  1  0.32950000  0.53840000  0.55970000  1.0 0.0177542912
C  C36  1  0.76980000  0.44030000  0.97870000  1.0 0.0177542912
C  C37  1  0.55970000  0.23020000  0.02130000  1.0 0.0177542912
C  C38  1  0.53840000  0.55970000  0.32950000  1.0 0.0177542912
C  C39  1  0.20890000  0.53840000  0.97870000  1.0 0.0177542912
C  C40  1  0.23020000  0.20890000  0.67050000  1.0 0.0177542912
C  C41  1  0.67050000  0.44030000  0.46160000  1.0 0.0177542912
C  C42  1  0.44030000  0.97870000  0.76980000  1.0 0.0177542912
C  C43  1  0.79110000  0.02130000  0.46160000  1.0 0.0177542912
C  C44  1  0.32950000  0.79110000  0.76980000  1.0 0.0177542912
C  C45  1  0.55970000  0.32950000  0.53840000  1.0 0.0177542912
C  C46  1  0.02130000  0.55970000  0.23020000  1.0 0.0177542912
C  C47  1  0.97870000  0.20890000  0.53840000  1.0 0.0177542912
C  C48  1  0.20890000  0.67050000  0.23020000  1.0 0.0177542912
C  C49  1  0.44850000  0.71270000  0.47860000  1.0 0.0812232637
C  C50  1  0.71270000  0.23410000  0.26420000  1.0 0.0812232637
C  C51  1  0.55150000  0.03010000  0.26420000  1.0 0.0812232637
C  C52  1  0.47860000  0.44850000  0.71270000  1.0 0.0812232637
C  C53  1  0.23410000  0.96990000  0.52140000  1.0 0.0812232637
C  C54  1  0.03010000  0.76590000  0.47860000  1.0 0.0812232637
C  C55  1  0.44850000  0.73580000  0.96990000  1.0 0.0812232637
C  C56  1  0.96990000  0.44850000  0.73580000  1.0 0.0812232637
C  C57  1  0.76590000  0.28730000  0.73580000  1.0 0.0812232637
C  C58  1  0.73580000  0.76590000  0.28730000  1.0 0.0812232637
C  C59  1  0.28730000  0.55150000  0.52140000  1.0 0.0812232637
C  C60  1  0.76590000  0.47860000  0.03010000  1.0 0.0812232637
C  C61  1  0.52140000  0.23410000  0.96990000  1.0 0.0812232637
C  C62  1  0.55150000  0.52140000  0.28730000  1.0 0.0812232637
C  C63  1  0.26420000  0.55150000  0.03010000  1.0 0.0812232637
C  C64  1  0.23410000  0.26420000  0.71270000  1.0 0.0812232637
C  C65  1  0.71270000  0.47860000  0.44850000  1.0 0.0812232637
C  C66  1  0.47860000  0.03010000  0.76590000  1.0 0.0812232637
C  C67  1  0.73580000  0.96990000  0.44850000  1.0 0.0812232637
C  C68  1  0.28730000  0.73580000  0.76590000  1.0 0.0812232637
C  C69  1  0.52140000  0.28730000  0.55150000  1.0 0.0812232637
C  C70  1  0.96990000  0.52140000  0.23410000  1.0 0.0812232637
C  C71  1  0.03010000  0.26420000  0.55150000  1.0 0.0812232637
C  C72  1  0.26420000  0.71270000  0.23410000  1.0 0.0812232637
C  C73  1  0.47330000  0.72030000  0.54300000  1.0 0.0321441792
C  C74  1  0.72030000  0.17730000  0.24700000  1.0 0.0321441792
C  C75  1  0.52670000  0.06970000  0.24700000  1.0 0.0321441792
C  C76  1  0.54300000  0.47330000  0.72030000  1.0 0.0321441792
C  C77  1  0.17730000  0.93030000  0.45700000  1.0 0.0321441792
C  C78  1  0.06970000  0.82270000  0.54300000  1.0 0.0321441792
C  C79  1  0.47330000  0.75300000  0.93030000  1.0 0.0321441792
C  C80  1  0.93030000  0.47330000  0.75300000  1.0 0.0321441792
C  C81  1  0.82270000  0.27970000  0.75300000  1.0 0.0321441792
C  C82  1  0.75300000  0.82270000  0.27970000  1.0 0.0321441792
C  C83  1  0.27970000  0.52670000  0.45700000  1.0 0.0321441792
C  C84  1  0.82270000  0.54300000  0.06970000  1.0 0.0321441792
C  C85  1  0.45700000  0.17730000  0.93030000  1.0 0.0321441792
C  C86  1  0.52670000  0.45700000  0.27970000  1.0 0.0321441792
C  C87  1  0.24700000  0.52670000  0.06970000  1.0 0.0321441792
C  C88  1  0.17730000  0.24700000  0.72030000  1.0 0.0321441792
C  C89  1  0.72030000  0.54300000  0.47330000  1.0 0.0321441792
C  C90  1  0.54300000  0.06970000  0.82270000  1.0 0.0321441792
C  C91  1  0.75300000  0.93030000  0.47330000  1.0 0.0321441792
C  C92  1  0.27970000  0.75300000  0.82270000  1.0 0.0321441792
C  C93  1  0.45700000  0.27970000  0.52670000  1.0 0.0321441792
C  C94  1  0.93030000  0.45700000  0.17730000  1.0 0.0321441792
C  C95  1  0.06970000  0.24700000  0.52670000  1.0 0.0321441792
C  C96  1  0.24700000  0.72030000  0.17730000  1.0 0.0321441792
C  C97  1  0.54130000  0.74050000  0.57060000  1.0 0.0812232637
C  C98  1  0.74050000  0.16990000  0.19920000  1.0 0.0812232637
C  C99  1  0.45870000  0.02930000  0.19920000  1.0 0.0812232637
C  C100  1  0.57060000  0.54130000  0.74050000  1.0 0.0812232637
C  C101  1  0.16990000  0.97070000  0.42940000  1.0 0.0812232637
C  C102  1  0.02930000  0.83010000  0.57060000  1.0 0.0812232637
C  C103  1  0.54130000  0.80080000  0.97070000  1.0 0.0812232637
C  C104  1  0.97070000  0.54130000  0.80080000  1.0 0.0812232637
C  C105  1  0.83010000  0.25950000  0.80080000  1.0 0.0812232637
C  C106  1  0.80080000  0.83010000  0.25950000  1.0 0.0812232637
C  C107  1  0.25950000  0.45870000  0.42940000  1.0 0.0812232637
C  C108  1  0.83010000  0.57060000  0.02930000  1.0 0.0812232637
C  C109  1  0.42940000  0.16990000  0.97070000  1.0 0.0812232637
C  C110  1  0.45870000  0.42940000  0.25950000  1.0 0.0812232637
C  C111  1  0.19920000  0.45870000  0.02930000  1.0 0.0812232637
C  C112  1  0.16990000  0.19920000  0.74050000  1.0 0.0812232637
C  C113  1  0.74050000  0.57060000  0.54130000  1.0 0.0812232637
C  C114  1  0.57060000  0.02930000  0.83010000  1.0 0.0812232637
C  C115  1  0.80080000  0.97070000  0.54130000  1.0 0.0812232637
C  C116  1  0.25950000  0.80080000  0.83010000  1.0 0.0812232637
C  C117  1  0.42940000  0.25950000  0.45870000  1.0 0.0812232637
C  C118  1  0.97070000  0.42940000  0.16990000  1.0 0.0812232637
C  C119  1  0.02930000  0.19920000  0.45870000  1.0 0.0812232637
C  C120  1  0.19920000  0.74050000  0.16990000  1.0 0.0812232637
C  C121  1  0.56620000  0.74030000  0.63010000  1.0 -0.0567553323
C  C122  1  0.74030000  0.11020000  0.17410000  1.0 -0.0567553323
C  C123  1  0.43380000  0.06390000  0.17410000  1.0 -0.0567553323
C  C124  1  0.63010000  0.56620000  0.74030000  1.0 -0.0567553323
C  C125  1  0.11020000  0.93610000  0.36990000  1.0 -0.0567553323
C  C126  1  0.06390000  0.88980000  0.63010000  1.0 -0.0567553323
C  C127  1  0.56620000  0.82590000  0.93610000  1.0 -0.0567553323
C  C128  1  0.93610000  0.56620000  0.82590000  1.0 -0.0567553323
C  C129  1  0.88980000  0.25970000  0.82590000  1.0 -0.0567553323
C  C130  1  0.82590000  0.88980000  0.25970000  1.0 -0.0567553323
C  C131  1  0.25970000  0.43380000  0.36990000  1.0 -0.0567553323
C  C132  1  0.88980000  0.63010000  0.06390000  1.0 -0.0567553323
C  C133  1  0.36990000  0.11020000  0.93610000  1.0 -0.0567553323
C  C134  1  0.43380000  0.36990000  0.25970000  1.0 -0.0567553323
C  C135  1  0.17410000  0.43380000  0.06390000  1.0 -0.0567553323
C  C136  1  0.11020000  0.17410000  0.74030000  1.0 -0.0567553323
C  C137  1  0.74030000  0.63010000  0.56620000  1.0 -0.0567553323
C  C138  1  0.63010000  0.06390000  0.88980000  1.0 -0.0567553323
C  C139  1  0.82590000  0.93610000  0.56620000  1.0 -0.0567553323
C  C140  1  0.25970000  0.82590000  0.88980000  1.0 -0.0567553323
C  C141  1  0.36990000  0.25970000  0.43380000  1.0 -0.0567553323
C  C142  1  0.93610000  0.36990000  0.11020000  1.0 -0.0567553323
C  C143  1  0.06390000  0.17410000  0.43380000  1.0 -0.0567553323
C  C144  1  0.17410000  0.74030000  0.11020000  1.0 -0.0567553323
C  C145  1  0.42510000  0.74430000  0.60020000  1.0 0.1494776957
C  C146  1  0.74430000  0.14410000  0.31920000  1.0 0.1494776957
C  C147  1  0.57490000  0.17510000  0.31920000  1.0 0.1494776957
C  C148  1  0.60020000  0.42510000  0.74430000  1.0 0.1494776957
C  C149  1  0.14410000  0.82490000  0.39980000  1.0 0.1494776957
C  C150  1  0.17510000  0.85590000  0.60020000  1.0 0.1494776957
C  C151  1  0.42510000  0.68080000  0.82490000  1.0 0.1494776957
C  C152  1  0.82490000  0.42510000  0.68080000  1.0 0.1494776957
C  C153  1  0.85590000  0.25570000  0.68080000  1.0 0.1494776957
C  C154  1  0.68080000  0.85590000  0.25570000  1.0 0.1494776957
C  C155  1  0.25570000  0.57490000  0.39980000  1.0 0.1494776957
C  C156  1  0.85590000  0.60020000  0.17510000  1.0 0.1494776957
C  C157  1  0.39980000  0.14410000  0.82490000  1.0 0.1494776957
C  C158  1  0.57490000  0.39980000  0.25570000  1.0 0.1494776957
C  C159  1  0.31920000  0.57490000  0.17510000  1.0 0.1494776957
C  C160  1  0.14410000  0.31920000  0.74430000  1.0 0.1494776957
C  C161  1  0.74430000  0.60020000  0.42510000  1.0 0.1494776957
C  C162  1  0.60020000  0.17510000  0.85590000  1.0 0.1494776957
C  C163  1  0.68080000  0.82490000  0.42510000  1.0 0.1494776957
C  C164  1  0.25570000  0.68080000  0.85590000  1.0 0.1494776957
C  C165  1  0.39980000  0.25570000  0.57490000  1.0 0.1494776957
C  C166  1  0.82490000  0.39980000  0.14410000  1.0 0.1494776957
C  C167  1  0.17510000  0.31920000  0.57490000  1.0 0.1494776957
C  C168  1  0.31920000  0.74430000  0.14410000  1.0 0.1494776957
C  C169  1  0.38240000  0.76610000  0.58790000  1.0 0.035602111
C  C170  1  0.76610000  0.17820000  0.38370000  1.0 0.035602111
C  C171  1  0.61760000  0.20550000  0.38370000  1.0 0.035602111
C  C172  1  0.58790000  0.38240000  0.76610000  1.0 0.035602111
C  C173  1  0.17820000  0.79450000  0.41210000  1.0 0.035602111
C  C174  1  0.20550000  0.82180000  0.58790000  1.0 0.035602111
C  C175  1  0.38240000  0.61630000  0.79450000  1.0 0.035602111
C  C176  1  0.79450000  0.38240000  0.61630000  1.0 0.035602111
C  C177  1  0.82180000  0.23390000  0.61630000  1.0 0.035602111
C  C178  1  0.61630000  0.82180000  0.23390000  1.0 0.035602111
C  C179  1  0.23390000  0.61760000  0.41210000  1.0 0.035602111
C  C180  1  0.82180000  0.58790000  0.20550000  1.0 0.035602111
C  C181  1  0.41210000  0.17820000  0.79450000  1.0 0.035602111
C  C182  1  0.61760000  0.41210000  0.23390000  1.0 0.035602111
C  C183  1  0.38370000  0.61760000  0.20550000  1.0 0.035602111
C  C184  1  0.17820000  0.38370000  0.76610000  1.0 0.035602111
C  C185  1  0.76610000  0.58790000  0.38240000  1.0 0.035602111
C  C186  1  0.58790000  0.20550000  0.82180000  1.0 0.035602111
C  C187  1  0.61630000  0.79450000  0.38240000  1.0 0.035602111
C  C188  1  0.23390000  0.61630000  0.82180000  1.0 0.035602111
C  C189  1  0.41210000  0.23390000  0.61760000  1.0 0.035602111
C  C190  1  0.79450000  0.41210000  0.17820000  1.0 0.035602111
C  C191  1  0.20550000  0.38370000  0.61760000  1.0 0.035602111
C  C192  1  0.38370000  0.76610000  0.17820000  1.0 0.035602111
C  C193  1  0.41110000  0.83260000  0.62690000  1.0 0.0991096649
C  C194  1  0.83260000  0.20570000  0.42150000  1.0 0.0991096649
C  C195  1  0.58890000  0.21580000  0.42150000  1.0 0.0991096649
C  C196  1  0.62690000  0.41110000  0.83260000  1.0 0.0991096649
C  C197  1  0.20570000  0.78420000  0.37310000  1.0 0.0991096649
C  C198  1  0.21580000  0.79430000  0.62690000  1.0 0.0991096649
C  C199  1  0.41110000  0.57850000  0.78420000  1.0 0.0991096649
C  C200  1  0.78420000  0.41110000  0.57850000  1.0 0.0991096649
C  C201  1  0.79430000  0.16740000  0.57850000  1.0 0.0991096649
C  C202  1  0.57850000  0.79430000  0.16740000  1.0 0.0991096649
C  C203  1  0.16740000  0.58890000  0.37310000  1.0 0.0991096649
C  C204  1  0.79430000  0.62690000  0.21580000  1.0 0.0991096649
C  C205  1  0.37310000  0.20570000  0.78420000  1.0 0.0991096649
C  C206  1  0.58890000  0.37310000  0.16740000  1.0 0.0991096649
C  C207  1  0.42150000  0.58890000  0.21580000  1.0 0.0991096649
C  C208  1  0.20570000  0.42150000  0.83260000  1.0 0.0991096649
C  C209  1  0.83260000  0.62690000  0.41110000  1.0 0.0991096649
C  C210  1  0.62690000  0.21580000  0.79430000  1.0 0.0991096649
C  C211  1  0.57850000  0.78420000  0.41110000  1.0 0.0991096649
C  C212  1  0.16740000  0.57850000  0.79430000  1.0 0.0991096649
C  C213  1  0.37310000  0.16740000  0.58890000  1.0 0.0991096649
C  C214  1  0.78420000  0.37310000  0.20570000  1.0 0.0991096649
C  C215  1  0.21580000  0.42150000  0.58890000  1.0 0.0991096649
C  C216  1  0.42150000  0.83260000  0.20570000  1.0 0.0991096649
C  C217  1  0.44510000  0.85090000  0.69400000  1.0 0.0013650644
C  C218  1  0.85090000  0.15690000  0.40580000  1.0 0.0013650644
C  C219  1  0.55490000  0.24890000  0.40580000  1.0 0.0013650644
C  C220  1  0.69400000  0.44510000  0.85090000  1.0 0.0013650644
C  C221  1  0.15690000  0.75110000  0.30600000  1.0 0.0013650644
C  C222  1  0.24890000  0.84310000  0.69400000  1.0 0.0013650644
C  C223  1  0.44510000  0.59420000  0.75110000  1.0 0.0013650644
C  C224  1  0.75110000  0.44510000  0.59420000  1.0 0.0013650644
C  C225  1  0.84310000  0.14910000  0.59420000  1.0 0.0013650644
C  C226  1  0.59420000  0.84310000  0.14910000  1.0 0.0013650644
C  C227  1  0.14910000  0.55490000  0.30600000  1.0 0.0013650644
C  C228  1  0.84310000  0.69400000  0.24890000  1.0 0.0013650644
C  C229  1  0.30600000  0.15690000  0.75110000  1.0 0.0013650644
C  C230  1  0.55490000  0.30600000  0.14910000  1.0 0.0013650644
C  C231  1  0.40580000  0.55490000  0.24890000  1.0 0.0013650644
C  C232  1  0.15690000  0.40580000  0.85090000  1.0 0.0013650644
C  C233  1  0.85090000  0.69400000  0.44510000  1.0 0.0013650644
C  C234  1  0.69400000  0.24890000  0.84310000  1.0 0.0013650644
C  C235  1  0.59420000  0.75110000  0.44510000  1.0 0.0013650644
C  C236  1  0.14910000  0.59420000  0.84310000  1.0 0.0013650644
C  C237  1  0.30600000  0.14910000  0.55490000  1.0 0.0013650644
C  C238  1  0.75110000  0.30600000  0.15690000  1.0 0.0013650644
C  C239  1  0.24890000  0.40580000  0.55490000  1.0 0.0013650644
C  C240  1  0.40580000  0.85090000  0.15690000  1.0 0.0013650644
C  C241  1  0.48900000  0.82780000  0.70400000  1.0 0.0737983202
C  C242  1  0.82780000  0.12380000  0.33880000  1.0 0.0737983202
C  C243  1  0.51100000  0.21500000  0.33880000  1.0 0.0737983202
C  C244  1  0.70400000  0.48900000  0.82780000  1.0 0.0737983202
C  C245  1  0.12380000  0.78500000  0.29600000  1.0 0.0737983202
C  C246  1  0.21500000  0.87620000  0.70400000  1.0 0.0737983202
C  C247  1  0.48900000  0.66120000  0.78500000  1.0 0.0737983202
C  C248  1  0.78500000  0.48900000  0.66120000  1.0 0.0737983202
C  C249  1  0.87620000  0.17220000  0.66120000  1.0 0.0737983202
C  C250  1  0.66120000  0.87620000  0.17220000  1.0 0.0737983202
C  C251  1  0.17220000  0.51100000  0.29600000  1.0 0.0737983202
C  C252  1  0.87620000  0.70400000  0.21500000  1.0 0.0737983202
C  C253  1  0.29600000  0.12380000  0.78500000  1.0 0.0737983202
C  C254  1  0.51100000  0.29600000  0.17220000  1.0 0.0737983202
C  C255  1  0.33880000  0.51100000  0.21500000  1.0 0.0737983202
C  C256  1  0.12380000  0.33880000  0.82780000  1.0 0.0737983202
C  C257  1  0.82780000  0.70400000  0.48900000  1.0 0.0737983202
C  C258  1  0.70400000  0.21500000  0.87620000  1.0 0.0737983202
C  C259  1  0.66120000  0.78500000  0.48900000  1.0 0.0737983202
C  C260  1  0.17220000  0.66120000  0.87620000  1.0 0.0737983202
C  C261  1  0.29600000  0.17220000  0.51100000  1.0 0.0737983202
C  C262  1  0.78500000  0.29600000  0.12380000  1.0 0.0737983202
C  C263  1  0.21500000  0.33880000  0.51100000  1.0 0.0737983202
C  C264  1  0.33880000  0.82780000  0.12380000  1.0 0.0737983202
C  C265  1  0.52130000  0.83910000  0.76700000  1.0 -0.0507558782
C  C266  1  0.83910000  0.07210000  0.31780000  1.0 -0.0507558782
C  C267  1  0.47870000  0.24570000  0.31780000  1.0 -0.0507558782
C  C268  1  0.76700000  0.52130000  0.83910000  1.0 -0.0507558782
C  C269  1  0.07210000  0.75430000  0.23300000  1.0 -0.0507558782
C  C270  1  0.24570000  0.92790000  0.76700000  1.0 -0.0507558782
C  C271  1  0.52130000  0.68220000  0.75430000  1.0 -0.0507558782
C  C272  1  0.75430000  0.52130000  0.68220000  1.0 -0.0507558782
C  C273  1  0.92790000  0.16090000  0.68220000  1.0 -0.0507558782
C  C274  1  0.68220000  0.92790000  0.16090000  1.0 -0.0507558782
C  C275  1  0.16090000  0.47870000  0.23300000  1.0 -0.0507558782
C  C276  1  0.92790000  0.76700000  0.24570000  1.0 -0.0507558782
C  C277  1  0.23300000  0.07210000  0.75430000  1.0 -0.0507558782
C  C278  1  0.47870000  0.23300000  0.16090000  1.0 -0.0507558782
C  C279  1  0.31780000  0.47870000  0.24570000  1.0 -0.0507558782
C  C280  1  0.07210000  0.31780000  0.83910000  1.0 -0.0507558782
C  C281  1  0.83910000  0.76700000  0.52130000  1.0 -0.0507558782
C  C282  1  0.76700000  0.24570000  0.92790000  1.0 -0.0507558782
C  C283  1  0.68220000  0.75430000  0.52130000  1.0 -0.0507558782
C  C284  1  0.16090000  0.68220000  0.92790000  1.0 -0.0507558782
C  C285  1  0.23300000  0.16090000  0.47870000  1.0 -0.0507558782
C  C286  1  0.75430000  0.23300000  0.07210000  1.0 -0.0507558782
C  C287  1  0.24570000  0.31780000  0.47870000  1.0 -0.0507558782
C  C288  1  0.31780000  0.83910000  0.07210000  1.0 -0.0507558782
O  O1  1  0.54980000  0.69690000  0.52990000  1.0 -0.2643329851
O  O2  1  0.69690000  0.16700000  0.14710000  1.0 -0.2643329851
O  O3  1  0.45020000  0.98010000  0.14710000  1.0 -0.2643329851
O  O4  1  0.52990000  0.54980000  0.69690000  1.0 -0.2643329851
O  O5  1  0.16700000  0.01990000  0.47010000  1.0 -0.2643329851
O  O6  1  0.98010000  0.83300000  0.52990000  1.0 -0.2643329851
O  O7  1  0.54980000  0.85290000  0.01990000  1.0 -0.2643329851
O  O8  1  0.01990000  0.54980000  0.85290000  1.0 -0.2643329851
O  O9  1  0.83300000  0.30310000  0.85290000  1.0 -0.2643329851
O  O10  1  0.85290000  0.83300000  0.30310000  1.0 -0.2643329851
O  O11  1  0.30310000  0.45020000  0.47010000  1.0 -0.2643329851
O  O12  1  0.83300000  0.52990000  0.98010000  1.0 -0.2643329851
O  O13  1  0.47010000  0.16700000  0.01990000  1.0 -0.2643329851
O  O14  1  0.45020000  0.47010000  0.30310000  1.0 -0.2643329851
O  O15  1  0.14710000  0.45020000  0.98010000  1.0 -0.2643329851
O  O16  1  0.16700000  0.14710000  0.69690000  1.0 -0.2643329851
O  O17  1  0.69690000  0.52990000  0.54980000  1.0 -0.2643329851
O  O18  1  0.52990000  0.98010000  0.83300000  1.0 -0.2651009073
O  O19  1  0.85290000  0.01990000  0.54980000  1.0 -0.2643329851
O  O20  1  0.30310000  0.85290000  0.83300000  1.0 -0.2651009073
O  O21  1  0.47010000  0.30310000  0.45020000  1.0 -0.2643329851
O  O22  1  0.01990000  0.47010000  0.16700000  1.0 -0.2651009073
O  O23  1  0.98010000  0.14710000  0.45020000  1.0 -0.2643329851
O  O24  1  0.14710000  0.69690000  0.16700000  1.0 -0.2643329851
O  O25  1  0.44140000  0.66520000  0.38220000  1.0 -0.5391453316
O  O26  1  0.66520000  0.28300000  0.22380000  1.0 -0.5391453316
O  O27  1  0.55860000  0.94080000  0.22380000  1.0 -0.5391453316
O  O28  1  0.38220000  0.44140000  0.66520000  1.0 -0.5391453316
O  O29  1  0.28300000  0.05920000  0.61780000  1.0 -0.5391453316
O  O30  1  0.94080000  0.71700000  0.38220000  1.0 -0.5391453316
O  O31  1  0.44140000  0.77620000  0.05920000  1.0 -0.5391453316
O  O32  1  0.05920000  0.44140000  0.77620000  1.0 -0.5391453316
O  O33  1  0.71700000  0.33480000  0.77620000  1.0 -0.5391453316
O  O34  1  0.77620000  0.71700000  0.33480000  1.0 -0.5391453316
O  O35  1  0.33480000  0.55860000  0.61780000  1.0 -0.5391453316
O  O36  1  0.71700000  0.38220000  0.94080000  1.0 -0.5391453316
O  O37  1  0.61780000  0.28300000  0.05920000  1.0 -0.5391453316
O  O38  1  0.55860000  0.61780000  0.33480000  1.0 -0.5391453316
O  O39  1  0.22380000  0.55860000  0.94080000  1.0 -0.5391453316
O  O40  1  0.28300000  0.22380000  0.66520000  1.0 -0.5391453316
O  O41  1  0.66520000  0.38220000  0.44140000  1.0 -0.5391453316
O  O42  1  0.38220000  0.94080000  0.71700000  1.0 -0.5391453316
O  O43  1  0.77620000  0.05920000  0.44140000  1.0 -0.5391453316
O  O44  1  0.33480000  0.77620000  0.71700000  1.0 -0.5391453316
O  O45  1  0.61780000  0.33480000  0.55860000  1.0 -0.5391453316
O  O46  1  0.05920000  0.61780000  0.28300000  1.0 -0.5391453316
O  O47  1  0.94080000  0.22380000  0.55860000  1.0 -0.5391453316
O  O48  1  0.22380000  0.66520000  0.28300000  1.0 -0.5391453316
O  O49  1  0.38450000  0.69070000  0.45180000  1.0 -0.5197081874
O  O50  1  0.69070000  0.23890000  0.30620000  1.0 -0.5197081874
O  O51  1  0.61550000  0.06730000  0.30620000  1.0 -0.5197081874
O  O52  1  0.45180000  0.38450000  0.69070000  1.0 -0.5197081874
O  O53  1  0.23890000  0.93270000  0.54820000  1.0 -0.5197081874
O  O54  1  0.06730000  0.76110000  0.45180000  1.0 -0.5197081874
O  O55  1  0.38450000  0.69380000  0.93270000  1.0 -0.5197081874
O  O56  1  0.93270000  0.38450000  0.69380000  1.0 -0.5197081874
O  O57  1  0.76110000  0.30930000  0.69380000  1.0 -0.5197081874
O  O58  1  0.69380000  0.76110000  0.30930000  1.0 -0.5197081874
O  O59  1  0.30930000  0.61550000  0.54820000  1.0 -0.5197081874
O  O60  1  0.76110000  0.45180000  0.06730000  1.0 -0.5197081874
O  O61  1  0.54820000  0.23890000  0.93270000  1.0 -0.5197081874
O  O62  1  0.61550000  0.54820000  0.30930000  1.0 -0.5197081874
O  O63  1  0.30620000  0.61550000  0.06730000  1.0 -0.5197081874
O  O64  1  0.23890000  0.30620000  0.69070000  1.0 -0.5197081874
O  O65  1  0.69070000  0.45180000  0.38450000  1.0 -0.5197081874
O  O66  1  0.45180000  0.06730000  0.76110000  1.0 -0.5197081874
O  O67  1  0.69380000  0.93270000  0.38450000  1.0 -0.5197081874
O  O68  1  0.30930000  0.69380000  0.76110000  1.0 -0.5197081874
O  O69  1  0.54820000  0.30930000  0.61550000  1.0 -0.5197081874
O  O70  1  0.93270000  0.54820000  0.23890000  1.0 -0.5197081874
O  O71  1  0.06730000  0.30620000  0.61550000  1.0 -0.5197081874
O  O72  1  0.30620000  0.69070000  0.23890000  1.0 -0.5197081874
O  O73  1  0.46661000  0.76511000  0.58170000  1.0 -0.2497286167
O  O74  1  0.76511000  0.18341000  0.29850000  1.0 -0.2497286167
O  O75  1  0.53339000  0.11509000  0.29850000  1.0 -0.2497286167
O  O76  1  0.58170000  0.46661000  0.76511000  1.0 -0.2497286167
O  O77  1  0.18341000  0.88491000  0.41830000  1.0 -0.2497286167
O  O78  1  0.11509000  0.81659000  0.58170000  1.0 -0.2497286167
O  O79  1  0.46661000  0.70150000  0.88491000  1.0 -0.2497286167
O  O80  1  0.88491000  0.46661000  0.70150000  1.0 -0.2497286167
O  O81  1  0.81659000  0.23489000  0.70150000  1.0 -0.2497286167
O  O82  1  0.70150000  0.81659000  0.23489000  1.0 -0.2497286167
O  O83  1  0.23489000  0.53339000  0.41830000  1.0 -0.2497286167
O  O84  1  0.81659000  0.58170000  0.11509000  1.0 -0.2497286167
O  O85  1  0.41830000  0.18341000  0.88491000  1.0 -0.2497286167
O  O86  1  0.53339000  0.41830000  0.23489000  1.0 -0.2497286167
O  O87  1  0.29850000  0.53339000  0.11509000  1.0 -0.2497286167
O  O88  1  0.18341000  0.29850000  0.76511000  1.0 -0.2497286167
O  O89  1  0.76511000  0.58170000  0.46661000  1.0 -0.2497286167
O  O90  1  0.58170000  0.11509000  0.81659000  1.0 -0.2497286167
O  O91  1  0.70150000  0.88491000  0.46661000  1.0 -0.2497286167
O  O92  1  0.23489000  0.70150000  0.81659000  1.0 -0.2497286167
O  O93  1  0.41830000  0.23489000  0.53339000  1.0 -0.2497286167
O  O94  1  0.88491000  0.41830000  0.18341000  1.0 -0.2497286167
O  O95  1  0.11509000  0.29850000  0.53339000  1.0 -0.2497286167
O  O96  1  0.29850000  0.76511000  0.18341000  1.0 -0.2497286167
O  O97  1  0.52930000  0.68020000  0.62370000  1.0 -0.4269063725
O  O98  1  0.68020000  0.05650000  0.15090000  1.0 -0.4269063725
O  O99  1  0.47070000  0.09440000  0.15090000  1.0 -0.4269063725
O  O100  1  0.62370000  0.52930000  0.68020000  1.0 -0.4269063725
O  O101  1  0.05650000  0.90560000  0.37630000  1.0 -0.4269063725
O  O102  1  0.09440000  0.94350000  0.62370000  1.0 -0.4269063725
O  O103  1  0.52930000  0.84910000  0.90560000  1.0 -0.4269063725
O  O104  1  0.90560000  0.52930000  0.84910000  1.0 -0.4269063725
O  O105  1  0.94350000  0.31980000  0.84910000  1.0 -0.4269063725
O  O106  1  0.84910000  0.94350000  0.31980000  1.0 -0.4269063725
O  O107  1  0.31980000  0.47070000  0.37630000  1.0 -0.4269063725
O  O108  1  0.94350000  0.62370000  0.09440000  1.0 -0.4246824195
O  O109  1  0.37630000  0.05650000  0.90560000  1.0 -0.4269063725
O  O110  1  0.47070000  0.37630000  0.31980000  1.0 -0.4269063725
O  O111  1  0.15090000  0.47070000  0.09440000  1.0 -0.4269063725
O  O112  1  0.05650000  0.15090000  0.68020000  1.0 -0.4269063725
O  O113  1  0.68020000  0.62370000  0.52930000  1.0 -0.4269063725
O  O114  1  0.62370000  0.09440000  0.94350000  1.0 -0.4269063725
O  O115  1  0.84910000  0.90560000  0.52930000  1.0 -0.4269063725
O  O116  1  0.31980000  0.84910000  0.94350000  1.0 -0.4269063725
O  O117  1  0.37630000  0.31980000  0.47070000  1.0 -0.4269063725
O  O118  1  0.90560000  0.37630000  0.05650000  1.0 -0.4269063725
O  O119  1  0.09440000  0.15090000  0.47070000  1.0 -0.4269063725
O  O120  1  0.15090000  0.68020000  0.05650000  1.0 -0.4269063725
O  O121  1  0.45726000  0.76330000  0.66424000  1.0 -0.3484334509
O  O122  1  0.76330000  0.09906000  0.30604000  1.0 -0.3484334509
O  O123  1  0.54274000  0.20698000  0.30604000  1.0 -0.3484334509
O  O124  1  0.66424000  0.45726000  0.76330000  1.0 -0.3484334509
O  O125  1  0.09906000  0.79302000  0.33576000  1.0 -0.3484334509
O  O126  1  0.20698000  0.90094000  0.66424000  1.0 -0.3484334509
O  O127  1  0.45726000  0.69396000  0.79302000  1.0 -0.3484334509
O  O128  1  0.79302000  0.45726000  0.69396000  1.0 -0.3484334509
O  O129  1  0.90094000  0.23670000  0.69396000  1.0 -0.3484334509
O  O130  1  0.69396000  0.90094000  0.23670000  1.0 -0.3484334509
O  O131  1  0.23670000  0.54274000  0.33576000  1.0 -0.3484334509
O  O132  1  0.90094000  0.66424000  0.20698000  1.0 -0.3484334509
O  O133  1  0.33576000  0.09906000  0.79302000  1.0 -0.3484334509
O  O134  1  0.54274000  0.33576000  0.23670000  1.0 -0.3484334509
O  O135  1  0.30604000  0.54274000  0.20698000  1.0 -0.3484334509
O  O136  1  0.09906000  0.30604000  0.76330000  1.0 -0.3484334509
O  O137  1  0.76330000  0.66424000  0.45726000  1.0 -0.3484334509
O  O138  1  0.66424000  0.20698000  0.90094000  1.0 -0.3484334509
O  O139  1  0.69396000  0.79302000  0.45726000  1.0 -0.3484334509
O  O140  1  0.23670000  0.69396000  0.90094000  1.0 -0.3484334509
O  O141  1  0.33576000  0.23670000  0.54274000  1.0 -0.3484334509
O  O142  1  0.79302000  0.33576000  0.09906000  1.0 -0.3484334509
O  O143  1  0.20698000  0.30604000  0.54274000  1.0 -0.3484334509
O  O144  1  0.30604000  0.76330000  0.09906000  1.0 -0.3484334509
O  O145  1  0.35020000  0.74680000  0.52420000  1.0 -0.4535441756
O  O146  1  0.74680000  0.22260000  0.39660000  1.0 -0.4535441756
O  O147  1  0.64980000  0.17400000  0.39660000  1.0 -0.4535441756
O  O148  1  0.52420000  0.35020000  0.74680000  1.0 -0.4535441756
O  O149  1  0.22260000  0.82600000  0.47580000  1.0 -0.4535441756
O  O150  1  0.17400000  0.77740000  0.52420000  1.0 -0.4535441756
O  O151  1  0.35020000  0.60340000  0.82600000  1.0 -0.4535441756
O  O152  1  0.82600000  0.35020000  0.60340000  1.0 -0.4535441756
O  O153  1  0.77740000  0.25320000  0.60340000  1.0 -0.4535441756
O  O154  1  0.60340000  0.77740000  0.25320000  1.0 -0.4535441756
O  O155  1  0.25320000  0.64980000  0.47580000  1.0 -0.4535441756
O  O156  1  0.77740000  0.52420000  0.17400000  1.0 -0.4535441756
O  O157  1  0.47580000  0.22260000  0.82600000  1.0 -0.4535441756
O  O158  1  0.64980000  0.47580000  0.25320000  1.0 -0.4535441756
O  O159  1  0.39660000  0.64980000  0.17400000  1.0 -0.4535441756
O  O160  1  0.22260000  0.39660000  0.74680000  1.0 -0.4535441756
O  O161  1  0.74680000  0.52420000  0.35020000  1.0 -0.4535441756
O  O162  1  0.52420000  0.17400000  0.77740000  1.0 -0.4535441756
O  O163  1  0.60340000  0.82600000  0.35020000  1.0 -0.4535441756
O  O164  1  0.25320000  0.60340000  0.77740000  1.0 -0.4535441756
O  O165  1  0.47580000  0.25320000  0.64980000  1.0 -0.4535441756
O  O166  1  0.82600000  0.47580000  0.22260000  1.0 -0.4535441756
O  O167  1  0.17400000  0.39660000  0.64980000  1.0 -0.4535441756
O  O168  1  0.39660000  0.74680000  0.22260000  1.0 -0.4535441756
O  O169  1  0.36460000  0.85080000  0.61700000  1.0 -0.4591770126
O  O170  1  0.85080000  0.23380000  0.48620000  1.0 -0.4591770126
O  O171  1  0.63540000  0.25240000  0.48620000  1.0 -0.4591770126
O  O172  1  0.61700000  0.36460000  0.85080000  1.0 -0.4591770126
O  O173  1  0.23380000  0.74760000  0.38300000  1.0 -0.4591770126
O  O174  1  0.25240000  0.76620000  0.61700000  1.0 -0.4591770126
O  O175  1  0.36460000  0.51380000  0.74760000  1.0 -0.4591770126
O  O176  1  0.74760000  0.36460000  0.51380000  1.0 -0.4591770126
O  O177  1  0.76620000  0.14920000  0.51380000  1.0 -0.4591770126
O  O178  1  0.51380000  0.76620000  0.14920000  1.0 -0.4591770126
O  O179  1  0.14920000  0.63540000  0.38300000  1.0 -0.4591770126
O  O180  1  0.76620000  0.61700000  0.25240000  1.0 -0.4591770126
O  O181  1  0.38300000  0.23380000  0.74760000  1.0 -0.4591770126
O  O182  1  0.63540000  0.38300000  0.14920000  1.0 -0.4591770126
O  O183  1  0.48620000  0.63540000  0.25240000  1.0 -0.4591770126
O  O184  1  0.23380000  0.48620000  0.85080000  1.0 -0.4591770126
O  O185  1  0.85080000  0.61700000  0.36460000  1.0 -0.4591770126
O  O186  1  0.61700000  0.25240000  0.76620000  1.0 -0.4591770126
O  O187  1  0.51380000  0.74760000  0.36460000  1.0 -0.4591770126
O  O188  1  0.14920000  0.51380000  0.76620000  1.0 -0.4591770126
O  O189  1  0.38300000  0.14920000  0.63540000  1.0 -0.4591770126
O  O190  1  0.74760000  0.38300000  0.23380000  1.0 -0.4591770126
O  O191  1  0.25240000  0.48620000  0.63540000  1.0 -0.4591770126
O  O192  1  0.48620000  0.85080000  0.23380000  1.0 -0.4591770126
O  O193  1  0.56066000  0.74826000  0.47700000  1.0 -0.2901315178
O  O194  1  0.74826000  0.27126000  0.18760000  1.0 -0.2901315178
O  O195  1  0.43934000  0.91634000  0.18760000  1.0 -0.2901315178
O  O196  1  0.47700000  0.56066000  0.74826000  1.0 -0.2901315178
O  O197  1  0.27126000  0.08366000  0.52300000  1.0 -0.2901315178
O  O198  1  0.91634000  0.72874000  0.47700000  1.0 -0.2901315178
O  O199  1  0.56066000  0.81240000  0.08366000  1.0 -0.2901315178
O  O200  1  0.08366000  0.56066000  0.81240000  1.0 -0.2901315178
O  O201  1  0.72874000  0.25174000  0.81240000  1.0 -0.2901315178
O  O202  1  0.81240000  0.72874000  0.25174000  1.0 -0.2901315178
O  O203  1  0.25174000  0.43934000  0.52300000  1.0 -0.2901315178
O  O204  1  0.72874000  0.47700000  0.91634000  1.0 -0.2901315178
O  O205  1  0.52300000  0.27126000  0.08366000  1.0 -0.2901315178
O  O206  1  0.43934000  0.52300000  0.25174000  1.0 -0.2901315178
O  O207  1  0.18760000  0.43934000  0.91634000  1.0 -0.2901315178
O  O208  1  0.27126000  0.18760000  0.74826000  1.0 -0.2901315178
O  O209  1  0.74826000  0.47700000  0.56066000  1.0 -0.2901315178
O  O210  1  0.47700000  0.91634000  0.72874000  1.0 -0.2901315178
O  O211  1  0.81240000  0.08366000  0.56066000  1.0 -0.2901315178
O  O212  1  0.25174000  0.81240000  0.72874000  1.0 -0.2901315178
O  O213  1  0.52300000  0.25174000  0.43934000  1.0 -0.2901315178
O  O214  1  0.08366000  0.52300000  0.27126000  1.0 -0.2901315178
O  O215  1  0.91634000  0.18760000  0.43934000  1.0 -0.2901315178
O  O216  1  0.18760000  0.74826000  0.27126000  1.0 -0.2901315178
O  O217  1  0.47870000  0.81490000  0.78240000  1.0 -0.4591770126
O  O218  1  0.81490000  0.03250000  0.33620000  1.0 -0.4591770126
O  O219  1  0.52130000  0.30370000  0.33620000  1.0 -0.4591770126
O  O220  1  0.78240000  0.47870000  0.81490000  1.0 -0.4591770126
O  O221  1  0.03250000  0.69630000  0.21760000  1.0 -0.4591770126
O  O222  1  0.30370000  0.96750000  0.78240000  1.0 -0.4591770126
O  O223  1  0.47870000  0.66380000  0.69630000  1.0 -0.4591770126
O  O224  1  0.69630000  0.47870000  0.66380000  1.0 -0.4591770126
O  O225  1  0.96750000  0.18510000  0.66380000  1.0 -0.4591770126
O  O226  1  0.66380000  0.96750000  0.18510000  1.0 -0.4591770126
O  O227  1  0.18510000  0.52130000  0.21760000  1.0 -0.4591770126
O  O228  1  0.96750000  0.78240000  0.30370000  1.0 -0.4591770126
O  O229  1  0.21760000  0.03250000  0.69630000  1.0 -0.4591770126
O  O230  1  0.52130000  0.21760000  0.18510000  1.0 -0.4591770126
O  O231  1  0.33620000  0.52130000  0.30370000  1.0 -0.4591770126
O  O232  1  0.03250000  0.33620000  0.81490000  1.0 -0.4591770126
O  O233  1  0.81490000  0.78240000  0.47870000  1.0 -0.4591770126
O  O234  1  0.78240000  0.30370000  0.96750000  1.0 -0.4591770126
O  O235  1  0.66380000  0.69630000  0.47870000  1.0 -0.4591770126
O  O236  1  0.18510000  0.66380000  0.96750000  1.0 -0.4591770126
O  O237  1  0.21760000  0.18510000  0.52130000  1.0 -0.4591770126
O  O238  1  0.69630000  0.21760000  0.03250000  1.0 -0.4591770126
O  O239  1  0.30370000  0.33620000  0.52130000  1.0 -0.4591770126
O  O240  1  0.33620000  0.81490000  0.03250000  1.0 -0.4591770126
