# DDEC6 charges by PACMAN v1.1 (https://github.com/mtap-research/PACMAN-charge/)
data_LAJLIT_ASR_pacman
_symmetry_space_group_name_H-M   'P 1'
_cell_length_a   26.38960000
_cell_length_b   26.38960000
_cell_length_c   26.38960000
_cell_angle_alpha   107.82500000
_cell_angle_beta   107.82500000
_cell_angle_gamma   107.82500000
_symmetry_Int_Tables_number   1
_chemical_formula_structural   K2H65(C6O5)8
_chemical_formula_sum   'K12 H390 C288 O240'
_cell_volume   14947.56024907
_cell_formula_units_Z   6
loop_
 _symmetry_equiv_pos_site_id
 _symmetry_equiv_pos_as_xyz
  1  'x, y, z'
loop_
 _atom_site_type_symbol
 _atom_site_label
 _atom_site_symmetry_multiplicity
 _atom_site_fract_x
 _atom_site_fract_y
 _atom_site_fract_z
 _atom_site_occupancy
 _atom_site_charge
K  K1  1  0.68971000  0.31029000  0.00000000  1.0 0.8466787694
K  K2  1  0.31029000  0.00000000  0.68971000  1.0 0.8466787694
K  K3  1  0.00000000  0.68971000  0.31029000  1.0 0.8466787694
K  K4  1  0.62850000  0.31717000  0.31059000  1.0 0.8376910447
K  K5  1  0.31717000  0.31059000  0.62850000  1.0 0.8376910447
K  K6  1  0.31059000  0.62850000  0.31717000  1.0 0.8376910447
K  K7  1  0.37150000  0.68941000  0.68283000  1.0 0.8376910447
K  K8  1  0.68283000  0.37150000  0.68941000  1.0 0.8376910447
K  K9  1  0.68941000  0.68283000  0.37150000  1.0 0.8376910447
K  K10  1  0.70073000  0.00000000  0.29927000  1.0 0.8376910447
K  K11  1  0.00000000  0.29927000  0.70073000  1.0 0.8376910447
K  K12  1  0.29927000  0.70073000  0.00000000  1.0 0.8376910447
H  H1  1  0.79880000  0.13210000  0.26860000  1.0 0.1088083751
H  H2  1  0.13210000  0.26860000  0.79880000  1.0 0.1088083751
H  H3  1  0.26860000  0.79880000  0.13210000  1.0 0.1088083751
H  H4  1  0.20120000  0.73140000  0.86790000  1.0 0.1088083751
H  H5  1  0.86790000  0.20120000  0.73140000  1.0 0.1088083751
H  H6  1  0.73140000  0.86790000  0.20120000  1.0 0.1088083751
H  H7  1  0.80690000  0.09010000  0.29830000  1.0 0.1088083751
H  H8  1  0.09010000  0.29830000  0.80690000  1.0 0.1088083751
H  H9  1  0.29830000  0.80690000  0.09010000  1.0 0.1088083751
H  H10  1  0.19310000  0.70170000  0.90990000  1.0 0.1088083751
H  H11  1  0.90990000  0.19310000  0.70170000  1.0 0.0999333646
H  H12  1  0.70170000  0.90990000  0.19310000  1.0 0.0999333646
H  H13  1  0.83280000  0.17420000  0.34040000  1.0 0.1088083751
H  H14  1  0.17420000  0.34040000  0.83280000  1.0 0.1088083751
H  H15  1  0.34040000  0.83280000  0.17420000  1.0 0.1088083751
H  H16  1  0.16720000  0.65960000  0.82580000  1.0 0.1088083751
H  H17  1  0.82580000  0.16720000  0.65960000  1.0 0.1088083751
H  H18  1  0.65960000  0.82580000  0.16720000  1.0 0.1088083751
H  H19  1  0.73020000  0.16680000  0.32770000  1.0 0.1360376436
H  H20  1  0.16680000  0.32770000  0.73020000  1.0 0.1360376436
H  H21  1  0.32770000  0.73020000  0.16680000  1.0 0.1360376436
H  H22  1  0.26980000  0.67230000  0.83320000  1.0 0.1360376436
H  H23  1  0.83320000  0.26980000  0.67230000  1.0 0.1360376436
H  H24  1  0.67230000  0.83320000  0.26980000  1.0 0.1360376436
H  H25  1  0.83740000  0.25360000  0.38270000  1.0 0.1293448248
H  H26  1  0.25360000  0.38270000  0.83740000  1.0 0.1293448248
H  H27  1  0.38270000  0.83740000  0.25360000  1.0 0.1293448248
H  H28  1  0.16260000  0.61730000  0.74640000  1.0 0.1293448248
H  H29  1  0.74640000  0.16260000  0.61730000  1.0 0.1186001822
H  H30  1  0.61730000  0.74640000  0.16260000  1.0 0.1186001822
H  H31  1  0.74120000  0.24730000  0.39340000  1.0 0.3476507291
H  H32  1  0.24730000  0.39340000  0.74120000  1.0 0.3476507291
H  H33  1  0.39340000  0.74120000  0.24730000  1.0 0.3476507291
H  H34  1  0.25880000  0.60660000  0.75270000  1.0 0.3476507291
H  H35  1  0.75270000  0.25880000  0.60660000  1.0 0.3476507291
H  H36  1  0.60660000  0.75270000  0.25880000  1.0 0.3476507291
H  H37  1  0.78290000  0.22200000  0.44660000  1.0 0.1186001822
H  H38  1  0.22200000  0.44660000  0.78290000  1.0 0.1186001822
H  H39  1  0.44660000  0.78290000  0.22200000  1.0 0.1186001822
H  H40  1  0.21710000  0.55340000  0.77800000  1.0 0.1186001822
H  H41  1  0.77800000  0.21710000  0.55340000  1.0 0.1186001822
H  H42  1  0.55340000  0.77800000  0.21710000  1.0 0.1186001822
H  H43  1  0.84410000  0.19070000  0.49080000  1.0 0.0999333646
H  H44  1  0.19070000  0.49080000  0.84410000  1.0 0.0999333646
H  H45  1  0.49080000  0.84410000  0.19070000  1.0 0.0999333646
H  H46  1  0.15590000  0.50920000  0.80930000  1.0 0.0999333646
H  H47  1  0.80930000  0.15590000  0.50920000  1.0 0.0999333646
H  H48  1  0.50920000  0.80930000  0.15590000  1.0 0.0999333646
H  H49  1  0.75880000  0.15170000  0.11380000  1.0 0.1186001822
H  H50  1  0.15170000  0.11380000  0.75880000  1.0 0.1186001822
H  H51  1  0.11380000  0.75880000  0.15170000  1.0 0.1186001822
H  H52  1  0.24120000  0.88620000  0.84830000  1.0 0.1186001822
H  H53  1  0.84830000  0.24120000  0.88620000  1.0 0.1186001822
H  H54  1  0.88620000  0.84830000  0.24120000  1.0 0.1186001822
H  H55  1  0.77290000  0.21310000  0.11000000  1.0 0.1186001822
H  H56  1  0.21310000  0.11000000  0.77290000  1.0 0.1186001822
H  H57  1  0.11000000  0.77290000  0.21310000  1.0 0.1186001822
H  H58  1  0.22710000  0.89000000  0.78690000  1.0 0.1186001822
H  H59  1  0.78690000  0.22710000  0.89000000  1.0 0.1186001822
H  H60  1  0.89000000  0.78690000  0.22710000  1.0 0.1186001822
H  H61  1  0.79040000  0.22690000  0.20530000  1.0 0.1088083751
H  H62  1  0.22690000  0.20530000  0.79040000  1.0 0.1088083751
H  H63  1  0.20530000  0.79040000  0.22690000  1.0 0.1088083751
H  H64  1  0.20960000  0.79470000  0.77310000  1.0 0.1088083751
H  H65  1  0.77310000  0.20960000  0.79470000  1.0 0.1088083751
H  H66  1  0.79470000  0.77310000  0.20960000  1.0 0.1088083751
H  H67  1  0.69000000  0.24520000  0.15060000  1.0 0.1293448248
H  H68  1  0.24520000  0.15060000  0.69000000  1.0 0.1293448248
H  H69  1  0.15060000  0.69000000  0.24520000  1.0 0.1293448248
H  H70  1  0.31000000  0.84940000  0.75480000  1.0 0.1293448248
H  H71  1  0.75480000  0.31000000  0.84940000  1.0 0.1293448248
H  H72  1  0.84940000  0.75480000  0.31000000  1.0 0.1293448248
H  H73  1  0.76260000  0.29890000  0.27630000  1.0 0.1088083751
H  H74  1  0.29890000  0.27630000  0.76260000  1.0 0.1088083751
H  H75  1  0.27630000  0.76260000  0.29890000  1.0 0.1088083751
H  H76  1  0.23740000  0.72370000  0.70110000  1.0 0.1088083751
H  H77  1  0.70110000  0.23740000  0.72370000  1.0 0.1088083751
H  H78  1  0.72370000  0.70110000  0.23740000  1.0 0.1088083751
H  H79  1  0.64160000  0.20420000  0.21090000  1.0 0.0999333646
H  H80  1  0.20420000  0.21090000  0.64160000  1.0 0.0999333646
H  H81  1  0.21090000  0.64160000  0.20420000  1.0 0.0999333646
H  H82  1  0.35840000  0.78910000  0.79580000  1.0 0.0999333646
H  H83  1  0.79580000  0.35840000  0.78910000  1.0 0.0999333646
H  H84  1  0.78910000  0.79580000  0.35840000  1.0 0.0999333646
H  H85  1  0.68150000  0.14170000  0.23740000  1.0 0.1088083751
H  H86  1  0.14170000  0.23740000  0.68150000  1.0 0.1088083751
H  H87  1  0.23740000  0.68150000  0.14170000  1.0 0.1088083751
H  H88  1  0.31850000  0.76260000  0.85830000  1.0 0.1088083751
H  H89  1  0.85830000  0.31850000  0.76260000  1.0 0.1088083751
H  H90  1  0.76260000  0.85830000  0.31850000  1.0 0.1088083751
H  H91  1  0.01140000  0.52360000  0.26720000  1.0 0.0999333646
H  H92  1  0.52360000  0.26720000  0.01140000  1.0 0.0999333646
H  H93  1  0.26720000  0.01140000  0.52360000  1.0 0.0999333646
H  H94  1  0.98860000  0.73280000  0.47640000  1.0 0.0999333646
H  H95  1  0.47640000  0.98860000  0.73280000  1.0 0.0999333646
H  H96  1  0.73280000  0.47640000  0.98860000  1.0 0.0999333646
H  H97  1  0.84270000  0.32270000  0.14270000  1.0 0.089636486
H  H98  1  0.32270000  0.14270000  0.84270000  1.0 0.0999333646
H  H99  1  0.14270000  0.84270000  0.32270000  1.0 0.0999333646
H  H100  1  0.15730000  0.85730000  0.67730000  1.0 0.089636486
H  H101  1  0.67730000  0.15730000  0.85730000  1.0 0.0999333646
H  H102  1  0.85730000  0.67730000  0.15730000  1.0 0.0999333646
H  H103  1  0.84680000  0.42810000  0.12890000  1.0 0.1186001822
H  H104  1  0.42810000  0.12890000  0.84680000  1.0 0.1186001822
H  H105  1  0.12890000  0.84680000  0.42810000  1.0 0.1186001822
H  H106  1  0.15320000  0.87110000  0.57190000  1.0 0.1186001822
H  H107  1  0.57190000  0.15320000  0.87110000  1.0 0.1186001822
H  H108  1  0.87110000  0.57190000  0.15320000  1.0 0.1186001822
H  H109  1  0.86660000  0.41240000  0.23430000  1.0 0.1088083751
H  H110  1  0.41240000  0.23430000  0.86660000  1.0 0.1088083751
H  H111  1  0.23430000  0.86660000  0.41240000  1.0 0.1088083751
H  H112  1  0.13340000  0.76570000  0.58760000  1.0 0.1088083751
H  H113  1  0.58760000  0.13340000  0.76570000  1.0 0.1088083751
H  H114  1  0.76570000  0.58760000  0.13340000  1.0 0.0999333646
H  H115  1  0.89040000  0.50460000  0.21820000  1.0 0.3392064915
H  H116  1  0.50460000  0.21820000  0.89040000  1.0 0.3392064915
H  H117  1  0.21820000  0.89040000  0.50460000  1.0 0.3392064915
H  H118  1  0.10960000  0.78180000  0.49540000  1.0 0.3392064915
H  H119  1  0.49540000  0.10960000  0.78180000  1.0 0.3392064915
H  H120  1  0.78180000  0.49540000  0.10960000  1.0 0.3392064915
H  H121  1  0.76410000  0.41860000  0.16350000  1.0 0.1293448248
H  H122  1  0.41860000  0.16350000  0.76410000  1.0 0.1293448248
H  H123  1  0.16350000  0.76410000  0.41860000  1.0 0.1293448248
H  H124  1  0.23590000  0.83650000  0.58140000  1.0 0.1293448248
H  H125  1  0.58140000  0.23590000  0.83650000  1.0 0.1293448248
H  H126  1  0.83650000  0.58140000  0.23590000  1.0 0.1293448248
H  H127  1  0.74800000  0.38270000  0.23800000  1.0 0.3476507291
H  H128  1  0.38270000  0.23800000  0.74800000  1.0 0.3476507291
H  H129  1  0.23800000  0.74800000  0.38270000  1.0 0.3476507291
H  H130  1  0.25200000  0.76200000  0.61730000  1.0 0.3476507291
H  H131  1  0.61730000  0.25200000  0.76200000  1.0 0.3476507291
H  H132  1  0.76200000  0.61730000  0.25200000  1.0 0.3476507291
H  H133  1  0.05760000  0.38000000  0.15400000  1.0 0.1186001822
H  H134  1  0.38000000  0.15400000  0.05760000  1.0 0.1186001822
H  H135  1  0.15400000  0.05760000  0.38000000  1.0 0.1186001822
H  H136  1  0.94240000  0.84600000  0.62000000  1.0 0.1186001822
H  H137  1  0.62000000  0.94240000  0.84600000  1.0 0.1186001822
H  H138  1  0.84600000  0.62000000  0.94240000  1.0 0.1186001822
H  H139  1  0.10850000  0.42680000  0.21860000  1.0 0.1186001822
H  H140  1  0.42680000  0.21860000  0.10850000  1.0 0.1186001822
H  H141  1  0.21860000  0.10850000  0.42680000  1.0 0.1186001822
H  H142  1  0.89150000  0.78140000  0.57320000  1.0 0.1186001822
H  H143  1  0.57320000  0.89150000  0.78140000  1.0 0.1186001822
H  H144  1  0.78140000  0.57320000  0.89150000  1.0 0.1186001822
H  H145  1  0.13210000  0.48470000  0.18120000  1.0 0.3392064915
H  H146  1  0.48470000  0.18120000  0.13210000  1.0 0.3392064915
H  H147  1  0.18120000  0.13210000  0.48470000  1.0 0.3392064915
H  H148  1  0.86790000  0.81880000  0.51530000  1.0 0.3392064915
H  H149  1  0.51530000  0.86790000  0.81880000  1.0 0.3392064915
H  H150  1  0.81880000  0.51530000  0.86790000  1.0 0.3392064915
H  H151  1  0.01900000  0.42360000  0.21620000  1.0 0.1088083751
H  H152  1  0.42360000  0.21620000  0.01900000  1.0 0.1088083751
H  H153  1  0.21620000  0.01900000  0.42360000  1.0 0.1088083751
H  H154  1  0.98100000  0.78380000  0.57640000  1.0 0.1088083751
H  H155  1  0.57640000  0.98100000  0.78380000  1.0 0.1088083751
H  H156  1  0.78380000  0.57640000  0.98100000  1.0 0.1088083751
H  H157  1  0.81650000  0.27600000  0.04220000  1.0 0.1088083751
H  H158  1  0.27600000  0.04220000  0.81650000  1.0 0.1088083751
H  H159  1  0.04220000  0.81650000  0.27600000  1.0 0.1088083751
H  H160  1  0.18350000  0.95780000  0.72400000  1.0 0.1088083751
H  H161  1  0.72400000  0.18350000  0.95780000  1.0 0.1088083751
H  H162  1  0.95780000  0.72400000  0.18350000  1.0 0.1088083751
H  H163  1  0.87660000  0.33510000  0.07090000  1.0 0.1088083751
H  H164  1  0.33510000  0.07090000  0.87660000  1.0 0.1088083751
H  H165  1  0.07090000  0.87660000  0.33510000  1.0 0.1088083751
H  H166  1  0.12340000  0.92910000  0.66490000  1.0 0.1088083751
H  H167  1  0.66490000  0.12340000  0.92910000  1.0 0.1088083751
H  H168  1  0.92910000  0.66490000  0.12340000  1.0 0.1088083751
H  H169  1  0.00250000  0.54120000  0.16250000  1.0 0.1088083751
H  H170  1  0.54120000  0.16250000  0.00250000  1.0 0.1088083751
H  H171  1  0.16250000  0.00250000  0.54120000  1.0 0.1088083751
H  H172  1  0.99750000  0.83750000  0.45880000  1.0 0.1088083751
H  H173  1  0.45880000  0.99750000  0.83750000  1.0 0.1088083751
H  H174  1  0.83750000  0.45880000  0.99750000  1.0 0.1088083751
H  H175  1  0.92150000  0.44150000  0.10710000  1.0 0.1186001822
H  H176  1  0.44150000  0.10710000  0.92150000  1.0 0.1186001822
H  H177  1  0.10710000  0.92150000  0.44150000  1.0 0.1186001822
H  H178  1  0.07850000  0.89290000  0.55850000  1.0 0.1186001822
H  H179  1  0.55850000  0.07850000  0.89290000  1.0 0.1186001822
H  H180  1  0.89290000  0.55850000  0.07850000  1.0 0.1186001822
H  H181  1  0.24650000  0.46880000  0.29270000  1.0 0.1186001822
H  H182  1  0.46880000  0.29270000  0.24650000  1.0 0.1186001822
H  H183  1  0.29270000  0.24650000  0.46880000  1.0 0.1186001822
H  H184  1  0.75350000  0.70730000  0.53120000  1.0 0.1088083751
H  H185  1  0.53120000  0.75350000  0.70730000  1.0 0.1186001822
H  H186  1  0.70730000  0.53120000  0.75350000  1.0 0.1186001822
H  H187  1  0.26810000  0.47050000  0.35730000  1.0 0.1186001822
H  H188  1  0.47050000  0.35730000  0.26810000  1.0 0.1186001822
H  H189  1  0.35730000  0.26810000  0.47050000  1.0 0.1186001822
H  H190  1  0.73190000  0.64270000  0.52950000  1.0 0.1186001822
H  H191  1  0.52950000  0.73190000  0.64270000  1.0 0.1186001822
H  H192  1  0.64270000  0.52950000  0.73190000  1.0 0.1186001822
H  H193  1  0.18050000  0.48300000  0.33280000  1.0 0.089636486
H  H194  1  0.48300000  0.33280000  0.18050000  1.0 0.089636486
H  H195  1  0.33280000  0.18050000  0.48300000  1.0 0.089636486
H  H196  1  0.81950000  0.66720000  0.51700000  1.0 0.089636486
H  H197  1  0.51700000  0.81950000  0.66720000  1.0 0.089636486
H  H198  1  0.66720000  0.51700000  0.81950000  1.0 0.089636486
H  H199  1  0.28100000  0.59430000  0.42760000  1.0 0.1088083751
H  H200  1  0.59430000  0.42760000  0.28100000  1.0 0.1088083751
H  H201  1  0.42760000  0.28100000  0.59430000  1.0 0.1088083751
H  H202  1  0.71900000  0.57240000  0.40570000  1.0 0.1088083751
H  H203  1  0.40570000  0.71900000  0.57240000  1.0 0.1088083751
H  H204  1  0.57240000  0.40570000  0.71900000  1.0 0.1088083751
H  H205  1  0.15780000  0.54450000  0.40620000  1.0 0.0999333646
H  H206  1  0.54450000  0.40620000  0.15780000  1.0 0.0999333646
H  H207  1  0.40620000  0.15780000  0.54450000  1.0 0.0999333646
H  H208  1  0.84220000  0.59380000  0.45550000  1.0 0.0999333646
H  H209  1  0.45550000  0.84220000  0.59380000  1.0 0.0999333646
H  H210  1  0.59380000  0.45550000  0.84220000  1.0 0.0999333646
H  H211  1  0.22220000  0.65410000  0.48210000  1.0 0.3476507291
H  H212  1  0.65410000  0.48210000  0.22220000  1.0 0.3476507291
H  H213  1  0.48210000  0.22220000  0.65410000  1.0 0.3476507291
H  H214  1  0.77780000  0.51790000  0.34590000  1.0 0.3476507291
H  H215  1  0.34590000  0.77780000  0.51790000  1.0 0.3476507291
H  H216  1  0.51790000  0.34590000  0.77780000  1.0 0.3476507291
H  H217  1  0.22300000  0.64530000  0.39500000  1.0 0.1186001822
H  H218  1  0.64530000  0.39500000  0.22300000  1.0 0.1186001822
H  H219  1  0.39500000  0.22300000  0.64530000  1.0 0.1186001822
H  H220  1  0.77700000  0.60500000  0.35470000  1.0 0.1186001822
H  H221  1  0.35470000  0.77700000  0.60500000  1.0 0.1186001822
H  H222  1  0.60500000  0.35470000  0.77700000  1.0 0.1186001822
H  H223  1  0.12990000  0.62470000  0.40730000  1.0 0.3392064915
H  H224  1  0.62470000  0.40730000  0.12990000  1.0 0.3392064915
H  H225  1  0.40730000  0.12990000  0.62470000  1.0 0.3392064915
H  H226  1  0.87010000  0.59270000  0.37530000  1.0 0.3392064915
H  H227  1  0.37530000  0.87010000  0.59270000  1.0 0.3392064915
H  H228  1  0.59270000  0.37530000  0.87010000  1.0 0.3392064915
H  H229  1  0.16580000  0.59600000  0.29420000  1.0 0.1088083751
H  H230  1  0.59600000  0.29420000  0.16580000  1.0 0.1088083751
H  H231  1  0.29420000  0.16580000  0.59600000  1.0 0.1088083751
H  H232  1  0.83420000  0.70580000  0.40400000  1.0 0.1088083751
H  H233  1  0.40400000  0.83420000  0.70580000  1.0 0.1088083751
H  H234  1  0.70580000  0.40400000  0.83420000  1.0 0.1088083751
H  H235  1  0.25330000  0.35950000  0.46840000  1.0 0.1088083751
H  H236  1  0.35950000  0.46840000  0.25330000  1.0 0.1088083751
H  H237  1  0.46840000  0.25330000  0.35950000  1.0 0.1088083751
H  H238  1  0.74670000  0.53160000  0.64050000  1.0 0.1088083751
H  H239  1  0.64050000  0.74670000  0.53160000  1.0 0.1088083751
H  H240  1  0.53160000  0.64050000  0.74670000  1.0 0.1088083751
H  H241  1  0.28160000  0.37840000  0.42750000  1.0 0.1186001822
H  H242  1  0.37840000  0.42750000  0.28160000  1.0 0.1186001822
H  H243  1  0.42750000  0.28160000  0.37840000  1.0 0.1186001822
H  H244  1  0.71840000  0.57250000  0.62160000  1.0 0.1186001822
H  H245  1  0.62160000  0.71840000  0.57250000  1.0 0.1186001822
H  H246  1  0.57250000  0.62160000  0.71840000  1.0 0.1186001822
H  H247  1  0.23300000  0.43180000  0.45630000  1.0 0.0999333646
H  H248  1  0.43180000  0.45630000  0.23300000  1.0 0.1088083751
H  H249  1  0.45630000  0.23300000  0.43180000  1.0 0.1088083751
H  H250  1  0.76700000  0.54370000  0.56820000  1.0 0.1088083751
H  H251  1  0.56820000  0.76700000  0.54370000  1.0 0.1088083751
H  H252  1  0.54370000  0.56820000  0.76700000  1.0 0.1088083751
H  H253  1  0.32350000  0.48150000  0.57440000  1.0 0.1088083751
H  H254  1  0.48150000  0.57440000  0.32350000  1.0 0.1088083751
H  H255  1  0.57440000  0.32350000  0.48150000  1.0 0.1088083751
H  H256  1  0.67650000  0.42560000  0.51850000  1.0 0.1088083751
H  H257  1  0.51850000  0.67650000  0.42560000  1.0 0.1088083751
H  H258  1  0.42560000  0.51850000  0.67650000  1.0 0.1088083751
H  H259  1  0.23740000  0.52350000  0.53720000  1.0 0.1088083751
H  H260  1  0.52350000  0.53720000  0.23740000  1.0 0.1088083751
H  H261  1  0.53720000  0.23740000  0.52350000  1.0 0.1088083751
H  H262  1  0.76260000  0.46280000  0.47650000  1.0 0.1088083751
H  H263  1  0.47650000  0.76260000  0.46280000  1.0 0.1088083751
H  H264  1  0.46280000  0.47650000  0.76260000  1.0 0.1088083751
H  H265  1  0.36320000  0.57980000  0.57230000  1.0 0.1088083751
H  H266  1  0.57980000  0.57230000  0.36320000  1.0 0.1088083751
H  H267  1  0.57230000  0.36320000  0.57980000  1.0 0.1088083751
H  H268  1  0.63680000  0.42770000  0.42020000  1.0 0.1088083751
H  H269  1  0.42020000  0.63680000  0.42770000  1.0 0.1088083751
H  H270  1  0.42770000  0.42020000  0.63680000  1.0 0.1088083751
H  H271  1  0.33550000  0.56500000  0.47170000  1.0 0.1088083751
H  H272  1  0.56500000  0.47170000  0.33550000  1.0 0.1088083751
H  H273  1  0.47170000  0.33550000  0.56500000  1.0 0.1088083751
H  H274  1  0.66450000  0.52830000  0.43500000  1.0 0.1088083751
H  H275  1  0.43500000  0.66450000  0.52830000  1.0 0.1088083751
H  H276  1  0.52830000  0.43500000  0.66450000  1.0 0.1088083751
H  H277  1  0.20260000  0.25410000  0.46970000  1.0 0.1186001822
H  H278  1  0.25410000  0.46970000  0.20260000  1.0 0.1186001822
H  H279  1  0.46970000  0.20260000  0.25410000  1.0 0.1186001822
H  H280  1  0.79740000  0.53030000  0.74590000  1.0 0.1186001822
H  H281  1  0.74590000  0.79740000  0.53030000  1.0 0.1186001822
H  H282  1  0.53030000  0.74590000  0.79740000  1.0 0.1186001822
H  H283  1  0.13700000  0.22250000  0.46340000  1.0 0.1088083751
H  H284  1  0.22250000  0.46340000  0.13700000  1.0 0.1088083751
H  H285  1  0.46340000  0.13700000  0.22250000  1.0 0.1088083751
H  H286  1  0.86300000  0.53660000  0.77750000  1.0 0.1088083751
H  H287  1  0.77750000  0.86300000  0.53660000  1.0 0.1088083751
H  H288  1  0.53660000  0.77750000  0.86300000  1.0 0.1088083751
H  H289  1  0.16480000  0.32140000  0.49420000  1.0 0.089636486
H  H290  1  0.32140000  0.49420000  0.16480000  1.0 0.089636486
H  H291  1  0.49420000  0.16480000  0.32140000  1.0 0.089636486
H  H292  1  0.83520000  0.50580000  0.67860000  1.0 0.089636486
H  H293  1  0.67860000  0.83520000  0.50580000  1.0 0.089636486
H  H294  1  0.50580000  0.67860000  0.83520000  1.0 0.089636486
H  H295  1  0.17080000  0.29740000  0.59590000  1.0 0.1088083751
H  H296  1  0.29740000  0.59590000  0.17080000  1.0 0.1088083751
H  H297  1  0.59590000  0.17080000  0.29740000  1.0 0.1088083751
H  H298  1  0.82920000  0.40410000  0.70260000  1.0 0.1088083751
H  H299  1  0.70260000  0.82920000  0.40410000  1.0 0.1088083751
H  H300  1  0.40410000  0.70260000  0.82920000  1.0 0.1088083751
H  H301  1  0.14560000  0.39160000  0.57850000  1.0 0.089636486
H  H302  1  0.39160000  0.57850000  0.14560000  1.0 0.089636486
H  H303  1  0.57850000  0.14560000  0.39160000  1.0 0.089636486
H  H304  1  0.85440000  0.42150000  0.60840000  1.0 0.089636486
H  H305  1  0.60840000  0.85440000  0.42150000  1.0 0.089636486
H  H306  1  0.42150000  0.60840000  0.85440000  1.0 0.089636486
H  H307  1  0.14160000  0.39560000  0.66280000  1.0 0.3570945221
H  H308  1  0.39560000  0.66280000  0.14160000  1.0 0.3570945221
H  H309  1  0.66280000  0.14160000  0.39560000  1.0 0.3570945221
H  H310  1  0.85840000  0.33720000  0.60440000  1.0 0.3570945221
H  H311  1  0.60440000  0.85840000  0.33720000  1.0 0.3570945221
H  H312  1  0.33720000  0.60440000  0.85840000  1.0 0.3570945221
H  H313  1  0.24810000  0.40410000  0.66690000  1.0 0.1088083751
H  H314  1  0.40410000  0.66690000  0.24810000  1.0 0.1088083751
H  H315  1  0.66690000  0.24810000  0.40410000  1.0 0.1088083751
H  H316  1  0.75190000  0.33310000  0.59590000  1.0 0.1088083751
H  H317  1  0.59590000  0.75190000  0.33310000  1.0 0.1088083751
H  H318  1  0.33310000  0.59590000  0.75190000  1.0 0.1088083751
H  H319  1  0.20010000  0.47010000  0.65340000  1.0 0.3198111016
H  H320  1  0.47010000  0.65340000  0.20010000  1.0 0.3198111016
H  H321  1  0.65340000  0.20010000  0.47010000  1.0 0.3198111016
H  H322  1  0.79990000  0.34660000  0.52990000  1.0 0.3198111016
H  H323  1  0.52990000  0.79990000  0.34660000  1.0 0.3198111016
H  H324  1  0.34660000  0.52990000  0.79990000  1.0 0.3198111016
H  H325  1  0.30320000  0.43470000  0.61870000  1.0 0.1088083751
H  H326  1  0.43470000  0.61870000  0.30320000  1.0 0.1088083751
H  H327  1  0.61870000  0.30320000  0.43470000  1.0 0.1186001822
H  H328  1  0.69680000  0.38130000  0.56530000  1.0 0.1186001822
H  H329  1  0.56530000  0.69680000  0.38130000  1.0 0.1186001822
H  H330  1  0.38130000  0.56530000  0.69680000  1.0 0.1186001822
H  H331  1  0.92900000  0.13930000  0.38560000  1.0 0.1293448248
H  H332  1  0.13930000  0.38560000  0.92900000  1.0 0.1293448248
H  H333  1  0.38560000  0.92900000  0.13930000  1.0 0.1293448248
H  H334  1  0.07100000  0.61440000  0.86070000  1.0 0.1293448248
H  H335  1  0.86070000  0.07100000  0.61440000  1.0 0.1293448248
H  H336  1  0.61440000  0.86070000  0.07100000  1.0 0.1293448248
H  H337  1  0.98350000  0.12800000  0.41290000  1.0 0.1186001822
H  H338  1  0.12800000  0.41290000  0.98350000  1.0 0.1186001822
H  H339  1  0.41290000  0.98350000  0.12800000  1.0 0.1186001822
H  H340  1  0.01650000  0.58710000  0.87200000  1.0 0.1186001822
H  H341  1  0.87200000  0.01650000  0.58710000  1.0 0.1186001822
H  H342  1  0.58710000  0.87200000  0.01650000  1.0 0.1186001822
H  H343  1  0.95540000  0.10450000  0.32980000  1.0 0.3392064915
H  H344  1  0.10450000  0.32980000  0.95540000  1.0 0.3392064915
H  H345  1  0.32980000  0.95540000  0.10450000  1.0 0.3392064915
H  H346  1  0.04460000  0.67020000  0.89550000  1.0 0.3392064915
H  H347  1  0.89550000  0.04460000  0.67020000  1.0 0.3392064915
H  H348  1  0.67020000  0.89550000  0.04460000  1.0 0.3392064915
H  H349  1  0.00610000  0.23830000  0.45430000  1.0 0.1293448248
H  H350  1  0.23830000  0.45430000  0.00610000  1.0 0.1293448248
H  H351  1  0.45430000  0.00610000  0.23830000  1.0 0.1293448248
H  H352  1  0.99390000  0.54570000  0.76170000  1.0 0.1293448248
H  H353  1  0.76170000  0.99390000  0.54570000  1.0 0.1293448248
H  H354  1  0.54570000  0.76170000  0.99390000  1.0 0.1293448248
H  H355  1  0.93100000  0.17360000  0.49000000  1.0 0.1088083751
H  H356  1  0.17360000  0.49000000  0.93100000  1.0 0.1088083751
H  H357  1  0.49000000  0.93100000  0.17360000  1.0 0.1088083751
H  H358  1  0.06900000  0.51000000  0.82640000  1.0 0.1088083751
H  H359  1  0.82640000  0.06900000  0.51000000  1.0 0.1088083751
H  H360  1  0.51000000  0.82640000  0.06900000  1.0 0.1088083751
H  H361  1  0.00210000  0.29890000  0.54260000  1.0 0.0999333646
H  H362  1  0.29890000  0.54260000  0.00210000  1.0 0.0999333646
H  H363  1  0.54260000  0.00210000  0.29890000  1.0 0.0999333646
H  H364  1  0.99790000  0.45740000  0.70110000  1.0 0.0999333646
H  H365  1  0.70110000  0.99790000  0.45740000  1.0 0.0999333646
H  H366  1  0.45740000  0.70110000  0.99790000  1.0 0.0999333646
H  H367  1  0.01710000  0.21230000  0.58750000  1.0 0.0999333646
H  H368  1  0.21230000  0.58750000  0.01710000  1.0 0.0999333646
H  H369  1  0.58750000  0.01710000  0.21230000  1.0 0.0999333646
H  H370  1  0.98290000  0.41250000  0.78770000  1.0 0.0999333646
H  H371  1  0.78770000  0.98290000  0.41250000  1.0 0.0999333646
H  H372  1  0.41250000  0.78770000  0.98290000  1.0 0.0999333646
H  H373  1  0.10480000  0.23040000  0.57440000  1.0 0.0999333646
H  H374  1  0.23040000  0.57440000  0.10480000  1.0 0.0999333646
H  H375  1  0.57440000  0.10480000  0.23040000  1.0 0.0999333646
H  H376  1  0.89520000  0.42560000  0.76960000  1.0 0.0999333646
H  H377  1  0.76960000  0.89520000  0.42560000  1.0 0.0999333646
H  H378  1  0.42560000  0.76960000  0.89520000  1.0 0.0999333646
H  H379  1  0.09330000  0.53150000  0.21490000  1.0 0.0999333646
H  H380  1  0.53150000  0.21490000  0.09330000  1.0 0.0999333646
H  H381  1  0.21490000  0.09330000  0.53150000  1.0 0.0999333646
H  H382  1  0.90670000  0.78510000  0.46850000  1.0 0.0999333646
H  H383  1  0.46850000  0.90670000  0.78510000  1.0 0.0999333646
H  H384  1  0.78510000  0.46850000  0.90670000  1.0 0.0999333646
H  H385  1  0.87680000  0.33110000  0.50940000  1.0 0.371165182
H  H386  1  0.33110000  0.50940000  0.87680000  1.0 0.371165182
H  H387  1  0.50940000  0.87680000  0.33110000  1.0 0.371165182
H  H388  1  0.12320000  0.49060000  0.66890000  1.0 0.371165182
H  H389  1  0.66890000  0.12320000  0.49060000  1.0 0.371165182
H  H390  1  0.49060000  0.66890000  0.12320000  1.0 0.371165182
C  C1  1  0.78080000  0.10880000  0.28680000  1.0 -0.1500792048
C  C2  1  0.10880000  0.28680000  0.78080000  1.0 -0.1500792048
C  C3  1  0.28680000  0.78080000  0.10880000  1.0 -0.1500792048
C  C4  1  0.21920000  0.71320000  0.89120000  1.0 -0.1500792048
C  C5  1  0.89120000  0.21920000  0.71320000  1.0 -0.1500792048
C  C6  1  0.71320000  0.89120000  0.21920000  1.0 -0.1500792048
C  C7  1  0.79350000  0.14810000  0.33560000  1.0 0.0272353786
C  C8  1  0.14810000  0.33560000  0.79350000  1.0 0.0272353786
C  C9  1  0.33560000  0.79350000  0.14810000  1.0 0.0272353786
C  C10  1  0.20650000  0.66440000  0.85190000  1.0 0.0272353786
C  C11  1  0.85190000  0.20650000  0.66440000  1.0 0.0272353786
C  C12  1  0.66440000  0.85190000  0.20650000  1.0 0.0272353786
C  C13  1  0.77130000  0.18580000  0.33180000  1.0 -0.0307034761
C  C14  1  0.18580000  0.33180000  0.77130000  1.0 -0.0307034761
C  C15  1  0.33180000  0.77130000  0.18580000  1.0 -0.0307034761
C  C16  1  0.22870000  0.66820000  0.81420000  1.0 -0.0307034761
C  C17  1  0.81420000  0.22870000  0.66820000  1.0 -0.0307034761
C  C18  1  0.66820000  0.81420000  0.22870000  1.0 -0.0307034761
C  C19  1  0.80110000  0.22870000  0.38390000  1.0 0.049445808
C  C20  1  0.22870000  0.38390000  0.80110000  1.0 0.049445808
C  C21  1  0.38390000  0.80110000  0.22870000  1.0 0.049445808
C  C22  1  0.19890000  0.61610000  0.77130000  1.0 0.049445808
C  C23  1  0.77130000  0.19890000  0.61610000  1.0 0.049445808
C  C24  1  0.61610000  0.77130000  0.19890000  1.0 0.049445808
C  C25  1  0.82130000  0.23720000  0.44430000  1.0 -0.0191652373
C  C26  1  0.23720000  0.44430000  0.82130000  1.0 -0.0191652373
C  C27  1  0.44430000  0.82130000  0.23720000  1.0 -0.0191652373
C  C28  1  0.17870000  0.55570000  0.76280000  1.0 -0.0191652373
C  C29  1  0.76280000  0.17870000  0.55570000  1.0 -0.0191652373
C  C30  1  0.55570000  0.76280000  0.17870000  1.0 -0.0191652373
C  C31  1  0.84350000  0.19900000  0.45610000  1.0 0.1088083751
C  C32  1  0.19900000  0.45610000  0.84350000  1.0 0.1088083751
C  C33  1  0.45610000  0.84350000  0.19900000  1.0 0.1088083751
C  C34  1  0.15650000  0.54390000  0.80100000  1.0 0.1088083751
C  C35  1  0.80100000  0.15650000  0.54390000  1.0 0.1088083751
C  C36  1  0.54390000  0.80100000  0.15650000  1.0 0.1088083751
C  C37  1  0.74460000  0.18250000  0.11490000  1.0 0.0272353786
C  C38  1  0.18250000  0.11490000  0.74460000  1.0 0.0272353786
C  C39  1  0.11490000  0.74460000  0.18250000  1.0 0.0272353786
C  C40  1  0.25540000  0.88510000  0.81750000  1.0 0.0272353786
C  C41  1  0.81750000  0.25540000  0.88510000  1.0 0.0272353786
C  C42  1  0.88510000  0.81750000  0.25540000  1.0 0.0272353786
C  C43  1  0.74860000  0.21060000  0.17520000  1.0 0.0621801459
C  C44  1  0.21060000  0.17520000  0.74860000  1.0 0.0621801459
C  C45  1  0.17520000  0.74860000  0.21060000  1.0 0.0621801459
C  C46  1  0.25140000  0.82480000  0.78940000  1.0 0.0621801459
C  C47  1  0.78940000  0.25140000  0.82480000  1.0 0.0621801459
C  C48  1  0.82480000  0.78940000  0.25140000  1.0 0.0621801459
C  C49  1  0.72899000  0.25931000  0.18480000  1.0 0.049445808
C  C50  1  0.25931000  0.18480000  0.72899000  1.0 0.049445808
C  C51  1  0.18480000  0.72899000  0.25931000  1.0 0.049445808
C  C52  1  0.27101000  0.81520000  0.74069000  1.0 0.049445808
C  C53  1  0.74069000  0.27101000  0.81520000  1.0 0.049445808
C  C54  1  0.81520000  0.74069000  0.27101000  1.0 0.049445808
C  C55  1  0.72261000  0.27825000  0.24154000  1.0 0.089636486
C  C56  1  0.27825000  0.24154000  0.72261000  1.0 0.089636486
C  C57  1  0.24154000  0.72261000  0.27825000  1.0 0.089636486
C  C58  1  0.27739000  0.75846000  0.72175000  1.0 0.089636486
C  C59  1  0.72175000  0.27739000  0.75846000  1.0 0.089636486
C  C60  1  0.75846000  0.72175000  0.27739000  1.0 0.089636486
C  C61  1  0.68220000  0.22260000  0.24430000  1.0 0.049445808
C  C62  1  0.22260000  0.24430000  0.68220000  1.0 0.049445808
C  C63  1  0.24430000  0.68220000  0.22260000  1.0 0.049445808
C  C64  1  0.31780000  0.75570000  0.77740000  1.0 0.049445808
C  C65  1  0.77740000  0.31780000  0.75570000  1.0 0.049445808
C  C66  1  0.75570000  0.77740000  0.31780000  1.0 0.049445808
C  C67  1  0.70750000  0.17770000  0.23660000  1.0 0.2324124213
C  C68  1  0.17770000  0.23660000  0.70750000  1.0 0.2324124213
C  C69  1  0.23660000  0.70750000  0.17770000  1.0 0.2324124213
C  C70  1  0.29250000  0.76340000  0.82230000  1.0 0.2324124213
C  C71  1  0.82230000  0.29250000  0.76340000  1.0 0.2324124213
C  C72  1  0.76340000  0.82230000  0.29250000  1.0 0.2324124213
C  C73  1  0.03020000  0.53930000  0.24410000  1.0 0.089636486
C  C74  1  0.53930000  0.24410000  0.03020000  1.0 0.089636486
C  C75  1  0.24410000  0.03020000  0.53930000  1.0 0.089636486
C  C76  1  0.96980000  0.75590000  0.46070000  1.0 0.089636486
C  C77  1  0.46070000  0.96980000  0.75590000  1.0 0.089636486
C  C78  1  0.75590000  0.46070000  0.96980000  1.0 0.089636486
C  C79  1  0.82670000  0.34130000  0.11790000  1.0 0.0999333646
C  C80  1  0.34130000  0.11790000  0.82670000  1.0 0.0999333646
C  C81  1  0.11790000  0.82670000  0.34130000  1.0 0.0999333646
C  C82  1  0.17330000  0.88210000  0.65870000  1.0 0.0999333646
C  C83  1  0.65870000  0.17330000  0.88210000  1.0 0.0999333646
C  C84  1  0.88210000  0.65870000  0.17330000  1.0 0.0999333646
C  C85  1  0.85970000  0.40860000  0.15410000  1.0 0.0001914068
C  C86  1  0.40860000  0.15410000  0.85970000  1.0 -0.0004746425
C  C87  1  0.15410000  0.85970000  0.40860000  1.0 -0.0004746425
C  C88  1  0.14030000  0.84590000  0.59140000  1.0 -0.0004746425
C  C89  1  0.59140000  0.14030000  0.84590000  1.0 -0.0004746425
C  C90  1  0.84590000  0.59140000  0.14030000  1.0 0.0001914068
C  C91  1  0.84780000  0.42710000  0.20660000  1.0 0.0999333646
C  C92  1  0.42710000  0.20660000  0.84780000  1.0 0.0999333646
C  C93  1  0.20660000  0.84780000  0.42710000  1.0 0.0999333646
C  C94  1  0.15220000  0.79340000  0.57290000  1.0 0.0999333646
C  C95  1  0.57290000  0.15220000  0.79340000  1.0 0.0999333646
C  C96  1  0.79340000  0.57290000  0.15220000  1.0 0.0999333646
C  C97  1  0.78144000  0.40006000  0.18750000  1.0 0.0104409472
C  C98  1  0.40006000  0.18750000  0.78144000  1.0 0.0104409472
C  C99  1  0.18750000  0.78144000  0.40006000  1.0 0.0104409472
C  C100  1  0.21856000  0.81250000  0.59994000  1.0 0.0104409472
C  C101  1  0.59994000  0.21856000  0.81250000  1.0 0.0104409472
C  C102  1  0.81250000  0.59994000  0.21856000  1.0 0.0104409472
C  C103  1  0.75214000  0.33536000  0.14980000  1.0 0.2191982456
C  C104  1  0.33536000  0.14980000  0.75214000  1.0 0.2191982456
C  C105  1  0.14980000  0.75214000  0.33536000  1.0 0.2191982456
C  C106  1  0.24786000  0.85020000  0.66464000  1.0 0.2191982456
C  C107  1  0.66464000  0.24786000  0.85020000  1.0 0.2324124213
C  C108  1  0.85020000  0.66464000  0.24786000  1.0 0.2191982456
C  C109  1  0.08000000  0.42290000  0.18140000  1.0 -0.012122503
C  C110  1  0.42290000  0.18140000  0.08000000  1.0 -0.012122503
C  C111  1  0.18140000  0.08000000  0.42290000  1.0 -0.012122503
C  C112  1  0.92000000  0.81860000  0.57710000  1.0 -0.012122503
C  C113  1  0.57710000  0.92000000  0.81860000  1.0 -0.012122503
C  C114  1  0.81860000  0.57710000  0.92000000  1.0 -0.012122503
C  C115  1  0.03700000  0.44390000  0.19530000  1.0 0.049445808
C  C116  1  0.44390000  0.19530000  0.03700000  1.0 0.049445808
C  C117  1  0.19530000  0.03700000  0.44390000  1.0 0.049445808
C  C118  1  0.96300000  0.80470000  0.55610000  1.0 0.049445808
C  C119  1  0.55610000  0.96300000  0.80470000  1.0 0.049445808
C  C120  1  0.80470000  0.55610000  0.96300000  1.0 0.049445808
C  C121  1  0.83380000  0.31990000  0.06050000  1.0 -0.0191652373
C  C122  1  0.31990000  0.06050000  0.83380000  1.0 -0.0191652373
C  C123  1  0.06050000  0.83380000  0.31990000  1.0 -0.0191652373
C  C124  1  0.16620000  0.93950000  0.68010000  1.0 -0.0191652373
C  C125  1  0.68010000  0.16620000  0.93950000  1.0 -0.0191652373
C  C126  1  0.93950000  0.68010000  0.16620000  1.0 -0.0191652373
C  C127  1  0.98310000  0.52340000  0.18380000  1.0 0.049445808
C  C128  1  0.52340000  0.18380000  0.98310000  1.0 0.049445808
C  C129  1  0.18380000  0.98310000  0.52340000  1.0 0.049445808
C  C130  1  0.01690000  0.81620000  0.47660000  1.0 0.049445808
C  C131  1  0.47660000  0.01690000  0.81620000  1.0 0.049445808
C  C132  1  0.81620000  0.47660000  0.01690000  1.0 0.049445808
C  C133  1  0.95170000  0.45230000  0.14740000  1.0 0.2682428319
C  C134  1  0.45230000  0.14740000  0.95170000  1.0 0.2682428319
C  C135  1  0.14740000  0.95170000  0.45230000  1.0 0.2682428319
C  C136  1  0.04830000  0.85260000  0.54770000  1.0 0.2682428319
C  C137  1  0.54770000  0.04830000  0.85260000  1.0 0.2682428319
C  C138  1  0.85260000  0.54770000  0.04830000  1.0 0.2682428319
C  C139  1  0.26240000  0.49460000  0.33560000  1.0 -0.0703670672
C  C140  1  0.49460000  0.33560000  0.26240000  1.0 -0.0703670672
C  C141  1  0.33560000  0.26240000  0.49460000  1.0 -0.0703670672
C  C142  1  0.73760000  0.66440000  0.50540000  1.0 -0.0703670672
C  C143  1  0.50540000  0.73760000  0.66440000  1.0 -0.0703670672
C  C144  1  0.66440000  0.50540000  0.73760000  1.0 -0.0703670672
C  C145  1  0.21910000  0.51730000  0.34630000  1.0 0.0999333646
C  C146  1  0.51730000  0.34630000  0.21910000  1.0 0.0999333646
C  C147  1  0.34630000  0.21910000  0.51730000  1.0 0.0999333646
C  C148  1  0.78090000  0.65370000  0.48270000  1.0 0.0999333646
C  C149  1  0.48270000  0.78090000  0.65370000  1.0 0.0999333646
C  C150  1  0.65370000  0.48270000  0.78090000  1.0 0.0999333646
C  C151  1  0.24230000  0.55960000  0.41280000  1.0 0.0424659301
C  C152  1  0.55960000  0.41280000  0.24230000  1.0 0.0424659301
C  C153  1  0.41280000  0.24230000  0.55960000  1.0 0.0424659301
C  C154  1  0.75770000  0.58720000  0.44040000  1.0 0.0424659301
C  C155  1  0.44040000  0.75770000  0.58720000  1.0 0.0424659301
C  C156  1  0.58720000  0.44040000  0.75770000  1.0 0.0424659301
C  C157  1  0.19533000  0.57930000  0.41787000  1.0 0.0621801459
C  C158  1  0.57930000  0.41787000  0.19533000  1.0 0.0621801459
C  C159  1  0.41787000  0.19533000  0.57930000  1.0 0.0621801459
C  C160  1  0.80467000  0.58213000  0.42070000  1.0 0.0621801459
C  C161  1  0.42070000  0.80467000  0.58213000  1.0 0.0621801459
C  C162  1  0.58213000  0.42070000  0.80467000  1.0 0.0621801459
C  C163  1  0.18453000  0.61030000  0.38027000  1.0 0.0212872355
C  C164  1  0.61030000  0.38027000  0.18453000  1.0 0.0212872355
C  C165  1  0.38027000  0.18453000  0.61030000  1.0 0.0212872355
C  C166  1  0.81547000  0.61973000  0.38970000  1.0 0.0212872355
C  C167  1  0.38970000  0.81547000  0.61973000  1.0 0.0212872355
C  C168  1  0.61973000  0.38970000  0.81547000  1.0 0.0212872355
C  C169  1  0.16773000  0.57190000  0.31697000  1.0 0.2107562232
C  C170  1  0.57190000  0.31697000  0.16773000  1.0 0.2107562232
C  C171  1  0.31697000  0.16773000  0.57190000  1.0 0.2107562232
C  C172  1  0.83227000  0.68303000  0.42810000  1.0 0.2107562232
C  C173  1  0.42810000  0.83227000  0.68303000  1.0 0.2107562232
C  C174  1  0.68303000  0.42810000  0.83227000  1.0 0.2107562232
C  C175  1  0.28460000  0.39180000  0.46810000  1.0 -0.0643459066
C  C176  1  0.39180000  0.46810000  0.28460000  1.0 -0.0643459066
C  C177  1  0.46810000  0.28460000  0.39180000  1.0 -0.0643459066
C  C178  1  0.71540000  0.53190000  0.60820000  1.0 -0.0643459066
C  C179  1  0.60820000  0.71540000  0.53190000  1.0 -0.0643459066
C  C180  1  0.53190000  0.60820000  0.71540000  1.0 -0.0643459066
C  C181  1  0.27510000  0.44380000  0.48350000  1.0 0.0789828563
C  C182  1  0.44380000  0.48350000  0.27510000  1.0 0.0789828563
C  C183  1  0.48350000  0.27510000  0.44380000  1.0 0.0789828563
C  C184  1  0.72490000  0.51650000  0.55620000  1.0 0.0789828563
C  C185  1  0.55620000  0.72490000  0.51650000  1.0 0.0789828563
C  C186  1  0.51650000  0.55620000  0.72490000  1.0 0.0789828563
C  C187  1  0.28320000  0.47340000  0.54660000  1.0 0.0621801459
C  C188  1  0.47340000  0.54660000  0.28320000  1.0 0.0621801459
C  C189  1  0.54660000  0.28320000  0.47340000  1.0 0.0621801459
C  C190  1  0.71680000  0.45340000  0.52660000  1.0 0.0621801459
C  C191  1  0.52660000  0.71680000  0.45340000  1.0 0.0621801459
C  C192  1  0.45340000  0.52660000  0.71680000  1.0 0.0621801459
C  C193  1  0.27890000  0.53130000  0.56140000  1.0 0.0789828563
C  C194  1  0.53130000  0.56140000  0.27890000  1.0 0.0789828563
C  C195  1  0.56140000  0.27890000  0.53130000  1.0 0.0789828563
C  C196  1  0.72110000  0.43860000  0.46870000  1.0 0.0789828563
C  C197  1  0.46870000  0.72110000  0.43860000  1.0 0.0789828563
C  C198  1  0.43860000  0.46870000  0.72110000  1.0 0.0789828563
C  C199  1  0.32200000  0.57180000  0.54710000  1.0 0.0424659301
C  C200  1  0.57180000  0.54710000  0.32200000  1.0 0.0424659301
C  C201  1  0.54710000  0.32200000  0.57180000  1.0 0.0424659301
C  C202  1  0.67800000  0.45290000  0.42820000  1.0 0.0424659301
C  C203  1  0.42820000  0.67800000  0.45290000  1.0 0.0424659301
C  C204  1  0.45290000  0.42820000  0.67800000  1.0 0.0424659301
C  C205  1  0.30790000  0.53940000  0.48230000  1.0 0.2353342432
C  C206  1  0.53940000  0.48230000  0.30790000  1.0 0.2353342432
C  C207  1  0.48230000  0.30790000  0.53940000  1.0 0.2353342432
C  C208  1  0.69210000  0.51770000  0.46060000  1.0 0.2353342432
C  C209  1  0.46060000  0.69210000  0.51770000  1.0 0.2353342432
C  C210  1  0.51770000  0.46060000  0.69210000  1.0 0.2353342432
C  C211  1  0.17870000  0.25060000  0.49200000  1.0 -0.0703670672
C  C212  1  0.25060000  0.49200000  0.17870000  1.0 -0.0703670672
C  C213  1  0.49200000  0.17870000  0.25060000  1.0 -0.0703670672
C  C214  1  0.82130000  0.50800000  0.74940000  1.0 -0.0703670672
C  C215  1  0.74940000  0.82130000  0.50800000  1.0 -0.0703670672
C  C216  1  0.50800000  0.74940000  0.82130000  1.0 -0.0703670672
C  C217  1  0.18220000  0.30730000  0.52330000  1.0 0.0789828563
C  C218  1  0.30730000  0.52330000  0.18220000  1.0 0.0789828563
C  C219  1  0.52330000  0.18220000  0.30730000  1.0 0.0789828563
C  C220  1  0.81780000  0.47670000  0.69270000  1.0 0.0789828563
C  C221  1  0.69270000  0.81780000  0.47670000  1.0 0.0789828563
C  C222  1  0.47670000  0.69270000  0.81780000  1.0 0.0789828563
C  C223  1  0.15580000  0.31420000  0.56860000  1.0 0.0212872355
C  C224  1  0.31420000  0.56860000  0.15580000  1.0 0.0212872355
C  C225  1  0.56860000  0.15580000  0.31420000  1.0 0.0212872355
C  C226  1  0.84420000  0.43140000  0.68580000  1.0 0.0212872355
C  C227  1  0.68580000  0.84420000  0.43140000  1.0 0.0212872355
C  C228  1  0.43140000  0.68580000  0.84420000  1.0 0.0212872355
C  C229  1  0.16640000  0.37690000  0.60480000  1.0 0.0686188162
C  C230  1  0.37690000  0.60480000  0.16640000  1.0 0.0686188162
C  C231  1  0.60480000  0.16640000  0.37690000  1.0 0.0686188162
C  C232  1  0.83360000  0.39520000  0.62310000  1.0 0.0686188162
C  C233  1  0.62310000  0.83360000  0.39520000  1.0 0.0686188162
C  C234  1  0.39520000  0.62310000  0.83360000  1.0 0.0686188162
C  C235  1  0.22930000  0.41480000  0.63510000  1.0 0.0104409472
C  C236  1  0.41480000  0.63510000  0.22930000  1.0 0.0104409472
C  C237  1  0.63510000  0.22930000  0.41480000  1.0 0.0104409472
C  C238  1  0.77070000  0.36490000  0.58520000  1.0 0.0104409472
C  C239  1  0.58520000  0.77070000  0.36490000  1.0 0.0104409472
C  C240  1  0.36490000  0.58520000  0.77070000  1.0 0.0104409472
C  C241  1  0.25950000  0.41040000  0.59370000  1.0 0.2191982456
C  C242  1  0.41040000  0.59370000  0.25950000  1.0 0.2191982456
C  C243  1  0.59370000  0.25950000  0.41040000  1.0 0.2191982456
C  C244  1  0.74050000  0.40630000  0.58960000  1.0 0.2191982456
C  C245  1  0.58960000  0.74050000  0.40630000  1.0 0.2191982456
C  C246  1  0.40630000  0.58960000  0.74050000  1.0 0.2191982456
C  C247  1  0.97270000  0.15670000  0.40070000  1.0 -0.038735785
C  C248  1  0.15670000  0.40070000  0.97270000  1.0 -0.038735785
C  C249  1  0.40070000  0.97270000  0.15670000  1.0 -0.038735785
C  C250  1  0.02730000  0.59930000  0.84330000  1.0 -0.038735785
C  C251  1  0.84330000  0.02730000  0.59930000  1.0 -0.038735785
C  C252  1  0.59930000  0.84330000  0.02730000  1.0 -0.038735785
C  C253  1  0.98880000  0.20040000  0.45700000  1.0 -0.0191652373
C  C254  1  0.20040000  0.45700000  0.98880000  1.0 -0.0191652373
C  C255  1  0.45700000  0.98880000  0.20040000  1.0 -0.0307034761
C  C256  1  0.01120000  0.54300000  0.79960000  1.0 -0.0191652373
C  C257  1  0.79960000  0.01120000  0.54300000  1.0 -0.0191652373
C  C258  1  0.54300000  0.79960000  0.01120000  1.0 -0.0307034761
C  C259  1  0.95150000  0.21030000  0.48650000  1.0 0.0272353786
C  C260  1  0.21030000  0.48650000  0.95150000  1.0 0.0272353786
C  C261  1  0.48650000  0.95150000  0.21030000  1.0 0.0272353786
C  C262  1  0.04850000  0.51350000  0.78970000  1.0 0.0272353786
C  C263  1  0.78970000  0.04850000  0.51350000  1.0 0.0272353786
C  C264  1  0.51350000  0.78970000  0.04850000  1.0 0.0272353786
C  C265  1  0.98480000  0.26110000  0.54580000  1.0 0.0789828563
C  C266  1  0.26110000  0.54580000  0.98480000  1.0 0.0789828563
C  C267  1  0.54580000  0.98480000  0.26110000  1.0 0.0789828563
C  C268  1  0.01520000  0.45420000  0.73890000  1.0 0.0789828563
C  C269  1  0.73890000  0.01520000  0.45420000  1.0 0.0789828563
C  C270  1  0.45420000  0.73890000  0.01520000  1.0 0.0789828563
C  C271  1  0.03680000  0.24920000  0.58400000  1.0 0.0424659301
C  C272  1  0.24920000  0.58400000  0.03680000  1.0 0.0424659301
C  C273  1  0.58400000  0.03680000  0.24920000  1.0 0.0424659301
C  C274  1  0.96320000  0.41600000  0.75080000  1.0 0.0424659301
C  C275  1  0.75080000  0.96320000  0.41600000  1.0 0.0424659301
C  C276  1  0.41600000  0.75080000  0.96320000  1.0 0.0424659301
C  C277  1  0.07200000  0.23720000  0.55090000  1.0 0.2191982456
C  C278  1  0.23720000  0.55090000  0.07200000  1.0 0.2191982456
C  C279  1  0.55090000  0.07200000  0.23720000  1.0 0.2191982456
C  C280  1  0.92800000  0.44910000  0.76280000  1.0 0.2191982456
C  C281  1  0.76280000  0.92800000  0.44910000  1.0 0.2191982456
C  C282  1  0.44910000  0.76280000  0.92800000  1.0 0.2191982456
C  C283  1  0.07100000  0.51250000  0.23370000  1.0 0.0424659301
C  C284  1  0.51250000  0.23370000  0.07100000  1.0 0.049445808
C  C285  1  0.23370000  0.07100000  0.51250000  1.0 0.0424659301
C  C286  1  0.92900000  0.76630000  0.48750000  1.0 0.0424659301
C  C287  1  0.48750000  0.92900000  0.76630000  1.0 0.0424659301
C  C288  1  0.76630000  0.48750000  0.92900000  1.0 0.0424659301
O  O1  1  0.71960000  0.05030000  0.22680000  1.0 -0.4039135319
O  O2  1  0.05030000  0.22680000  0.71960000  1.0 -0.4085543309
O  O3  1  0.22680000  0.71960000  0.05030000  1.0 -0.4085543309
O  O4  1  0.28040000  0.77320000  0.94970000  1.0 -0.4085543309
O  O5  1  0.94970000  0.28040000  0.77320000  1.0 -0.4085543309
O  O6  1  0.77320000  0.94970000  0.28040000  1.0 -0.4085543309
O  O7  1  0.77480000  0.26650000  0.39640000  1.0 -0.2787209145
O  O8  1  0.26650000  0.39640000  0.77480000  1.0 -0.2787209145
O  O9  1  0.39640000  0.77480000  0.26650000  1.0 -0.2787209145
O  O10  1  0.22520000  0.60360000  0.73350000  1.0 -0.2787209145
O  O11  1  0.73350000  0.22520000  0.60360000  1.0 -0.2787209145
O  O12  1  0.60360000  0.73350000  0.22520000  1.0 -0.2787209145
O  O13  1  0.81800000  0.14220000  0.38840000  1.0 -0.2787209145
O  O14  1  0.14220000  0.38840000  0.81800000  1.0 -0.2787209145
O  O15  1  0.38840000  0.81800000  0.14220000  1.0 -0.2787209145
O  O16  1  0.18200000  0.61160000  0.85780000  1.0 -0.2787209145
O  O17  1  0.85780000  0.18200000  0.61160000  1.0 -0.2787209145
O  O18  1  0.61160000  0.85780000  0.18200000  1.0 -0.2787209145
O  O19  1  0.69420000  0.15820000  0.06900000  1.0 -0.2488019073
O  O20  1  0.15820000  0.06900000  0.69420000  1.0 -0.2488019073
O  O21  1  0.06900000  0.69420000  0.15820000  1.0 -0.2488019073
O  O22  1  0.30580000  0.93100000  0.84180000  1.0 -0.2488019073
O  O23  1  0.84180000  0.30580000  0.93100000  1.0 -0.2488019073
O  O24  1  0.93100000  0.84180000  0.30580000  1.0 -0.2488019073
O  O25  1  0.71038000  0.16184000  0.18232000  1.0 -0.2238953027
O  O26  1  0.16184000  0.18232000  0.71038000  1.0 -0.2238953027
O  O27  1  0.18232000  0.71038000  0.16184000  1.0 -0.2238953027
O  O28  1  0.28962000  0.81768000  0.83816000  1.0 -0.2238953027
O  O29  1  0.83816000  0.28962000  0.81768000  1.0 -0.2238953027
O  O30  1  0.81768000  0.83816000  0.28962000  1.0 -0.2238953027
O  O31  1  0.77259000  0.30868000  0.18618000  1.0 -0.2238953027
O  O32  1  0.30868000  0.18618000  0.77259000  1.0 -0.2268327733
O  O33  1  0.18618000  0.77259000  0.30868000  1.0 -0.2268327733
O  O34  1  0.22741000  0.81382000  0.69132000  1.0 -0.2268327733
O  O35  1  0.69132000  0.22741000  0.81382000  1.0 -0.2268327733
O  O36  1  0.81382000  0.69132000  0.22741000  1.0 -0.2268327733
O  O37  1  0.69435000  0.31727000  0.24398000  1.0 -0.5770992976
O  O38  1  0.31727000  0.24398000  0.69435000  1.0 -0.5770992976
O  O39  1  0.24398000  0.69435000  0.31727000  1.0 -0.5770992976
O  O40  1  0.30565000  0.75602000  0.68273000  1.0 -0.5770992976
O  O41  1  0.68273000  0.30565000  0.75602000  1.0 -0.5770992976
O  O42  1  0.75602000  0.68273000  0.30565000  1.0 -0.5770992976
O  O43  1  0.67804000  0.24083000  0.29923000  1.0 -0.5488067212
O  O44  1  0.24083000  0.29923000  0.67804000  1.0 -0.5488067212
O  O45  1  0.29923000  0.67804000  0.24083000  1.0 -0.5488067212
O  O46  1  0.32196000  0.70077000  0.75917000  1.0 -0.5488067212
O  O47  1  0.75917000  0.32196000  0.70077000  1.0 -0.5488067212
O  O48  1  0.70077000  0.75917000  0.32196000  1.0 -0.5488067212
O  O49  1  0.76493000  0.20377000  0.28396000  1.0 -0.2614736982
O  O50  1  0.20377000  0.28396000  0.76493000  1.0 -0.2614736982
O  O51  1  0.28396000  0.76493000  0.20377000  1.0 -0.2614736982
O  O52  1  0.23507000  0.71604000  0.79623000  1.0 -0.2614736982
O  O53  1  0.79623000  0.23507000  0.71604000  1.0 -0.2614736982
O  O54  1  0.71604000  0.79623000  0.23507000  1.0 -0.2614736982
O  O55  1  0.06099000  0.60370000  0.27431000  1.0 -0.4711588687
O  O56  1  0.60370000  0.27431000  0.06099000  1.0 -0.4711588687
O  O57  1  0.27431000  0.06099000  0.60370000  1.0 -0.4711588687
O  O58  1  0.93901000  0.72569000  0.39630000  1.0 -0.4711588687
O  O59  1  0.39630000  0.93901000  0.72569000  1.0 -0.4711588687
O  O60  1  0.72569000  0.39630000  0.93901000  1.0 -0.4711588687
O  O61  1  0.76601000  0.32095000  0.10147000  1.0 -0.2488019073
O  O62  1  0.32095000  0.10147000  0.76601000  1.0 -0.2488019073
O  O63  1  0.10147000  0.76601000  0.32095000  1.0 -0.2488019073
O  O64  1  0.23399000  0.89853000  0.67905000  1.0 -0.2488019073
O  O65  1  0.67905000  0.23399000  0.89853000  1.0 -0.2488019073
O  O66  1  0.89853000  0.67905000  0.23399000  1.0 -0.2488019073
O  O67  1  0.92272000  0.42606000  0.17418000  1.0 -0.2614736982
O  O68  1  0.42606000  0.17418000  0.92272000  1.0 -0.2614736982
O  O69  1  0.17418000  0.92272000  0.42606000  1.0 -0.2614736982
O  O70  1  0.07728000  0.82582000  0.57394000  1.0 -0.2614736982
O  O71  1  0.57394000  0.07728000  0.82582000  1.0 -0.2614736982
O  O72  1  0.82582000  0.57394000  0.07728000  1.0 -0.2614736982
O  O73  1  0.87356000  0.49021000  0.23626000  1.0 -0.436956678
O  O74  1  0.49021000  0.23626000  0.87356000  1.0 -0.436956678
O  O75  1  0.23626000  0.87356000  0.49021000  1.0 -0.436956678
O  O76  1  0.12644000  0.76374000  0.50979000  1.0 -0.436956678
O  O77  1  0.50979000  0.12644000  0.76374000  1.0 -0.436956678
O  O78  1  0.76374000  0.50979000  0.12644000  1.0 -0.436956678
O  O79  1  0.76959000  0.41404000  0.23877000  1.0 -0.436956678
O  O80  1  0.41404000  0.23877000  0.76959000  1.0 -0.436956678
O  O81  1  0.23877000  0.76959000  0.41404000  1.0 -0.436956678
O  O82  1  0.23041000  0.76123000  0.58596000  1.0 -0.436956678
O  O83  1  0.58596000  0.23041000  0.76123000  1.0 -0.436956678
O  O84  1  0.76123000  0.58596000  0.23041000  1.0 -0.436956678
O  O85  1  0.11120000  0.44850000  0.15790000  1.0 -0.3568069827
O  O86  1  0.44850000  0.15790000  0.11120000  1.0 -0.3568069827
O  O87  1  0.15790000  0.11120000  0.44850000  1.0 -0.3568069827
O  O88  1  0.88880000  0.84210000  0.55150000  1.0 -0.3568069827
O  O89  1  0.55150000  0.88880000  0.84210000  1.0 -0.3568069827
O  O90  1  0.84210000  0.55150000  0.88880000  1.0 -0.3568069827
O  O91  1  0.80840000  0.33650000  0.02040000  1.0 -0.391387686
O  O92  1  0.33650000  0.02040000  0.80840000  1.0 -0.391387686
O  O93  1  0.02040000  0.80840000  0.33650000  1.0 -0.3835245636
O  O94  1  0.19160000  0.97960000  0.66350000  1.0 -0.3835245636
O  O95  1  0.66350000  0.19160000  0.97960000  1.0 -0.3835245636
O  O96  1  0.97960000  0.66350000  0.19160000  1.0 -0.3835245636
O  O97  1  0.93850000  0.54280000  0.18740000  1.0 -0.5188255352
O  O98  1  0.54280000  0.18740000  0.93850000  1.0 -0.5188255352
O  O99  1  0.18740000  0.93850000  0.54280000  1.0 -0.5188255352
O  O100  1  0.06150000  0.81260000  0.45720000  1.0 -0.5188255352
O  O101  1  0.45720000  0.06150000  0.81260000  1.0 -0.5188255352
O  O102  1  0.81260000  0.45720000  0.06150000  1.0 -0.5188255352
O  O103  1  0.99170000  0.43380000  0.14030000  1.0 -0.1886698645
O  O104  1  0.43380000  0.14030000  0.99170000  1.0 -0.1886698645
O  O105  1  0.14030000  0.99170000  0.43380000  1.0 -0.1886698645
O  O106  1  0.00830000  0.85970000  0.56620000  1.0 -0.1886698645
O  O107  1  0.56620000  0.00830000  0.85970000  1.0 -0.1886698645
O  O108  1  0.85970000  0.56620000  0.00830000  1.0 -0.1886698645
O  O109  1  0.31764000  0.54291000  0.35505000  1.0 -0.391387686
O  O110  1  0.54291000  0.35505000  0.31764000  1.0 -0.391387686
O  O111  1  0.35505000  0.31764000  0.54291000  1.0 -0.391387686
O  O112  1  0.68236000  0.64495000  0.45709000  1.0 -0.391387686
O  O113  1  0.45709000  0.68236000  0.64495000  1.0 -0.391387686
O  O114  1  0.64495000  0.45709000  0.68236000  1.0 -0.391387686
O  O115  1  0.21923000  0.62083000  0.47979000  1.0 -0.4153116089
O  O116  1  0.62083000  0.47979000  0.21923000  1.0 -0.4085543309
O  O117  1  0.47979000  0.21923000  0.62083000  1.0 -0.4085543309
O  O118  1  0.78077000  0.52021000  0.37917000  1.0 -0.4085543309
O  O119  1  0.37917000  0.78077000  0.52021000  1.0 -0.4085543309
O  O120  1  0.52021000  0.37917000  0.78077000  1.0 -0.4085543309
O  O121  1  0.14254000  0.63286000  0.38380000  1.0 -0.4287523073
O  O122  1  0.63286000  0.38380000  0.14254000  1.0 -0.4287523073
O  O123  1  0.38380000  0.14254000  0.63286000  1.0 -0.4287523073
O  O124  1  0.85746000  0.61620000  0.36714000  1.0 -0.4287523073
O  O125  1  0.36714000  0.85746000  0.61620000  1.0 -0.4287523073
O  O126  1  0.61620000  0.36714000  0.85746000  1.0 -0.4287523073
O  O127  1  0.21096000  0.54986000  0.31285000  1.0 -0.296470224
O  O128  1  0.54986000  0.31285000  0.21096000  1.0 -0.296470224
O  O129  1  0.31285000  0.21096000  0.54986000  1.0 -0.296470224
O  O130  1  0.78904000  0.68715000  0.45014000  1.0 -0.296470224
O  O131  1  0.45014000  0.78904000  0.68715000  1.0 -0.296470224
O  O132  1  0.68715000  0.45014000  0.78904000  1.0 -0.296470224
O  O133  1  0.34190000  0.40200000  0.50860000  1.0 -0.3169943533
O  O134  1  0.40200000  0.50860000  0.34190000  1.0 -0.3169943533
O  O135  1  0.50860000  0.34190000  0.40200000  1.0 -0.3169943533
O  O136  1  0.65810000  0.49140000  0.59800000  1.0 -0.3169943533
O  O137  1  0.59800000  0.65810000  0.49140000  1.0 -0.3169943533
O  O138  1  0.49140000  0.59800000  0.65810000  1.0 -0.3169943533
O  O139  1  0.31187000  0.48517000  0.47106000  1.0 -0.2488019073
O  O140  1  0.48517000  0.47106000  0.31187000  1.0 -0.2488019073
O  O141  1  0.47106000  0.31187000  0.48517000  1.0 -0.2488019073
O  O142  1  0.68813000  0.52894000  0.51483000  1.0 -0.2488019073
O  O143  1  0.51483000  0.68813000  0.52894000  1.0 -0.2488019073
O  O144  1  0.52894000  0.51483000  0.68813000  1.0 -0.2488019073
O  O145  1  0.24065000  0.43520000  0.55625000  1.0 -0.2268327733
O  O146  1  0.43520000  0.55625000  0.24065000  1.0 -0.2268327733
O  O147  1  0.55625000  0.24065000  0.43520000  1.0 -0.2268327733
O  O148  1  0.75935000  0.44375000  0.56480000  1.0 -0.2268327733
O  O149  1  0.56480000  0.75935000  0.44375000  1.0 -0.2268327733
O  O150  1  0.44375000  0.56480000  0.75935000  1.0 -0.2268327733
O  O151  1  0.29373000  0.55984000  0.62273000  1.0 -0.4711588687
O  O152  1  0.55984000  0.62273000  0.29373000  1.0 -0.4711588687
O  O153  1  0.62273000  0.29373000  0.55984000  1.0 -0.4711588687
O  O154  1  0.70627000  0.37727000  0.44016000  1.0 -0.4711588687
O  O155  1  0.44016000  0.70627000  0.37727000  1.0 -0.4711588687
O  O156  1  0.37727000  0.44016000  0.70627000  1.0 -0.4711588687
O  O157  1  0.31867000  0.62739000  0.56024000  1.0 -0.4487312229
O  O158  1  0.62739000  0.56024000  0.31867000  1.0 -0.4487312229
O  O159  1  0.56024000  0.31867000  0.62739000  1.0 -0.4487312229
O  O160  1  0.68133000  0.43976000  0.37261000  1.0 -0.4487312229
O  O161  1  0.37261000  0.68133000  0.43976000  1.0 -0.4487312229
O  O162  1  0.43976000  0.37261000  0.68133000  1.0 -0.4487312229
O  O163  1  0.24814000  0.52485000  0.44642000  1.0 -0.2614736982
O  O164  1  0.52485000  0.44642000  0.24814000  1.0 -0.2614736982
O  O165  1  0.44642000  0.24814000  0.52485000  1.0 -0.2614736982
O  O166  1  0.75186000  0.55358000  0.47515000  1.0 -0.2614736982
O  O167  1  0.47515000  0.75186000  0.55358000  1.0 -0.2614736982
O  O168  1  0.55358000  0.47515000  0.75186000  1.0 -0.2614736982
O  O169  1  0.20046000  0.22904000  0.53320000  1.0 -0.4972441834
O  O170  1  0.22904000  0.53320000  0.20046000  1.0 -0.4972441834
O  O171  1  0.53320000  0.20046000  0.22904000  1.0 -0.4972441834
O  O172  1  0.79954000  0.46680000  0.77096000  1.0 -0.4972441834
O  O173  1  0.77096000  0.79954000  0.46680000  1.0 -0.4972441834
O  O174  1  0.46680000  0.77096000  0.79954000  1.0 -0.4972441834
O  O175  1  0.13760000  0.36400000  0.63810000  1.0 -0.391387686
O  O176  1  0.36400000  0.63810000  0.13760000  1.0 -0.391387686
O  O177  1  0.63810000  0.13760000  0.36400000  1.0 -0.391387686
O  O178  1  0.86240000  0.36190000  0.63600000  1.0 -0.391387686
O  O179  1  0.63600000  0.86240000  0.36190000  1.0 -0.391387686
O  O180  1  0.36190000  0.63600000  0.86240000  1.0 -0.391387686
O  O181  1  0.23410000  0.47180000  0.66150000  1.0 -0.4085543309
O  O182  1  0.47180000  0.66150000  0.23410000  1.0 -0.4085543309
O  O183  1  0.66150000  0.23410000  0.47180000  1.0 -0.4085543309
O  O184  1  0.76590000  0.33850000  0.52820000  1.0 -0.4085543309
O  O185  1  0.52820000  0.76590000  0.33850000  1.0 -0.4085543309
O  O186  1  0.33850000  0.52820000  0.76590000  1.0 -0.4085543309
O  O187  1  0.24894000  0.35130000  0.56376000  1.0 -0.2656706911
O  O188  1  0.35130000  0.56376000  0.24894000  1.0 -0.2614736982
O  O189  1  0.56376000  0.24894000  0.35130000  1.0 -0.2614736982
O  O190  1  0.75106000  0.43624000  0.64870000  1.0 -0.2656706911
O  O191  1  0.64870000  0.75106000  0.43624000  1.0 -0.2614736982
O  O192  1  0.43624000  0.64870000  0.75106000  1.0 -0.2656706911
O  O193  1  0.97570000  0.14130000  0.35040000  1.0 -0.3370743038
O  O194  1  0.14130000  0.35040000  0.97570000  1.0 -0.3370743038
O  O195  1  0.35040000  0.97570000  0.14130000  1.0 -0.3370743038
O  O196  1  0.02430000  0.64960000  0.85870000  1.0 -0.3370743038
O  O197  1  0.85870000  0.02430000  0.64960000  1.0 -0.3370743038
O  O198  1  0.64960000  0.85870000  0.02430000  1.0 -0.3370743038
O  O199  1  0.04360000  0.19590000  0.49340000  1.0 -0.1406180453
O  O200  1  0.19590000  0.49340000  0.04360000  1.0 -0.1406180453
O  O201  1  0.49340000  0.04360000  0.19590000  1.0 -0.1406180453
O  O202  1  0.95640000  0.50660000  0.80410000  1.0 -0.1406180453
O  O203  1  0.80410000  0.95640000  0.50660000  1.0 -0.1406180453
O  O204  1  0.50660000  0.80410000  0.95640000  1.0 -0.1406180453
O  O205  1  0.90660000  0.22030000  0.44640000  1.0 -0.241566538
O  O206  1  0.22030000  0.44640000  0.90660000  1.0 -0.241566538
O  O207  1  0.44640000  0.90660000  0.22030000  1.0 -0.241566538
O  O208  1  0.09340000  0.55360000  0.77970000  1.0 -0.241566538
O  O209  1  0.77970000  0.09340000  0.55360000  1.0 -0.241566538
O  O210  1  0.55360000  0.77970000  0.09340000  1.0 -0.241566538
O  O211  1  0.94660000  0.26390000  0.57400000  1.0 -0.4487312229
O  O212  1  0.26390000  0.57400000  0.94660000  1.0 -0.4487312229
O  O213  1  0.57400000  0.94660000  0.26390000  1.0 -0.4487312229
O  O214  1  0.05340000  0.42600000  0.73610000  1.0 -0.4487312229
O  O215  1  0.73610000  0.05340000  0.42600000  1.0 -0.4487312229
O  O216  1  0.42600000  0.73610000  0.05340000  1.0 -0.4487312229
O  O217  1  0.06570000  0.29580000  0.64020000  1.0 -0.4938548129
O  O218  1  0.29580000  0.64020000  0.06570000  1.0 -0.4938548129
O  O219  1  0.64020000  0.06570000  0.29580000  1.0 -0.4972441834
O  O220  1  0.93430000  0.35980000  0.70420000  1.0 -0.4938548129
O  O221  1  0.70420000  0.93430000  0.35980000  1.0 -0.4938548129
O  O222  1  0.35980000  0.70420000  0.93430000  1.0 -0.4938548129
O  O223  1  0.09380000  0.28250000  0.53690000  1.0 -0.1886698645
O  O224  1  0.28250000  0.53690000  0.09380000  1.0 -0.1886698645
O  O225  1  0.53690000  0.09380000  0.28250000  1.0 -0.1886698645
O  O226  1  0.90620000  0.46310000  0.71750000  1.0 -0.1886698645
O  O227  1  0.71750000  0.90620000  0.46310000  1.0 -0.1886698645
O  O228  1  0.46310000  0.71750000  0.90620000  1.0 -0.1886698645
O  O229  1  0.11117000  0.52247000  0.29084000  1.0 -0.2488019073
O  O230  1  0.52247000  0.29084000  0.11117000  1.0 -0.2488019073
O  O231  1  0.29084000  0.11117000  0.52247000  1.0 -0.2488019073
O  O232  1  0.88883000  0.70916000  0.47753000  1.0 -0.2488019073
O  O233  1  0.47753000  0.88883000  0.70916000  1.0 -0.2488019073
O  O234  1  0.70916000  0.47753000  0.88883000  1.0 -0.2488019073
O  O235  1  0.86600000  0.30030000  0.51440000  1.0 -0.5364763779
O  O236  1  0.30030000  0.51440000  0.86600000  1.0 -0.5364763779
O  O237  1  0.51440000  0.86600000  0.30030000  1.0 -0.5364763779
O  O238  1  0.13400000  0.48560000  0.69970000  1.0 -0.5364763779
O  O239  1  0.69970000  0.13400000  0.48560000  1.0 -0.5364763779
O  O240  1  0.48560000  0.69970000  0.13400000  1.0 -0.5349444789
