# DDEC6 charges by PACMAN v1.1 (https://github.com/mtap-research/PACMAN-charge/)
data_LALPIZ_FSR_pacman
_symmetry_space_group_name_H-M   'P 1'
_cell_length_a   9.46090000
_cell_length_b   11.45800000
_cell_length_c   14.59300000
_cell_angle_alpha   69.96000000
_cell_angle_beta   85.42000000
_cell_angle_gamma   86.41000000
_symmetry_Int_Tables_number   1
_chemical_formula_structural   YH20C15S3(N3O2)4
_chemical_formula_sum   'Y2 H40 C30 S6 N24 O16'
_cell_volume   1480.34941401
_cell_formula_units_Z   2
loop_
 _symmetry_equiv_pos_site_id
 _symmetry_equiv_pos_as_xyz
  1  'x, y, z'
loop_
 _atom_site_type_symbol
 _atom_site_label
 _atom_site_symmetry_multiplicity
 _atom_site_fract_x
 _atom_site_fract_y
 _atom_site_fract_z
 _atom_site_occupancy
 _atom_site_charge
Y  Y1  1  0.20317000  0.04528000  0.99749000  1.0 1.7587654082
Y  Y2  1  0.79683000  0.95472000  0.00251000  1.0 1.7587654082
H  H1  1  0.13340000  0.63060000  0.15910000  1.0 0.1689407168
H  H2  1  0.86660000  0.36940000  0.84090000  1.0 0.1689407168
H  H3  1  0.02700000  0.62950000  0.24720000  1.0 0.1612735081
H  H4  1  0.97300000  0.37050000  0.75280000  1.0 0.1612735081
H  H5  1  0.65900000  0.62200000  0.10200000  1.0 0.2808208553
H  H6  1  0.34100000  0.37800000  0.89800000  1.0 0.2808208553
H  H7  1  0.73800000  0.52400000  0.18800000  1.0 0.2808208553
H  H8  1  0.26200000  0.47600000  0.81200000  1.0 0.2808208553
H  H9  1  0.12120000  0.05770000  0.44310000  1.0 0.1083834222
H  H10  1  0.87880000  0.94230000  0.55690000  1.0 0.1083834222
H  H11  1  0.12860000  0.93570000  0.53450000  1.0 0.1311095385
H  H12  1  0.87140000  0.06430000  0.46550000  1.0 0.1311095385
H  H13  1  0.72450000  0.65080000  0.60820000  1.0 0.2896581902
H  H14  1  0.27550000  0.34920000  0.39180000  1.0 0.2896581902
H  H15  1  0.73900000  0.71320000  0.68110000  1.0 0.240024039
H  H16  1  0.26100000  0.28680000  0.31890000  1.0 0.240024039
H  H17  1  0.14470000  0.90200000  0.71940000  1.0 0.1612735081
H  H18  1  0.85530000  0.09800000  0.28060000  1.0 0.1612735081
H  H19  1  0.18520000  0.77670000  0.80200000  1.0 0.1612735081
H  H20  1  0.81480000  0.22330000  0.19800000  1.0 0.1612735081
H  H21  1  0.88120000  0.46550000  0.56760000  1.0 0.118946494
H  H22  1  0.11880000  0.53450000  0.43240000  1.0 0.118946494
H  H23  1  0.88540000  0.58850000  0.47690000  1.0 0.1311095385
H  H24  1  0.11460000  0.41150000  0.52310000  1.0 0.1311095385
H  H25  1  0.33090000  0.95550000  0.39100000  1.0 0.2808208553
H  H26  1  0.66910000  0.04450000  0.60900000  1.0 0.2808208553
H  H27  1  0.37350000  0.88050000  0.32700000  1.0 0.2808208553
H  H28  1  0.62650000  0.11950000  0.67300000  1.0 0.2808208553
H  H29  1  0.51520000  0.16280000  0.19130000  1.0 0.1689407168
H  H30  1  0.48480000  0.83720000  0.80870000  1.0 0.1689407168
H  H31  1  0.36420000  0.16820000  0.24160000  1.0 0.1399242199
H  H32  1  0.63580000  0.83180000  0.75840000  1.0 0.1399242199
H  H33  1  0.97070000  0.51860000  0.09080000  1.0 0.118946494
H  H34  1  0.02930000  0.48140000  0.90920000  1.0 0.118946494
H  H35  1  0.92050000  0.61180000  0.99120000  1.0 0.1399242199
H  H36  1  0.07950000  0.38820000  0.00880000  1.0 0.1399242199
H  H37  1  0.37190000  0.80980000  0.00520000  1.0 0.2896581902
H  H38  1  0.62810000  0.19020000  0.99480000  1.0 0.2896581902
H  H39  1  0.42810000  0.84300000  0.07070000  1.0 0.313734421
H  H40  1  0.57190000  0.15700000  0.92930000  1.0 0.313734421
C  C1  1  0.07470000  0.90240000  0.85770000  1.0 0.6694282381
C  C2  1  0.92530000  0.09760000  0.14230000  1.0 0.6694282381
C  C3  1  0.11430000  0.80260000  0.31880000  1.0 0.1399242199
C  C4  1  0.88570000  0.19740000  0.68120000  1.0 0.1399242199
C  C5  1  0.99940000  0.78380000  0.12700000  1.0 0.6694282381
C  C6  1  0.00060000  0.21620000  0.87300000  1.0 0.6694282381
C  C7  1  0.08890000  0.68170000  0.19510000  1.0 -0.3812402697
C  C8  1  0.91110000  0.31830000  0.80490000  1.0 -0.3812402697
C  C9  1  0.07210000  0.98260000  0.48020000  1.0 -0.2650087686
C  C10  1  0.92790000  0.01740000  0.51980000  1.0 -0.2609186714
C  C11  1  0.01610000  0.69690000  0.68460000  1.0 0.1311095385
C  C12  1  0.98390000  0.30310000  0.31540000  1.0 0.1399242199
C  C13  1  0.11120000  0.84090000  0.78050000  1.0 -0.363101712
C  C14  1  0.88880000  0.15910000  0.21950000  1.0 -0.363101712
C  C15  1  0.05810000  0.90710000  0.41670000  1.0 0.2316570966
C  C16  1  0.94190000  0.09290000  0.58330000  1.0 0.2316570966
C  C17  1  0.00370000  0.59440000  0.58490000  1.0 0.2535308091
C  C18  1  0.99630000  0.40560000  0.41510000  1.0 0.2535308091
C  C19  1  0.94270000  0.52950000  0.52550000  1.0 -0.2609186714
C  C20  1  0.05730000  0.47050000  0.47450000  1.0 -0.2609186714
C  C21  1  0.42020000  0.19950000  0.18010000  1.0 -0.393252364
C  C22  1  0.57980000  0.80050000  0.81990000  1.0 -0.393252364
C  C23  1  0.35860000  0.15230000  0.10780000  1.0 0.6078263013
C  C24  1  0.64140000  0.84770000  0.89220000  1.0 0.6078263013
C  C25  1  0.59730000  0.38490000  0.08760000  1.0 0.1524110077
C  C26  1  0.40270000  0.61510000  0.91240000  1.0 0.1524110077
C  C27  1  0.81010000  0.45410000  0.04010000  1.0 0.2316570966
C  C28  1  0.18990000  0.54590000  0.95990000  1.0 0.2316570966
C  C29  1  0.94070000  0.52480000  0.02730000  1.0 -0.2494688294
C  C30  1  0.05930000  0.47520000  0.97270000  1.0 -0.2494688294
S  S1  1  0.95139000  0.77395000  0.76421000  1.0 0.042647255
S  S2  1  0.04861000  0.22605000  0.23579000  1.0 0.042647255
S  S3  1  0.43093000  0.36519000  0.14969000  1.0 0.0318991518
S  S4  1  0.56907000  0.63481000  0.85031000  1.0 0.0318991518
S  S5  1  0.22413000  0.73560000  0.24817000  1.0 0.0684315967
S  S6  1  0.77587000  0.26440000  0.75183000  1.0 0.0684315967
N  N1  1  0.69090000  0.46800000  0.09490000  1.0 0.0318991518
N  N2  1  0.30910000  0.53200000  0.90510000  1.0 0.0318991518
N  N3  1  0.79230000  0.36840000  0.00220000  1.0 -0.24251483
N  N4  1  0.20770000  0.63160000  0.99780000  1.0 -0.2494688294
N  N5  1  0.92370000  0.65220000  0.63880000  1.0 0.0609336285
N  N6  1  0.07630000  0.34780000  0.36120000  1.0 0.0609336285
N  N7  1  0.97800000  0.79550000  0.33800000  1.0 -0.24251483
N  N8  1  0.02200000  0.20450000  0.66200000  1.0 -0.24251483
N  N9  1  0.65560000  0.32460000  0.03270000  1.0 -0.2318708064
N  N10  1  0.34440000  0.67540000  0.96730000  1.0 -0.2318708064
N  N11  1  0.16930000  0.87220000  0.36650000  1.0 0.0684315967
N  N12  1  0.83070000  0.12780000  0.63350000  1.0 0.0684315967
N  N13  1  0.66170000  0.54790000  0.14950000  1.0 -0.4684676142
N  N14  1  0.33830000  0.45210000  0.85050000  1.0 -0.4684676142
N  N15  1  0.77690000  0.67500000  0.64330000  1.0 -0.4565772922
N  N16  1  0.22310000  0.32500000  0.35670000  1.0 -0.4565772922
N  N17  1  0.94110000  0.86320000  0.40180000  1.0 -0.2609186714
N  N18  1  0.05890000  0.13680000  0.59820000  1.0 -0.2609186714
N  N19  1  0.13670000  0.60260000  0.59590000  1.0 -0.2609186714
N  N20  1  0.86330000  0.39740000  0.40410000  1.0 -0.2609186714
N  N21  1  0.14610000  0.66940000  0.66050000  1.0 -0.2766009034
N  N22  1  0.85390000  0.33060000  0.33950000  1.0 -0.2766009034
N  N23  1  0.30900000  0.90720000  0.36080000  1.0 -0.4485620321
N  N24  1  0.69100000  0.09280000  0.63920000  1.0 -0.4485620321
O  O1  1  0.17190000  0.95860000  0.87570000  1.0 -0.5338202031
O  O2  1  0.82810000  0.04140000  0.12430000  1.0 -0.5338202031
O  O3  1  0.05270000  0.88540000  0.07510000  1.0 -0.6412822516
O  O4  1  0.94730000  0.11460000  0.92490000  1.0 -0.6412822516
O  O5  1  0.87260000  0.76350000  0.12180000  1.0 -0.5097456487
O  O6  1  0.12740000  0.23650000  0.87820000  1.0 -0.5097456487
O  O7  1  0.94970000  0.89160000  0.89430000  1.0 -0.5795293064
O  O8  1  0.05030000  0.10840000  0.10570000  1.0 -0.5795293064
O  O9  1  0.31280000  0.22240000  0.02920000  1.0 -0.5441681059
O  O10  1  0.68720000  0.77760000  0.97080000  1.0 -0.5441681059
O  O11  1  0.35180000  0.03460000  0.13280000  1.0 -0.5569075258
O  O12  1  0.64820000  0.96540000  0.86720000  1.0 -0.5569075258
O  O13  1  0.36860000  0.87790000  0.01880000  1.0 -0.6910518916
O  O14  1  0.63140000  0.12210000  0.98120000  1.0 -0.6910518916
O  O15  1  0.39870000  0.11790000  0.87290000  1.0 -0.2609186714
O  O16  1  0.60130000  0.88210000  0.12710000  1.0 -0.2609186714
