# DDEC6 charges by PACMAN v1.1 (https://github.com/mtap-research/PACMAN-charge/)
data_LALPOF_ASR_pacman
_symmetry_space_group_name_H-M   'P 1'
_cell_length_a   9.58790000
_cell_length_b   11.57000000
_cell_length_c   14.58300000
_cell_angle_alpha   69.16000000
_cell_angle_beta   85.20000000
_cell_angle_gamma   86.30000000
_symmetry_Int_Tables_number   1
_chemical_formula_structural   CeH18C15S3(N2O)6
_chemical_formula_sum   'Ce2 H36 C30 S6 N24 O12'
_cell_volume   1505.53372359
_cell_formula_units_Z   2
loop_
 _symmetry_equiv_pos_site_id
 _symmetry_equiv_pos_as_xyz
  1  'x, y, z'
loop_
 _atom_site_type_symbol
 _atom_site_label
 _atom_site_symmetry_multiplicity
 _atom_site_fract_x
 _atom_site_fract_y
 _atom_site_fract_z
 _atom_site_occupancy
 _atom_site_charge
Ce  Ce1  1  0.20609000  0.04316000  0.99879000  1.0 1.8815783544
Ce  Ce2  1  0.79391000  0.95684000  0.00121000  1.0 1.8815783544
H  H1  1  0.13240000  0.63020000  0.16360000  1.0 0.1737489386
H  H2  1  0.86760000  0.36980000  0.83640000  1.0 0.1737489386
H  H3  1  0.03040000  0.62720000  0.25390000  1.0 0.1614564815
H  H4  1  0.96960000  0.37280000  0.74610000  1.0 0.1614564815
H  H5  1  0.67100000  0.61600000  0.10600000  1.0 0.2820277397
H  H6  1  0.32900000  0.38400000  0.89400000  1.0 0.2820277397
H  H7  1  0.74200000  0.52000000  0.19800000  1.0 0.2731262727
H  H8  1  0.25800000  0.48000000  0.80200000  1.0 0.2731262727
H  H9  1  0.12130000  0.05560000  0.44410000  1.0 0.1030039026
H  H10  1  0.87870000  0.94440000  0.55590000  1.0 0.1030039026
H  H11  1  0.12440000  0.93370000  0.53680000  1.0 0.1200741066
H  H12  1  0.87560000  0.06630000  0.46320000  1.0 0.1200741066
H  H13  1  0.72730000  0.65190000  0.60600000  1.0 0.2820277397
H  H14  1  0.27270000  0.34810000  0.39400000  1.0 0.2820277397
H  H15  1  0.74160000  0.71400000  0.67820000  1.0 0.2371919139
H  H16  1  0.25840000  0.28600000  0.32180000  1.0 0.2371919139
H  H17  1  0.14880000  0.89310000  0.71450000  1.0 0.1614564815
H  H18  1  0.85120000  0.10690000  0.28550000  1.0 0.1614564815
H  H19  1  0.18180000  0.76970000  0.80200000  1.0 0.1533865168
H  H20  1  0.81820000  0.23030000  0.19800000  1.0 0.1533865168
H  H21  1  0.88090000  0.46670000  0.56620000  1.0 0.1115967932
H  H22  1  0.11910000  0.53330000  0.43380000  1.0 0.1115967932
H  H23  1  0.88910000  0.58960000  0.47430000  1.0 0.131087838
H  H24  1  0.11090000  0.41040000  0.52570000  1.0 0.131087838
H  H25  1  0.32720000  0.95110000  0.39480000  1.0 0.2820277397
H  H26  1  0.67280000  0.04890000  0.60520000  1.0 0.2820277397
H  H27  1  0.36930000  0.88030000  0.32870000  1.0 0.2731262727
H  H28  1  0.63070000  0.11970000  0.67130000  1.0 0.2731262727
H  H29  1  0.51840000  0.16590000  0.19510000  1.0 0.1614564815
H  H30  1  0.48160000  0.83410000  0.80490000  1.0 0.1614564815
H  H31  1  0.36880000  0.17250000  0.24470000  1.0 0.131087838
H  H32  1  0.63120000  0.82750000  0.75530000  1.0 0.131087838
H  H33  1  0.96880000  0.51760000  0.09120000  1.0 0.1115967932
H  H34  1  0.03120000  0.48240000  0.90880000  1.0 0.1115967932
H  H35  1  0.92140000  0.61170000  0.99030000  1.0 0.131087838
H  H36  1  0.07860000  0.38830000  0.00970000  1.0 0.131087838
C  C1  1  0.07690000  0.90240000  0.85010000  1.0 0.6830316915
C  C2  1  0.92310000  0.09760000  0.14990000  1.0 0.6830316915
C  C3  1  0.11160000  0.80660000  0.31930000  1.0 0.142332972
C  C4  1  0.88840000  0.19340000  0.68070000  1.0 0.142332972
C  C5  1  0.99220000  0.77640000  0.13150000  1.0 0.6830316915
C  C6  1  0.00780000  0.22360000  0.86850000  1.0 0.6830316915
C  C7  1  0.08710000  0.68080000  0.19890000  1.0 -0.3665898756
C  C8  1  0.91290000  0.31920000  0.80110000  1.0 -0.3665898756
C  C9  1  0.07060000  0.98170000  0.48140000  1.0 -0.267791249
C  C10  1  0.92940000  0.01830000  0.51860000  1.0 -0.267791249
C  C11  1  0.01470000  0.69440000  0.68360000  1.0 0.142332972
C  C12  1  0.98530000  0.30560000  0.31640000  1.0 0.142332972
C  C13  1  0.11200000  0.83570000  0.77700000  1.0 -0.3562250452
C  C14  1  0.88800000  0.16430000  0.22300000  1.0 -0.3562250452
C  C15  1  0.05600000  0.90700000  0.41760000  1.0 0.2339400409
C  C16  1  0.94400000  0.09300000  0.58240000  1.0 0.2339400409
C  C17  1  0.00440000  0.59280000  0.58460000  1.0 0.2471437885
C  C18  1  0.99560000  0.40720000  0.41540000  1.0 0.2471437885
C  C19  1  0.94340000  0.52960000  0.52430000  1.0 -0.267791249
C  C20  1  0.05660000  0.47040000  0.47570000  1.0 -0.267791249
C  C21  1  0.42480000  0.20270000  0.18290000  1.0 -0.3773510174
C  C22  1  0.57520000  0.79730000  0.81710000  1.0 -0.3773510174
C  C23  1  0.36450000  0.15520000  0.11120000  1.0 0.6460169239
C  C24  1  0.63550000  0.84480000  0.88880000  1.0 0.6460169239
C  C25  1  0.60120000  0.38740000  0.08730000  1.0 0.142332972
C  C26  1  0.39880000  0.61260000  0.91270000  1.0 0.142332972
C  C27  1  0.81140000  0.45490000  0.03900000  1.0 0.2163678466
C  C28  1  0.18860000  0.54510000  0.96100000  1.0 0.2163678466
C  C29  1  0.94050000  0.52480000  0.02700000  1.0 -0.2525115923
C  C30  1  0.05950000  0.47520000  0.97300000  1.0 -0.2525115923
S  S1  1  0.95154000  0.77316000  0.76132000  1.0 0.0246538504
S  S2  1  0.04846000  0.22684000  0.23868000  1.0 0.0305362887
S  S3  1  0.43610000  0.36807000  0.14876000  1.0 0.0382787606
S  S4  1  0.56390000  0.63193000  0.85124000  1.0 0.0305362887
S  S5  1  0.21969000  0.74342000  0.24582000  1.0 0.0586342497
S  S6  1  0.78031000  0.25658000  0.75418000  1.0 0.0586342497
N  N1  1  0.69340000  0.46740000  0.09490000  1.0 0.0382787606
N  N2  1  0.30660000  0.53260000  0.90510000  1.0 0.0382787606
N  N3  1  0.79390000  0.37120000  0.00040000  1.0 -0.2599128033
N  N4  1  0.20610000  0.62880000  0.99960000  1.0 -0.2599128033
N  N5  1  0.92430000  0.65130000  0.63740000  1.0 0.0504739728
N  N6  1  0.07570000  0.34870000  0.36260000  1.0 0.0504739728
N  N7  1  0.97680000  0.79860000  0.33820000  1.0 -0.2525115923
N  N8  1  0.02320000  0.20140000  0.66180000  1.0 -0.2525115923
N  N9  1  0.65830000  0.32940000  0.03040000  1.0 -0.2599128033
N  N10  1  0.34170000  0.67060000  0.96960000  1.0 -0.2599128033
N  N11  1  0.16650000  0.87330000  0.36670000  1.0 0.0586342497
N  N12  1  0.83350000  0.12670000  0.63330000  1.0 0.0504739728
N  N13  1  0.66630000  0.54550000  0.15000000  1.0 -0.4715326743
N  N14  1  0.33370000  0.45450000  0.85000000  1.0 -0.4715326743
N  N15  1  0.77890000  0.67550000  0.64100000  1.0 -0.4715326743
N  N16  1  0.22110000  0.32450000  0.35900000  1.0 -0.4715326743
N  N17  1  0.94140000  0.86470000  0.40270000  1.0 -0.267791249
N  N18  1  0.05860000  0.13530000  0.59730000  1.0 -0.2599128033
N  N19  1  0.13370000  0.59850000  0.59710000  1.0 -0.2599128033
N  N20  1  0.86630000  0.40150000  0.40290000  1.0 -0.2599128033
N  N21  1  0.14260000  0.66480000  0.66150000  1.0 -0.2844102101
N  N22  1  0.85740000  0.33520000  0.33850000  1.0 -0.2844102101
N  N23  1  0.30550000  0.90570000  0.36290000  1.0 -0.455072047
N  N24  1  0.69450000  0.09430000  0.63710000  1.0 -0.455072047
O  O1  1  0.17460000  0.95240000  0.87062000  1.0 -0.6080697791
O  O2  1  0.82540000  0.04760000  0.12938000  1.0 -0.6080697791
O  O3  1  0.04050000  0.87830000  0.07493000  1.0 -0.6839917318
O  O4  1  0.95950000  0.12170000  0.92507000  1.0 -0.6839917318
O  O5  1  0.86850000  0.75090000  0.13083000  1.0 -0.5495597438
O  O6  1  0.13150000  0.24910000  0.86917000  1.0 -0.5495597438
O  O7  1  0.95110000  0.90060000  0.88260000  1.0 -0.6080697791
O  O8  1  0.04890000  0.09940000  0.11740000  1.0 -0.6080697791
O  O9  1  0.31720000  0.22380000  0.03305000  1.0 -0.5827481465
O  O10  1  0.68280000  0.77620000  0.96695000  1.0 -0.5827481465
O  O11  1  0.36170000  0.03710000  0.13854000  1.0 -0.6632717864
O  O12  1  0.63830000  0.96290000  0.86146000  1.0 -0.6632717864
