# DDEC6 charges by PACMAN v1.1 (https://github.com/mtap-research/PACMAN-charge/)
data_LAMFIO_ASR_pacman
_symmetry_space_group_name_H-M   'P 1'
_cell_length_a   13.95290000
_cell_length_b   13.95290000
_cell_length_c   14.11600000
_cell_angle_alpha   89.81730000
_cell_angle_beta   90.18270000
_cell_angle_gamma   148.21300000
_symmetry_Int_Tables_number   1
_chemical_formula_structural   CdNiC7N6
_chemical_formula_sum   'Cd4 Ni4 C28 N24'
_cell_volume   1447.61623506
_cell_formula_units_Z   4
loop_
 _symmetry_equiv_pos_site_id
 _symmetry_equiv_pos_as_xyz
  1  'x, y, z'
loop_
 _atom_site_type_symbol
 _atom_site_label
 _atom_site_symmetry_multiplicity
 _atom_site_fract_x
 _atom_site_fract_y
 _atom_site_fract_z
 _atom_site_occupancy
 _atom_site_charge
Cd  Cd1  1  0.97962000  0.24998000  0.72020000  1.0 1.0575300855
Cd  Cd2  1  0.24998000  0.97962000  0.77980000  1.0 1.0575300855
Cd  Cd3  1  0.02038000  0.75002000  0.27980000  1.0 1.0575300855
Cd  Cd4  1  0.75002000  0.02038000  0.22020000  1.0 1.054757039
Ni  Ni1  1  0.62010000  0.62010000  0.75000000  1.0 0.0803033066
Ni  Ni2  1  0.37990000  0.37990000  0.25000000  1.0 0.0803033066
Ni  Ni3  1  0.50000000  0.00000000  0.50000000  1.0 0.0514475507
Ni  Ni4  1  0.00000000  0.50000000  0.00000000  1.0 0.0514475507
C  C1  1  0.74430000  0.84170000  0.74200000  1.0 0.2038707239
C  C2  1  0.84170000  0.74430000  0.75800000  1.0 0.2038707239
C  C3  1  0.25570000  0.15830000  0.25800000  1.0 0.2094446299
C  C4  1  0.15830000  0.25570000  0.24200000  1.0 0.2094446299
C  C5  1  0.39820000  0.49380000  0.74800000  1.0 0.1732831624
C  C6  1  0.49380000  0.39820000  0.75200000  1.0 0.1732831624
C  C7  1  0.60180000  0.50620000  0.25200000  1.0 0.1732831624
C  C8  1  0.50620000  0.60180000  0.24800000  1.0 0.1732831624
C  C9  1  0.62910000  0.06490000  0.60900000  1.0 0.2187451971
C  C10  1  0.06490000  0.62910000  0.89100000  1.0 0.2187451971
C  C11  1  0.37090000  0.93510000  0.39100000  1.0 0.2187451971
C  C12  1  0.93510000  0.37090000  0.10900000  1.0 0.2187451971
C  C13  1  0.63290000  0.03110000  0.42100000  1.0 0.1298213088
C  C14  1  0.03110000  0.63290000  0.07900000  1.0 0.1298213088
C  C15  1  0.36710000  0.96890000  0.57900000  1.0 0.1298213088
C  C16  1  0.96890000  0.36710000  0.92100000  1.0 0.1298213088
C  C17  1  0.18900000  0.56700000  0.58300000  1.0 0.147645778
C  C18  1  0.56700000  0.18900000  0.91700000  1.0 0.147645778
C  C19  1  0.81100000  0.43300000  0.41700000  1.0 0.147645778
C  C20  1  0.43300000  0.81100000  0.08300000  1.0 0.147645778
C  C21  1  0.18300000  0.47900000  0.53500000  1.0 0.2094446299
C  C22  1  0.47900000  0.18300000  0.96500000  1.0 0.2094446299
C  C23  1  0.81700000  0.52100000  0.46500000  1.0 0.2094446299
C  C24  1  0.52100000  0.81700000  0.03500000  1.0 0.2094446299
C  C25  1  0.19900000  0.51500000  0.41800000  1.0 0.1298213088
C  C26  1  0.51500000  0.19900000  0.08200000  1.0 0.1298213088
C  C27  1  0.80100000  0.48500000  0.58200000  1.0 0.1298213088
C  C28  1  0.48500000  0.80100000  0.91800000  1.0 0.1298213088
N  N1  1  0.81360000  0.97840000  0.73400000  1.0 -0.4217782217
N  N2  1  0.97840000  0.81360000  0.76600000  1.0 -0.4217782217
N  N3  1  0.18640000  0.02160000  0.26600000  1.0 -0.4269286292
N  N4  1  0.02160000  0.18640000  0.23400000  1.0 -0.4269286292
N  N5  1  0.25820000  0.41980000  0.74300000  1.0 -0.4133188112
N  N6  1  0.41980000  0.25820000  0.75700000  1.0 -0.4133188112
N  N7  1  0.74180000  0.58020000  0.25700000  1.0 -0.4133188112
N  N8  1  0.58020000  0.74180000  0.24300000  1.0 -0.4133188112
N  N9  1  0.71530000  0.11470000  0.66400000  1.0 -0.3877452212
N  N10  1  0.11470000  0.71530000  0.83600000  1.0 -0.3877452212
N  N11  1  0.28470000  0.88530000  0.33600000  1.0 -0.3877452212
N  N12  1  0.88530000  0.28470000  0.16400000  1.0 -0.3846771317
N  N13  1  0.71130000  0.04870000  0.36900000  1.0 -0.4133188112
N  N14  1  0.04870000  0.71130000  0.13100000  1.0 -0.4217782217
N  N15  1  0.28870000  0.95130000  0.63100000  1.0 -0.4133188112
N  N16  1  0.95130000  0.28870000  0.86900000  1.0 -0.4133188112
N  N17  1  0.15030000  0.53770000  0.67900000  1.0 -0.310301994
N  N18  1  0.53770000  0.15030000  0.82100000  1.0 -0.310301994
N  N19  1  0.84970000  0.46230000  0.32100000  1.0 -0.310301994
N  N20  1  0.46230000  0.84970000  0.17900000  1.0 -0.310301994
N  N21  1  0.04280000  0.29520000  0.55400000  1.0 -0.3877452212
N  N22  1  0.29520000  0.04280000  0.94600000  1.0 -0.3877452212
N  N23  1  0.95720000  0.70480000  0.44600000  1.0 -0.3877452212
N  N24  1  0.70480000  0.95720000  0.05400000  1.0 -0.3877452212
