# DDEC6 charges by PACMAN v1.1 (https://github.com/mtap-research/PACMAN-charge/)
data_LAMFOU_ASR_pacman
_symmetry_space_group_name_H-M   'P 1'
_cell_length_a   13.99750000
_cell_length_b   13.99750000
_cell_length_c   14.08200000
_cell_angle_alpha   89.58620000
_cell_angle_beta   90.41380000
_cell_angle_gamma   148.48700000
_symmetry_Int_Tables_number   1
_chemical_formula_structural   CdNiC7N6
_chemical_formula_sum   'Cd4 Ni4 C28 N24'
_cell_volume   1442.11178150
_cell_formula_units_Z   4
loop_
 _symmetry_equiv_pos_site_id
 _symmetry_equiv_pos_as_xyz
  1  'x, y, z'
loop_
 _atom_site_type_symbol
 _atom_site_label
 _atom_site_symmetry_multiplicity
 _atom_site_fract_x
 _atom_site_fract_y
 _atom_site_fract_z
 _atom_site_occupancy
 _atom_site_charge
Cd  Cd1  1  0.98226000  0.25274000  0.72067000  1.0 1.0297041931
Cd  Cd2  1  0.25274000  0.98226000  0.77933000  1.0 1.0297041931
Cd  Cd3  1  0.01774000  0.74726000  0.27933000  1.0 1.0233863392
Cd  Cd4  1  0.74726000  0.01774000  0.22067000  1.0 1.0297041931
Ni  Ni1  1  0.62420000  0.62420000  0.75000000  1.0 0.0425582681
Ni  Ni2  1  0.37580000  0.37580000  0.25000000  1.0 0.0425582681
Ni  Ni3  1  0.50000000  0.00000000  0.50000000  1.0 0.0846532904
Ni  Ni4  1  0.00000000  0.50000000  0.00000000  1.0 0.0846532904
C  C1  1  0.74720000  0.84680000  0.74000000  1.0 0.1816393532
C  C2  1  0.84680000  0.74720000  0.76000000  1.0 0.1816393532
C  C3  1  0.25280000  0.15320000  0.26000000  1.0 0.1816393532
C  C4  1  0.15320000  0.25280000  0.24000000  1.0 0.186305175
C  C5  1  0.40080000  0.49920000  0.74300000  1.0 0.1662761518
C  C6  1  0.49920000  0.40080000  0.75700000  1.0 0.1662761518
C  C7  1  0.59920000  0.50080000  0.25700000  1.0 0.1662761518
C  C8  1  0.50080000  0.59920000  0.24300000  1.0 0.1662761518
C  C9  1  0.62790000  0.06610000  0.60600000  1.0 0.1394001075
C  C10  1  0.06610000  0.62790000  0.89400000  1.0 0.1394001075
C  C11  1  0.37210000  0.93390000  0.39400000  1.0 0.1394001075
C  C12  1  0.93390000  0.37210000  0.10600000  1.0 0.1347168185
C  C13  1  0.62980000  0.02820000  0.42500000  1.0 0.1616018698
C  C14  1  0.02820000  0.62980000  0.07500000  1.0 0.1616018698
C  C15  1  0.37020000  0.97180000  0.57500000  1.0 0.1616018698
C  C16  1  0.97180000  0.37020000  0.92500000  1.0 0.1616018698
C  C17  1  0.17600000  0.56000000  0.57600000  1.0 0.1465090909
C  C18  1  0.56000000  0.17600000  0.92400000  1.0 0.1465090909
C  C19  1  0.82400000  0.44000000  0.42400000  1.0 0.1394001075
C  C20  1  0.44000000  0.82400000  0.07600000  1.0 0.1394001075
C  C21  1  0.15500000  0.46700000  0.52300000  1.0 0.1662761518
C  C22  1  0.46700000  0.15500000  0.97700000  1.0 0.1662761518
C  C23  1  0.84500000  0.53300000  0.47700000  1.0 0.1662761518
C  C24  1  0.53300000  0.84500000  0.02300000  1.0 0.1662761518
C  C25  1  0.19090000  0.50310000  0.42000000  1.0 0.0897846543
C  C26  1  0.50310000  0.19090000  0.08000000  1.0 0.0960389647
C  C27  1  0.80910000  0.49690000  0.58000000  1.0 0.0960389647
C  C28  1  0.49690000  0.80910000  0.92000000  1.0 0.0960389647
N  N1  1  0.81880000  0.98120000  0.73300000  1.0 -0.4105817876
N  N2  1  0.98120000  0.81880000  0.76700000  1.0 -0.4105817876
N  N3  1  0.18120000  0.01880000  0.26700000  1.0 -0.4105817876
N  N4  1  0.01880000  0.18120000  0.23300000  1.0 -0.4105817876
N  N5  1  0.26450000  0.42350000  0.73900000  1.0 -0.3996640644
N  N6  1  0.42350000  0.26450000  0.76100000  1.0 -0.4105817876
N  N7  1  0.73550000  0.57650000  0.26100000  1.0 -0.3996640644
N  N8  1  0.57650000  0.73550000  0.23900000  1.0 -0.3996640644
N  N9  1  0.71030000  0.10770000  0.67200000  1.0 -0.3897149093
N  N10  1  0.10770000  0.71030000  0.82800000  1.0 -0.3897149093
N  N11  1  0.28970000  0.89230000  0.32800000  1.0 -0.3897149093
N  N12  1  0.89230000  0.28970000  0.17200000  1.0 -0.3897149093
N  N13  1  0.70880000  0.04120000  0.37600000  1.0 -0.4498106342
N  N14  1  0.04120000  0.70880000  0.12400000  1.0 -0.4498106342
N  N15  1  0.29120000  0.95880000  0.62400000  1.0 -0.4430709384
N  N16  1  0.95880000  0.29120000  0.87600000  1.0 -0.4498106342
N  N17  1  0.15690000  0.53910000  0.68300000  1.0 -0.1910454608
N  N18  1  0.53910000  0.15690000  0.81700000  1.0 -0.1910454608
N  N19  1  0.84310000  0.46090000  0.31700000  1.0 -0.1910454608
N  N20  1  0.46090000  0.84310000  0.18300000  1.0 -0.1910454608
N  N21  1  0.03620000  0.28980000  0.55100000  1.0 -0.3024883993
N  N22  1  0.28980000  0.03620000  0.94900000  1.0 -0.3024883993
N  N23  1  0.96380000  0.71020000  0.44900000  1.0 -0.3024883993
N  N24  1  0.71020000  0.96380000  0.05100000  1.0 -0.3024883993
