# DDEC6 charges by PACMAN v1.1 (https://github.com/mtap-research/PACMAN-charge/)
data_LAMYIL_ion_pacman
_symmetry_space_group_name_H-M   'P 1'
_cell_length_a   16.94170000
_cell_length_b   16.94170000
_cell_length_c   28.17850000
_cell_angle_alpha   90.00000000
_cell_angle_beta   90.00000000
_cell_angle_gamma   126.18000000
_symmetry_Int_Tables_number   1
_chemical_formula_structural   Cu2H84C80N36ClO24
_chemical_formula_sum   'Cu4 H168 C160 N72 Cl2 O48'
_cell_volume   6528.22227271
_cell_formula_units_Z   2
loop_
 _symmetry_equiv_pos_site_id
 _symmetry_equiv_pos_as_xyz
  1  'x, y, z'
loop_
 _atom_site_type_symbol
 _atom_site_label
 _atom_site_symmetry_multiplicity
 _atom_site_fract_x
 _atom_site_fract_y
 _atom_site_fract_z
 _atom_site_occupancy
 _atom_site_charge
Cu  Cu1  1  0.50000000  0.00000000  0.50000000  1.0 0.6691478387
Cu  Cu2  1  0.50000000  0.00000000  0.00000000  1.0 0.6691478387
Cu  Cu3  1  0.00000000  0.50000000  0.00000000  1.0 0.6691478387
Cu  Cu4  1  0.00000000  0.50000000  0.50000000  1.0 0.6691478387
H  H1  1  0.80415000  0.88197000  0.31947000  1.0 0.1314705686
H  H2  1  0.66435000  0.74331000  0.32054000  1.0 0.1207310007
H  H3  1  0.60935000  0.90435000  0.47353000  1.0 0.1465402291
H  H4  1  0.60486000  0.97660000  0.34011000  1.0 0.1400279299
H  H5  1  0.42674000  0.02380000  0.39735000  1.0 0.1400279299
H  H6  1  0.15138000  0.98658000  0.29342000  1.0 0.1314705686
H  H7  1  0.08312000  0.82704000  0.29296000  1.0 0.1207310007
H  H8  1  0.32078000  0.80788000  0.55238000  1.0 0.1207310007
H  H9  1  0.19925000  0.62219000  0.58278000  1.0 0.1314705686
H  H10  1  0.26128000  0.61082000  0.61961000  1.0 0.1314705686
H  H11  1  0.25364000  0.69834000  0.62398000  1.0 0.1400279299
H  H12  1  0.45040000  0.75028000  0.62184000  1.0 0.1207310007
H  H13  1  0.40983000  0.65165000  0.59554000  1.0 0.1009188982
H  H14  1  0.48269000  0.75153000  0.56955000  1.0 0.1107688167
H  H15  1  0.40709000  0.64357000  0.56216000  1.0 0.0863906805
H  H16  1  0.30380000  0.58752000  0.53821000  1.0 0.1009188982
H  H17  1  0.39385000  0.68211000  0.51444000  1.0 0.0576846519
H  H18  1  0.19585000  0.11803000  0.81947000  1.0 0.1314705686
H  H19  1  0.33565000  0.25669000  0.82054000  1.0 0.1207310007
H  H20  1  0.39065000  0.09565000  0.97353000  1.0 0.1465402291
H  H21  1  0.39514000  0.02340000  0.84011000  1.0 0.1400279299
H  H22  1  0.57326000  0.97620000  0.89735000  1.0 0.1400279299
H  H23  1  0.84862000  0.01342000  0.79342000  1.0 0.1314705686
H  H24  1  0.91688000  0.17296000  0.79296000  1.0 0.1207310007
H  H25  1  0.67922000  0.19212000  0.05238000  1.0 0.1207310007
H  H26  1  0.80075000  0.37781000  0.08278000  1.0 0.1314705686
H  H27  1  0.73872000  0.38918000  0.11961000  1.0 0.1314705686
H  H28  1  0.74636000  0.30166000  0.12398000  1.0 0.1400279299
H  H29  1  0.54960000  0.24972000  0.12184000  1.0 0.1207310007
H  H30  1  0.59017000  0.34835000  0.09554000  1.0 0.1009188982
H  H31  1  0.51731000  0.24847000  0.06955000  1.0 0.1107688167
H  H32  1  0.59291000  0.35643000  0.06216000  1.0 0.0863906805
H  H33  1  0.69620000  0.41248000  0.03821000  1.0 0.1009188982
H  H34  1  0.60615000  0.31789000  0.01444000  1.0 0.0576846519
H  H35  1  0.88197000  0.80415000  0.18053000  1.0 0.1314705686
H  H36  1  0.74331000  0.66435000  0.17946000  1.0 0.1207310007
H  H37  1  0.90435000  0.60935000  0.02647000  1.0 0.1465402291
H  H38  1  0.97660000  0.60486000  0.15989000  1.0 0.1400279299
H  H39  1  0.02380000  0.42674000  0.10265000  1.0 0.1400279299
H  H40  1  0.98658000  0.15138000  0.20658000  1.0 0.1314705686
H  H41  1  0.82704000  0.08312000  0.20704000  1.0 0.1207310007
H  H42  1  0.80788000  0.32078000  0.94762000  1.0 0.1207310007
H  H43  1  0.62219000  0.19925000  0.91722000  1.0 0.1314705686
H  H44  1  0.61082000  0.26128000  0.88039000  1.0 0.1314705686
H  H45  1  0.69834000  0.25364000  0.87602000  1.0 0.1400279299
H  H46  1  0.75028000  0.45040000  0.87816000  1.0 0.1207310007
H  H47  1  0.65165000  0.40983000  0.90446000  1.0 0.1009188982
H  H48  1  0.75153000  0.48269000  0.93045000  1.0 0.1107688167
H  H49  1  0.64357000  0.40709000  0.93784000  1.0 0.0863906805
H  H50  1  0.58752000  0.30380000  0.96179000  1.0 0.1009188982
H  H51  1  0.68211000  0.39385000  0.98556000  1.0 0.0576846519
H  H52  1  0.11803000  0.19585000  0.68053000  1.0 0.1314705686
H  H53  1  0.25669000  0.33565000  0.67946000  1.0 0.1207310007
H  H54  1  0.09565000  0.39065000  0.52647000  1.0 0.1465402291
H  H55  1  0.02340000  0.39514000  0.65989000  1.0 0.1400279299
H  H56  1  0.97620000  0.57326000  0.60265000  1.0 0.1400279299
H  H57  1  0.01342000  0.84862000  0.70658000  1.0 0.1314705686
H  H58  1  0.17296000  0.91688000  0.70704000  1.0 0.1207310007
H  H59  1  0.19212000  0.67922000  0.44762000  1.0 0.1207310007
H  H60  1  0.37781000  0.80075000  0.41722000  1.0 0.1314705686
H  H61  1  0.38918000  0.73872000  0.38039000  1.0 0.1314705686
H  H62  1  0.30166000  0.74636000  0.37602000  1.0 0.1400279299
H  H63  1  0.24972000  0.54960000  0.37816000  1.0 0.1207310007
H  H64  1  0.34835000  0.59017000  0.40446000  1.0 0.1009188982
H  H65  1  0.24847000  0.51731000  0.43045000  1.0 0.1107688167
H  H66  1  0.35643000  0.59291000  0.43784000  1.0 0.0863906805
H  H67  1  0.41248000  0.69620000  0.46179000  1.0 0.1009188982
H  H68  1  0.31789000  0.60615000  0.48556000  1.0 0.0576846519
H  H69  1  0.19585000  0.11803000  0.68053000  1.0 0.1314705686
H  H70  1  0.33565000  0.25669000  0.67946000  1.0 0.1207310007
H  H71  1  0.39065000  0.09565000  0.52647000  1.0 0.1465402291
H  H72  1  0.39514000  0.02340000  0.65989000  1.0 0.1400279299
H  H73  1  0.57326000  0.97620000  0.60265000  1.0 0.1400279299
H  H74  1  0.84862000  0.01342000  0.70658000  1.0 0.1314705686
H  H75  1  0.91688000  0.17296000  0.70704000  1.0 0.1207310007
H  H76  1  0.67922000  0.19212000  0.44762000  1.0 0.1207310007
H  H77  1  0.80075000  0.37781000  0.41722000  1.0 0.1314705686
H  H78  1  0.73872000  0.38918000  0.38039000  1.0 0.1314705686
H  H79  1  0.74636000  0.30166000  0.37602000  1.0 0.1400279299
H  H80  1  0.54960000  0.24972000  0.37816000  1.0 0.1207310007
H  H81  1  0.59017000  0.34835000  0.40446000  1.0 0.1009188982
H  H82  1  0.51731000  0.24847000  0.43045000  1.0 0.1107688167
H  H83  1  0.59291000  0.35643000  0.43784000  1.0 0.0863906805
H  H84  1  0.69620000  0.41248000  0.46179000  1.0 0.1009188982
H  H85  1  0.60615000  0.31789000  0.48556000  1.0 0.0576846519
H  H86  1  0.80415000  0.88197000  0.18053000  1.0 0.1314705686
H  H87  1  0.66435000  0.74331000  0.17946000  1.0 0.1207310007
H  H88  1  0.60935000  0.90435000  0.02647000  1.0 0.1465402291
H  H89  1  0.60486000  0.97660000  0.15989000  1.0 0.1400279299
H  H90  1  0.42674000  0.02380000  0.10265000  1.0 0.1400279299
H  H91  1  0.15138000  0.98658000  0.20658000  1.0 0.1314705686
H  H92  1  0.08312000  0.82704000  0.20704000  1.0 0.1207310007
H  H93  1  0.32078000  0.80788000  0.94762000  1.0 0.1207310007
H  H94  1  0.19925000  0.62219000  0.91722000  1.0 0.1314705686
H  H95  1  0.26128000  0.61082000  0.88039000  1.0 0.1314705686
H  H96  1  0.25364000  0.69834000  0.87602000  1.0 0.1400279299
H  H97  1  0.45040000  0.75028000  0.87816000  1.0 0.1207310007
H  H98  1  0.40983000  0.65165000  0.90446000  1.0 0.1009188982
H  H99  1  0.48269000  0.75153000  0.93045000  1.0 0.1107688167
H  H100  1  0.40709000  0.64357000  0.93784000  1.0 0.0863906805
H  H101  1  0.30380000  0.58752000  0.96179000  1.0 0.1009188982
H  H102  1  0.39385000  0.68211000  0.98556000  1.0 0.0576846519
H  H103  1  0.11803000  0.19585000  0.81947000  1.0 0.1314705686
H  H104  1  0.25669000  0.33565000  0.82054000  1.0 0.1207310007
H  H105  1  0.09565000  0.39065000  0.97353000  1.0 0.1465402291
H  H106  1  0.02340000  0.39514000  0.84011000  1.0 0.1400279299
H  H107  1  0.97620000  0.57326000  0.89735000  1.0 0.1400279299
H  H108  1  0.01342000  0.84862000  0.79342000  1.0 0.1314705686
H  H109  1  0.17296000  0.91688000  0.79296000  1.0 0.1207310007
H  H110  1  0.19212000  0.67922000  0.05238000  1.0 0.1207310007
H  H111  1  0.37781000  0.80075000  0.08278000  1.0 0.1314705686
H  H112  1  0.38918000  0.73872000  0.11961000  1.0 0.1314705686
H  H113  1  0.30166000  0.74636000  0.12398000  1.0 0.1400279299
H  H114  1  0.24972000  0.54960000  0.12184000  1.0 0.1207310007
H  H115  1  0.34835000  0.59017000  0.09554000  1.0 0.1009188982
H  H116  1  0.24847000  0.51731000  0.06955000  1.0 0.1107688167
H  H117  1  0.35643000  0.59291000  0.06216000  1.0 0.0863906805
H  H118  1  0.41248000  0.69620000  0.03821000  1.0 0.1009188982
H  H119  1  0.31789000  0.60615000  0.01444000  1.0 0.0576846519
H  H120  1  0.88197000  0.80415000  0.31947000  1.0 0.1314705686
H  H121  1  0.74331000  0.66435000  0.32054000  1.0 0.1207310007
H  H122  1  0.90435000  0.60935000  0.47353000  1.0 0.1465402291
H  H123  1  0.97660000  0.60486000  0.34011000  1.0 0.1400279299
H  H124  1  0.02380000  0.42674000  0.39735000  1.0 0.1400279299
H  H125  1  0.98658000  0.15138000  0.29342000  1.0 0.1314705686
H  H126  1  0.82704000  0.08312000  0.29296000  1.0 0.1207310007
H  H127  1  0.80788000  0.32078000  0.55238000  1.0 0.1207310007
H  H128  1  0.62219000  0.19925000  0.58278000  1.0 0.1314705686
H  H129  1  0.61082000  0.26128000  0.61961000  1.0 0.1314705686
H  H130  1  0.69834000  0.25364000  0.62398000  1.0 0.1400279299
H  H131  1  0.75028000  0.45040000  0.62184000  1.0 0.1207310007
H  H132  1  0.65165000  0.40983000  0.59554000  1.0 0.1009188982
H  H133  1  0.75153000  0.48269000  0.56955000  1.0 0.1107688167
H  H134  1  0.64357000  0.40709000  0.56216000  1.0 0.0863906805
H  H135  1  0.58752000  0.30380000  0.53821000  1.0 0.1009188982
H  H136  1  0.68211000  0.39385000  0.51444000  1.0 0.0576846519
H  H137  1  0.33861000  0.88281000  0.25000000  1.0 0.1207310007
H  H138  1  0.16785000  0.77259000  0.25000000  1.0 0.1009188982
H  H139  1  0.40789000  0.05123000  0.25000000  1.0 0.1207310007
H  H140  1  0.30167000  0.09591000  0.25000000  1.0 0.1107688167
H  H141  1  0.66139000  0.11719000  0.75000000  1.0 0.1207310007
H  H142  1  0.83215000  0.22741000  0.75000000  1.0 0.1009188982
H  H143  1  0.59211000  0.94877000  0.75000000  1.0 0.1207310007
H  H144  1  0.69833000  0.90409000  0.75000000  1.0 0.1107688167
H  H145  1  0.88281000  0.33861000  0.25000000  1.0 0.1207310007
H  H146  1  0.77259000  0.16785000  0.25000000  1.0 0.1009188982
H  H147  1  0.05123000  0.40789000  0.25000000  1.0 0.1207310007
H  H148  1  0.09591000  0.30167000  0.25000000  1.0 0.1107688167
H  H149  1  0.11719000  0.66139000  0.75000000  1.0 0.1207310007
H  H150  1  0.22741000  0.83215000  0.75000000  1.0 0.1009188982
H  H151  1  0.94877000  0.59211000  0.75000000  1.0 0.1207310007
H  H152  1  0.90409000  0.69833000  0.75000000  1.0 0.1107688167
H  H153  1  0.92651000  0.92651000  0.38282000  1.0 0.1009188982
H  H154  1  0.84923000  0.84923000  0.45697000  1.0 0.1207310007
H  H155  1  0.69640000  0.69640000  0.45617000  1.0 0.1314705686
H  H156  1  0.62673000  0.62673000  0.38267000  1.0 0.1009188982
H  H157  1  0.07349000  0.07349000  0.88282000  1.0 0.1009188982
H  H158  1  0.15077000  0.15077000  0.95697000  1.0 0.1207310007
H  H159  1  0.30360000  0.30360000  0.95617000  1.0 0.1314705686
H  H160  1  0.37327000  0.37327000  0.88267000  1.0 0.1009188982
H  H161  1  0.92651000  0.92651000  0.11718000  1.0 0.1009188982
H  H162  1  0.84923000  0.84923000  0.04303000  1.0 0.1207310007
H  H163  1  0.69640000  0.69640000  0.04383000  1.0 0.1314705686
H  H164  1  0.62673000  0.62673000  0.11733000  1.0 0.1009188982
H  H165  1  0.07349000  0.07349000  0.61718000  1.0 0.1009188982
H  H166  1  0.15077000  0.15077000  0.54303000  1.0 0.1207310007
H  H167  1  0.30360000  0.30360000  0.54383000  1.0 0.1314705686
H  H168  1  0.37327000  0.37327000  0.61733000  1.0 0.1009188982
C  C1  1  0.76950000  0.93830000  0.37350000  1.0 0.4330221874
C  C2  1  0.78260000  0.86400000  0.35250000  1.0 -0.1690134566
C  C3  1  0.68550000  0.76630000  0.35320000  1.0 -0.1610701117
C  C4  1  0.61480000  0.78140000  0.37660000  1.0 0.4233258015
C  C5  1  0.59980000  0.92920000  0.44650000  1.0 0.0189033496
C  C6  1  0.59690000  0.96930000  0.37280000  1.0 0.0511276362
C  C7  1  0.37460000  0.98320000  0.41770000  1.0 0.0735031021
C  C8  1  0.22800000  0.88400000  0.44640000  1.0 0.0511276362
C  C9  1  0.18890000  0.84750000  0.33790000  1.0 0.4330221874
C  C10  1  0.25630000  0.01310000  0.34000000  1.0 0.439298977
C  C11  1  0.20260000  0.97640000  0.29410000  1.0 -0.1610701117
C  C12  1  0.15460000  0.86520000  0.29350000  1.0 -0.1790524667
C  C13  1  0.36360000  0.79080000  0.54960000  1.0 0.1314705686
C  C14  1  0.25700000  0.65680000  0.60220000  1.0 -0.3734077691
C  C15  1  0.42960000  0.71740000  0.59180000  1.0 -0.2193388595
C  C16  1  0.36360000  0.65080000  0.54410000  1.0 -0.1886720293
C  C17  1  0.23050000  0.06170000  0.87350000  1.0 0.4330221874
C  C18  1  0.21740000  0.13600000  0.85250000  1.0 -0.1690134566
C  C19  1  0.31450000  0.23370000  0.85320000  1.0 -0.1610701117
C  C20  1  0.38520000  0.21860000  0.87660000  1.0 0.4330221874
C  C21  1  0.40020000  0.07080000  0.94650000  1.0 0.0189033496
C  C22  1  0.40310000  0.03070000  0.87280000  1.0 0.0511276362
C  C23  1  0.62540000  0.01680000  0.91770000  1.0 0.0735031021
C  C24  1  0.77200000  0.11600000  0.94640000  1.0 0.0511276362
C  C25  1  0.81110000  0.15250000  0.83790000  1.0 0.4330221874
C  C26  1  0.74370000  0.98690000  0.84000000  1.0 0.439298977
C  C27  1  0.79740000  0.02360000  0.79410000  1.0 -0.1610701117
C  C28  1  0.84540000  0.13480000  0.79350000  1.0 -0.1790524667
C  C29  1  0.63640000  0.20920000  0.04960000  1.0 0.1314705686
C  C30  1  0.74300000  0.34320000  0.10220000  1.0 -0.3734077691
C  C31  1  0.57040000  0.28260000  0.09180000  1.0 -0.2193388595
C  C32  1  0.63640000  0.34920000  0.04410000  1.0 -0.1886720293
C  C33  1  0.93830000  0.76950000  0.12650000  1.0 0.4330221874
C  C34  1  0.86400000  0.78260000  0.14750000  1.0 -0.1690134566
C  C35  1  0.76630000  0.68550000  0.14680000  1.0 -0.1610701117
C  C36  1  0.78140000  0.61480000  0.12340000  1.0 0.4233258015
C  C37  1  0.92920000  0.59980000  0.05350000  1.0 0.0189033496
C  C38  1  0.96930000  0.59690000  0.12720000  1.0 0.0511276362
C  C39  1  0.98320000  0.37460000  0.08230000  1.0 0.0735031021
C  C40  1  0.88400000  0.22800000  0.05360000  1.0 0.0511276362
C  C41  1  0.84750000  0.18890000  0.16210000  1.0 0.4330221874
C  C42  1  0.01310000  0.25630000  0.16000000  1.0 0.439298977
C  C43  1  0.97640000  0.20260000  0.20590000  1.0 -0.1610701117
C  C44  1  0.86520000  0.15460000  0.20650000  1.0 -0.1790524667
C  C45  1  0.79080000  0.36360000  0.95040000  1.0 0.1314705686
C  C46  1  0.65680000  0.25700000  0.89780000  1.0 -0.3734077691
C  C47  1  0.71740000  0.42960000  0.90820000  1.0 -0.2193388595
C  C48  1  0.65080000  0.36360000  0.95590000  1.0 -0.1790524667
C  C49  1  0.06170000  0.23050000  0.62650000  1.0 0.4330221874
C  C50  1  0.13600000  0.21740000  0.64750000  1.0 -0.1690134566
C  C51  1  0.23370000  0.31450000  0.64680000  1.0 -0.1610701117
C  C52  1  0.21860000  0.38520000  0.62340000  1.0 0.4233258015
C  C53  1  0.07080000  0.40020000  0.55350000  1.0 0.0189033496
C  C54  1  0.03070000  0.40310000  0.62720000  1.0 0.0511276362
C  C55  1  0.01680000  0.62540000  0.58230000  1.0 0.0735031021
C  C56  1  0.11600000  0.77200000  0.55360000  1.0 0.0511276362
C  C57  1  0.15250000  0.81110000  0.66210000  1.0 0.4330221874
C  C58  1  0.98690000  0.74370000  0.66000000  1.0 0.439298977
C  C59  1  0.02360000  0.79740000  0.70590000  1.0 -0.1610701117
C  C60  1  0.13480000  0.84540000  0.70650000  1.0 -0.1790524667
C  C61  1  0.20920000  0.63640000  0.45040000  1.0 0.1314705686
C  C62  1  0.34320000  0.74300000  0.39780000  1.0 -0.3734077691
C  C63  1  0.28260000  0.57040000  0.40820000  1.0 -0.2193388595
C  C64  1  0.34920000  0.63640000  0.45590000  1.0 -0.1886720293
C  C65  1  0.23050000  0.06170000  0.62650000  1.0 0.4330221874
C  C66  1  0.21740000  0.13600000  0.64750000  1.0 -0.1690134566
C  C67  1  0.31450000  0.23370000  0.64680000  1.0 -0.1610701117
C  C68  1  0.38520000  0.21860000  0.62340000  1.0 0.4330221874
C  C69  1  0.40020000  0.07080000  0.55350000  1.0 0.0189033496
C  C70  1  0.40310000  0.03070000  0.62720000  1.0 0.0511276362
C  C71  1  0.62540000  0.01680000  0.58230000  1.0 0.0735031021
C  C72  1  0.77200000  0.11600000  0.55360000  1.0 0.0511276362
C  C73  1  0.81110000  0.15250000  0.66210000  1.0 0.4330221874
C  C74  1  0.74370000  0.98690000  0.66000000  1.0 0.439298977
C  C75  1  0.79740000  0.02360000  0.70590000  1.0 -0.1610701117
C  C76  1  0.84540000  0.13480000  0.70650000  1.0 -0.1790524667
C  C77  1  0.63640000  0.20920000  0.45040000  1.0 0.1314705686
C  C78  1  0.74300000  0.34320000  0.39780000  1.0 -0.3734077691
C  C79  1  0.57040000  0.28260000  0.40820000  1.0 -0.2193388595
C  C80  1  0.63640000  0.34920000  0.45590000  1.0 -0.1886720293
C  C81  1  0.76950000  0.93830000  0.12650000  1.0 0.4330221874
C  C82  1  0.78260000  0.86400000  0.14750000  1.0 -0.1690134566
C  C83  1  0.68550000  0.76630000  0.14680000  1.0 -0.1610701117
C  C84  1  0.61480000  0.78140000  0.12340000  1.0 0.4233258015
C  C85  1  0.59980000  0.92920000  0.05350000  1.0 0.0189033496
C  C86  1  0.59690000  0.96930000  0.12720000  1.0 0.0511276362
C  C87  1  0.37460000  0.98320000  0.08230000  1.0 0.0735031021
C  C88  1  0.22800000  0.88400000  0.05360000  1.0 0.0511276362
C  C89  1  0.18890000  0.84750000  0.16210000  1.0 0.4330221874
C  C90  1  0.25630000  0.01310000  0.16000000  1.0 0.439298977
C  C91  1  0.20260000  0.97640000  0.20590000  1.0 -0.1610701117
C  C92  1  0.15460000  0.86520000  0.20650000  1.0 -0.1790524667
C  C93  1  0.36360000  0.79080000  0.95040000  1.0 0.1314705686
C  C94  1  0.25700000  0.65680000  0.89780000  1.0 -0.3734077691
C  C95  1  0.42960000  0.71740000  0.90820000  1.0 -0.2193388595
C  C96  1  0.36360000  0.65080000  0.95590000  1.0 -0.1886720293
C  C97  1  0.06170000  0.23050000  0.87350000  1.0 0.4330221874
C  C98  1  0.13600000  0.21740000  0.85250000  1.0 -0.1690134566
C  C99  1  0.23370000  0.31450000  0.85320000  1.0 -0.1610701117
C  C100  1  0.21860000  0.38520000  0.87660000  1.0 0.4233258015
C  C101  1  0.07080000  0.40020000  0.94650000  1.0 0.0189033496
C  C102  1  0.03070000  0.40310000  0.87280000  1.0 0.0511276362
C  C103  1  0.01680000  0.62540000  0.91770000  1.0 0.0735031021
C  C104  1  0.11600000  0.77200000  0.94640000  1.0 0.0511276362
C  C105  1  0.15250000  0.81110000  0.83790000  1.0 0.4330221874
C  C106  1  0.98690000  0.74370000  0.84000000  1.0 0.439298977
C  C107  1  0.02360000  0.79740000  0.79410000  1.0 -0.1610701117
C  C108  1  0.13480000  0.84540000  0.79350000  1.0 -0.1790524667
C  C109  1  0.20920000  0.63640000  0.04960000  1.0 0.1314705686
C  C110  1  0.34320000  0.74300000  0.10220000  1.0 -0.3734077691
C  C111  1  0.28260000  0.57040000  0.09180000  1.0 -0.2193388595
C  C112  1  0.34920000  0.63640000  0.04410000  1.0 -0.1886720293
C  C113  1  0.93830000  0.76950000  0.37350000  1.0 0.4330221874
C  C114  1  0.86400000  0.78260000  0.35250000  1.0 -0.1690134566
C  C115  1  0.76630000  0.68550000  0.35320000  1.0 -0.1610701117
C  C116  1  0.78140000  0.61480000  0.37660000  1.0 0.4233258015
C  C117  1  0.92920000  0.59980000  0.44650000  1.0 0.0189033496
C  C118  1  0.96930000  0.59690000  0.37280000  1.0 0.0511276362
C  C119  1  0.98320000  0.37460000  0.41770000  1.0 0.0735031021
C  C120  1  0.88400000  0.22800000  0.44640000  1.0 0.0511276362
C  C121  1  0.84750000  0.18890000  0.33790000  1.0 0.4330221874
C  C122  1  0.01310000  0.25630000  0.34000000  1.0 0.439298977
C  C123  1  0.97640000  0.20260000  0.29410000  1.0 -0.1610701117
C  C124  1  0.86520000  0.15460000  0.29350000  1.0 -0.1790524667
C  C125  1  0.79080000  0.36360000  0.54960000  1.0 0.1314705686
C  C126  1  0.65680000  0.25700000  0.60220000  1.0 -0.3734077691
C  C127  1  0.71740000  0.42960000  0.59180000  1.0 -0.2193388595
C  C128  1  0.65080000  0.36360000  0.54410000  1.0 -0.1790524667
C  C129  1  0.30110000  0.90650000  0.25000000  1.0 -0.1610701117
C  C130  1  0.19270000  0.84150000  0.25000000  1.0 0.0085700841
C  C131  1  0.34070000  0.00290000  0.25000000  1.0 -0.1483479842
C  C132  1  0.26910000  0.02510000  0.25000000  1.0 0.0085700841
C  C133  1  0.69890000  0.09350000  0.75000000  1.0 -0.1610701117
C  C134  1  0.80730000  0.15850000  0.75000000  1.0 0.0085700841
C  C135  1  0.65930000  0.99710000  0.75000000  1.0 -0.1483479842
C  C136  1  0.73090000  0.97490000  0.75000000  1.0 0.0085700841
C  C137  1  0.90650000  0.30110000  0.25000000  1.0 -0.1483479842
C  C138  1  0.84150000  0.19270000  0.25000000  1.0 0.0085700841
C  C139  1  0.00290000  0.34070000  0.25000000  1.0 -0.1483479842
C  C140  1  0.02510000  0.26910000  0.25000000  1.0 0.0085700841
C  C141  1  0.09350000  0.69890000  0.75000000  1.0 -0.1610701117
C  C142  1  0.15850000  0.80730000  0.75000000  1.0 0.0085700841
C  C143  1  0.99710000  0.65930000  0.75000000  1.0 -0.1483479842
C  C144  1  0.97490000  0.73090000  0.75000000  1.0 0.0085700841
C  C145  1  0.86270000  0.86270000  0.38100000  1.0 0.0085700841
C  C146  1  0.81770000  0.81770000  0.42880000  1.0 -0.1417258833
C  C147  1  0.72950000  0.72950000  0.42850000  1.0 -0.1610701117
C  C148  1  0.69060000  0.69060000  0.38120000  1.0 0.0001716883
C  C149  1  0.13730000  0.13730000  0.88100000  1.0 0.0085700841
C  C150  1  0.18230000  0.18230000  0.92880000  1.0 -0.1417258833
C  C151  1  0.27050000  0.27050000  0.92850000  1.0 -0.1610701117
C  C152  1  0.30940000  0.30940000  0.88120000  1.0 0.0001716883
C  C153  1  0.86270000  0.86270000  0.11900000  1.0 0.0085700841
C  C154  1  0.81770000  0.81770000  0.07120000  1.0 -0.1417258833
C  C155  1  0.72950000  0.72950000  0.07150000  1.0 -0.1610701117
C  C156  1  0.69060000  0.69060000  0.11880000  1.0 0.0001716883
C  C157  1  0.13730000  0.13730000  0.61900000  1.0 0.0085700841
C  C158  1  0.18230000  0.18230000  0.57120000  1.0 -0.1417258833
C  C159  1  0.27050000  0.27050000  0.57150000  1.0 -0.1610701117
C  C160  1  0.30940000  0.30940000  0.61880000  1.0 0.0001716883
N  N1  1  0.66939000  0.88141000  0.38710000  1.0 -0.1417258833
N  N2  1  0.62657000  0.92543000  0.40230000  1.0 0.1009188982
N  N3  1  0.55849000  0.97331000  0.44507000  1.0 -0.1690134566
N  N4  1  0.55604000  0.99836000  0.39945000  1.0 -0.1886720293
N  N5  1  0.38212000  0.96148000  0.46064000  1.0 -0.1790524667
N  N6  1  0.28720000  0.89440000  0.47930000  1.0 -0.2729866236
N  N7  1  0.28015000  0.93825000  0.40714000  1.0 0.1207310007
N  N8  1  0.24067000  0.93173000  0.36315000  1.0 -0.1172693419
N  N9  1  0.34110000  0.71490000  0.57280000  1.0 0.1107688167
N  N10  1  0.33061000  0.11859000  0.88710000  1.0 -0.1417258833
N  N11  1  0.37343000  0.07457000  0.90230000  1.0 0.1009188982
N  N12  1  0.44151000  0.02669000  0.94507000  1.0 -0.1690134566
N  N13  1  0.44396000  0.00164000  0.89945000  1.0 -0.1886720293
N  N14  1  0.61788000  0.03852000  0.96064000  1.0 -0.1790524667
N  N15  1  0.71280000  0.10560000  0.97930000  1.0 -0.2729866236
N  N16  1  0.71985000  0.06175000  0.90714000  1.0 0.1207310007
N  N17  1  0.75933000  0.06827000  0.86315000  1.0 -0.1172693419
N  N18  1  0.65890000  0.28510000  0.07280000  1.0 0.1107688167
N  N19  1  0.88141000  0.66939000  0.11290000  1.0 -0.1417258833
N  N20  1  0.92543000  0.62657000  0.09770000  1.0 0.1009188982
N  N21  1  0.97331000  0.55849000  0.05493000  1.0 -0.1690134566
N  N22  1  0.99836000  0.55604000  0.10055000  1.0 -0.1886720293
N  N23  1  0.96148000  0.38212000  0.03936000  1.0 -0.1790524667
N  N24  1  0.89440000  0.28720000  0.02070000  1.0 -0.2729866236
N  N25  1  0.93825000  0.28015000  0.09286000  1.0 0.1207310007
N  N26  1  0.93173000  0.24067000  0.13685000  1.0 -0.1172693419
N  N27  1  0.71490000  0.34110000  0.92720000  1.0 0.1107688167
N  N28  1  0.11859000  0.33061000  0.61290000  1.0 -0.1417258833
N  N29  1  0.07457000  0.37343000  0.59770000  1.0 0.1009188982
N  N30  1  0.02669000  0.44151000  0.55493000  1.0 -0.1690134566
N  N31  1  0.00164000  0.44396000  0.60055000  1.0 -0.1886720293
N  N32  1  0.03852000  0.61788000  0.53936000  1.0 -0.1790524667
N  N33  1  0.10560000  0.71280000  0.52070000  1.0 -0.2729866236
N  N34  1  0.06175000  0.71985000  0.59286000  1.0 0.1207310007
N  N35  1  0.06827000  0.75933000  0.63685000  1.0 -0.1172693419
N  N36  1  0.28510000  0.65890000  0.42720000  1.0 0.1107688167
N  N37  1  0.33061000  0.11859000  0.61290000  1.0 -0.1417258833
N  N38  1  0.37343000  0.07457000  0.59770000  1.0 0.1009188982
N  N39  1  0.44151000  0.02669000  0.55493000  1.0 -0.1690134566
N  N40  1  0.44396000  0.00164000  0.60055000  1.0 -0.1886720293
N  N41  1  0.61788000  0.03852000  0.53936000  1.0 -0.1790524667
N  N42  1  0.71280000  0.10560000  0.52070000  1.0 -0.2729866236
N  N43  1  0.71985000  0.06175000  0.59286000  1.0 0.1207310007
N  N44  1  0.75933000  0.06827000  0.63685000  1.0 -0.1172693419
N  N45  1  0.65890000  0.28510000  0.42720000  1.0 0.1107688167
N  N46  1  0.66939000  0.88141000  0.11290000  1.0 -0.1417258833
N  N47  1  0.62657000  0.92543000  0.09770000  1.0 0.1009188982
N  N48  1  0.55849000  0.97331000  0.05493000  1.0 -0.1690134566
N  N49  1  0.55604000  0.99836000  0.10055000  1.0 -0.1886720293
N  N50  1  0.38212000  0.96148000  0.03936000  1.0 -0.1790524667
N  N51  1  0.28720000  0.89440000  0.02070000  1.0 -0.2729866236
N  N52  1  0.28015000  0.93825000  0.09286000  1.0 0.1207310007
N  N53  1  0.24067000  0.93173000  0.13685000  1.0 -0.1172693419
N  N54  1  0.34110000  0.71490000  0.92720000  1.0 0.1107688167
N  N55  1  0.11859000  0.33061000  0.88710000  1.0 -0.1417258833
N  N56  1  0.07457000  0.37343000  0.90230000  1.0 0.1009188982
N  N57  1  0.02669000  0.44151000  0.94507000  1.0 -0.1690134566
N  N58  1  0.00164000  0.44396000  0.89945000  1.0 -0.1886720293
N  N59  1  0.03852000  0.61788000  0.96064000  1.0 -0.1790524667
N  N60  1  0.10560000  0.71280000  0.97930000  1.0 -0.2729866236
N  N61  1  0.06175000  0.71985000  0.90714000  1.0 0.1207310007
N  N62  1  0.06827000  0.75933000  0.86315000  1.0 -0.1172693419
N  N63  1  0.28510000  0.65890000  0.07280000  1.0 0.1107688167
N  N64  1  0.88141000  0.66939000  0.38710000  1.0 -0.1417258833
N  N65  1  0.92543000  0.62657000  0.40230000  1.0 0.1009188982
N  N66  1  0.97331000  0.55849000  0.44507000  1.0 -0.1690134566
N  N67  1  0.99836000  0.55604000  0.39945000  1.0 -0.1886720293
N  N68  1  0.96148000  0.38212000  0.46064000  1.0 -0.1790524667
N  N69  1  0.89440000  0.28720000  0.47930000  1.0 -0.2729866236
N  N70  1  0.93825000  0.28015000  0.40714000  1.0 0.1207310007
N  N71  1  0.93173000  0.24067000  0.36315000  1.0 -0.1172693419
N  N72  1  0.71490000  0.34110000  0.57280000  1.0 0.1107688167
Cl  Cl1  1  0.00560000  0.00560000  0.75000000  1.0 1.2454485343
Cl  Cl2  1  0.99440000  0.99440000  0.25000000  1.0 1.2425808356
O  O1  1  0.53056000  0.72444000  0.38680000  1.0 -0.4520695201
O  O2  1  0.82399000  0.02301000  0.37850000  1.0 -0.403642173
O  O3  1  0.17464000  0.77056000  0.35186000  1.0 -0.4870646476
O  O4  1  0.30100000  0.09200000  0.35570000  1.0 -0.4160812973
O  O5  1  0.43465000  0.84295000  0.52444000  1.0 -0.4603189135
O  O6  1  0.46944000  0.27556000  0.88680000  1.0 -0.4520695201
O  O7  1  0.17601000  0.97699000  0.87850000  1.0 -0.403642173
O  O8  1  0.82536000  0.22944000  0.85186000  1.0 -0.4870646476
O  O9  1  0.69900000  0.90800000  0.85570000  1.0 -0.4160812973
O  O10  1  0.56535000  0.15705000  0.02444000  1.0 -0.4603189135
O  O11  1  0.72444000  0.53056000  0.11320000  1.0 -0.4520695201
O  O12  1  0.02301000  0.82399000  0.12150000  1.0 -0.4054206266
O  O13  1  0.77056000  0.17464000  0.14814000  1.0 -0.4870646476
O  O14  1  0.09200000  0.30100000  0.14430000  1.0 -0.4160812973
O  O15  1  0.84295000  0.43465000  0.97556000  1.0 -0.4603189135
O  O16  1  0.27556000  0.46944000  0.61320000  1.0 -0.4520695201
O  O17  1  0.97699000  0.17601000  0.62150000  1.0 -0.403642173
O  O18  1  0.22944000  0.82536000  0.64814000  1.0 -0.4870646476
O  O19  1  0.90800000  0.69900000  0.64430000  1.0 -0.4160812973
O  O20  1  0.15705000  0.56535000  0.47556000  1.0 -0.4603189135
O  O21  1  0.46944000  0.27556000  0.61320000  1.0 -0.4520695201
O  O22  1  0.17601000  0.97699000  0.62150000  1.0 -0.403642173
O  O23  1  0.82536000  0.22944000  0.64814000  1.0 -0.4870646476
O  O24  1  0.69900000  0.90800000  0.64430000  1.0 -0.4160812973
O  O25  1  0.56535000  0.15705000  0.47556000  1.0 -0.4603189135
O  O26  1  0.53056000  0.72444000  0.11320000  1.0 -0.4520695201
O  O27  1  0.82399000  0.02301000  0.12150000  1.0 -0.403642173
O  O28  1  0.17464000  0.77056000  0.14814000  1.0 -0.4870646476
O  O29  1  0.30100000  0.09200000  0.14430000  1.0 -0.4160812973
O  O30  1  0.43465000  0.84295000  0.97556000  1.0 -0.4603189135
O  O31  1  0.27556000  0.46944000  0.88680000  1.0 -0.4520695201
O  O32  1  0.97699000  0.17601000  0.87850000  1.0 -0.403642173
O  O33  1  0.22944000  0.82536000  0.85186000  1.0 -0.4870646476
O  O34  1  0.90800000  0.69900000  0.85570000  1.0 -0.4160812973
O  O35  1  0.15705000  0.56535000  0.02444000  1.0 -0.4603189135
O  O36  1  0.72444000  0.53056000  0.38680000  1.0 -0.4520695201
O  O37  1  0.02301000  0.82399000  0.37850000  1.0 -0.4054206266
O  O38  1  0.77056000  0.17464000  0.35186000  1.0 -0.4870646476
O  O39  1  0.09200000  0.30100000  0.35570000  1.0 -0.4160812973
O  O40  1  0.84295000  0.43465000  0.52444000  1.0 -0.4603189135
O  O41  1  0.09870000  0.02010000  0.75000000  1.0 -0.5232649698
O  O42  1  0.02010000  0.09870000  0.75000000  1.0 -0.5232649698
O  O43  1  0.95380000  0.95380000  0.79120000  1.0 -0.4603189135
O  O44  1  0.95380000  0.95380000  0.70880000  1.0 -0.4603189135
O  O45  1  0.90130000  0.97990000  0.25000000  1.0 -0.5232649698
O  O46  1  0.97990000  0.90130000  0.25000000  1.0 -0.5232649698
O  O47  1  0.04620000  0.04620000  0.29120000  1.0 -0.4603189135
O  O48  1  0.04620000  0.04620000  0.20880000  1.0 -0.4603189135
