# DDEC6 charges by PACMAN v1.1 (https://github.com/mtap-research/PACMAN-charge/)
data_LAPMAT_ASR_pacman
_symmetry_space_group_name_H-M   'P 1'
_cell_length_a   20.58760000
_cell_length_b   18.59370000
_cell_length_c   13.88890000
_cell_angle_alpha   77.16040000
_cell_angle_beta   61.71080000
_cell_angle_gamma   41.12880000
_symmetry_Int_Tables_number   1
_chemical_formula_structural   InH20C24(N3O4)2
_chemical_formula_sum   'In4 H80 C96 N24 O32'
_cell_volume   2994.89427946
_cell_formula_units_Z   4
loop_
 _symmetry_equiv_pos_site_id
 _symmetry_equiv_pos_as_xyz
  1  'x, y, z'
loop_
 _atom_site_type_symbol
 _atom_site_label
 _atom_site_symmetry_multiplicity
 _atom_site_fract_x
 _atom_site_fract_y
 _atom_site_fract_z
 _atom_site_occupancy
 _atom_site_charge
In  In1  1  0.30293000  0.30293000  0.69707000  1.0 1.2586468922
In  In2  1  0.55293000  0.55293000  0.94707000  1.0 1.2586468922
In  In3  1  0.69707000  0.69707000  0.30293000  1.0 1.2586468922
In  In4  1  0.94707000  0.94707000  0.55293000  1.0 1.2586468922
H  H1  1  0.08100000  0.31480000  0.64020000  1.0 0.1406977781
H  H2  1  0.31480000  0.08100000  0.96400000  1.0 0.1406977781
H  H3  1  0.28600000  0.60980000  0.93520000  1.0 0.1406977781
H  H4  1  0.60980000  0.28600000  0.16900000  1.0 0.1406977781
H  H5  1  0.91760000  0.52240000  0.92140000  1.0 0.1043403986
H  H6  1  0.52240000  0.91760000  0.63860000  1.0 0.1043403986
H  H7  1  0.61140000  0.32860000  0.72760000  1.0 0.1043403986
H  H8  1  0.32860000  0.61140000  0.33240000  1.0 0.1043403986
H  H9  1  0.74840000  0.61320000  0.05460000  1.0 0.1406977781
H  H10  1  0.61320000  0.74840000  0.58380000  1.0 0.1406977781
H  H11  1  0.66620000  0.19540000  0.63680000  1.0 0.1406977781
H  H12  1  0.19540000  0.66620000  0.50160000  1.0 0.1406977781
H  H13  1  0.67860000  0.60820000  0.05180000  1.0 0.1260331949
H  H14  1  0.60820000  0.67860000  0.66140000  1.0 0.1260331949
H  H15  1  0.58860000  0.19820000  0.64180000  1.0 0.1260331949
H  H16  1  0.19820000  0.58860000  0.57140000  1.0 0.1260331949
H  H17  1  0.08670000  0.30370000  0.64550000  1.0 0.1450204569
H  H18  1  0.30370000  0.08670000  0.96410000  1.0 0.1450204569
H  H19  1  0.28590000  0.60450000  0.94630000  1.0 0.1450204569
H  H20  1  0.60450000  0.28590000  0.16330000  1.0 0.1450204569
H  H21  1  0.94080000  0.48320000  0.94060000  1.0 0.1043403986
H  H22  1  0.48320000  0.94080000  0.63540000  1.0 0.1043403986
H  H23  1  0.61460000  0.30940000  0.76680000  1.0 0.1043403986
H  H24  1  0.30940000  0.61460000  0.30920000  1.0 0.1043403986
H  H25  1  0.71590000  0.53910000  0.08450000  1.0 0.1202667309
H  H26  1  0.53910000  0.71590000  0.66050000  1.0 0.1202667309
H  H27  1  0.58950000  0.16550000  0.71090000  1.0 0.1202667309
H  H28  1  0.16550000  0.58950000  0.53410000  1.0 0.1202667309
H  H29  1  0.78680000  0.53860000  0.09460000  1.0 0.1260331949
H  H30  1  0.53860000  0.78680000  0.58000000  1.0 0.1260331949
H  H31  1  0.67000000  0.15540000  0.71140000  1.0 0.1260331949
H  H32  1  0.15540000  0.67000000  0.46320000  1.0 0.1260331949
H  H33  1  0.00400000  0.28960000  0.61460000  1.0 0.3041847142
H  H34  1  0.28960000  0.00400000  0.09180000  1.0 0.3041847142
H  H35  1  0.15820000  0.63540000  0.96040000  1.0 0.3041847142
H  H36  1  0.63540000  0.15820000  0.24600000  1.0 0.3041847142
H  H37  1  0.88870000  0.34190000  0.69470000  1.0 0.3205637614
H  H38  1  0.34190000  0.88870000  0.07470000  1.0 0.3205637614
H  H39  1  0.17530000  0.55530000  0.90810000  1.0 0.3205637614
H  H40  1  0.55530000  0.17530000  0.36130000  1.0 0.3205637614
H  H41  1  0.96400000  0.64020000  0.31480000  1.0 0.1406977781
H  H42  1  0.64020000  0.96400000  0.08100000  1.0 0.1406977781
H  H43  1  0.16900000  0.93520000  0.60980000  1.0 0.1406977781
H  H44  1  0.93520000  0.16900000  0.28600000  1.0 0.1406977781
H  H45  1  0.63860000  0.92140000  0.52240000  1.0 0.1043403986
H  H46  1  0.92140000  0.63860000  0.91760000  1.0 0.1043403986
H  H47  1  0.33240000  0.72760000  0.32860000  1.0 0.1043403986
H  H48  1  0.72760000  0.33240000  0.61140000  1.0 0.1043403986
H  H49  1  0.58380000  0.05460000  0.61320000  1.0 0.1406977781
H  H50  1  0.05460000  0.58380000  0.74840000  1.0 0.1406977781
H  H51  1  0.50160000  0.63680000  0.19540000  1.0 0.1406977781
H  H52  1  0.63680000  0.50160000  0.66620000  1.0 0.1406977781
H  H53  1  0.66140000  0.05180000  0.60820000  1.0 0.1260331949
H  H54  1  0.05180000  0.66140000  0.67860000  1.0 0.1260331949
H  H55  1  0.57140000  0.64180000  0.19820000  1.0 0.1260331949
H  H56  1  0.64180000  0.57140000  0.58860000  1.0 0.1260331949
H  H57  1  0.96410000  0.64550000  0.30370000  1.0 0.1450204569
H  H58  1  0.64550000  0.96410000  0.08670000  1.0 0.1450204569
H  H59  1  0.16330000  0.94630000  0.60450000  1.0 0.1450204569
H  H60  1  0.94630000  0.16330000  0.28590000  1.0 0.1450204569
H  H61  1  0.63540000  0.94060000  0.48320000  1.0 0.1043403986
H  H62  1  0.94060000  0.63540000  0.94080000  1.0 0.1043403986
H  H63  1  0.30920000  0.76680000  0.30940000  1.0 0.1043403986
H  H64  1  0.76680000  0.30920000  0.61460000  1.0 0.1043403986
H  H65  1  0.66050000  0.08450000  0.53910000  1.0 0.1202667309
H  H66  1  0.08450000  0.66050000  0.71590000  1.0 0.1202667309
H  H67  1  0.53410000  0.71090000  0.16550000  1.0 0.1202667309
H  H68  1  0.71090000  0.53410000  0.58950000  1.0 0.1202667309
H  H69  1  0.58000000  0.09460000  0.53860000  1.0 0.1260331949
H  H70  1  0.09460000  0.58000000  0.78680000  1.0 0.1260331949
H  H71  1  0.46320000  0.71140000  0.15540000  1.0 0.1260331949
H  H72  1  0.71140000  0.46320000  0.67000000  1.0 0.1260331949
H  H73  1  0.09180000  0.61460000  0.28960000  1.0 0.3041847142
H  H74  1  0.61460000  0.09180000  0.00400000  1.0 0.3041847142
H  H75  1  0.24600000  0.96040000  0.63540000  1.0 0.3041847142
H  H76  1  0.96040000  0.24600000  0.15820000  1.0 0.3041847142
H  H77  1  0.07470000  0.69470000  0.34190000  1.0 0.3205637614
H  H78  1  0.69470000  0.07470000  0.88870000  1.0 0.3205637614
H  H79  1  0.36130000  0.90810000  0.55530000  1.0 0.3205637614
H  H80  1  0.90810000  0.36130000  0.17530000  1.0 0.3205637614
C  C1  1  0.11950000  0.37530000  0.74430000  1.0 0.4025662671
C  C2  1  0.37530000  0.11950000  0.76090000  1.0 0.4025662671
C  C3  1  0.48910000  0.50570000  0.87470000  1.0 0.4025662671
C  C4  1  0.50570000  0.48910000  0.13050000  1.0 0.4025662671
C  C5  1  0.01800000  0.40680000  0.77660000  1.0 -0.0058618701
C  C6  1  0.40680000  0.01800000  0.79860000  1.0 -0.0047537503
C  C7  1  0.45140000  0.47340000  0.84320000  1.0 -0.0047537503
C  C8  1  0.47340000  0.45140000  0.23200000  1.0 -0.0058618701
C  C9  1  0.02150000  0.35610000  0.71490000  1.0 -0.2272655984
C  C10  1  0.35610000  0.02150000  0.90750000  1.0 -0.2272655984
C  C11  1  0.34250000  0.53510000  0.89390000  1.0 -0.2272655984
C  C12  1  0.53510000  0.34250000  0.22850000  1.0 -0.2272655984
C  C13  1  0.92010000  0.48630000  0.87870000  1.0 -0.0930042115
C  C14  1  0.48630000  0.92010000  0.71490000  1.0 -0.0930042115
C  C15  1  0.53510000  0.37130000  0.76370000  1.0 -0.0930042115
C  C16  1  0.37130000  0.53510000  0.32990000  1.0 -0.0930042115
C  C17  1  0.92840000  0.38140000  0.75420000  1.0 0.2164553906
C  C18  1  0.38140000  0.92840000  0.93600000  1.0 0.2164553906
C  C19  1  0.31400000  0.49580000  0.86860000  1.0 0.2164553906
C  C20  1  0.49580000  0.31400000  0.32160000  1.0 0.2164553906
C  C21  1  0.82700000  0.51220000  0.91780000  1.0 0.1202667309
C  C22  1  0.51220000  0.82700000  0.74300000  1.0 0.1260331949
C  C23  1  0.50700000  0.33220000  0.73780000  1.0 0.1260331949
C  C24  1  0.33220000  0.50700000  0.42300000  1.0 0.1202667309
C  C25  1  0.83030000  0.46010000  0.85230000  1.0 -0.155601653
C  C26  1  0.46010000  0.83030000  0.85730000  1.0 -0.155601653
C  C27  1  0.39270000  0.39770000  0.78990000  1.0 -0.1481442186
C  C28  1  0.39770000  0.39270000  0.41970000  1.0 -0.155601653
C  C29  1  0.73950000  0.47670000  0.89610000  1.0 0.416040318
C  C30  1  0.47670000  0.73950000  0.88770000  1.0 0.416040318
C  C31  1  0.36230000  0.35390000  0.77330000  1.0 0.416040318
C  C32  1  0.35390000  0.36230000  0.51050000  1.0 0.416040318
C  C33  1  0.94020000  0.45380000  0.89360000  1.0 -0.0930042115
C  C34  1  0.45380000  0.94020000  0.71240000  1.0 -0.0930042115
C  C35  1  0.53760000  0.35640000  0.79620000  1.0 -0.0930042115
C  C36  1  0.35640000  0.53760000  0.30980000  1.0 -0.0930042115
C  C37  1  0.85050000  0.47510000  0.93590000  1.0 0.1260331949
C  C38  1  0.47510000  0.85050000  0.73850000  1.0 0.1260331949
C  C39  1  0.51150000  0.31410000  0.77490000  1.0 0.1260331949
C  C40  1  0.31410000  0.51150000  0.39950000  1.0 0.1260331949
C  C41  1  0.02570000  0.39430000  0.79130000  1.0 -0.0223631162
C  C42  1  0.39430000  0.02570000  0.78870000  1.0 -0.0223631162
C  C43  1  0.46130000  0.45870000  0.85570000  1.0 -0.0223631162
C  C44  1  0.45870000  0.46130000  0.22430000  1.0 -0.0223631162
C  C45  1  0.84410000  0.43970000  0.86610000  1.0 -0.1413984561
C  C46  1  0.43970000  0.84410000  0.85010000  1.0 -0.1413984561
C  C47  1  0.39990000  0.38390000  0.81030000  1.0 -0.1413984561
C  C48  1  0.38390000  0.39990000  0.40590000  1.0 -0.1413984561
C  C49  1  0.76090000  0.74430000  0.37530000  1.0 0.4025662671
C  C50  1  0.74430000  0.76090000  0.11950000  1.0 0.4025662671
C  C51  1  0.13050000  0.87470000  0.50570000  1.0 0.4025662671
C  C52  1  0.87470000  0.13050000  0.48910000  1.0 0.4025662671
C  C53  1  0.79860000  0.77660000  0.40680000  1.0 -0.0047537503
C  C54  1  0.77660000  0.79860000  0.01800000  1.0 -0.0047537503
C  C55  1  0.23200000  0.84320000  0.47340000  1.0 -0.0047537503
C  C56  1  0.84320000  0.23200000  0.45140000  1.0 -0.0047537503
C  C57  1  0.90750000  0.71490000  0.35610000  1.0 -0.2272655984
C  C58  1  0.71490000  0.90750000  0.02150000  1.0 -0.2272655984
C  C59  1  0.22850000  0.89390000  0.53510000  1.0 -0.2272655984
C  C60  1  0.89390000  0.22850000  0.34250000  1.0 -0.2272655984
C  C61  1  0.71490000  0.87870000  0.48630000  1.0 -0.0930042115
C  C62  1  0.87870000  0.71490000  0.92010000  1.0 -0.0930042115
C  C63  1  0.32990000  0.76370000  0.37130000  1.0 -0.0930042115
C  C64  1  0.76370000  0.32990000  0.53510000  1.0 -0.0930042115
C  C65  1  0.93600000  0.75420000  0.38140000  1.0 0.2164553906
C  C66  1  0.75420000  0.93600000  0.92840000  1.0 0.2164553906
C  C67  1  0.32160000  0.86860000  0.49580000  1.0 0.2164553906
C  C68  1  0.86860000  0.32160000  0.31400000  1.0 0.2164553906
C  C69  1  0.74300000  0.91780000  0.51220000  1.0 0.1202667309
C  C70  1  0.91780000  0.74300000  0.82700000  1.0 0.1202667309
C  C71  1  0.42300000  0.73780000  0.33220000  1.0 0.1202667309
C  C72  1  0.73780000  0.42300000  0.50700000  1.0 0.1202667309
C  C73  1  0.85730000  0.85230000  0.46010000  1.0 -0.155601653
C  C74  1  0.85230000  0.85730000  0.83030000  1.0 -0.155601653
C  C75  1  0.41970000  0.78990000  0.39770000  1.0 -0.155601653
C  C76  1  0.78990000  0.41970000  0.39270000  1.0 -0.155601653
C  C77  1  0.88770000  0.89610000  0.47670000  1.0 0.416040318
C  C78  1  0.89610000  0.88770000  0.73950000  1.0 0.4145364034
C  C79  1  0.51050000  0.77330000  0.35390000  1.0 0.4145364034
C  C80  1  0.77330000  0.51050000  0.36230000  1.0 0.4145364034
C  C81  1  0.71240000  0.89360000  0.45380000  1.0 -0.0930042115
C  C82  1  0.89360000  0.71240000  0.94020000  1.0 -0.0930042115
C  C83  1  0.30980000  0.79620000  0.35640000  1.0 -0.0930042115
C  C84  1  0.79620000  0.30980000  0.53760000  1.0 -0.0930042115
C  C85  1  0.73850000  0.93590000  0.47510000  1.0 0.1260331949
C  C86  1  0.93590000  0.73850000  0.85050000  1.0 0.1260331949
C  C87  1  0.39950000  0.77490000  0.31410000  1.0 0.1260331949
C  C88  1  0.77490000  0.39950000  0.51150000  1.0 0.1260331949
C  C89  1  0.78870000  0.79130000  0.39430000  1.0 -0.0223631162
C  C90  1  0.79130000  0.78870000  0.02570000  1.0 -0.0223631162
C  C91  1  0.22430000  0.85570000  0.45870000  1.0 -0.0223631162
C  C92  1  0.85570000  0.22430000  0.46130000  1.0 -0.0223631162
C  C93  1  0.85010000  0.86610000  0.43970000  1.0 -0.1413984561
C  C94  1  0.86610000  0.85010000  0.84410000  1.0 -0.1413984561
C  C95  1  0.40590000  0.81030000  0.38390000  1.0 -0.1413984561
C  C96  1  0.81030000  0.40590000  0.39990000  1.0 -0.1413984561
N  N1  1  0.74110000  0.58670000  0.02030000  1.0 -0.1887737123
N  N2  1  0.58670000  0.74110000  0.65190000  1.0 -0.1887737123
N  N3  1  0.59810000  0.22970000  0.66330000  1.0 -0.1887737123
N  N4  1  0.22970000  0.59810000  0.50890000  1.0 -0.1887737123
N  N5  1  0.77460000  0.52380000  0.05340000  1.0 -0.1481442186
N  N6  1  0.52380000  0.77460000  0.64820000  1.0 -0.1481442186
N  N7  1  0.60180000  0.19660000  0.72620000  1.0 -0.1481442186
N  N8  1  0.19660000  0.60180000  0.47540000  1.0 -0.1481442186
N  N9  1  0.94200000  0.33200000  0.68000000  1.0 -0.5211478306
N  N10  1  0.33200000  0.94200000  0.04600000  1.0 -0.5211478306
N  N11  1  0.20400000  0.57000000  0.91800000  1.0 -0.5211478306
N  N12  1  0.57000000  0.20400000  0.30800000  1.0 -0.5211478306
N  N13  1  0.65190000  0.02030000  0.58670000  1.0 -0.1887737123
N  N14  1  0.02030000  0.65190000  0.74110000  1.0 -0.1887737123
N  N15  1  0.50890000  0.66330000  0.22970000  1.0 -0.1887737123
N  N16  1  0.66330000  0.50890000  0.59810000  1.0 -0.1887737123
N  N17  1  0.64820000  0.05340000  0.52380000  1.0 -0.1481442186
N  N18  1  0.05340000  0.64820000  0.77460000  1.0 -0.1481442186
N  N19  1  0.47540000  0.72620000  0.19660000  1.0 -0.1481442186
N  N20  1  0.72620000  0.47540000  0.60180000  1.0 -0.1481442186
N  N21  1  0.04600000  0.68000000  0.33200000  1.0 -0.5211478306
N  N22  1  0.68000000  0.04600000  0.94200000  1.0 -0.5211478306
N  N23  1  0.30800000  0.91800000  0.57000000  1.0 -0.5211478306
N  N24  1  0.91800000  0.30800000  0.20400000  1.0 -0.5211478306
O  O1  1  0.11349000  0.42609000  0.80131000  1.0 -0.5313067866
O  O2  1  0.42609000  0.11349000  0.65911000  1.0 -0.5313067866
O  O3  1  0.59089000  0.44869000  0.82391000  1.0 -0.5313067866
O  O4  1  0.44869000  0.59089000  0.13651000  1.0 -0.5313067866
O  O5  1  0.21058000  0.29838000  0.65862000  1.0 -0.4556224418
O  O6  1  0.29838000  0.21058000  0.83242000  1.0 -0.4556224418
O  O7  1  0.41758000  0.59138000  0.95162000  1.0 -0.4556224418
O  O8  1  0.59138000  0.41758000  0.03942000  1.0 -0.4543016983
O  O9  1  0.64816000  0.55076000  0.98584000  1.0 -0.5065532161
O  O10  1  0.55076000  0.64816000  0.81524000  1.0 -0.5065532161
O  O11  1  0.43476000  0.26416000  0.69924000  1.0 -0.5065532161
O  O12  1  0.26416000  0.43476000  0.60184000  1.0 -0.5065532161
O  O13  1  0.74253000  0.43033000  0.83727000  1.0 -0.4556224418
O  O14  1  0.43033000  0.74253000  0.98987000  1.0 -0.4556224418
O  O15  1  0.26013000  0.41273000  0.81967000  1.0 -0.4556224418
O  O16  1  0.41273000  0.26013000  0.50747000  1.0 -0.4556224418
O  O17  1  0.65911000  0.80131000  0.42609000  1.0 -0.5313067866
O  O18  1  0.80131000  0.65911000  0.11349000  1.0 -0.5313067866
O  O19  1  0.13651000  0.82391000  0.44869000  1.0 -0.5313067866
O  O20  1  0.82391000  0.13651000  0.59089000  1.0 -0.5313067866
O  O21  1  0.83242000  0.65862000  0.29838000  1.0 -0.4556224418
O  O22  1  0.65862000  0.83242000  0.21058000  1.0 -0.4556224418
O  O23  1  0.03942000  0.95162000  0.59138000  1.0 -0.4556224418
O  O24  1  0.95162000  0.03942000  0.41758000  1.0 -0.4556224418
O  O25  1  0.81524000  0.98584000  0.55076000  1.0 -0.5065532161
O  O26  1  0.98584000  0.81524000  0.64816000  1.0 -0.5065532161
O  O27  1  0.60184000  0.69924000  0.26416000  1.0 -0.5065532161
O  O28  1  0.69924000  0.60184000  0.43476000  1.0 -0.5065532161
O  O29  1  0.98987000  0.83727000  0.43033000  1.0 -0.4556224418
O  O30  1  0.83727000  0.98987000  0.74253000  1.0 -0.4556224418
O  O31  1  0.50747000  0.81967000  0.41273000  1.0 -0.4556224418
O  O32  1  0.81967000  0.50747000  0.26013000  1.0 -0.4556224418
