# DDEC6 charges by PACMAN v1.1 (https://github.com/mtap-research/PACMAN-charge/)
data_LAPMOH_ion_pacman
_symmetry_space_group_name_H-M   'P 1'
_cell_length_a   20.51390000
_cell_length_b   19.14700000
_cell_length_c   12.82460000
_cell_angle_alpha   77.02590000
_cell_angle_beta   65.44190000
_cell_angle_gamma   37.53220000
_symmetry_Int_Tables_number   1
_chemical_formula_structural   InH28C30N5O8
_chemical_formula_sum   'In4 H112 C120 N20 O32'
_cell_volume   2740.48124966
_cell_formula_units_Z   4
loop_
 _symmetry_equiv_pos_site_id
 _symmetry_equiv_pos_as_xyz
  1  'x, y, z'
loop_
 _atom_site_type_symbol
 _atom_site_label
 _atom_site_symmetry_multiplicity
 _atom_site_fract_x
 _atom_site_fract_y
 _atom_site_fract_z
 _atom_site_occupancy
 _atom_site_charge
In  In1  1  0.29116000  0.29116000  0.70884000  1.0 1.211577335
In  In2  1  0.54116000  0.54116000  0.95884000  1.0 1.211577335
In  In3  1  0.70884000  0.70884000  0.29116000  1.0 1.211577335
In  In4  1  0.95884000  0.95884000  0.54116000  1.0 1.211577335
H  H1  1  0.54150000  0.21830000  0.34830000  1.0 0.0921296836
H  H2  1  0.21830000  0.54150000  0.89190000  1.0 0.0921296836
H  H3  1  0.35810000  0.90170000  0.03170000  1.0 0.0921296836
H  H4  1  0.90170000  0.35810000  0.70850000  1.0 0.0921296836
H  H5  1  0.61340000  0.26200000  0.19740000  1.0 0.1012619201
H  H6  1  0.26200000  0.61340000  0.92720000  1.0 0.1012619201
H  H7  1  0.32280000  0.05260000  0.98800000  1.0 0.1012619201
H  H8  1  0.05260000  0.32280000  0.63660000  1.0 0.1012619201
H  H9  1  0.29350000  0.60690000  0.30930000  1.0 0.1012619201
H  H10  1  0.60690000  0.29350000  0.79030000  1.0 0.1012619201
H  H11  1  0.45970000  0.94070000  0.64310000  1.0 0.1012619201
H  H12  1  0.94070000  0.45970000  0.95650000  1.0 0.1012619201
H  H13  1  0.14640000  0.66600000  0.46940000  1.0 0.1203586287
H  H14  1  0.66600000  0.14640000  0.71820000  1.0 0.1203586287
H  H15  1  0.53180000  0.78060000  0.58400000  1.0 0.1203586287
H  H16  1  0.78060000  0.53180000  0.10360000  1.0 0.1203586287
H  H17  1  0.14310000  0.59210000  0.47690000  1.0 0.2025622703
H  H18  1  0.59210000  0.14310000  0.78790000  1.0 0.2025622703
H  H19  1  0.46210000  0.77310000  0.65790000  1.0 0.2025622703
H  H20  1  0.77310000  0.46210000  0.10690000  1.0 0.2025622703
H  H21  1  0.21930000  0.57130000  0.59230000  1.0 0.1790133357
H  H22  1  0.57130000  0.21930000  0.61710000  1.0 0.1790133357
H  H23  1  0.63290000  0.65770000  0.67870000  1.0 0.1790133357
H  H24  1  0.65770000  0.63290000  0.03070000  1.0 0.1790133357
H  H25  1  0.18630000  0.65110000  0.51230000  1.0 0.1203586287
H  H26  1  0.65110000  0.18630000  0.65030000  1.0 0.1203586287
H  H27  1  0.59970000  0.73770000  0.59890000  1.0 0.1203586287
H  H28  1  0.73770000  0.59970000  0.06370000  1.0 0.1203586287
H  H29  1  0.52800000  0.22140000  0.31120000  1.0 0.1012619201
H  H30  1  0.22140000  0.52800000  0.93940000  1.0 0.1012619201
H  H31  1  0.31060000  0.93880000  0.02860000  1.0 0.1012619201
H  H32  1  0.93880000  0.31060000  0.72200000  1.0 0.1012619201
H  H33  1  0.59230000  0.27510000  0.16750000  1.0 0.1073125364
H  H34  1  0.27510000  0.59230000  0.96510000  1.0 0.1073125364
H  H35  1  0.28490000  0.08250000  0.97490000  1.0 0.1073125364
H  H36  1  0.08250000  0.28490000  0.65770000  1.0 0.1073125364
H  H37  1  0.31070000  0.60450000  0.35550000  1.0 0.0921296836
H  H38  1  0.60450000  0.31070000  0.72930000  1.0 0.0921296836
H  H39  1  0.52070000  0.89450000  0.64550000  1.0 0.0921296836
H  H40  1  0.89450000  0.52070000  0.93930000  1.0 0.0921296836
H  H41  1  0.89190000  0.34830000  0.21830000  1.0 0.0921296836
H  H42  1  0.34830000  0.89190000  0.54150000  1.0 0.0921296836
H  H43  1  0.70850000  0.03170000  0.90170000  1.0 0.0921296836
H  H44  1  0.03170000  0.70850000  0.35810000  1.0 0.0921296836
H  H45  1  0.92720000  0.19740000  0.26200000  1.0 0.1012619201
H  H46  1  0.19740000  0.92720000  0.61340000  1.0 0.1012619201
H  H47  1  0.63660000  0.98800000  0.05260000  1.0 0.1012619201
H  H48  1  0.98800000  0.63660000  0.32280000  1.0 0.1012619201
H  H49  1  0.79030000  0.30930000  0.60690000  1.0 0.1012619201
H  H50  1  0.30930000  0.79030000  0.29350000  1.0 0.1012619201
H  H51  1  0.95650000  0.64310000  0.94070000  1.0 0.1012619201
H  H52  1  0.64310000  0.95650000  0.45970000  1.0 0.1012619201
H  H53  1  0.71820000  0.46940000  0.66600000  1.0 0.1203586287
H  H54  1  0.46940000  0.71820000  0.14640000  1.0 0.1203586287
H  H55  1  0.10360000  0.58400000  0.78060000  1.0 0.1203586287
H  H56  1  0.58400000  0.10360000  0.53180000  1.0 0.1203586287
H  H57  1  0.78790000  0.47690000  0.59210000  1.0 0.2025622703
H  H58  1  0.47690000  0.78790000  0.14310000  1.0 0.2025622703
H  H59  1  0.10690000  0.65790000  0.77310000  1.0 0.2025622703
H  H60  1  0.65790000  0.10690000  0.46210000  1.0 0.2025622703
H  H61  1  0.61710000  0.59230000  0.57130000  1.0 0.1790133357
H  H62  1  0.59230000  0.61710000  0.21930000  1.0 0.1790133357
H  H63  1  0.03070000  0.67870000  0.65770000  1.0 0.1790133357
H  H64  1  0.67870000  0.03070000  0.63290000  1.0 0.1790133357
H  H65  1  0.65030000  0.51230000  0.65110000  1.0 0.1203586287
H  H66  1  0.51230000  0.65030000  0.18630000  1.0 0.1203586287
H  H67  1  0.06370000  0.59890000  0.73770000  1.0 0.1203586287
H  H68  1  0.59890000  0.06370000  0.59970000  1.0 0.1203586287
H  H69  1  0.93940000  0.31120000  0.22140000  1.0 0.1012619201
H  H70  1  0.31120000  0.93940000  0.52800000  1.0 0.1012619201
H  H71  1  0.72200000  0.02860000  0.93880000  1.0 0.1012619201
H  H72  1  0.02860000  0.72200000  0.31060000  1.0 0.1012619201
H  H73  1  0.96510000  0.16750000  0.27510000  1.0 0.1073125364
H  H74  1  0.16750000  0.96510000  0.59230000  1.0 0.1073125364
H  H75  1  0.65770000  0.97490000  0.08250000  1.0 0.1073125364
H  H76  1  0.97490000  0.65770000  0.28490000  1.0 0.1073125364
H  H77  1  0.72930000  0.35550000  0.60450000  1.0 0.0921296836
H  H78  1  0.35550000  0.72930000  0.31070000  1.0 0.0921296836
H  H79  1  0.93930000  0.64550000  0.89450000  1.0 0.0921296836
H  H80  1  0.64550000  0.93930000  0.52070000  1.0 0.0921296836
H  H81  1  0.26170000  0.75230000  0.15430000  1.0 0.2408847898
H  H82  1  0.15430000  0.83170000  0.26170000  1.0 0.2408847898
H  H83  1  0.16200000  0.73080000  0.17840000  1.0 0.1012619201
H  H84  1  0.17840000  0.92880000  0.16200000  1.0 0.1012619201
H  H85  1  0.16880000  0.78100000  0.06220000  1.0 0.1073125364
H  H86  1  0.06220000  0.98800000  0.16880000  1.0 0.1073125364
H  H87  1  0.05210000  0.86730000  0.17890000  1.0 0.1073125364
H  H88  1  0.17890000  0.90170000  0.05210000  1.0 0.1073125364
H  H89  1  0.75230000  0.26170000  0.83170000  1.0 0.2408847898
H  H90  1  0.83170000  0.15430000  0.75230000  1.0 0.2408847898
H  H91  1  0.73080000  0.16200000  0.92880000  1.0 0.1012619201
H  H92  1  0.92880000  0.17840000  0.73080000  1.0 0.1012619201
H  H93  1  0.78100000  0.16880000  0.98800000  1.0 0.1073125364
H  H94  1  0.98800000  0.06220000  0.78100000  1.0 0.1073125364
H  H95  1  0.86730000  0.05210000  0.90170000  1.0 0.1073125364
H  H96  1  0.90170000  0.17890000  0.86730000  1.0 0.1073125364
H  H97  1  0.98830000  0.49770000  0.09570000  1.0 0.2408847898
H  H98  1  0.09570000  0.41830000  0.98830000  1.0 0.2408847898
H  H99  1  0.08800000  0.51920000  0.07160000  1.0 0.1012619201
H  H100  1  0.07160000  0.32120000  0.08800000  1.0 0.1012619201
H  H101  1  0.08120000  0.46900000  0.18780000  1.0 0.1073125364
H  H102  1  0.18780000  0.26200000  0.08120000  1.0 0.1073125364
H  H103  1  0.19790000  0.38270000  0.07110000  1.0 0.1073125364
H  H104  1  0.07110000  0.34830000  0.19790000  1.0 0.1073125364
H  H105  1  0.49770000  0.98830000  0.41830000  1.0 0.2408847898
H  H106  1  0.41830000  0.09570000  0.49770000  1.0 0.2408847898
H  H107  1  0.51920000  0.08800000  0.32120000  1.0 0.1012619201
H  H108  1  0.32120000  0.07160000  0.51920000  1.0 0.1012619201
H  H109  1  0.46900000  0.08120000  0.26200000  1.0 0.1073125364
H  H110  1  0.26200000  0.18780000  0.46900000  1.0 0.1073125364
H  H111  1  0.38270000  0.19790000  0.34830000  1.0 0.1073125364
H  H112  1  0.34830000  0.07110000  0.38270000  1.0 0.1073125364
C  C1  1  0.49850000  0.47310000  0.14550000  1.0 0.4046925494
C  C2  1  0.47310000  0.49850000  0.88290000  1.0 0.4054771155
C  C3  1  0.36710000  0.10450000  0.77690000  1.0 0.4046925494
C  C4  1  0.10450000  0.36710000  0.75150000  1.0 0.4046925494
C  C5  1  0.33990000  0.34950000  0.51930000  1.0 0.4271117687
C  C6  1  0.34950000  0.33990000  0.79130000  1.0 0.4271117687
C  C7  1  0.45870000  0.73070000  0.90050000  1.0 0.4271117687
C  C8  1  0.73070000  0.45870000  0.91010000  1.0 0.4271117687
C  C9  1  0.30120000  0.50220000  0.40680000  1.0 0.1012619201
C  C10  1  0.50220000  0.30120000  0.78980000  1.0 0.1012619201
C  C11  1  0.46020000  0.84320000  0.74780000  1.0 0.1012619201
C  C12  1  0.84320000  0.46020000  0.94880000  1.0 0.1012619201
C  C13  1  0.37490000  0.38670000  0.41830000  1.0 -0.0766800721
C  C14  1  0.38670000  0.37490000  0.82010000  1.0 -0.0766800721
C  C15  1  0.42990000  0.83170000  0.86330000  1.0 -0.0766800721
C  C16  1  0.83170000  0.42990000  0.87510000  1.0 -0.0766800721
C  C17  1  0.49120000  0.29720000  0.34040000  1.0 -0.0951763154
C  C18  1  0.29720000  0.49120000  0.87120000  1.0 -0.0951763154
C  C19  1  0.37880000  0.90960000  0.95280000  1.0 -0.0951763154
C  C20  1  0.90960000  0.37880000  0.75880000  1.0 -0.0951763154
C  C21  1  0.53380000  0.32320000  0.25080000  1.0 -0.1126930513
C  C22  1  0.32320000  0.53380000  0.89220000  1.0 -0.1126930513
C  C23  1  0.35780000  0.99920000  0.92680000  1.0 -0.1126930513
C  C24  1  0.99920000  0.35780000  0.71620000  1.0 -0.1126930513
C  C25  1  0.46020000  0.43860000  0.23920000  1.0 0.0302424557
C  C26  1  0.43860000  0.46020000  0.86200000  1.0 0.0302424557
C  C27  1  0.38800000  0.01080000  0.81140000  1.0 0.0302424557
C  C28  1  0.01080000  0.38800000  0.78980000  1.0 0.0302424557
C  C29  1  0.34390000  0.52810000  0.31710000  1.0 -0.0710132201
C  C30  1  0.52810000  0.34390000  0.81090000  1.0 -0.0710132201
C  C31  1  0.43910000  0.93290000  0.72190000  1.0 -0.0710132201
C  C32  1  0.93290000  0.43910000  0.90610000  1.0 -0.0710132201
C  C33  1  0.31650000  0.49490000  0.43190000  1.0 0.1073125364
C  C34  1  0.49490000  0.31650000  0.75670000  1.0 0.1073125364
C  C35  1  0.49330000  0.81810000  0.75510000  1.0 0.1073125364
C  C36  1  0.81810000  0.49330000  0.93350000  1.0 0.1073125364
C  C37  1  0.38110000  0.38110000  0.41870000  1.0 -0.0710132201
C  C38  1  0.38110000  0.38110000  0.81910000  1.0 -0.0710132201
C  C39  1  0.43090000  0.83130000  0.86890000  1.0 -0.0710132201
C  C40  1  0.83130000  0.43090000  0.86890000  1.0 -0.0710132201
C  C41  1  0.48380000  0.29920000  0.32020000  1.0 -0.0910988353
C  C42  1  0.29920000  0.48380000  0.89680000  1.0 -0.0910988353
C  C43  1  0.35320000  0.92980000  0.95080000  1.0 -0.0910988353
C  C44  1  0.92980000  0.35320000  0.76620000  1.0 -0.0910988353
C  C45  1  0.52200000  0.33120000  0.23480000  1.0 -0.1126930513
C  C46  1  0.33120000  0.52200000  0.91200000  1.0 -0.1126930513
C  C47  1  0.33800000  0.01520000  0.91880000  1.0 -0.1126930513
C  C48  1  0.01520000  0.33800000  0.72800000  1.0 -0.1126930513
C  C49  1  0.45760000  0.44480000  0.24800000  1.0 0.0400629016
C  C50  1  0.44480000  0.45760000  0.84960000  1.0 0.0400629016
C  C51  1  0.40040000  0.00200000  0.80520000  1.0 0.0400629016
C  C52  1  0.00200000  0.40040000  0.79240000  1.0 0.0400629016
C  C53  1  0.35490000  0.52670000  0.34650000  1.0 -0.0644270801
C  C54  1  0.52670000  0.35490000  0.77190000  1.0 -0.0644270801
C  C55  1  0.47810000  0.90350000  0.72330000  1.0 -0.0644270801
C  C56  1  0.90350000  0.47810000  0.89510000  1.0 -0.0644270801
C  C57  1  0.88290000  0.14550000  0.47310000  1.0 0.4046925494
C  C58  1  0.14550000  0.88290000  0.49850000  1.0 0.4046925494
C  C59  1  0.75150000  0.77690000  0.10450000  1.0 0.4046925494
C  C60  1  0.77690000  0.75150000  0.36710000  1.0 0.4054771155
C  C61  1  0.79130000  0.51930000  0.34950000  1.0 0.4271117687
C  C62  1  0.51930000  0.79130000  0.33990000  1.0 0.4271117687
C  C63  1  0.91010000  0.90050000  0.73070000  1.0 0.4271117687
C  C64  1  0.90050000  0.91010000  0.45870000  1.0 0.4271117687
C  C65  1  0.78980000  0.40680000  0.50220000  1.0 0.1012619201
C  C66  1  0.40680000  0.78980000  0.30120000  1.0 0.1012619201
C  C67  1  0.94880000  0.74780000  0.84320000  1.0 0.1012619201
C  C68  1  0.74780000  0.94880000  0.46020000  1.0 0.1012619201
C  C69  1  0.82010000  0.41830000  0.38670000  1.0 -0.0766800721
C  C70  1  0.41830000  0.82010000  0.37490000  1.0 -0.0766800721
C  C71  1  0.87510000  0.86330000  0.83170000  1.0 -0.0766800721
C  C72  1  0.86330000  0.87510000  0.42990000  1.0 -0.0766800721
C  C73  1  0.87120000  0.34040000  0.29720000  1.0 -0.0910988353
C  C74  1  0.34040000  0.87120000  0.49120000  1.0 -0.0951763154
C  C75  1  0.75880000  0.95280000  0.90960000  1.0 -0.0951763154
C  C76  1  0.95280000  0.75880000  0.37880000  1.0 -0.0951763154
C  C77  1  0.89220000  0.25080000  0.32320000  1.0 -0.1126930513
C  C78  1  0.25080000  0.89220000  0.53380000  1.0 -0.1126930513
C  C79  1  0.71620000  0.92680000  0.99920000  1.0 -0.1126930513
C  C80  1  0.92680000  0.71620000  0.35780000  1.0 -0.1126930513
C  C81  1  0.86200000  0.23920000  0.43860000  1.0 0.0302424557
C  C82  1  0.23920000  0.86200000  0.46020000  1.0 0.0302424557
C  C83  1  0.78980000  0.81140000  0.01080000  1.0 0.0302424557
C  C84  1  0.81140000  0.78980000  0.38800000  1.0 0.0302424557
C  C85  1  0.81090000  0.31710000  0.52810000  1.0 -0.0710132201
C  C86  1  0.31710000  0.81090000  0.34390000  1.0 -0.0710132201
C  C87  1  0.90610000  0.72190000  0.93290000  1.0 -0.0710132201
C  C88  1  0.72190000  0.90610000  0.43910000  1.0 -0.0710132201
C  C89  1  0.75670000  0.43190000  0.49490000  1.0 0.1073125364
C  C90  1  0.43190000  0.75670000  0.31650000  1.0 0.1073125364
C  C91  1  0.93350000  0.75510000  0.81810000  1.0 0.1073125364
C  C92  1  0.75510000  0.93350000  0.49330000  1.0 0.1073125364
C  C93  1  0.81910000  0.41870000  0.38110000  1.0 -0.0710132201
C  C94  1  0.41870000  0.81910000  0.38110000  1.0 -0.0710132201
C  C95  1  0.86890000  0.86890000  0.83130000  1.0 -0.0710132201
C  C96  1  0.86890000  0.86890000  0.43090000  1.0 -0.0710132201
C  C97  1  0.89680000  0.32020000  0.29920000  1.0 -0.0910988353
C  C98  1  0.32020000  0.89680000  0.48380000  1.0 -0.0910988353
C  C99  1  0.76620000  0.95080000  0.92980000  1.0 -0.0910988353
C  C100  1  0.95080000  0.76620000  0.35320000  1.0 -0.0910988353
C  C101  1  0.91200000  0.23480000  0.33120000  1.0 -0.1126930513
C  C102  1  0.23480000  0.91200000  0.52200000  1.0 -0.1126930513
C  C103  1  0.72800000  0.91880000  0.01520000  1.0 -0.1126930513
C  C104  1  0.91880000  0.72800000  0.33800000  1.0 -0.1126930513
C  C105  1  0.84960000  0.24800000  0.44480000  1.0 0.0400629016
C  C106  1  0.24800000  0.84960000  0.45760000  1.0 0.0400629016
C  C107  1  0.79240000  0.80520000  0.00200000  1.0 0.0400629016
C  C108  1  0.80520000  0.79240000  0.40040000  1.0 0.0400629016
C  C109  1  0.77190000  0.34650000  0.52670000  1.0 -0.0644270801
C  C110  1  0.34650000  0.77190000  0.35490000  1.0 -0.0644270801
C  C111  1  0.89510000  0.72330000  0.90350000  1.0 -0.0644270801
C  C112  1  0.72330000  0.89510000  0.47810000  1.0 -0.0644270801
C  C113  1  0.13750000  0.79750000  0.14850000  1.0 -0.3150647492
C  C114  1  0.14850000  0.91650000  0.13750000  1.0 -0.3139358571
C  C115  1  0.79750000  0.13750000  0.91650000  1.0 -0.3150647492
C  C116  1  0.91650000  0.14850000  0.79750000  1.0 -0.3139358571
C  C117  1  0.11250000  0.45250000  0.10150000  1.0 -0.3139358571
C  C118  1  0.10150000  0.33350000  0.11250000  1.0 -0.3150647492
C  C119  1  0.45250000  0.11250000  0.33350000  1.0 -0.3150647492
C  C120  1  0.33350000  0.10150000  0.45250000  1.0 -0.3150647492
N  N1  1  0.18290000  0.59530000  0.48350000  1.0 -0.2124601253
N  N2  1  0.59530000  0.18290000  0.73830000  1.0 -0.2124601253
N  N3  1  0.51170000  0.76650000  0.65470000  1.0 -0.2124601253
N  N4  1  0.76650000  0.51170000  0.06710000  1.0 -0.2124601253
N  N5  1  0.21110000  0.58670000  0.52490000  1.0 -0.221350471
N  N6  1  0.58670000  0.21110000  0.67730000  1.0 -0.221350471
N  N7  1  0.57270000  0.72510000  0.66330000  1.0 -0.221350471
N  N8  1  0.72510000  0.57270000  0.03890000  1.0 -0.221350471
N  N9  1  0.73830000  0.48350000  0.59530000  1.0 -0.2124601253
N  N10  1  0.48350000  0.73830000  0.18290000  1.0 -0.2124601253
N  N11  1  0.06710000  0.65470000  0.76650000  1.0 -0.2124601253
N  N12  1  0.65470000  0.06710000  0.51170000  1.0 -0.2124601253
N  N13  1  0.67730000  0.52490000  0.58670000  1.0 -0.221350471
N  N14  1  0.52490000  0.67730000  0.21110000  1.0 -0.221350471
N  N15  1  0.03890000  0.66330000  0.72510000  1.0 -0.221350471
N  N16  1  0.66330000  0.03890000  0.57270000  1.0 -0.221350471
N  N17  1  0.18200000  0.81800000  0.18200000  1.0 -0.1482572914
N  N18  1  0.81800000  0.18200000  0.81800000  1.0 -0.1482572914
N  N19  1  0.06800000  0.43200000  0.06800000  1.0 -0.1482572914
N  N20  1  0.43200000  0.06800000  0.43200000  1.0 -0.1482572914
O  O1  1  0.40550000  0.24370000  0.51570000  1.0 -0.4917918951
O  O2  1  0.24370000  0.40550000  0.83510000  1.0 -0.4917918951
O  O3  1  0.41490000  0.73430000  0.00630000  1.0 -0.4917918951
O  O4  1  0.73430000  0.41490000  0.84450000  1.0 -0.4917918951
O  O5  1  0.59030000  0.39870000  0.05690000  1.0 -0.4719435819
O  O6  1  0.39870000  0.59030000  0.95410000  1.0 -0.4719435819
O  O7  1  0.29590000  0.19310000  0.85130000  1.0 -0.4719435819
O  O8  1  0.19310000  0.29590000  0.65970000  1.0 -0.4719435819
O  O9  1  0.24730000  0.42390000  0.60410000  1.0 -0.4719435819
O  O10  1  0.42390000  0.24730000  0.72470000  1.0 -0.4719435819
O  O11  1  0.52530000  0.64590000  0.82610000  1.0 -0.4719435819
O  O12  1  0.64590000  0.52530000  0.00270000  1.0 -0.4719435819
O  O13  1  0.43660000  0.57920000  0.15120000  1.0 -0.5385463745
O  O14  1  0.57920000  0.43660000  0.83300000  1.0 -0.5385463745
O  O15  1  0.41700000  0.09880000  0.67080000  1.0 -0.5385463745
O  O16  1  0.09880000  0.41700000  0.81340000  1.0 -0.5385463745
O  O17  1  0.83510000  0.51570000  0.24370000  1.0 -0.4917918951
O  O18  1  0.51570000  0.83510000  0.40550000  1.0 -0.4917918951
O  O19  1  0.84450000  0.00630000  0.73430000  1.0 -0.4917918951
O  O20  1  0.00630000  0.84450000  0.41490000  1.0 -0.4917918951
O  O21  1  0.95410000  0.05690000  0.39870000  1.0 -0.4719435819
O  O22  1  0.05690000  0.95410000  0.59030000  1.0 -0.4719435819
O  O23  1  0.65970000  0.85130000  0.19310000  1.0 -0.4719435819
O  O24  1  0.85130000  0.65970000  0.29590000  1.0 -0.4719435819
O  O25  1  0.72470000  0.60410000  0.42390000  1.0 -0.4719435819
O  O26  1  0.60410000  0.72470000  0.24730000  1.0 -0.4719435819
O  O27  1  0.00270000  0.82610000  0.64590000  1.0 -0.4719435819
O  O28  1  0.82610000  0.00270000  0.52530000  1.0 -0.4719435819
O  O29  1  0.83300000  0.15120000  0.57920000  1.0 -0.5385463745
O  O30  1  0.15120000  0.83300000  0.43660000  1.0 -0.5385463745
O  O31  1  0.81340000  0.67080000  0.09880000  1.0 -0.5385463745
O  O32  1  0.67080000  0.81340000  0.41700000  1.0 -0.5385463745
