# DDEC6 charges by PACMAN v1.1 (https://github.com/mtap-research/PACMAN-charge/)
data_LAQNOJ_ASR_pacman
_symmetry_space_group_name_H-M   'P 1'
_cell_length_a   24.36530000
_cell_length_b   24.36530000
_cell_length_c   24.36530000
_cell_angle_alpha   135.15600000
_cell_angle_beta   135.15600000
_cell_angle_gamma   65.28800000
_symmetry_Int_Tables_number   1
_chemical_formula_structural   Cu2H23C39O8
_chemical_formula_sum   'Cu8 H92 C156 O32'
_cell_volume   7088.04200041
_cell_formula_units_Z   4
loop_
 _symmetry_equiv_pos_site_id
 _symmetry_equiv_pos_as_xyz
  1  'x, y, z'
loop_
 _atom_site_type_symbol
 _atom_site_label
 _atom_site_symmetry_multiplicity
 _atom_site_fract_x
 _atom_site_fract_y
 _atom_site_fract_z
 _atom_site_occupancy
 _atom_site_charge
Cu  Cu1  1  0.51072000  0.51072000  0.56814000  1.0 0.8622371876
Cu  Cu2  1  0.51072000  0.94258000  0.00000000  1.0 0.8622371876
Cu  Cu3  1  0.94258000  0.94258000  0.43186000  1.0 0.8622371876
Cu  Cu4  1  0.94258000  0.51072000  0.00000000  1.0 0.8622371876
Cu  Cu5  1  0.48928000  0.05742000  0.00000000  1.0 0.8622371876
Cu  Cu6  1  0.05742000  0.48928000  0.00000000  1.0 0.8622371876
Cu  Cu7  1  0.05742000  0.05742000  0.56814000  1.0 0.8622371876
Cu  Cu8  1  0.48928000  0.48928000  0.43186000  1.0 0.8622371876
H  H1  1  0.37630000  0.00000000  0.37630000  1.0 0.1284005487
H  H2  1  0.00000000  0.62370000  0.62370000  1.0 0.1284005487
H  H3  1  0.62370000  0.00000000  0.62370000  1.0 0.1284005487
H  H4  1  0.00000000  0.37630000  0.37630000  1.0 0.1284005487
H  H5  1  0.55000000  0.17120000  0.56460000  1.0 0.0764968493
H  H6  1  0.17120000  0.60660000  0.62120000  1.0 0.0764968493
H  H7  1  0.60660000  0.98540000  0.43540000  1.0 0.0764968493
H  H8  1  0.98540000  0.55000000  0.37880000  1.0 0.0764968493
H  H9  1  0.45000000  0.01460000  0.62120000  1.0 0.0764968493
H  H10  1  0.39340000  0.82880000  0.37880000  1.0 0.0764968493
H  H11  1  0.01460000  0.39340000  0.56460000  1.0 0.0764968493
H  H12  1  0.82880000  0.45000000  0.43540000  1.0 0.0764968493
H  H13  1  0.45000000  0.82880000  0.43540000  1.0 0.0764968493
H  H14  1  0.82880000  0.39340000  0.37880000  1.0 0.0764968493
H  H15  1  0.39340000  0.01460000  0.56460000  1.0 0.0764968493
H  H16  1  0.01460000  0.45000000  0.62120000  1.0 0.0764968493
H  H17  1  0.55000000  0.98540000  0.37880000  1.0 0.0764968493
H  H18  1  0.60660000  0.17120000  0.62120000  1.0 0.0764968493
H  H19  1  0.98540000  0.60660000  0.43540000  1.0 0.0764968493
H  H20  1  0.17120000  0.55000000  0.56460000  1.0 0.0764968493
H  H21  1  0.53600000  0.22500000  0.50580000  1.0 0.1067602341
H  H22  1  0.22500000  0.71920000  0.68900000  1.0 0.1067602341
H  H23  1  0.71920000  0.03020000  0.49420000  1.0 0.1067602341
H  H24  1  0.03020000  0.53600000  0.31100000  1.0 0.1067602341
H  H25  1  0.46400000  0.96980000  0.68900000  1.0 0.1067602341
H  H26  1  0.28080000  0.77500000  0.31100000  1.0 0.1067602341
H  H27  1  0.96980000  0.28080000  0.50580000  1.0 0.1067602341
H  H28  1  0.77500000  0.46400000  0.49420000  1.0 0.1067602341
H  H29  1  0.46400000  0.77500000  0.49420000  1.0 0.1067602341
H  H30  1  0.77500000  0.28080000  0.31100000  1.0 0.1067602341
H  H31  1  0.28080000  0.96980000  0.50580000  1.0 0.1067602341
H  H32  1  0.96980000  0.46400000  0.68900000  1.0 0.1067602341
H  H33  1  0.53600000  0.03020000  0.31100000  1.0 0.1067602341
H  H34  1  0.71920000  0.22500000  0.68900000  1.0 0.1067602341
H  H35  1  0.03020000  0.71920000  0.49420000  1.0 0.1067602341
H  H36  1  0.22500000  0.53600000  0.50580000  1.0 0.1067602341
H  H37  1  0.40240000  0.02330000  0.22030000  1.0 0.1067602341
H  H38  1  0.02330000  0.80300000  0.62090000  1.0 0.1067602341
H  H39  1  0.80300000  0.18210000  0.77970000  1.0 0.1067602341
H  H40  1  0.18210000  0.40240000  0.37910000  1.0 0.1067602341
H  H41  1  0.59760000  0.81790000  0.62090000  1.0 0.1067602341
H  H42  1  0.19700000  0.97670000  0.37910000  1.0 0.1067602341
H  H43  1  0.81790000  0.19700000  0.22030000  1.0 0.1067602341
H  H44  1  0.97670000  0.59760000  0.77970000  1.0 0.1067602341
H  H45  1  0.59760000  0.97670000  0.77970000  1.0 0.1067602341
H  H46  1  0.97670000  0.19700000  0.37910000  1.0 0.1067602341
H  H47  1  0.19700000  0.81790000  0.22030000  1.0 0.1067602341
H  H48  1  0.81790000  0.59760000  0.62090000  1.0 0.1067602341
H  H49  1  0.40240000  0.18210000  0.37910000  1.0 0.1067602341
H  H50  1  0.80300000  0.02330000  0.62090000  1.0 0.1067602341
H  H51  1  0.18210000  0.80300000  0.77970000  1.0 0.1067602341
H  H52  1  0.02330000  0.40240000  0.22030000  1.0 0.1067602341
H  H53  1  0.40540000  0.97500000  0.27520000  1.0 0.1067602341
H  H54  1  0.97500000  0.69980000  0.56960000  1.0 0.1067602341
H  H55  1  0.69980000  0.13020000  0.72480000  1.0 0.1067602341
H  H56  1  0.13020000  0.40540000  0.43040000  1.0 0.1067602341
H  H57  1  0.59460000  0.86980000  0.56960000  1.0 0.1067602341
H  H58  1  0.30020000  0.02500000  0.43040000  1.0 0.1067602341
H  H59  1  0.86980000  0.30020000  0.27520000  1.0 0.1067602341
H  H60  1  0.02500000  0.59460000  0.72480000  1.0 0.1067602341
H  H61  1  0.59460000  0.02500000  0.72480000  1.0 0.1067602341
H  H62  1  0.02500000  0.30020000  0.43040000  1.0 0.1067602341
H  H63  1  0.30020000  0.86980000  0.27520000  1.0 0.1067602341
H  H64  1  0.86980000  0.59460000  0.56960000  1.0 0.1067602341
H  H65  1  0.40540000  0.13020000  0.43040000  1.0 0.1067602341
H  H66  1  0.69980000  0.97500000  0.56960000  1.0 0.1067602341
H  H67  1  0.13020000  0.69980000  0.72480000  1.0 0.1067602341
H  H68  1  0.97500000  0.40540000  0.27520000  1.0 0.1067602341
H  H69  1  0.47670000  0.26900000  0.42410000  1.0 0.1284005487
H  H70  1  0.26900000  0.84490000  0.79230000  1.0 0.1284005487
H  H71  1  0.84490000  0.05260000  0.57590000  1.0 0.1284005487
H  H72  1  0.05260000  0.47670000  0.20770000  1.0 0.1284005487
H  H73  1  0.52330000  0.94740000  0.79230000  1.0 0.1284005487
H  H74  1  0.15510000  0.73100000  0.20770000  1.0 0.1284005487
H  H75  1  0.94740000  0.15510000  0.42410000  1.0 0.1284005487
H  H76  1  0.73100000  0.52330000  0.57590000  1.0 0.1284005487
H  H77  1  0.52330000  0.73100000  0.57590000  1.0 0.1284005487
H  H78  1  0.73100000  0.15510000  0.20770000  1.0 0.1284005487
H  H79  1  0.15510000  0.94740000  0.42410000  1.0 0.1284005487
H  H80  1  0.94740000  0.52330000  0.79230000  1.0 0.1284005487
H  H81  1  0.47670000  0.05260000  0.20770000  1.0 0.1284005487
H  H82  1  0.84490000  0.26900000  0.79230000  1.0 0.1284005487
H  H83  1  0.05260000  0.84490000  0.57590000  1.0 0.1284005487
H  H84  1  0.26900000  0.47670000  0.42410000  1.0 0.1284005487
H  H85  1  0.48340000  0.23880000  0.24460000  1.0 0.1432220699
H  H86  1  0.23880000  0.99420000  0.75540000  1.0 0.1432220699
H  H87  1  0.99420000  0.23880000  0.75540000  1.0 0.1432220699
H  H88  1  0.23880000  0.48340000  0.24460000  1.0 0.1432220699
H  H89  1  0.51660000  0.76120000  0.75540000  1.0 0.1432220699
H  H90  1  0.00580000  0.76120000  0.24460000  1.0 0.1432220699
H  H91  1  0.76120000  0.00580000  0.24460000  1.0 0.1432220699
H  H92  1  0.76120000  0.51660000  0.75540000  1.0 0.1432220699
C  C1  1  0.42630000  0.00000000  0.42630000  1.0 -0.2561265058
C  C2  1  0.00000000  0.57370000  0.57370000  1.0 -0.2527677393
C  C3  1  0.57370000  0.00000000  0.57370000  1.0 -0.2527677393
C  C4  1  0.00000000  0.42630000  0.42630000  1.0 -0.2561265058
C  C5  1  0.49230000  0.02950000  0.46280000  1.0 0.0204536887
C  C6  1  0.02950000  0.56670000  0.53720000  1.0 0.0204536887
C  C7  1  0.56670000  0.02950000  0.53720000  1.0 0.0204536887
C  C8  1  0.02950000  0.49230000  0.46280000  1.0 0.0204536887
C  C9  1  0.50770000  0.97050000  0.53720000  1.0 0.0204536887
C  C10  1  0.43330000  0.97050000  0.46280000  1.0 0.0204536887
C  C11  1  0.97050000  0.43330000  0.46280000  1.0 0.0204536887
C  C12  1  0.97050000  0.50770000  0.53720000  1.0 0.0204536887
C  C13  1  0.48175000  0.06085000  0.42090000  1.0 0.0399461612
C  C14  1  0.06085000  0.63995000  0.57910000  1.0 0.0399461612
C  C15  1  0.63995000  0.06085000  0.57910000  1.0 0.0399461612
C  C16  1  0.06085000  0.48175000  0.42090000  1.0 0.0399461612
C  C17  1  0.51825000  0.93915000  0.57910000  1.0 0.0399461612
C  C18  1  0.36005000  0.93915000  0.42090000  1.0 0.0399461612
C  C19  1  0.93915000  0.36005000  0.42090000  1.0 0.0399461612
C  C20  1  0.93915000  0.51825000  0.57910000  1.0 0.0399461612
C  C21  1  0.52130000  0.14150000  0.49580000  1.0 -0.1497585881
C  C22  1  0.14150000  0.64570000  0.62020000  1.0 -0.1497585881
C  C23  1  0.64570000  0.02550000  0.50420000  1.0 -0.1497585881
C  C24  1  0.02550000  0.52130000  0.37980000  1.0 -0.1497585881
C  C25  1  0.47870000  0.97450000  0.62020000  1.0 -0.1497585881
C  C26  1  0.35430000  0.85850000  0.37980000  1.0 -0.1497585881
C  C27  1  0.97450000  0.35430000  0.49580000  1.0 -0.1497585881
C  C28  1  0.85850000  0.47870000  0.50420000  1.0 -0.1497585881
C  C29  1  0.47870000  0.85850000  0.50420000  1.0 -0.1497585881
C  C30  1  0.85850000  0.35430000  0.37980000  1.0 -0.1497585881
C  C31  1  0.35430000  0.97450000  0.49580000  1.0 -0.1497585881
C  C32  1  0.97450000  0.47870000  0.62020000  1.0 -0.1497585881
C  C33  1  0.52130000  0.02550000  0.37980000  1.0 -0.1497585881
C  C34  1  0.64570000  0.14150000  0.62020000  1.0 -0.1497585881
C  C35  1  0.02550000  0.64570000  0.50420000  1.0 -0.1497585881
C  C36  1  0.14150000  0.52130000  0.49580000  1.0 -0.1497585881
C  C37  1  0.51467000  0.17267000  0.46100000  1.0 -0.1189636374
C  C38  1  0.17267000  0.71167000  0.65800000  1.0 -0.1189636374
C  C39  1  0.71167000  0.05367000  0.53900000  1.0 -0.1189636374
C  C40  1  0.05367000  0.51467000  0.34200000  1.0 -0.1189636374
C  C41  1  0.48533000  0.94633000  0.65800000  1.0 -0.1189636374
C  C42  1  0.28833000  0.82733000  0.34200000  1.0 -0.1189636374
C  C43  1  0.94633000  0.28833000  0.46100000  1.0 -0.1189636374
C  C44  1  0.82733000  0.48533000  0.53900000  1.0 -0.1189636374
C  C45  1  0.48533000  0.82733000  0.53900000  1.0 -0.1189636374
C  C46  1  0.82733000  0.28833000  0.34200000  1.0 -0.1189636374
C  C47  1  0.28833000  0.94633000  0.46100000  1.0 -0.1189636374
C  C48  1  0.94633000  0.48533000  0.65800000  1.0 -0.1189636374
C  C49  1  0.51467000  0.05367000  0.34200000  1.0 -0.1189636374
C  C50  1  0.71167000  0.17267000  0.65800000  1.0 -0.1189636374
C  C51  1  0.05367000  0.71167000  0.53900000  1.0 -0.1189636374
C  C52  1  0.17267000  0.51467000  0.46100000  1.0 -0.1189636374
C  C53  1  0.47299000  0.12139000  0.35160000  1.0 0.0517205731
C  C54  1  0.12139000  0.76979000  0.64840000  1.0 0.0517205731
C  C55  1  0.76979000  0.12139000  0.64840000  1.0 0.0517205731
C  C56  1  0.12139000  0.47299000  0.35160000  1.0 0.0517205731
C  C57  1  0.52701000  0.87861000  0.64840000  1.0 0.0517205731
C  C58  1  0.23021000  0.87861000  0.35160000  1.0 0.0517205731
C  C59  1  0.87861000  0.23021000  0.35160000  1.0 0.0517205731
C  C60  1  0.87861000  0.52701000  0.64840000  1.0 0.0517205731
C  C61  1  0.43368000  0.05328000  0.28980000  1.0 -0.0689916802
C  C62  1  0.05328000  0.76348000  0.61960000  1.0 -0.0689916802
C  C63  1  0.76348000  0.14388000  0.71020000  1.0 -0.0689916802
C  C64  1  0.14388000  0.43368000  0.38040000  1.0 -0.0689916802
C  C65  1  0.56632000  0.85612000  0.61960000  1.0 -0.0689916802
C  C66  1  0.23652000  0.94672000  0.38040000  1.0 -0.0689916802
C  C67  1  0.85612000  0.23652000  0.28980000  1.0 -0.0689916802
C  C68  1  0.94672000  0.56632000  0.71020000  1.0 -0.0689916802
C  C69  1  0.56632000  0.94672000  0.71020000  1.0 -0.0689916802
C  C70  1  0.94672000  0.23652000  0.38040000  1.0 -0.0689916802
C  C71  1  0.23652000  0.85612000  0.28980000  1.0 -0.0689916802
C  C72  1  0.85612000  0.56632000  0.61960000  1.0 -0.0689916802
C  C73  1  0.43368000  0.14388000  0.38040000  1.0 -0.0689916802
C  C74  1  0.76348000  0.05328000  0.61960000  1.0 -0.0689916802
C  C75  1  0.14388000  0.76348000  0.71020000  1.0 -0.0689916802
C  C76  1  0.05328000  0.43368000  0.28980000  1.0 -0.0689916802
C  C77  1  0.43650000  0.02330000  0.32320000  1.0 -0.0561278302
C  C78  1  0.02330000  0.70010000  0.58680000  1.0 -0.0561278302
C  C79  1  0.70010000  0.11330000  0.67680000  1.0 -0.0561278302
C  C80  1  0.11330000  0.43650000  0.41320000  1.0 -0.0561278302
C  C81  1  0.56350000  0.88670000  0.58680000  1.0 -0.0561278302
C  C82  1  0.29990000  0.97670000  0.41320000  1.0 -0.0561278302
C  C83  1  0.88670000  0.29990000  0.32320000  1.0 -0.0561278302
C  C84  1  0.97670000  0.56350000  0.67680000  1.0 -0.0561278302
C  C85  1  0.56350000  0.97670000  0.67680000  1.0 -0.0561278302
C  C86  1  0.97670000  0.29990000  0.41320000  1.0 -0.0561278302
C  C87  1  0.29990000  0.88670000  0.32320000  1.0 -0.0561278302
C  C88  1  0.88670000  0.56350000  0.58680000  1.0 -0.0561278302
C  C89  1  0.43650000  0.11330000  0.41320000  1.0 -0.0561278302
C  C90  1  0.70010000  0.02330000  0.58680000  1.0 -0.0561278302
C  C91  1  0.11330000  0.70010000  0.67680000  1.0 -0.0561278302
C  C92  1  0.02330000  0.43650000  0.32320000  1.0 -0.0561278302
C  C93  1  0.47483000  0.15463000  0.32020000  1.0 0.0517205731
C  C94  1  0.15463000  0.83443000  0.67980000  1.0 0.0517205731
C  C95  1  0.83443000  0.15463000  0.67980000  1.0 0.0517205731
C  C96  1  0.15463000  0.47483000  0.32020000  1.0 0.0517205731
C  C97  1  0.52517000  0.84537000  0.67980000  1.0 0.0517205731
C  C98  1  0.16557000  0.84537000  0.32020000  1.0 0.0517205731
C  C99  1  0.84537000  0.16557000  0.32020000  1.0 0.0517205731
C  C100  1  0.84537000  0.52517000  0.67980000  1.0 0.0517205731
C  C101  1  0.47733000  0.23578000  0.37101000  1.0 -0.1497585881
C  C102  1  0.23578000  0.86477000  0.75845000  1.0 -0.1497585881
C  C103  1  0.86477000  0.10632000  0.62899000  1.0 -0.1497585881
C  C104  1  0.10632000  0.47733000  0.24155000  1.0 -0.1497585881
C  C105  1  0.52267000  0.89368000  0.75845000  1.0 -0.1497585881
C  C106  1  0.13523000  0.76422000  0.24155000  1.0 -0.1497585881
C  C107  1  0.89368000  0.13523000  0.37101000  1.0 -0.1497585881
C  C108  1  0.76422000  0.52267000  0.62899000  1.0 -0.1497585881
C  C109  1  0.52267000  0.76422000  0.62899000  1.0 -0.1497585881
C  C110  1  0.76422000  0.13523000  0.24155000  1.0 -0.1497585881
C  C111  1  0.13523000  0.89368000  0.37101000  1.0 -0.1497585881
C  C112  1  0.89368000  0.52267000  0.75845000  1.0 -0.1497585881
C  C113  1  0.47733000  0.10632000  0.24155000  1.0 -0.1497585881
C  C114  1  0.86477000  0.23578000  0.75845000  1.0 -0.1497585881
C  C115  1  0.10632000  0.86477000  0.62899000  1.0 -0.1497585881
C  C116  1  0.23578000  0.47733000  0.37101000  1.0 -0.1497585881
C  C117  1  0.48076000  0.26684000  0.34362000  1.0 -0.0213380093
C  C118  1  0.26684000  0.92322000  0.78608000  1.0 -0.0213380093
C  C119  1  0.92322000  0.13714000  0.65638000  1.0 -0.0213380093
C  C120  1  0.13714000  0.48076000  0.21392000  1.0 -0.0213380093
C  C121  1  0.51924000  0.86286000  0.78608000  1.0 -0.0213380093
C  C122  1  0.07678000  0.73316000  0.21392000  1.0 -0.0213380093
C  C123  1  0.86286000  0.07678000  0.34362000  1.0 -0.0213380093
C  C124  1  0.73316000  0.51924000  0.65638000  1.0 -0.0213380093
C  C125  1  0.51924000  0.73316000  0.65638000  1.0 -0.0213380093
C  C126  1  0.73316000  0.07678000  0.21392000  1.0 -0.0213380093
C  C127  1  0.07678000  0.86286000  0.34362000  1.0 -0.0213380093
C  C128  1  0.86286000  0.51924000  0.78608000  1.0 -0.0213380093
C  C129  1  0.48076000  0.13714000  0.21392000  1.0 -0.0213380093
C  C130  1  0.92322000  0.26684000  0.78608000  1.0 -0.0213380093
C  C131  1  0.13714000  0.92322000  0.65638000  1.0 -0.0213380093
C  C132  1  0.26684000  0.48076000  0.34362000  1.0 -0.0213380093
C  C133  1  0.48187000  0.21787000  0.26400000  1.0 -0.1040297127
C  C134  1  0.21787000  0.95387000  0.73600000  1.0 -0.1040297127
C  C135  1  0.95387000  0.21787000  0.73600000  1.0 -0.1040297127
C  C136  1  0.21787000  0.48187000  0.26400000  1.0 -0.1040297127
C  C137  1  0.51813000  0.78213000  0.73600000  1.0 -0.1040297127
C  C138  1  0.04613000  0.78213000  0.26400000  1.0 -0.1040297127
C  C139  1  0.78213000  0.04613000  0.26400000  1.0 -0.1040297127
C  C140  1  0.78213000  0.51813000  0.73600000  1.0 -0.1040297127
C  C141  1  0.48735000  0.35344000  0.40113000  1.0 0.5799201527
C  C142  1  0.35344000  0.95231000  0.86609000  1.0 0.5799201527
C  C143  1  0.95231000  0.08622000  0.59887000  1.0 0.5799201527
C  C144  1  0.08622000  0.48735000  0.13391000  1.0 0.5799201527
C  C145  1  0.51265000  0.91378000  0.86609000  1.0 0.5799201527
C  C146  1  0.04769000  0.64656000  0.13391000  1.0 0.5799201527
C  C147  1  0.91378000  0.04769000  0.40113000  1.0 0.5799201527
C  C148  1  0.64656000  0.51265000  0.59887000  1.0 0.5799201527
C  C149  1  0.51265000  0.64656000  0.59887000  1.0 0.5799201527
C  C150  1  0.64656000  0.04769000  0.13391000  1.0 0.5799201527
C  C151  1  0.04769000  0.91378000  0.40113000  1.0 0.5799201527
C  C152  1  0.91378000  0.51265000  0.86609000  1.0 0.5799201527
C  C153  1  0.48735000  0.08622000  0.13391000  1.0 0.5799201527
C  C154  1  0.95231000  0.35344000  0.86609000  1.0 0.5799201527
C  C155  1  0.08622000  0.95231000  0.59887000  1.0 0.5799201527
C  C156  1  0.35344000  0.48735000  0.40113000  1.0 0.5799201527
O  O1  1  0.48270000  0.37849000  0.36753000  1.0 -0.5206417735
O  O2  1  0.37849000  0.01096000  0.89579000  1.0 -0.5206417735
O  O3  1  0.01096000  0.11517000  0.63247000  1.0 -0.5206417735
O  O4  1  0.11517000  0.48270000  0.10421000  1.0 -0.5206417735
O  O5  1  0.51730000  0.88483000  0.89579000  1.0 -0.5206417735
O  O6  1  0.98904000  0.62151000  0.10421000  1.0 -0.5206417735
O  O7  1  0.88483000  0.98904000  0.36753000  1.0 -0.5206417735
O  O8  1  0.62151000  0.51730000  0.63247000  1.0 -0.5206417735
O  O9  1  0.51730000  0.62151000  0.63247000  1.0 -0.5206417735
O  O10  1  0.62151000  0.98904000  0.10421000  1.0 -0.5206417735
O  O11  1  0.98904000  0.88483000  0.36753000  1.0 -0.5206417735
O  O12  1  0.88483000  0.51730000  0.89579000  1.0 -0.5206417735
O  O13  1  0.48270000  0.11517000  0.10421000  1.0 -0.5206417735
O  O14  1  0.01096000  0.37849000  0.89579000  1.0 -0.5206417735
O  O15  1  0.11517000  0.01096000  0.63247000  1.0 -0.5206417735
O  O16  1  0.37849000  0.48270000  0.36753000  1.0 -0.5206417735
O  O17  1  0.49909000  0.39627000  0.48212000  1.0 -0.5206417735
O  O18  1  0.39627000  0.91415000  0.89718000  1.0 -0.5206417735
O  O19  1  0.91415000  0.01697000  0.51788000  1.0 -0.5206417735
O  O20  1  0.01697000  0.49909000  0.10282000  1.0 -0.5206417735
O  O21  1  0.50091000  0.98303000  0.89718000  1.0 -0.5206417735
O  O22  1  0.08585000  0.60373000  0.10282000  1.0 -0.5206417735
O  O23  1  0.98303000  0.08585000  0.48212000  1.0 -0.5206417735
O  O24  1  0.60373000  0.50091000  0.51788000  1.0 -0.5206417735
O  O25  1  0.50091000  0.60373000  0.51788000  1.0 -0.5206417735
O  O26  1  0.60373000  0.08585000  0.10282000  1.0 -0.5206417735
O  O27  1  0.08585000  0.98303000  0.48212000  1.0 -0.5206417735
O  O28  1  0.98303000  0.50091000  0.89718000  1.0 -0.5206417735
O  O29  1  0.49909000  0.01697000  0.10282000  1.0 -0.5206417735
O  O30  1  0.91415000  0.39627000  0.89718000  1.0 -0.5206417735
O  O31  1  0.01697000  0.91415000  0.51788000  1.0 -0.5206417735
O  O32  1  0.39627000  0.49909000  0.48212000  1.0 -0.5206417735
