# DDEC6 charges by PACMAN v1.1 (https://github.com/mtap-research/PACMAN-charge/)
data_LAQXOU_ASR_pacman
_symmetry_space_group_name_H-M   'P 1'
_cell_length_a   15.57850000
_cell_length_b   15.57850000
_cell_length_c   13.39710000
_cell_angle_alpha   76.42820000
_cell_angle_beta   103.57200000
_cell_angle_gamma   59.59820000
_symmetry_Int_Tables_number   1
_chemical_formula_structural   CoH37C44N3O10
_chemical_formula_sum   'Co2 H74 C88 N6 O20'
_cell_volume   2471.93911337
_cell_formula_units_Z   2
loop_
 _symmetry_equiv_pos_site_id
 _symmetry_equiv_pos_as_xyz
  1  'x, y, z'
loop_
 _atom_site_type_symbol
 _atom_site_label
 _atom_site_symmetry_multiplicity
 _atom_site_fract_x
 _atom_site_fract_y
 _atom_site_fract_z
 _atom_site_occupancy
 _atom_site_charge
Co  Co1  1  0.50000000  0.00000000  0.00000000  1.0 0.7873616954
Co  Co2  1  0.00000000  0.50000000  0.50000000  1.0 0.7873616954
H  H1  1  0.68233000  0.40629000  0.36123000  1.0 0.3372548436
H  H2  1  0.35522000  0.18172000  0.63308000  1.0 0.1205212452
H  H3  1  0.29310000  0.26014000  0.43953000  1.0 0.1312437878
H  H4  1  0.59661000  0.05911000  0.46923000  1.0 0.1312437878
H  H5  1  0.66086000  0.98478000  0.66347000  1.0 0.1205212452
H  H6  1  0.35067000  0.19143000  0.27652000  1.0 0.1205212452
H  H7  1  0.45764000  0.18160000  0.28561000  1.0 0.1205212452
H  H8  1  0.53999000  0.24661000  0.32457000  1.0 0.1205212452
H  H9  1  0.38997000  0.23733000  0.85476000  1.0 0.1102728946
H  H10  1  0.38784000  0.38516000  0.85258000  1.0 0.1312437878
H  H11  1  0.62713000  0.19747000  0.16772000  1.0 0.1398471063
H  H12  1  0.61710000  0.05674000  0.16314000  1.0 0.1205212452
H  H13  1  0.34154000  0.51204000  0.93840000  1.0 0.1312437878
H  H14  1  0.80357000  0.32889000  0.06265000  1.0 0.0899910686
H  H15  1  0.80357000  0.31395000  0.18312000  1.0 0.1000151699
H  H16  1  0.88505000  0.14229000  0.11359000  1.0 0.1398471063
H  H17  1  0.95970000  0.15676000  0.19833000  1.0 0.1312437878
H  H18  1  0.88542000  0.12754000  0.23357000  1.0 0.1312437878
H  H19  1  0.40629000  0.68233000  0.13877000  1.0 0.3372548436
H  H20  1  0.18172000  0.35522000  0.86692000  1.0 0.1205212452
H  H21  1  0.26014000  0.29310000  0.06047000  1.0 0.1312437878
H  H22  1  0.05911000  0.59661000  0.03077000  1.0 0.1312437878
H  H23  1  0.98478000  0.66086000  0.83653000  1.0 0.1205212452
H  H24  1  0.19143000  0.35067000  0.22348000  1.0 0.1205212452
H  H25  1  0.18160000  0.45764000  0.21439000  1.0 0.1205212452
H  H26  1  0.24661000  0.53999000  0.17543000  1.0 0.1205212452
H  H27  1  0.23733000  0.38997000  0.64524000  1.0 0.1102728946
H  H28  1  0.38516000  0.38784000  0.64742000  1.0 0.1312437878
H  H29  1  0.19747000  0.62713000  0.33228000  1.0 0.1398471063
H  H30  1  0.05674000  0.61710000  0.33686000  1.0 0.1205212452
H  H31  1  0.51204000  0.34154000  0.56160000  1.0 0.1312437878
H  H32  1  0.32889000  0.80357000  0.43735000  1.0 0.0899910686
H  H33  1  0.31395000  0.80357000  0.31688000  1.0 0.1000151699
H  H34  1  0.14229000  0.88505000  0.38641000  1.0 0.1398471063
H  H35  1  0.15676000  0.95970000  0.30167000  1.0 0.1312437878
H  H36  1  0.12754000  0.88542000  0.26643000  1.0 0.1312437878
H  H37  1  0.31767000  0.59371000  0.63877000  1.0 0.3372548436
H  H38  1  0.64478000  0.81828000  0.36692000  1.0 0.1205212452
H  H39  1  0.70690000  0.73986000  0.56047000  1.0 0.1312437878
H  H40  1  0.40339000  0.94089000  0.53077000  1.0 0.1312437878
H  H41  1  0.33914000  0.01522000  0.33653000  1.0 0.1205212452
H  H42  1  0.64933000  0.80857000  0.72348000  1.0 0.1205212452
H  H43  1  0.54236000  0.81840000  0.71439000  1.0 0.1205212452
H  H44  1  0.46001000  0.75339000  0.67543000  1.0 0.1205212452
H  H45  1  0.61003000  0.76267000  0.14524000  1.0 0.1102728946
H  H46  1  0.61216000  0.61484000  0.14742000  1.0 0.1312437878
H  H47  1  0.37287000  0.80253000  0.83228000  1.0 0.1398471063
H  H48  1  0.38290000  0.94326000  0.83686000  1.0 0.1205212452
H  H49  1  0.65846000  0.48796000  0.06160000  1.0 0.1312437878
H  H50  1  0.19643000  0.67111000  0.93735000  1.0 0.0899910686
H  H51  1  0.19643000  0.68605000  0.81688000  1.0 0.1000151699
H  H52  1  0.11495000  0.85771000  0.88641000  1.0 0.1398471063
H  H53  1  0.04030000  0.84324000  0.80167000  1.0 0.1312437878
H  H54  1  0.11458000  0.87246000  0.76643000  1.0 0.1312437878
H  H55  1  0.59371000  0.31767000  0.86123000  1.0 0.3372548436
H  H56  1  0.81828000  0.64478000  0.13308000  1.0 0.1205212452
H  H57  1  0.73986000  0.70690000  0.93953000  1.0 0.1312437878
H  H58  1  0.94089000  0.40339000  0.96923000  1.0 0.1312437878
H  H59  1  0.01522000  0.33914000  0.16347000  1.0 0.1205212452
H  H60  1  0.80857000  0.64933000  0.77652000  1.0 0.1205212452
H  H61  1  0.81840000  0.54236000  0.78561000  1.0 0.1205212452
H  H62  1  0.75339000  0.46001000  0.82457000  1.0 0.1205212452
H  H63  1  0.76267000  0.61003000  0.35476000  1.0 0.1102728946
H  H64  1  0.61484000  0.61216000  0.35258000  1.0 0.1312437878
H  H65  1  0.80253000  0.37287000  0.66772000  1.0 0.1398471063
H  H66  1  0.94326000  0.38290000  0.66314000  1.0 0.1205212452
H  H67  1  0.48796000  0.65846000  0.43840000  1.0 0.1312437878
H  H68  1  0.67111000  0.19643000  0.56265000  1.0 0.0899910686
H  H69  1  0.68605000  0.19643000  0.68312000  1.0 0.1000151699
H  H70  1  0.85771000  0.11495000  0.61359000  1.0 0.1398471063
H  H71  1  0.84324000  0.04030000  0.69833000  1.0 0.1312437878
H  H72  1  0.87246000  0.11458000  0.73357000  1.0 0.1312437878
H  H73  1  0.52216000  0.52216000  0.25000000  1.0 0.0899910686
H  H74  1  0.47784000  0.47784000  0.75000000  1.0 0.0899910686
C  C1  1  0.55354000  0.02320000  0.79529000  1.0 0.5507677039
C  C2  1  0.51428000  0.07512000  0.66927000  1.0 -0.0322456118
C  C3  1  0.40467000  0.15725000  0.60065000  1.0 -0.1078275238
C  C4  1  0.36718000  0.20378000  0.48434000  1.0 -0.1472208062
C  C5  1  0.43864000  0.16744000  0.43381000  1.0 0.1000151699
C  C6  1  0.54773000  0.08493000  0.50205000  1.0 -0.159328864
C  C7  1  0.58636000  0.03944000  0.61872000  1.0 -0.1078275238
C  C8  1  0.39579000  0.21353000  0.30527000  1.0 -0.1737547899
C  C9  1  0.49744000  0.32284000  0.29386000  1.0 -0.1974959696
C  C10  1  0.54922000  0.37434000  0.29268000  1.0 -0.0376337664
C  C11  1  0.67006000  0.30486000  0.33763000  1.0 0.5249199113
C  C12  1  0.43759000  0.22961000  0.91890000  1.0 0.0772375846
C  C13  1  0.43643000  0.31869000  0.91652000  1.0 -0.2104837159
C  C14  1  0.50827000  0.30917000  0.01017000  1.0 0.1312437878
C  C15  1  0.57731000  0.20803000  0.10324000  1.0 -0.1737547899
C  C16  1  0.57148000  0.12338000  0.09936000  1.0 0.0899910686
C  C17  1  0.50660000  0.40550000  0.00798000  1.0 -0.0322456118
C  C18  1  0.60269000  0.39835000  0.04607000  1.0 0.1882469831
C  C19  1  0.40539000  0.50735000  0.96300000  1.0 -0.2580812732
C  C20  1  0.79938000  0.28708000  0.12510000  1.0 0.0230569224
C  C21  1  0.89055000  0.16775000  0.17180000  1.0 -0.3775955299
C  C22  1  0.02320000  0.55354000  0.70471000  1.0 0.5507677039
C  C23  1  0.07512000  0.51428000  0.83073000  1.0 -0.0322456118
C  C24  1  0.15725000  0.40467000  0.89935000  1.0 -0.1078275238
C  C25  1  0.20378000  0.36718000  0.01566000  1.0 -0.1472208062
C  C26  1  0.16744000  0.43864000  0.06619000  1.0 0.1000151699
C  C27  1  0.08493000  0.54773000  0.99795000  1.0 -0.159328864
C  C28  1  0.03944000  0.58636000  0.88128000  1.0 -0.1078275238
C  C29  1  0.21353000  0.39579000  0.19473000  1.0 -0.1737547899
C  C30  1  0.32284000  0.49744000  0.20614000  1.0 -0.1974959696
C  C31  1  0.37434000  0.54922000  0.20732000  1.0 -0.0376337664
C  C32  1  0.30486000  0.67006000  0.16237000  1.0 0.5249199113
C  C33  1  0.22961000  0.43759000  0.58110000  1.0 0.0772375846
C  C34  1  0.31869000  0.43643000  0.58348000  1.0 -0.2104837159
C  C35  1  0.30917000  0.50827000  0.48983000  1.0 0.1312437878
C  C36  1  0.20803000  0.57731000  0.39676000  1.0 -0.1737547899
C  C37  1  0.12338000  0.57148000  0.40064000  1.0 0.0899910686
C  C38  1  0.40550000  0.50660000  0.49202000  1.0 -0.0322456118
C  C39  1  0.39835000  0.60269000  0.45393000  1.0 0.1882469831
C  C40  1  0.50735000  0.40539000  0.53700000  1.0 -0.2580812732
C  C41  1  0.28708000  0.79938000  0.37490000  1.0 0.0230569224
C  C42  1  0.16775000  0.89055000  0.32820000  1.0 -0.3775955299
C  C43  1  0.44646000  0.97680000  0.20471000  1.0 0.5507677039
C  C44  1  0.48572000  0.92488000  0.33073000  1.0 -0.0322456118
C  C45  1  0.59533000  0.84275000  0.39935000  1.0 -0.1078275238
C  C46  1  0.63282000  0.79622000  0.51566000  1.0 -0.1472208062
C  C47  1  0.56136000  0.83256000  0.56619000  1.0 0.1000151699
C  C48  1  0.45227000  0.91507000  0.49795000  1.0 -0.159328864
C  C49  1  0.41364000  0.96056000  0.38128000  1.0 -0.1078275238
C  C50  1  0.60421000  0.78647000  0.69473000  1.0 -0.1737547899
C  C51  1  0.50256000  0.67716000  0.70614000  1.0 -0.1974959696
C  C52  1  0.45078000  0.62566000  0.70732000  1.0 -0.0376337664
C  C53  1  0.32994000  0.69514000  0.66237000  1.0 0.5249199113
C  C54  1  0.56241000  0.77039000  0.08110000  1.0 0.0772375846
C  C55  1  0.56357000  0.68131000  0.08348000  1.0 -0.2104837159
C  C56  1  0.49173000  0.69083000  0.98983000  1.0 0.1312437878
C  C57  1  0.42269000  0.79197000  0.89676000  1.0 -0.1737547899
C  C58  1  0.42852000  0.87662000  0.90064000  1.0 0.0899910686
C  C59  1  0.49340000  0.59450000  0.99202000  1.0 -0.0322456118
C  C60  1  0.39731000  0.60165000  0.95393000  1.0 0.1882469831
C  C61  1  0.59461000  0.49265000  0.03700000  1.0 -0.2580812732
C  C62  1  0.20062000  0.71292000  0.87490000  1.0 0.0230569224
C  C63  1  0.10945000  0.83225000  0.82820000  1.0 -0.3775955299
C  C64  1  0.97680000  0.44646000  0.29529000  1.0 0.5507677039
C  C65  1  0.92488000  0.48572000  0.16927000  1.0 -0.0322456118
C  C66  1  0.84275000  0.59533000  0.10065000  1.0 -0.1078275238
C  C67  1  0.79622000  0.63282000  0.98434000  1.0 -0.1472208062
C  C68  1  0.83256000  0.56136000  0.93381000  1.0 0.1000151699
C  C69  1  0.91507000  0.45227000  0.00205000  1.0 -0.159328864
C  C70  1  0.96056000  0.41364000  0.11872000  1.0 -0.1078275238
C  C71  1  0.78647000  0.60421000  0.80527000  1.0 -0.1737547899
C  C72  1  0.67716000  0.50256000  0.79386000  1.0 -0.1974959696
C  C73  1  0.62566000  0.45078000  0.79268000  1.0 -0.0376337664
C  C74  1  0.69514000  0.32994000  0.83763000  1.0 0.5249199113
C  C75  1  0.77039000  0.56241000  0.41890000  1.0 0.0772375846
C  C76  1  0.68131000  0.56357000  0.41652000  1.0 -0.2104837159
C  C77  1  0.69083000  0.49173000  0.51017000  1.0 0.1312437878
C  C78  1  0.79197000  0.42269000  0.60324000  1.0 -0.1737547899
C  C79  1  0.87662000  0.42852000  0.59936000  1.0 0.0899910686
C  C80  1  0.59450000  0.49340000  0.50798000  1.0 -0.0322456118
C  C81  1  0.60165000  0.39731000  0.54607000  1.0 0.1882469831
C  C82  1  0.49265000  0.59461000  0.46300000  1.0 -0.2580812732
C  C83  1  0.71292000  0.20062000  0.62510000  1.0 0.0230569224
C  C84  1  0.83225000  0.10945000  0.67180000  1.0 -0.3775955299
C  C85  1  0.38313000  0.38313000  0.25000000  1.0 0.2006454756
C  C86  1  0.48776000  0.48776000  0.25000000  1.0 -0.1974959696
C  C87  1  0.61687000  0.61687000  0.75000000  1.0 0.2006454756
C  C88  1  0.51224000  0.51224000  0.75000000  1.0 -0.1974959696
N  N1  1  0.50355000  0.13225000  0.00852000  1.0 -0.2357318113
N  N2  1  0.13225000  0.50355000  0.49148000  1.0 -0.2357318113
N  N3  1  0.49645000  0.86775000  0.99148000  1.0 -0.2357318113
N  N4  1  0.86775000  0.49645000  0.50852000  1.0 -0.2357318113
N  N5  1  0.33195000  0.33195000  0.25000000  1.0 -0.0986980768
N  N6  1  0.66805000  0.66805000  0.75000000  1.0 -0.0986980768
O  O1  1  0.48350000  0.04720000  0.83379000  1.0 -0.575940893
O  O2  1  0.65535000  0.95967000  0.85589000  1.0 -0.572911189
O  O3  1  0.71284000  0.35966000  0.33827000  1.0 -0.430793182
O  O4  1  0.72721000  0.20547000  0.37126000  1.0 -0.4758307944
O  O5  1  0.69999000  0.29745000  0.08713000  1.0 -0.1974959696
O  O6  1  0.04720000  0.48350000  0.66621000  1.0 -0.575940893
O  O7  1  0.95967000  0.65535000  0.64411000  1.0 -0.572911189
O  O8  1  0.35966000  0.71284000  0.16173000  1.0 -0.430793182
O  O9  1  0.20547000  0.72721000  0.12874000  1.0 -0.4758307944
O  O10  1  0.29745000  0.69999000  0.41287000  1.0 -0.1974959696
O  O11  1  0.51650000  0.95280000  0.16621000  1.0 -0.575940893
O  O12  1  0.34465000  0.04033000  0.14411000  1.0 -0.572911189
O  O13  1  0.28716000  0.64034000  0.66173000  1.0 -0.430793182
O  O14  1  0.27279000  0.79453000  0.62874000  1.0 -0.4758307944
O  O15  1  0.30001000  0.70255000  0.91287000  1.0 -0.1974959696
O  O16  1  0.95280000  0.51650000  0.33379000  1.0 -0.575940893
O  O17  1  0.04033000  0.34465000  0.35589000  1.0 -0.572911189
O  O18  1  0.64034000  0.28716000  0.83827000  1.0 -0.430793182
O  O19  1  0.79453000  0.27279000  0.87126000  1.0 -0.4758307944
O  O20  1  0.70255000  0.30001000  0.58713000  1.0 -0.1974959696
