# DDEC6 charges by PACMAN v1.1 (https://github.com/mtap-research/PACMAN-charge/)
data_LAQYAH_ASR_pacman
_symmetry_space_group_name_H-M   'P 1'
_cell_length_a   11.99600000
_cell_length_b   19.94400000
_cell_length_c   30.10600000
_cell_angle_alpha   90.00000000
_cell_angle_beta   104.46800000
_cell_angle_gamma   90.00000000
_symmetry_Int_Tables_number   1
_chemical_formula_structural   CoH23C27(NO3)2
_chemical_formula_sum   'Co8 H184 C216 N16 O48'
_cell_volume   6974.38677450
_cell_formula_units_Z   8
loop_
 _symmetry_equiv_pos_site_id
 _symmetry_equiv_pos_as_xyz
  1  'x, y, z'
loop_
 _atom_site_type_symbol
 _atom_site_label
 _atom_site_symmetry_multiplicity
 _atom_site_fract_x
 _atom_site_fract_y
 _atom_site_fract_z
 _atom_site_occupancy
 _atom_site_charge
Co  Co1  1  0.01149000  0.63583000  0.24879000  1.0 0.9474939754
Co  Co2  1  0.11715000  0.65504000  0.14858000  1.0 0.9430023183
Co  Co3  1  0.98851000  0.13583000  0.25121000  1.0 0.9474939754
Co  Co4  1  0.88285000  0.15504000  0.35142000  1.0 0.9430023183
Co  Co5  1  0.98851000  0.36417000  0.75121000  1.0 0.9474939754
Co  Co6  1  0.88285000  0.34496000  0.85142000  1.0 0.9430023183
Co  Co7  1  0.01149000  0.86417000  0.74879000  1.0 0.9474939754
Co  Co8  1  0.11715000  0.84496000  0.64858000  1.0 0.9430023183
H  H1  1  0.98742000  0.73130000  0.18567000  1.0 0.3921736827
H  H2  1  0.91217000  0.67025000  0.16284000  1.0 0.3921736827
H  H3  1  0.21771000  0.51383000  0.02789000  1.0 0.1296653025
H  H4  1  0.82224000  0.76936000  0.30920000  1.0 0.1109315786
H  H5  1  0.78877000  0.95803000  0.34947000  1.0 0.1211308051
H  H6  1  0.57061000  0.85939000  0.45747000  1.0 0.1211308051
H  H7  1  0.97141000  0.91902000  0.25683000  1.0 0.1211308051
H  H8  1  0.65784000  0.85126000  0.53480000  1.0 0.1211308051
H  H9  1  0.96393000  0.67504000  0.34055000  1.0 0.1109315786
H  H10  1  0.75511000  0.73964000  0.35845000  1.0 0.1211308051
H  H11  1  0.69016000  0.75734000  0.39607000  1.0 0.1211308051
H  H12  1  0.37076000  0.67093000  0.13426000  1.0 0.1109315786
H  H13  1  0.87798000  0.88606000  0.43209000  1.0 0.1296653025
H  H14  1  0.11559000  0.55602000  0.07567000  1.0 0.1109315786
H  H15  1  0.44812000  0.72425000  0.22626000  1.0 0.1296653025
H  H16  1  0.66343000  0.92599000  0.37625000  1.0 0.1211308051
H  H17  1  0.57898000  0.86762000  0.38050000  1.0 0.1211308051
H  H18  1  0.96529000  0.87762000  0.50894000  1.0 0.1211308051
H  H19  1  0.19714000  0.49787000  0.38810000  1.0 0.1388986794
H  H20  1  0.12590000  0.45387000  0.44935000  1.0 0.1109315786
H  H21  1  0.01669000  0.65128000  0.41561000  1.0 0.1388986794
H  H22  1  0.62058000  0.75612000  0.27292000  1.0 0.1296653025
H  H23  1  0.10862000  0.56671000  0.61773000  1.0 0.1296653025
H  H24  1  0.13758000  0.52570000  0.31282000  1.0 0.1109315786
H  H25  1  0.33248000  0.39220000  0.68071000  1.0 0.0964074582
H  H26  1  0.31097000  0.41443000  0.60450000  1.0 0.1296653025
H  H27  1  0.48209000  0.62798000  0.09040000  1.0 0.1388986794
H  H28  1  0.13318000  0.53714000  0.69296000  1.0 0.1109315786
H  H29  1  0.21118000  0.60937000  0.56375000  1.0 0.1211308051
H  H30  1  0.33447000  0.68021000  0.33508000  1.0 0.1296653025
H  H31  1  0.27439000  0.55785000  0.89323000  1.0 0.0909545469
H  H32  1  0.23067000  0.48896000  0.90824000  1.0 0.0909545469
H  H33  1  0.20218000  0.35080000  0.48110000  1.0 0.0909545469
H  H34  1  0.06795000  0.36026000  0.47146000  1.0 0.0909545469
H  H35  1  0.50159000  0.71853000  0.38178000  1.0 0.1296653025
H  H36  1  0.14554000  0.71721000  0.53495000  1.0 0.0909545469
H  H37  1  0.27925000  0.70989000  0.53995000  1.0 0.0805258242
H  H38  1  0.21796000  0.81730000  0.51125000  1.0 0.1296653025
H  H39  1  0.13023000  0.78428000  0.46954000  1.0 0.1296653025
H  H40  1  0.26290000  0.77702000  0.47450000  1.0 0.1388986794
H  H41  1  0.04882000  0.27816000  0.51332000  1.0 0.1296653025
H  H42  1  0.15746000  0.25332000  0.49799000  1.0 0.1211308051
H  H43  1  0.17190000  0.28726000  0.54606000  1.0 0.1296653025
H  H44  1  0.07246000  0.55640000  0.87381000  1.0 0.1296653025
H  H45  1  0.11730000  0.61244000  0.91043000  1.0 0.1296653025
H  H46  1  0.07383000  0.54393000  0.92535000  1.0 0.1211308051
H  H47  1  0.01258000  0.23130000  0.31433000  1.0 0.3921736827
H  H48  1  0.08783000  0.17025000  0.33716000  1.0 0.3921736827
H  H49  1  0.78229000  0.01383000  0.47211000  1.0 0.1296653025
H  H50  1  0.17776000  0.26936000  0.19080000  1.0 0.1109315786
H  H51  1  0.21123000  0.45803000  0.15053000  1.0 0.1211308051
H  H52  1  0.42939000  0.35939000  0.04253000  1.0 0.1211308051
H  H53  1  0.02859000  0.41902000  0.24317000  1.0 0.1211308051
H  H54  1  0.34216000  0.35126000  0.96520000  1.0 0.1211308051
H  H55  1  0.03607000  0.17504000  0.15945000  1.0 0.1109315786
H  H56  1  0.24489000  0.23964000  0.14155000  1.0 0.1211308051
H  H57  1  0.30984000  0.25734000  0.10393000  1.0 0.1109315786
H  H58  1  0.62924000  0.17093000  0.36574000  1.0 0.1109315786
H  H59  1  0.12202000  0.38606000  0.06791000  1.0 0.1296653025
H  H60  1  0.88441000  0.05602000  0.42433000  1.0 0.1109315786
H  H61  1  0.55188000  0.22425000  0.27374000  1.0 0.1296653025
H  H62  1  0.33657000  0.42599000  0.12375000  1.0 0.1211308051
H  H63  1  0.42102000  0.36762000  0.11950000  1.0 0.1211308051
H  H64  1  0.03471000  0.37762000  0.99106000  1.0 0.1211308051
H  H65  1  0.80286000  0.99787000  0.11190000  1.0 0.1388986794
H  H66  1  0.87410000  0.95387000  0.05065000  1.0 0.1109315786
H  H67  1  0.98331000  0.15128000  0.08439000  1.0 0.1388986794
H  H68  1  0.37942000  0.25612000  0.22708000  1.0 0.1296653025
H  H69  1  0.89138000  0.06671000  0.88227000  1.0 0.1296653025
H  H70  1  0.86242000  0.02570000  0.18718000  1.0 0.1109315786
H  H71  1  0.66752000  0.89220000  0.81929000  1.0 0.0964074582
H  H72  1  0.68903000  0.91443000  0.89550000  1.0 0.1296653025
H  H73  1  0.51791000  0.12798000  0.40960000  1.0 0.1388986794
H  H74  1  0.86682000  0.03714000  0.80704000  1.0 0.1109315786
H  H75  1  0.78882000  0.10937000  0.93625000  1.0 0.1211308051
H  H76  1  0.66553000  0.18021000  0.16492000  1.0 0.1296653025
H  H77  1  0.72561000  0.05785000  0.60677000  1.0 0.0909545469
H  H78  1  0.76933000  0.98896000  0.59176000  1.0 0.0909545469
H  H79  1  0.79782000  0.85080000  0.01890000  1.0 0.0909545469
H  H80  1  0.93205000  0.86026000  0.02854000  1.0 0.0909545469
H  H81  1  0.49841000  0.21853000  0.11822000  1.0 0.1296653025
H  H82  1  0.85446000  0.21721000  0.96505000  1.0 0.0909545469
H  H83  1  0.72075000  0.20989000  0.96005000  1.0 0.0805258242
H  H84  1  0.78204000  0.31730000  0.98875000  1.0 0.1296653025
H  H85  1  0.86977000  0.28428000  0.03046000  1.0 0.1296653025
H  H86  1  0.73710000  0.27702000  0.02550000  1.0 0.1388986794
H  H87  1  0.95118000  0.77816000  0.98668000  1.0 0.1296653025
H  H88  1  0.84254000  0.75332000  0.00201000  1.0 0.1211308051
H  H89  1  0.82810000  0.78726000  0.95394000  1.0 0.1296653025
H  H90  1  0.92754000  0.05640000  0.62619000  1.0 0.1296653025
H  H91  1  0.88270000  0.11244000  0.58957000  1.0 0.1296653025
H  H92  1  0.92617000  0.04393000  0.57465000  1.0 0.1211308051
H  H93  1  0.01258000  0.26870000  0.81433000  1.0 0.3921736827
H  H94  1  0.08783000  0.32975000  0.83716000  1.0 0.3921736827
H  H95  1  0.78229000  0.48617000  0.97211000  1.0 0.1296653025
H  H96  1  0.17776000  0.23064000  0.69080000  1.0 0.1109315786
H  H97  1  0.21123000  0.04197000  0.65053000  1.0 0.1211308051
H  H98  1  0.42939000  0.14061000  0.54253000  1.0 0.1211308051
H  H99  1  0.02859000  0.08098000  0.74317000  1.0 0.1211308051
H  H100  1  0.34216000  0.14874000  0.46520000  1.0 0.1211308051
H  H101  1  0.03607000  0.32496000  0.65945000  1.0 0.1109315786
H  H102  1  0.24489000  0.26036000  0.64155000  1.0 0.1211308051
H  H103  1  0.30984000  0.24266000  0.60393000  1.0 0.1109315786
H  H104  1  0.62924000  0.32907000  0.86574000  1.0 0.1109315786
H  H105  1  0.12202000  0.11394000  0.56791000  1.0 0.1296653025
H  H106  1  0.88441000  0.44398000  0.92433000  1.0 0.1109315786
H  H107  1  0.55188000  0.27575000  0.77374000  1.0 0.1296653025
H  H108  1  0.33657000  0.07401000  0.62375000  1.0 0.1211308051
H  H109  1  0.42102000  0.13238000  0.61950000  1.0 0.1211308051
H  H110  1  0.03471000  0.12238000  0.49106000  1.0 0.1211308051
H  H111  1  0.80286000  0.50213000  0.61190000  1.0 0.1388986794
H  H112  1  0.87410000  0.54613000  0.55065000  1.0 0.1109315786
H  H113  1  0.98331000  0.34872000  0.58439000  1.0 0.1388986794
H  H114  1  0.37942000  0.24388000  0.72708000  1.0 0.1296653025
H  H115  1  0.89138000  0.43329000  0.38227000  1.0 0.1296653025
H  H116  1  0.86242000  0.47430000  0.68718000  1.0 0.1109315786
H  H117  1  0.66752000  0.60780000  0.31929000  1.0 0.0964074582
H  H118  1  0.68903000  0.58557000  0.39550000  1.0 0.1296653025
H  H119  1  0.51791000  0.37202000  0.90960000  1.0 0.1388986794
H  H120  1  0.86682000  0.46286000  0.30704000  1.0 0.1109315786
H  H121  1  0.78882000  0.39063000  0.43625000  1.0 0.1211308051
H  H122  1  0.66553000  0.31979000  0.66492000  1.0 0.1296653025
H  H123  1  0.72561000  0.44215000  0.10677000  1.0 0.0909545469
H  H124  1  0.76933000  0.51104000  0.09176000  1.0 0.0909545469
H  H125  1  0.79782000  0.64920000  0.51890000  1.0 0.0909545469
H  H126  1  0.93205000  0.63974000  0.52854000  1.0 0.0909545469
H  H127  1  0.49841000  0.28147000  0.61822000  1.0 0.1296653025
H  H128  1  0.85446000  0.28279000  0.46505000  1.0 0.0909545469
H  H129  1  0.72075000  0.29011000  0.46005000  1.0 0.0805258242
H  H130  1  0.78204000  0.18270000  0.48875000  1.0 0.1296653025
H  H131  1  0.86977000  0.21572000  0.53046000  1.0 0.1296653025
H  H132  1  0.73710000  0.22298000  0.52550000  1.0 0.1388986794
H  H133  1  0.95118000  0.72184000  0.48668000  1.0 0.1296653025
H  H134  1  0.84254000  0.74668000  0.50201000  1.0 0.1211308051
H  H135  1  0.82810000  0.71274000  0.45394000  1.0 0.1296653025
H  H136  1  0.92754000  0.44360000  0.12619000  1.0 0.1296653025
H  H137  1  0.88270000  0.38756000  0.08957000  1.0 0.1296653025
H  H138  1  0.92617000  0.45607000  0.07465000  1.0 0.1211308051
H  H139  1  0.98742000  0.76870000  0.68567000  1.0 0.3921736827
H  H140  1  0.91217000  0.82975000  0.66284000  1.0 0.3921736827
H  H141  1  0.21771000  0.98617000  0.52789000  1.0 0.1296653025
H  H142  1  0.82224000  0.73064000  0.80920000  1.0 0.1109315786
H  H143  1  0.78877000  0.54197000  0.84947000  1.0 0.1211308051
H  H144  1  0.57061000  0.64061000  0.95747000  1.0 0.1211308051
H  H145  1  0.97141000  0.58098000  0.75683000  1.0 0.1211308051
H  H146  1  0.65784000  0.64874000  0.03480000  1.0 0.1211308051
H  H147  1  0.96393000  0.82496000  0.84055000  1.0 0.1109315786
H  H148  1  0.75511000  0.76036000  0.85845000  1.0 0.1211308051
H  H149  1  0.69016000  0.74266000  0.89607000  1.0 0.1109315786
H  H150  1  0.37076000  0.82907000  0.63426000  1.0 0.1109315786
H  H151  1  0.87798000  0.61394000  0.93209000  1.0 0.1296653025
H  H152  1  0.11559000  0.94398000  0.57567000  1.0 0.1109315786
H  H153  1  0.44812000  0.77575000  0.72626000  1.0 0.1296653025
H  H154  1  0.66343000  0.57401000  0.87625000  1.0 0.1211308051
H  H155  1  0.57898000  0.63238000  0.88050000  1.0 0.1211308051
H  H156  1  0.96529000  0.62238000  0.00894000  1.0 0.1211308051
H  H157  1  0.19714000  0.00213000  0.88810000  1.0 0.1388986794
H  H158  1  0.12590000  0.04613000  0.94935000  1.0 0.1109315786
H  H159  1  0.01669000  0.84872000  0.91561000  1.0 0.1388986794
H  H160  1  0.62058000  0.74388000  0.77292000  1.0 0.1296653025
H  H161  1  0.10862000  0.93329000  0.11773000  1.0 0.1296653025
H  H162  1  0.13758000  0.97430000  0.81282000  1.0 0.1109315786
H  H163  1  0.33248000  0.10780000  0.18071000  1.0 0.0964074582
H  H164  1  0.31097000  0.08557000  0.10450000  1.0 0.1296653025
H  H165  1  0.48209000  0.87202000  0.59040000  1.0 0.1388986794
H  H166  1  0.13318000  0.96286000  0.19296000  1.0 0.1109315786
H  H167  1  0.21118000  0.89063000  0.06375000  1.0 0.1211308051
H  H168  1  0.33447000  0.81979000  0.83508000  1.0 0.1296653025
H  H169  1  0.27439000  0.94215000  0.39323000  1.0 0.0909545469
H  H170  1  0.23067000  0.01104000  0.40824000  1.0 0.0909545469
H  H171  1  0.20218000  0.14920000  0.98110000  1.0 0.0909545469
H  H172  1  0.06795000  0.13974000  0.97146000  1.0 0.0909545469
H  H173  1  0.50159000  0.78147000  0.88178000  1.0 0.1296653025
H  H174  1  0.14554000  0.78279000  0.03495000  1.0 0.0909545469
H  H175  1  0.27925000  0.79011000  0.03995000  1.0 0.0805258242
H  H176  1  0.21796000  0.68270000  0.01125000  1.0 0.1296653025
H  H177  1  0.13023000  0.71572000  0.96954000  1.0 0.1296653025
H  H178  1  0.26290000  0.72298000  0.97450000  1.0 0.1388986794
H  H179  1  0.04882000  0.22184000  0.01332000  1.0 0.1296653025
H  H180  1  0.15746000  0.24668000  0.99799000  1.0 0.1211308051
H  H181  1  0.17190000  0.21274000  0.04606000  1.0 0.1296653025
H  H182  1  0.07246000  0.94360000  0.37381000  1.0 0.1296653025
H  H183  1  0.11730000  0.88756000  0.41043000  1.0 0.1296653025
H  H184  1  0.07383000  0.95607000  0.42535000  1.0 0.1211308051
C  C1  1  0.25140000  0.54560000  0.04971000  1.0 -0.1876364961
C  C2  1  0.78670000  0.85950000  0.33325000  1.0 0.1804340606
C  C3  1  0.91120000  0.02240000  0.30248000  1.0 0.5801028212
C  C4  1  0.83630000  0.81500000  0.30760000  1.0 -0.2277702751
C  C5  1  0.90590000  0.83700000  0.27982000  1.0 -0.0013382353
C  C6  1  0.81550000  0.92720000  0.33140000  1.0 -0.2277702751
C  C7  1  0.95440000  0.78450000  0.25324000  1.0 0.5801028212
C  C8  1  0.71660000  0.87440000  0.43712000  1.0 0.0909545469
C  C9  1  0.65020000  0.86320000  0.46781000  1.0 -0.1624942037
C  C10  1  0.92790000  0.90400000  0.27643000  1.0 -0.1541386383
C  C11  1  0.70320000  0.85770000  0.51420000  1.0 -0.0971496726
C  C12  1  0.01200000  0.63850000  0.35017000  1.0 0.053758615
C  C13  1  0.69230000  0.76570000  0.36455000  1.0 -0.1769490825
C  C14  1  0.33890000  0.63880000  0.11241000  1.0 0.0688594568
C  C15  1  0.14600000  0.55230000  0.46184000  1.0 -0.0189104708
C  C16  1  0.83330000  0.87900000  0.45283000  1.0 -0.1624942037
C  C17  1  0.18950000  0.57220000  0.07790000  1.0 0.0688594568
C  C18  1  0.39180000  0.52420000  0.97786000  1.0 0.200240658
C  C19  1  0.88350000  0.94920000  0.30297000  1.0 -0.0087685104
C  C20  1  0.58050000  0.74210000  0.33307000  1.0 0.0909545469
C  C21  1  0.43440000  0.53310000  0.02571000  1.0 -0.0189104708
C  C22  1  0.45880000  0.72230000  0.25792000  1.0 -0.0944509847
C  C23  1  0.81920000  0.86150000  0.53045000  1.0 -0.0375490623
C  C24  1  0.65950000  0.87990000  0.38602000  1.0 -0.1691416539
C  C25  1  0.11210000  0.57120000  0.41141000  1.0 0.1296653025
C  C26  1  0.88580000  0.87350000  0.49876000  1.0 -0.1103817994
C  C27  1  0.25840000  0.67890000  0.24429000  1.0 0.6014584651
C  C28  1  0.37230000  0.69980000  0.27553000  1.0 -0.0189104708
C  C29  1  0.88030000  0.85290000  0.57983000  1.0 0.5618514171
C  C30  1  0.14850000  0.53440000  0.37925000  1.0 -0.2011988225
C  C31  1  0.20790000  0.49280000  0.60268000  1.0 0.1296653025
C  C32  1  0.14270000  0.48570000  0.47266000  1.0 -0.251326397
C  C33  1  0.04300000  0.62430000  0.39518000  1.0 -0.1876364961
C  C34  1  0.54240000  0.50890000  0.04659000  1.0 -0.3136345545
C  C35  1  0.56190000  0.74220000  0.28594000  1.0 -0.1691416539
C  C36  1  0.16430000  0.46530000  0.51813000  1.0 0.1913842274
C  C37  1  0.36250000  0.56550000  0.05326000  1.0 0.1388986794
C  C38  1  0.15400000  0.53000000  0.62966000  1.0 -0.2079579147
C  C39  1  0.11270000  0.55200000  0.33396000  1.0 0.0964074582
C  C40  1  0.17260000  0.59710000  0.49620000  1.0 0.1804340606
C  C41  1  0.28390000  0.42710000  0.66770000  1.0 0.0688594568
C  C42  1  0.27340000  0.44070000  0.62175000  1.0 -0.2011988225
C  C43  1  0.18950000  0.51140000  0.55298000  1.0 -0.0087685104
C  C44  1  0.40660000  0.61320000  0.08615000  1.0 -0.1876364961
C  C45  1  0.16900000  0.51130000  0.67480000  1.0 0.0805258242
C  C46  1  0.19350000  0.57710000  0.54080000  1.0 -0.251326397
C  C47  1  0.39140000  0.69720000  0.32218000  1.0 -0.0971496726
C  C48  1  0.23310000  0.53700000  0.91350000  1.0 0.0370896695
C  C49  1  0.13740000  0.35040000  0.49500000  1.0 0.0082897501
C  C50  1  0.49250000  0.71920000  0.35018000  1.0 -0.1691416539
C  C51  1  0.20520000  0.71630000  0.51830000  1.0 0.0181655748
C  C52  1  0.20400000  0.77940000  0.49090000  1.0 -0.4109179328
C  C53  1  0.12820000  0.28730000  0.51470000  1.0 -0.427784952
C  C54  1  0.11340000  0.56500000  0.90500000  1.0 -0.4045743445
C  C55  1  0.74860000  0.04560000  0.45029000  1.0 -0.1876364961
C  C56  1  0.21330000  0.35950000  0.16675000  1.0 0.1804340606
C  C57  1  0.08880000  0.52240000  0.19752000  1.0 0.5801028212
C  C58  1  0.16370000  0.31500000  0.19240000  1.0 -0.2277702751
C  C59  1  0.09410000  0.33700000  0.22018000  1.0 -0.0013382353
C  C60  1  0.18450000  0.42720000  0.16860000  1.0 -0.2277702751
C  C61  1  0.04560000  0.28450000  0.24676000  1.0 0.5801028212
C  C62  1  0.28340000  0.37440000  0.06288000  1.0 0.0909545469
C  C63  1  0.34980000  0.36320000  0.03219000  1.0 -0.1624942037
C  C64  1  0.07210000  0.40400000  0.22357000  1.0 -0.1541386383
C  C65  1  0.29680000  0.35770000  0.98580000  1.0 -0.0971496726
C  C66  1  0.98800000  0.13850000  0.14983000  1.0 0.053758615
C  C67  1  0.30770000  0.26570000  0.13545000  1.0 -0.1769490825
C  C68  1  0.66110000  0.13880000  0.38759000  1.0 0.0688594568
C  C69  1  0.85400000  0.05230000  0.03816000  1.0 -0.0189104708
C  C70  1  0.16670000  0.37900000  0.04717000  1.0 -0.1624942037
C  C71  1  0.81050000  0.07220000  0.42210000  1.0 0.0688594568
C  C72  1  0.60820000  0.02420000  0.52214000  1.0 0.200240658
C  C73  1  0.11650000  0.44920000  0.19703000  1.0 -0.0087685104
C  C74  1  0.41950000  0.24210000  0.16693000  1.0 0.0909545469
C  C75  1  0.56560000  0.03310000  0.47429000  1.0 -0.0189104708
C  C76  1  0.54120000  0.22230000  0.24208000  1.0 -0.0944509847
C  C77  1  0.18080000  0.36150000  0.96955000  1.0 -0.0375490623
C  C78  1  0.34050000  0.37990000  0.11398000  1.0 -0.1691416539
C  C79  1  0.88790000  0.07120000  0.08859000  1.0 0.1296653025
C  C80  1  0.11420000  0.37350000  0.00124000  1.0 -0.1103817994
C  C81  1  0.74160000  0.17890000  0.25571000  1.0 0.6014584651
C  C82  1  0.62770000  0.19980000  0.22447000  1.0 -0.0189104708
C  C83  1  0.11970000  0.35290000  0.92017000  1.0 0.5618514171
C  C84  1  0.85150000  0.03440000  0.12075000  1.0 -0.2011988225
C  C85  1  0.79210000  0.99280000  0.89732000  1.0 0.1296653025
C  C86  1  0.85730000  0.98570000  0.02734000  1.0 -0.251326397
C  C87  1  0.95700000  0.12430000  0.10482000  1.0 -0.1876364961
C  C88  1  0.45760000  0.00890000  0.45341000  1.0 -0.3136345545
C  C89  1  0.43810000  0.24220000  0.21406000  1.0 -0.1691416539
C  C90  1  0.83570000  0.96530000  0.98187000  1.0 0.1913842274
C  C91  1  0.63750000  0.06550000  0.44674000  1.0 0.1388986794
C  C92  1  0.84600000  0.03000000  0.87034000  1.0 -0.2079579147
C  C93  1  0.88730000  0.05200000  0.16604000  1.0 0.0909545469
C  C94  1  0.82740000  0.09710000  0.00380000  1.0 0.1804340606
C  C95  1  0.71610000  0.92710000  0.83230000  1.0 0.0688594568
C  C96  1  0.72660000  0.94070000  0.87825000  1.0 -0.2011988225
C  C97  1  0.81050000  0.01140000  0.94702000  1.0 -0.0087685104
C  C98  1  0.59340000  0.11320000  0.41385000  1.0 -0.1876364961
C  C99  1  0.83100000  0.01130000  0.82520000  1.0 0.0805258242
C  C100  1  0.80650000  0.07710000  0.95920000  1.0 -0.251326397
C  C101  1  0.60860000  0.19720000  0.17782000  1.0 -0.0971496726
C  C102  1  0.76690000  0.03700000  0.58650000  1.0 0.0370896695
C  C103  1  0.86260000  0.85040000  0.00500000  1.0 0.0082897501
C  C104  1  0.50750000  0.21920000  0.14982000  1.0 -0.1691416539
C  C105  1  0.79480000  0.21630000  0.98170000  1.0 0.0181655748
C  C106  1  0.79600000  0.27940000  0.00910000  1.0 -0.4109179328
C  C107  1  0.87180000  0.78730000  0.98530000  1.0 -0.427784952
C  C108  1  0.88660000  0.06500000  0.59500000  1.0 -0.4045743445
C  C109  1  0.74860000  0.45440000  0.95029000  1.0 -0.1876364961
C  C110  1  0.21330000  0.14050000  0.66675000  1.0 0.1804340606
C  C111  1  0.08880000  0.97760000  0.69752000  1.0 0.5801028212
C  C112  1  0.16370000  0.18500000  0.69240000  1.0 -0.2277702751
C  C113  1  0.09410000  0.16300000  0.72018000  1.0 -0.0013382353
C  C114  1  0.18450000  0.07280000  0.66860000  1.0 -0.2277702751
C  C115  1  0.04560000  0.21550000  0.74676000  1.0 0.5801028212
C  C116  1  0.28340000  0.12560000  0.56288000  1.0 0.0909545469
C  C117  1  0.34980000  0.13680000  0.53219000  1.0 -0.1624942037
C  C118  1  0.07210000  0.09600000  0.72357000  1.0 -0.1541386383
C  C119  1  0.29680000  0.14230000  0.48580000  1.0 -0.0971496726
C  C120  1  0.98800000  0.36150000  0.64983000  1.0 0.053758615
C  C121  1  0.30770000  0.23430000  0.63545000  1.0 -0.1769490825
C  C122  1  0.66110000  0.36120000  0.88759000  1.0 0.0688594568
C  C123  1  0.85400000  0.44770000  0.53816000  1.0 -0.0189104708
C  C124  1  0.16670000  0.12100000  0.54717000  1.0 -0.1624942037
C  C125  1  0.81050000  0.42780000  0.92210000  1.0 0.0688594568
C  C126  1  0.60820000  0.47580000  0.02214000  1.0 0.200240658
C  C127  1  0.11650000  0.05080000  0.69703000  1.0 -0.0087685104
C  C128  1  0.41950000  0.25790000  0.66693000  1.0 0.0909545469
C  C129  1  0.56560000  0.46690000  0.97429000  1.0 -0.0189104708
C  C130  1  0.54120000  0.27770000  0.74208000  1.0 -0.0944509847
C  C131  1  0.18080000  0.13850000  0.46955000  1.0 -0.0375490623
C  C132  1  0.34050000  0.12010000  0.61398000  1.0 -0.1691416539
C  C133  1  0.88790000  0.42880000  0.58859000  1.0 0.1296653025
C  C134  1  0.11420000  0.12650000  0.50124000  1.0 -0.1103817994
C  C135  1  0.74160000  0.32110000  0.75571000  1.0 0.6014584651
C  C136  1  0.62770000  0.30020000  0.72447000  1.0 -0.0189104708
C  C137  1  0.11970000  0.14710000  0.42017000  1.0 0.5618514171
C  C138  1  0.85150000  0.46560000  0.62075000  1.0 -0.2011988225
C  C139  1  0.79210000  0.50720000  0.39732000  1.0 0.1296653025
C  C140  1  0.85730000  0.51430000  0.52734000  1.0 -0.251326397
C  C141  1  0.95700000  0.37570000  0.60482000  1.0 -0.1876364961
C  C142  1  0.45760000  0.49110000  0.95341000  1.0 -0.3136345545
C  C143  1  0.43810000  0.25780000  0.71406000  1.0 -0.1691416539
C  C144  1  0.83570000  0.53470000  0.48187000  1.0 0.1913842274
C  C145  1  0.63750000  0.43450000  0.94674000  1.0 0.1388986794
C  C146  1  0.84600000  0.47000000  0.37034000  1.0 -0.2079579147
C  C147  1  0.88730000  0.44800000  0.66604000  1.0 0.0964074582
C  C148  1  0.82740000  0.40290000  0.50380000  1.0 0.1804340606
C  C149  1  0.71610000  0.57290000  0.33230000  1.0 0.0688594568
C  C150  1  0.72660000  0.55930000  0.37825000  1.0 -0.2011988225
C  C151  1  0.81050000  0.48860000  0.44702000  1.0 -0.0087685104
C  C152  1  0.59340000  0.38680000  0.91385000  1.0 -0.1876364961
C  C153  1  0.83100000  0.48870000  0.32520000  1.0 0.0805258242
C  C154  1  0.80650000  0.42290000  0.45920000  1.0 -0.251326397
C  C155  1  0.60860000  0.30280000  0.67782000  1.0 -0.0971496726
C  C156  1  0.76690000  0.46300000  0.08650000  1.0 0.0370896695
C  C157  1  0.86260000  0.64960000  0.50500000  1.0 0.0082897501
C  C158  1  0.50750000  0.28080000  0.64982000  1.0 -0.1691416539
C  C159  1  0.79480000  0.28370000  0.48170000  1.0 0.0181655748
C  C160  1  0.79600000  0.22060000  0.50910000  1.0 -0.4109179328
C  C161  1  0.87180000  0.71270000  0.48530000  1.0 -0.427784952
C  C162  1  0.88660000  0.43500000  0.09500000  1.0 -0.4045743445
C  C163  1  0.25140000  0.95440000  0.54971000  1.0 -0.1876364961
C  C164  1  0.78670000  0.64050000  0.83325000  1.0 0.1804340606
C  C165  1  0.91120000  0.47760000  0.80248000  1.0 0.5801028212
C  C166  1  0.83630000  0.68500000  0.80760000  1.0 -0.2277702751
C  C167  1  0.90590000  0.66300000  0.77982000  1.0 -0.0013382353
C  C168  1  0.81550000  0.57280000  0.83140000  1.0 -0.2277702751
C  C169  1  0.95440000  0.71550000  0.75324000  1.0 0.5801028212
C  C170  1  0.71660000  0.62560000  0.93712000  1.0 0.0909545469
C  C171  1  0.65020000  0.63680000  0.96781000  1.0 -0.1624942037
C  C172  1  0.92790000  0.59600000  0.77643000  1.0 -0.1541386383
C  C173  1  0.70320000  0.64230000  0.01420000  1.0 -0.0971496726
C  C174  1  0.01200000  0.86150000  0.85017000  1.0 0.053758615
C  C175  1  0.69230000  0.73430000  0.86455000  1.0 -0.1769490825
C  C176  1  0.33890000  0.86120000  0.61241000  1.0 0.0688594568
C  C177  1  0.14600000  0.94770000  0.96184000  1.0 -0.0189104708
C  C178  1  0.83330000  0.62100000  0.95283000  1.0 -0.1624942037
C  C179  1  0.18950000  0.92780000  0.57790000  1.0 0.0688594568
C  C180  1  0.39180000  0.97580000  0.47786000  1.0 0.200240658
C  C181  1  0.88350000  0.55080000  0.80297000  1.0 -0.0087685104
C  C182  1  0.58050000  0.75790000  0.83307000  1.0 0.0909545469
C  C183  1  0.43440000  0.96690000  0.52571000  1.0 -0.0189104708
C  C184  1  0.45880000  0.77770000  0.75792000  1.0 -0.0944509847
C  C185  1  0.81920000  0.63850000  0.03045000  1.0 -0.0375490623
C  C186  1  0.65950000  0.62010000  0.88602000  1.0 -0.1691416539
C  C187  1  0.11210000  0.92880000  0.91141000  1.0 0.1296653025
C  C188  1  0.88580000  0.62650000  0.99876000  1.0 -0.1103817994
C  C189  1  0.25840000  0.82110000  0.74429000  1.0 0.6014584651
C  C190  1  0.37230000  0.80020000  0.77553000  1.0 -0.0189104708
C  C191  1  0.88030000  0.64710000  0.07983000  1.0 0.5618514171
C  C192  1  0.14850000  0.96560000  0.87925000  1.0 -0.2011988225
C  C193  1  0.20790000  0.00720000  0.10268000  1.0 0.1296653025
C  C194  1  0.14270000  0.01430000  0.97266000  1.0 -0.251326397
C  C195  1  0.04300000  0.87570000  0.89518000  1.0 -0.1876364961
C  C196  1  0.54240000  0.99110000  0.54659000  1.0 -0.3136345545
C  C197  1  0.56190000  0.75780000  0.78594000  1.0 -0.1691416539
C  C198  1  0.16430000  0.03470000  0.01813000  1.0 0.1913842274
C  C199  1  0.36250000  0.93450000  0.55326000  1.0 0.1388986794
C  C200  1  0.15400000  0.97000000  0.12966000  1.0 -0.2079579147
C  C201  1  0.11270000  0.94800000  0.83396000  1.0 0.0909545469
C  C202  1  0.17260000  0.90290000  0.99620000  1.0 0.1804340606
C  C203  1  0.28390000  0.07290000  0.16770000  1.0 0.0688594568
C  C204  1  0.27340000  0.05930000  0.12175000  1.0 -0.2011988225
C  C205  1  0.18950000  0.98860000  0.05298000  1.0 -0.0087685104
C  C206  1  0.40660000  0.88680000  0.58615000  1.0 -0.1876364961
C  C207  1  0.16900000  0.98870000  0.17480000  1.0 0.0805258242
C  C208  1  0.19350000  0.92290000  0.04080000  1.0 -0.251326397
C  C209  1  0.39140000  0.80280000  0.82218000  1.0 -0.0971496726
C  C210  1  0.23310000  0.96300000  0.41350000  1.0 0.0370896695
C  C211  1  0.13740000  0.14960000  0.99500000  1.0 0.0082897501
C  C212  1  0.49250000  0.78080000  0.85018000  1.0 -0.1691416539
C  C213  1  0.20520000  0.78370000  0.01830000  1.0 0.0181655748
C  C214  1  0.20400000  0.72060000  0.99090000  1.0 -0.4109179328
C  C215  1  0.12820000  0.21270000  0.01470000  1.0 -0.427784952
C  C216  1  0.11340000  0.93500000  0.40500000  1.0 -0.4045743445
N  N1  1  0.23070000  0.62061000  0.10877000  1.0 -0.251326397
N  N2  1  0.04660000  0.60259000  0.31833000  1.0 -0.2366606394
N  N3  1  0.71510000  0.83671000  0.35930000  1.0 -0.0735288715
N  N4  1  0.23080000  0.45940000  0.69426000  1.0 -0.259223717
N  N5  1  0.76930000  0.12061000  0.39123000  1.0 -0.251326397
N  N6  1  0.95340000  0.10259000  0.18167000  1.0 -0.2366606394
N  N7  1  0.28490000  0.33671000  0.14070000  1.0 -0.0735288715
N  N8  1  0.76920000  0.95940000  0.80574000  1.0 -0.259223717
N  N9  1  0.76930000  0.37939000  0.89123000  1.0 -0.251326397
N  N10  1  0.95340000  0.39741000  0.68167000  1.0 -0.2366606394
N  N11  1  0.28490000  0.16329000  0.64070000  1.0 -0.0735288715
N  N12  1  0.76920000  0.54060000  0.30574000  1.0 -0.259223717
N  N13  1  0.23070000  0.87939000  0.60877000  1.0 -0.251326397
N  N14  1  0.04660000  0.89741000  0.81833000  1.0 -0.2366606394
N  N15  1  0.71510000  0.66329000  0.85930000  1.0 -0.0735288715
N  N16  1  0.23080000  0.04060000  0.19426000  1.0 -0.259223717
O  O1  1  0.98680000  0.68297000  0.18198000  1.0 -0.8009290943
O  O2  1  0.88840000  0.05705000  0.33280000  1.0 -0.5404955769
O  O3  1  0.95480000  0.04231000  0.27098000  1.0 -0.5704106787
O  O4  1  0.96070000  0.72688000  0.26945000  1.0 -0.5803708384
O  O5  1  0.98630000  0.85780000  0.59024000  1.0 -0.5704106787
O  O6  1  0.24990000  0.67940000  0.20237000  1.0 -0.5603707383
O  O7  1  0.98450000  0.80153000  0.21883000  1.0 -0.5312496672
O  O8  1  0.82030000  0.83900000  0.60736000  1.0 -0.5404955769
O  O9  1  0.18260000  0.66350000  0.26345000  1.0 -0.5312496672
O  O10  1  0.28680000  0.55150000  0.95958000  1.0 -0.1876364961
O  O11  1  0.18290000  0.66340000  0.48323000  1.0 -0.2079579147
O  O12  1  0.15400000  0.39930000  0.53112000  1.0 -0.251326397
O  O13  1  0.01320000  0.18297000  0.31802000  1.0 -0.8009290943
O  O14  1  0.11160000  0.55705000  0.16720000  1.0 -0.5404955769
O  O15  1  0.04520000  0.54231000  0.22902000  1.0 -0.5704106787
O  O16  1  0.03930000  0.22688000  0.23055000  1.0 -0.5803708384
O  O17  1  0.01370000  0.35780000  0.90976000  1.0 -0.5704106787
O  O18  1  0.75010000  0.17940000  0.29763000  1.0 -0.5603707383
O  O19  1  0.01550000  0.30153000  0.28117000  1.0 -0.5312496672
O  O20  1  0.17970000  0.33900000  0.89264000  1.0 -0.5404955769
O  O21  1  0.81740000  0.16350000  0.23655000  1.0 -0.5312496672
O  O22  1  0.71320000  0.05150000  0.54042000  1.0 -0.1876364961
O  O23  1  0.81710000  0.16340000  0.01677000  1.0 -0.2079579147
O  O24  1  0.84600000  0.89930000  0.96888000  1.0 -0.2366606394
O  O25  1  0.01320000  0.31703000  0.81802000  1.0 -0.8009290943
O  O26  1  0.11160000  0.94295000  0.66720000  1.0 -0.5404955769
O  O27  1  0.04520000  0.95769000  0.72902000  1.0 -0.5704106787
O  O28  1  0.03930000  0.27312000  0.73055000  1.0 -0.5803708384
O  O29  1  0.01370000  0.14220000  0.40976000  1.0 -0.5704106787
O  O30  1  0.75010000  0.32060000  0.79763000  1.0 -0.5603707383
O  O31  1  0.01550000  0.19847000  0.78117000  1.0 -0.5312496672
O  O32  1  0.17970000  0.16100000  0.39264000  1.0 -0.5404955769
O  O33  1  0.81740000  0.33650000  0.73655000  1.0 -0.5312496672
O  O34  1  0.71320000  0.44850000  0.04042000  1.0 -0.1876364961
O  O35  1  0.81710000  0.33660000  0.51677000  1.0 -0.2079579147
O  O36  1  0.84600000  0.60070000  0.46888000  1.0 -0.251326397
O  O37  1  0.98680000  0.81703000  0.68198000  1.0 -0.8009290943
O  O38  1  0.88840000  0.44295000  0.83280000  1.0 -0.5404955769
O  O39  1  0.95480000  0.45769000  0.77098000  1.0 -0.5704106787
O  O40  1  0.96070000  0.77312000  0.76945000  1.0 -0.5803708384
O  O41  1  0.98630000  0.64220000  0.09024000  1.0 -0.5704106787
O  O42  1  0.24990000  0.82060000  0.70237000  1.0 -0.5603707383
O  O43  1  0.98450000  0.69847000  0.71883000  1.0 -0.5312496672
O  O44  1  0.82030000  0.66100000  0.10736000  1.0 -0.5404955769
O  O45  1  0.18260000  0.83650000  0.76345000  1.0 -0.5312496672
O  O46  1  0.28680000  0.94850000  0.45958000  1.0 -0.1876364961
O  O47  1  0.18290000  0.83660000  0.98323000  1.0 -0.2079579147
O  O48  1  0.15400000  0.10070000  0.03112000  1.0 -0.251326397
