# DDEC6 charges by PACMAN v1.1 (https://github.com/mtap-research/PACMAN-charge/)
data_LASMAV_ASR_pacman
_symmetry_space_group_name_H-M   'P 1'
_cell_length_a   24.80300000
_cell_length_b   24.80300000
_cell_length_c   16.36930000
_cell_angle_alpha   90.00000000
_cell_angle_beta   90.00000000
_cell_angle_gamma   120.00000000
_symmetry_Int_Tables_number   1
_chemical_formula_structural   Co12H66C102(N3O11)5
_chemical_formula_sum   'Co24 H132 C204 N30 O110'
_cell_volume   8721.05782968
_cell_formula_units_Z   2
loop_
 _symmetry_equiv_pos_site_id
 _symmetry_equiv_pos_as_xyz
  1  'x, y, z'
loop_
 _atom_site_type_symbol
 _atom_site_label
 _atom_site_symmetry_multiplicity
 _atom_site_fract_x
 _atom_site_fract_y
 _atom_site_fract_z
 _atom_site_occupancy
 _atom_site_charge
Co  Co1  1  0.35898000  0.60080000  0.25000000  1.0 0.9917395345
Co  Co2  1  0.75818000  0.35898000  0.75000000  1.0 0.9917395345
Co  Co3  1  0.39920000  0.75818000  0.25000000  1.0 0.9917395345
Co  Co4  1  0.64102000  0.39920000  0.75000000  1.0 0.9917395345
Co  Co5  1  0.24182000  0.64102000  0.25000000  1.0 0.9917395345
Co  Co6  1  0.60080000  0.24182000  0.75000000  1.0 0.9917395345
Co  Co7  1  0.65655000  0.76418000  0.65362000  1.0 0.8832303913
Co  Co8  1  0.89237000  0.65655000  0.15362000  1.0 0.8832303913
Co  Co9  1  0.23582000  0.89237000  0.65362000  1.0 0.8832303913
Co  Co10  1  0.34345000  0.23582000  0.15362000  1.0 0.8832303913
Co  Co11  1  0.10763000  0.34345000  0.65362000  1.0 0.8832303913
Co  Co12  1  0.76418000  0.10763000  0.15362000  1.0 0.8832303913
Co  Co13  1  0.34345000  0.23582000  0.34638000  1.0 0.8832303913
Co  Co14  1  0.10763000  0.34345000  0.84638000  1.0 0.8832303913
Co  Co15  1  0.76418000  0.10763000  0.34638000  1.0 0.8832303913
Co  Co16  1  0.65655000  0.76418000  0.84638000  1.0 0.8832303913
Co  Co17  1  0.89237000  0.65655000  0.34638000  1.0 0.8832303913
Co  Co18  1  0.23582000  0.89237000  0.84638000  1.0 0.8832303913
Co  Co19  1  0.79843000  0.87851000  0.75000000  1.0 0.8055345845
Co  Co20  1  0.91992000  0.79843000  0.25000000  1.0 0.8055345845
Co  Co21  1  0.12149000  0.91992000  0.75000000  1.0 0.8055345845
Co  Co22  1  0.20157000  0.12149000  0.25000000  1.0 0.8055345845
Co  Co23  1  0.08008000  0.20157000  0.75000000  1.0 0.8055345845
Co  Co24  1  0.87851000  0.08008000  0.25000000  1.0 0.8055345845
H  H1  1  0.38450000  0.52000000  0.36840000  1.0 0.1075838736
H  H2  1  0.86450000  0.38450000  0.86840000  1.0 0.1075838736
H  H3  1  0.48000000  0.86450000  0.36840000  1.0 0.1075838736
H  H4  1  0.61550000  0.48000000  0.86840000  1.0 0.1075838736
H  H5  1  0.13550000  0.61550000  0.36840000  1.0 0.1075838736
H  H6  1  0.52000000  0.13550000  0.86840000  1.0 0.1075838736
H  H7  1  0.61550000  0.48000000  0.63160000  1.0 0.1075838736
H  H8  1  0.13550000  0.61550000  0.13160000  1.0 0.1075838736
H  H9  1  0.52000000  0.13550000  0.63160000  1.0 0.1075838736
H  H10  1  0.38450000  0.52000000  0.13160000  1.0 0.1075838736
H  H11  1  0.86450000  0.38450000  0.63160000  1.0 0.1075838736
H  H12  1  0.48000000  0.86450000  0.13160000  1.0 0.1075838736
H  H13  1  0.38590000  0.42850000  0.37410000  1.0 0.1310800368
H  H14  1  0.95740000  0.38590000  0.87410000  1.0 0.1310800368
H  H15  1  0.57150000  0.95740000  0.37410000  1.0 0.1310800368
H  H16  1  0.61410000  0.57150000  0.87410000  1.0 0.1310800368
H  H17  1  0.04260000  0.61410000  0.37410000  1.0 0.1310800368
H  H18  1  0.42850000  0.04260000  0.87410000  1.0 0.1310800368
H  H19  1  0.61410000  0.57150000  0.62590000  1.0 0.1310800368
H  H20  1  0.04260000  0.61410000  0.12590000  1.0 0.1310800368
H  H21  1  0.42850000  0.04260000  0.62590000  1.0 0.1310800368
H  H22  1  0.38590000  0.42850000  0.12590000  1.0 0.1310800368
H  H23  1  0.95740000  0.38590000  0.62590000  1.0 0.1310800368
H  H24  1  0.57150000  0.95740000  0.12590000  1.0 0.1310800368
H  H25  1  0.57270000  0.81120000  0.58030000  1.0 0.1075838736
H  H26  1  0.76150000  0.57270000  0.08030000  1.0 0.1075838736
H  H27  1  0.18880000  0.76150000  0.58030000  1.0 0.1075838736
H  H28  1  0.42730000  0.18880000  0.08030000  1.0 0.1075838736
H  H29  1  0.23850000  0.42730000  0.58030000  1.0 0.1075838736
H  H30  1  0.81120000  0.23850000  0.08030000  1.0 0.1075838736
H  H31  1  0.42730000  0.18880000  0.41970000  1.0 0.1075838736
H  H32  1  0.23850000  0.42730000  0.91970000  1.0 0.1075838736
H  H33  1  0.81120000  0.23850000  0.41970000  1.0 0.1075838736
H  H34  1  0.57270000  0.81120000  0.91970000  1.0 0.1075838736
H  H35  1  0.76150000  0.57270000  0.41970000  1.0 0.1075838736
H  H36  1  0.18880000  0.76150000  0.91970000  1.0 0.1075838736
H  H37  1  0.50570000  0.79220000  0.47540000  1.0 0.1310800368
H  H38  1  0.71350000  0.50570000  0.97540000  1.0 0.1310800368
H  H39  1  0.20780000  0.71350000  0.47540000  1.0 0.1310800368
H  H40  1  0.49430000  0.20780000  0.97540000  1.0 0.1310800368
H  H41  1  0.28650000  0.49430000  0.47540000  1.0 0.1310800368
H  H42  1  0.79220000  0.28650000  0.97540000  1.0 0.1310800368
H  H43  1  0.49430000  0.20780000  0.52460000  1.0 0.1310800368
H  H44  1  0.28650000  0.49430000  0.02460000  1.0 0.1310800368
H  H45  1  0.79220000  0.28650000  0.52460000  1.0 0.1310800368
H  H46  1  0.50570000  0.79220000  0.02460000  1.0 0.1310800368
H  H47  1  0.71350000  0.50570000  0.52460000  1.0 0.1310800368
H  H48  1  0.20780000  0.71350000  0.02460000  1.0 0.1310800368
H  H49  1  0.50560000  0.63350000  0.42960000  1.0 0.1310800368
H  H50  1  0.87210000  0.50560000  0.92960000  1.0 0.1310800368
H  H51  1  0.36650000  0.87210000  0.42960000  1.0 0.1310800368
H  H52  1  0.49440000  0.36650000  0.92960000  1.0 0.1310800368
H  H53  1  0.12790000  0.49440000  0.42960000  1.0 0.1310800368
H  H54  1  0.63350000  0.12790000  0.92960000  1.0 0.1310800368
H  H55  1  0.49440000  0.36650000  0.57040000  1.0 0.1310800368
H  H56  1  0.12790000  0.49440000  0.07040000  1.0 0.1310800368
H  H57  1  0.63350000  0.12790000  0.57040000  1.0 0.1310800368
H  H58  1  0.50560000  0.63350000  0.07040000  1.0 0.1310800368
H  H59  1  0.87210000  0.50560000  0.57040000  1.0 0.1310800368
H  H60  1  0.36650000  0.87210000  0.07040000  1.0 0.1310800368
H  H61  1  0.57460000  0.65800000  0.53490000  1.0 0.1075838736
H  H62  1  0.91660000  0.57460000  0.03490000  1.0 0.1075838736
H  H63  1  0.34200000  0.91660000  0.53490000  1.0 0.1075838736
H  H64  1  0.42540000  0.34200000  0.03490000  1.0 0.1075838736
H  H65  1  0.08340000  0.42540000  0.53490000  1.0 0.1075838736
H  H66  1  0.65800000  0.08340000  0.03490000  1.0 0.1075838736
H  H67  1  0.42540000  0.34200000  0.46510000  1.0 0.1075838736
H  H68  1  0.08340000  0.42540000  0.96510000  1.0 0.1075838736
H  H69  1  0.65800000  0.08340000  0.46510000  1.0 0.1075838736
H  H70  1  0.57460000  0.65800000  0.96510000  1.0 0.1075838736
H  H71  1  0.91660000  0.57460000  0.46510000  1.0 0.1075838736
H  H72  1  0.34200000  0.91660000  0.96510000  1.0 0.1075838736
H  H73  1  0.72450000  0.68980000  0.62010000  1.0 0.0986273767
H  H74  1  0.03470000  0.72450000  0.12010000  1.0 0.0986273767
H  H75  1  0.31020000  0.03470000  0.62010000  1.0 0.0986273767
H  H76  1  0.27550000  0.31020000  0.12010000  1.0 0.0986273767
H  H77  1  0.96530000  0.27550000  0.62010000  1.0 0.0986273767
H  H78  1  0.68980000  0.96530000  0.12010000  1.0 0.0986273767
H  H79  1  0.27550000  0.31020000  0.37990000  1.0 0.0986273767
H  H80  1  0.96530000  0.27550000  0.87990000  1.0 0.0986273767
H  H81  1  0.68980000  0.96530000  0.37990000  1.0 0.0986273767
H  H82  1  0.72450000  0.68980000  0.87990000  1.0 0.0986273767
H  H83  1  0.03470000  0.72450000  0.37990000  1.0 0.0986273767
H  H84  1  0.31020000  0.03470000  0.87990000  1.0 0.0986273767
H  H85  1  0.78320000  0.67630000  0.52340000  1.0 0.1310800368
H  H86  1  0.10690000  0.78320000  0.02340000  1.0 0.1310800368
H  H87  1  0.32370000  0.10690000  0.52340000  1.0 0.1310800368
H  H88  1  0.21680000  0.32370000  0.02340000  1.0 0.1310800368
H  H89  1  0.89310000  0.21680000  0.52340000  1.0 0.1310800368
H  H90  1  0.67630000  0.89310000  0.02340000  1.0 0.1310800368
H  H91  1  0.21680000  0.32370000  0.47660000  1.0 0.1310800368
H  H92  1  0.89310000  0.21680000  0.97660000  1.0 0.1310800368
H  H93  1  0.67630000  0.89310000  0.47660000  1.0 0.1310800368
H  H94  1  0.78320000  0.67630000  0.97660000  1.0 0.1310800368
H  H95  1  0.10690000  0.78320000  0.47660000  1.0 0.1310800368
H  H96  1  0.32370000  0.10690000  0.97660000  1.0 0.1310800368
H  H97  1  0.77150000  0.80430000  0.38450000  1.0 0.1310800368
H  H98  1  0.96720000  0.77150000  0.88450000  1.0 0.1310800368
H  H99  1  0.19570000  0.96720000  0.38450000  1.0 0.1310800368
H  H100  1  0.22850000  0.19570000  0.88450000  1.0 0.1310800368
H  H101  1  0.03280000  0.22850000  0.38450000  1.0 0.1310800368
H  H102  1  0.80430000  0.03280000  0.88450000  1.0 0.1310800368
H  H103  1  0.22850000  0.19570000  0.61550000  1.0 0.1310800368
H  H104  1  0.03280000  0.22850000  0.11550000  1.0 0.1310800368
H  H105  1  0.80430000  0.03280000  0.61550000  1.0 0.1310800368
H  H106  1  0.77150000  0.80430000  0.11550000  1.0 0.1310800368
H  H107  1  0.96720000  0.77150000  0.61550000  1.0 0.1310800368
H  H108  1  0.19570000  0.96720000  0.11550000  1.0 0.1310800368
H  H109  1  0.71480000  0.81430000  0.48550000  1.0 0.0986273767
H  H110  1  0.90050000  0.71480000  0.98550000  1.0 0.0986273767
H  H111  1  0.18570000  0.90050000  0.48550000  1.0 0.0986273767
H  H112  1  0.28520000  0.18570000  0.98550000  1.0 0.0986273767
H  H113  1  0.09950000  0.28520000  0.48550000  1.0 0.0986273767
H  H114  1  0.81430000  0.09950000  0.98550000  1.0 0.0986273767
H  H115  1  0.28520000  0.18570000  0.51450000  1.0 0.0986273767
H  H116  1  0.09950000  0.28520000  0.01450000  1.0 0.0986273767
H  H117  1  0.81430000  0.09950000  0.51450000  1.0 0.0986273767
H  H118  1  0.71480000  0.81430000  0.01450000  1.0 0.0986273767
H  H119  1  0.90050000  0.71480000  0.51450000  1.0 0.0986273767
H  H120  1  0.18570000  0.90050000  0.01450000  1.0 0.0986273767
H  H121  1  0.73520000  0.76570000  0.75000000  1.0 0.3163428934
H  H122  1  0.96950000  0.73520000  0.25000000  1.0 0.3163428934
H  H123  1  0.23430000  0.96950000  0.75000000  1.0 0.3163428934
H  H124  1  0.26480000  0.23430000  0.25000000  1.0 0.3163428934
H  H125  1  0.03050000  0.26480000  0.75000000  1.0 0.3163428934
H  H126  1  0.76570000  0.03050000  0.25000000  1.0 0.3163428934
H  H127  1  0.59050000  0.80290000  0.75000000  1.0 0.3668487203
H  H128  1  0.78760000  0.59050000  0.25000000  1.0 0.3668487203
H  H129  1  0.19710000  0.78760000  0.75000000  1.0 0.3668487203
H  H130  1  0.40950000  0.19710000  0.25000000  1.0 0.3668487203
H  H131  1  0.21240000  0.40950000  0.75000000  1.0 0.3668487203
H  H132  1  0.80290000  0.21240000  0.25000000  1.0 0.3668487203
C  C1  1  0.38360000  0.50020000  0.31970000  1.0 0.0872547398
C  C2  1  0.88340000  0.38360000  0.81970000  1.0 0.0872547398
C  C3  1  0.49980000  0.88340000  0.31970000  1.0 0.0872547398
C  C4  1  0.61640000  0.49980000  0.81970000  1.0 0.0872547398
C  C5  1  0.11660000  0.61640000  0.31970000  1.0 0.0872547398
C  C6  1  0.50020000  0.11660000  0.81970000  1.0 0.0872547398
C  C7  1  0.61640000  0.49980000  0.68030000  1.0 0.0872547398
C  C8  1  0.11660000  0.61640000  0.18030000  1.0 0.0872547398
C  C9  1  0.50020000  0.11660000  0.68030000  1.0 0.0872547398
C  C10  1  0.38360000  0.50020000  0.18030000  1.0 0.0872547398
C  C11  1  0.88340000  0.38360000  0.68030000  1.0 0.0872547398
C  C12  1  0.49980000  0.88340000  0.18030000  1.0 0.0872547398
C  C13  1  0.38550000  0.44580000  0.32400000  1.0 -0.1819191821
C  C14  1  0.93970000  0.38550000  0.82400000  1.0 -0.1819191821
C  C15  1  0.55420000  0.93970000  0.32400000  1.0 -0.1901366487
C  C16  1  0.61450000  0.55420000  0.82400000  1.0 -0.1819191821
C  C17  1  0.06030000  0.61450000  0.32400000  1.0 -0.1819191821
C  C18  1  0.44580000  0.06030000  0.82400000  1.0 -0.1819191821
C  C19  1  0.61450000  0.55420000  0.67600000  1.0 -0.1819191821
C  C20  1  0.06030000  0.61450000  0.17600000  1.0 -0.1819191821
C  C21  1  0.44580000  0.06030000  0.67600000  1.0 -0.1819191821
C  C22  1  0.38550000  0.44580000  0.17600000  1.0 -0.1819191821
C  C23  1  0.93970000  0.38550000  0.67600000  1.0 -0.1819191821
C  C24  1  0.55420000  0.93970000  0.17600000  1.0 -0.1901366487
C  C25  1  0.38670000  0.41700000  0.25000000  1.0 0.0278791556
C  C26  1  0.96970000  0.38670000  0.75000000  1.0 0.0278791556
C  C27  1  0.58300000  0.96970000  0.25000000  1.0 0.0278791556
C  C28  1  0.61330000  0.58300000  0.75000000  1.0 0.0278791556
C  C29  1  0.03030000  0.61330000  0.25000000  1.0 0.0278791556
C  C30  1  0.41700000  0.03030000  0.75000000  1.0 0.0278791556
C  C31  1  0.38270000  0.35440000  0.25000000  1.0 0.5717043114
C  C32  1  0.02830000  0.38270000  0.75000000  1.0 0.5717043114
C  C33  1  0.64560000  0.02830000  0.25000000  1.0 0.5717043114
C  C34  1  0.61730000  0.64560000  0.75000000  1.0 0.5717043114
C  C35  1  0.97170000  0.61730000  0.25000000  1.0 0.5717043114
C  C36  1  0.35440000  0.97170000  0.75000000  1.0 0.5717043114
C  C37  1  0.55980000  0.77570000  0.54860000  1.0 0.045608618
C  C38  1  0.78410000  0.55980000  0.04860000  1.0 0.045608618
C  C39  1  0.22430000  0.78410000  0.54860000  1.0 0.045608618
C  C40  1  0.44020000  0.22430000  0.04860000  1.0 0.045608618
C  C41  1  0.21590000  0.44020000  0.54860000  1.0 0.045608618
C  C42  1  0.77570000  0.21590000  0.04860000  1.0 0.045608618
C  C43  1  0.44020000  0.22430000  0.45140000  1.0 0.045608618
C  C44  1  0.21590000  0.44020000  0.95140000  1.0 0.045608618
C  C45  1  0.77570000  0.21590000  0.45140000  1.0 0.045608618
C  C46  1  0.55980000  0.77570000  0.95140000  1.0 0.045608618
C  C47  1  0.78410000  0.55980000  0.45140000  1.0 0.045608618
C  C48  1  0.22430000  0.78410000  0.95140000  1.0 0.045608618
C  C49  1  0.51890000  0.76380000  0.48650000  1.0 -0.1577597825
C  C50  1  0.75510000  0.51890000  0.98650000  1.0 -0.1577597825
C  C51  1  0.23620000  0.75510000  0.48650000  1.0 -0.1577597825
C  C52  1  0.48110000  0.23620000  0.98650000  1.0 -0.1577597825
C  C53  1  0.24490000  0.48110000  0.48650000  1.0 -0.1577597825
C  C54  1  0.76380000  0.24490000  0.98650000  1.0 -0.1577597825
C  C55  1  0.48110000  0.23620000  0.51350000  1.0 -0.1577597825
C  C56  1  0.24490000  0.48110000  0.01350000  1.0 -0.1577597825
C  C57  1  0.76380000  0.24490000  0.51350000  1.0 -0.1577597825
C  C58  1  0.51890000  0.76380000  0.01350000  1.0 -0.1577597825
C  C59  1  0.75510000  0.51890000  0.51350000  1.0 -0.1577597825
C  C60  1  0.23620000  0.75510000  0.01350000  1.0 -0.1577597825
C  C61  1  0.49660000  0.71080000  0.43980000  1.0 0.0384437408
C  C62  1  0.78580000  0.49660000  0.93980000  1.0 0.0384437408
C  C63  1  0.28920000  0.78580000  0.43980000  1.0 0.0384437408
C  C64  1  0.50340000  0.28920000  0.93980000  1.0 0.0384437408
C  C65  1  0.21420000  0.50340000  0.43980000  1.0 0.0384437408
C  C66  1  0.71080000  0.21420000  0.93980000  1.0 0.0384437408
C  C67  1  0.50340000  0.28920000  0.56020000  1.0 0.0384437408
C  C68  1  0.21420000  0.50340000  0.06020000  1.0 0.0384437408
C  C69  1  0.71080000  0.21420000  0.56020000  1.0 0.0384437408
C  C70  1  0.49660000  0.71080000  0.06020000  1.0 0.0384437408
C  C71  1  0.78580000  0.49660000  0.56020000  1.0 0.0384437408
C  C72  1  0.28920000  0.78580000  0.06020000  1.0 0.0384437408
C  C73  1  0.51890000  0.67010000  0.45900000  1.0 -0.1819191821
C  C74  1  0.84880000  0.51890000  0.95900000  1.0 -0.1819191821
C  C75  1  0.32990000  0.84880000  0.45900000  1.0 -0.1819191821
C  C76  1  0.48110000  0.32990000  0.95900000  1.0 -0.1819191821
C  C77  1  0.15120000  0.48110000  0.45900000  1.0 -0.1819191821
C  C78  1  0.67010000  0.15120000  0.95900000  1.0 -0.1819191821
C  C79  1  0.48110000  0.32990000  0.54100000  1.0 -0.1819191821
C  C80  1  0.15120000  0.48110000  0.04100000  1.0 -0.1819191821
C  C81  1  0.67010000  0.15120000  0.54100000  1.0 -0.1819191821
C  C82  1  0.51890000  0.67010000  0.04100000  1.0 -0.1819191821
C  C83  1  0.84880000  0.51890000  0.54100000  1.0 -0.1819191821
C  C84  1  0.32990000  0.84880000  0.04100000  1.0 -0.1819191821
C  C85  1  0.56080000  0.68560000  0.52210000  1.0 0.0872547398
C  C86  1  0.87520000  0.56080000  0.02210000  1.0 0.0872547398
C  C87  1  0.31440000  0.87520000  0.52210000  1.0 0.0872547398
C  C88  1  0.43920000  0.31440000  0.02210000  1.0 0.0872547398
C  C89  1  0.12480000  0.43920000  0.52210000  1.0 0.0872547398
C  C90  1  0.68560000  0.12480000  0.02210000  1.0 0.0872547398
C  C91  1  0.43920000  0.31440000  0.47790000  1.0 0.0872547398
C  C92  1  0.12480000  0.43920000  0.97790000  1.0 0.0872547398
C  C93  1  0.68560000  0.12480000  0.47790000  1.0 0.0872547398
C  C94  1  0.56080000  0.68560000  0.97790000  1.0 0.0872547398
C  C95  1  0.87520000  0.56080000  0.47790000  1.0 0.0872547398
C  C96  1  0.31440000  0.87520000  0.97790000  1.0 0.0872547398
C  C97  1  0.45330000  0.69750000  0.36740000  1.0 0.5717043114
C  C98  1  0.75580000  0.45330000  0.86740000  1.0 0.5717043114
C  C99  1  0.30250000  0.75580000  0.36740000  1.0 0.5717043114
C  C100  1  0.54670000  0.30250000  0.86740000  1.0 0.5717043114
C  C101  1  0.24420000  0.54670000  0.36740000  1.0 0.5717043114
C  C102  1  0.69750000  0.24420000  0.86740000  1.0 0.5717043114
C  C103  1  0.54670000  0.30250000  0.63260000  1.0 0.5717043114
C  C104  1  0.24420000  0.54670000  0.13260000  1.0 0.5717043114
C  C105  1  0.69750000  0.24420000  0.63260000  1.0 0.5717043114
C  C106  1  0.45330000  0.69750000  0.13260000  1.0 0.5717043114
C  C107  1  0.75580000  0.45330000  0.63260000  1.0 0.5717043114
C  C108  1  0.30250000  0.75580000  0.13260000  1.0 0.5717043114
C  C109  1  0.73380000  0.71260000  0.57200000  1.0 0.0986273767
C  C110  1  0.02120000  0.73380000  0.07200000  1.0 0.0986273767
C  C111  1  0.28740000  0.02120000  0.57200000  1.0 0.0986273767
C  C112  1  0.26620000  0.28740000  0.07200000  1.0 0.0986273767
C  C113  1  0.97880000  0.26620000  0.57200000  1.0 0.0986273767
C  C114  1  0.71260000  0.97880000  0.07200000  1.0 0.0986273767
C  C115  1  0.26620000  0.28740000  0.42800000  1.0 0.0986273767
C  C116  1  0.97880000  0.26620000  0.92800000  1.0 0.0986273767
C  C117  1  0.71260000  0.97880000  0.42800000  1.0 0.0986273767
C  C118  1  0.73380000  0.71260000  0.92800000  1.0 0.0986273767
C  C119  1  0.02120000  0.73380000  0.42800000  1.0 0.0986273767
C  C120  1  0.28740000  0.02120000  0.92800000  1.0 0.0986273767
C  C121  1  0.76980000  0.70470000  0.51410000  1.0 -0.1525938479
C  C122  1  0.06510000  0.76980000  0.01410000  1.0 -0.1525938479
C  C123  1  0.29530000  0.06510000  0.51410000  1.0 -0.1525938479
C  C124  1  0.23020000  0.29530000  0.01410000  1.0 -0.1525938479
C  C125  1  0.93490000  0.23020000  0.51410000  1.0 -0.1525938479
C  C126  1  0.70470000  0.93490000  0.01410000  1.0 -0.1525938479
C  C127  1  0.23020000  0.29530000  0.48590000  1.0 -0.1525938479
C  C128  1  0.93490000  0.23020000  0.98590000  1.0 -0.1525938479
C  C129  1  0.70470000  0.93490000  0.48590000  1.0 -0.1525938479
C  C130  1  0.76980000  0.70470000  0.98590000  1.0 -0.1525938479
C  C131  1  0.06510000  0.76980000  0.48590000  1.0 -0.1525938479
C  C132  1  0.29530000  0.06510000  0.98590000  1.0 -0.1525938479
C  C133  1  0.78560000  0.73770000  0.44470000  1.0 0.0046716703
C  C134  1  0.04790000  0.78560000  0.94470000  1.0 0.0046716703
C  C135  1  0.26230000  0.04790000  0.44470000  1.0 0.0046716703
C  C136  1  0.21440000  0.26230000  0.94470000  1.0 0.0046716703
C  C137  1  0.95210000  0.21440000  0.44470000  1.0 0.0046716703
C  C138  1  0.73770000  0.95210000  0.94470000  1.0 0.0046716703
C  C139  1  0.21440000  0.26230000  0.55530000  1.0 0.0046716703
C  C140  1  0.95210000  0.21440000  0.05530000  1.0 0.0046716703
C  C141  1  0.73770000  0.95210000  0.55530000  1.0 0.0046716703
C  C142  1  0.78560000  0.73770000  0.05530000  1.0 0.0046716703
C  C143  1  0.04790000  0.78560000  0.55530000  1.0 0.0046716703
C  C144  1  0.26230000  0.04790000  0.05530000  1.0 0.0046716703
C  C145  1  0.76270000  0.78100000  0.43220000  1.0 -0.171515931
C  C146  1  0.98170000  0.76270000  0.93220000  1.0 -0.171515931
C  C147  1  0.21900000  0.98170000  0.43220000  1.0 -0.171515931
C  C148  1  0.23730000  0.21900000  0.93220000  1.0 -0.171515931
C  C149  1  0.01830000  0.23730000  0.43220000  1.0 -0.171515931
C  C150  1  0.78100000  0.01830000  0.93220000  1.0 -0.171515931
C  C151  1  0.23730000  0.21900000  0.56780000  1.0 -0.171515931
C  C152  1  0.01830000  0.23730000  0.06780000  1.0 -0.171515931
C  C153  1  0.78100000  0.01830000  0.56780000  1.0 -0.171515931
C  C154  1  0.76270000  0.78100000  0.06780000  1.0 -0.171515931
C  C155  1  0.98170000  0.76270000  0.56780000  1.0 -0.171515931
C  C156  1  0.21900000  0.98170000  0.06780000  1.0 -0.171515931
C  C157  1  0.72830000  0.78570000  0.49210000  1.0 0.0610429809
C  C158  1  0.94260000  0.72830000  0.99210000  1.0 0.0610429809
C  C159  1  0.21430000  0.94260000  0.49210000  1.0 0.0610429809
C  C160  1  0.27170000  0.21430000  0.99210000  1.0 0.0610429809
C  C161  1  0.05740000  0.27170000  0.49210000  1.0 0.0610429809
C  C162  1  0.78570000  0.05740000  0.99210000  1.0 0.0610429809
C  C163  1  0.27170000  0.21430000  0.50790000  1.0 0.0610429809
C  C164  1  0.05740000  0.27170000  0.00790000  1.0 0.0610429809
C  C165  1  0.78570000  0.05740000  0.50790000  1.0 0.0610429809
C  C166  1  0.72830000  0.78570000  0.00790000  1.0 0.0610429809
C  C167  1  0.94260000  0.72830000  0.50790000  1.0 0.0610429809
C  C168  1  0.21430000  0.94260000  0.00790000  1.0 0.0610429809
C  C169  1  0.82950000  0.73430000  0.38280000  1.0 0.5043603462
C  C170  1  0.09520000  0.82950000  0.88280000  1.0 0.5043603462
C  C171  1  0.26570000  0.09520000  0.38280000  1.0 0.5043603462
C  C172  1  0.17050000  0.26570000  0.88280000  1.0 0.5043603462
C  C173  1  0.90480000  0.17050000  0.38280000  1.0 0.5043603462
C  C174  1  0.73430000  0.90480000  0.88280000  1.0 0.5043603462
C  C175  1  0.17050000  0.26570000  0.61720000  1.0 0.5043603462
C  C176  1  0.90480000  0.17050000  0.11720000  1.0 0.5043603462
C  C177  1  0.73430000  0.90480000  0.61720000  1.0 0.5043603462
C  C178  1  0.82950000  0.73430000  0.11720000  1.0 0.5043603462
C  C179  1  0.09520000  0.82950000  0.61720000  1.0 0.5043603462
C  C180  1  0.26570000  0.09520000  0.11720000  1.0 0.5043603462
C  C181  1  0.93840000  0.13310000  0.79100000  1.0 0.0610429809
C  C182  1  0.80530000  0.93840000  0.29100000  1.0 0.0610429809
C  C183  1  0.86690000  0.80530000  0.79100000  1.0 0.0610429809
C  C184  1  0.06160000  0.86690000  0.29100000  1.0 0.0610429809
C  C185  1  0.19470000  0.06160000  0.79100000  1.0 0.0610429809
C  C186  1  0.13310000  0.19470000  0.29100000  1.0 0.0610429809
C  C187  1  0.06160000  0.86690000  0.20900000  1.0 0.0610429809
C  C188  1  0.19470000  0.06160000  0.70900000  1.0 0.0610429809
C  C189  1  0.13310000  0.19470000  0.20900000  1.0 0.0610429809
C  C190  1  0.93840000  0.13310000  0.70900000  1.0 0.0610429809
C  C191  1  0.80530000  0.93840000  0.20900000  1.0 0.0610429809
C  C192  1  0.86690000  0.80530000  0.70900000  1.0 0.0610429809
C  C193  1  0.93730000  0.18310000  0.76150000  1.0 -0.1992103599
C  C194  1  0.75420000  0.93730000  0.26150000  1.0 -0.1992103599
C  C195  1  0.81690000  0.75420000  0.76150000  1.0 -0.1992103599
C  C196  1  0.06270000  0.81690000  0.26150000  1.0 -0.1992103599
C  C197  1  0.24580000  0.06270000  0.76150000  1.0 -0.1992103599
C  C198  1  0.18310000  0.24580000  0.26150000  1.0 -0.1992103599
C  C199  1  0.06270000  0.81690000  0.23850000  1.0 -0.1992103599
C  C200  1  0.24580000  0.06270000  0.73850000  1.0 -0.1992103599
C  C201  1  0.18310000  0.24580000  0.23850000  1.0 -0.1992103599
C  C202  1  0.93730000  0.18310000  0.73850000  1.0 -0.1992103599
C  C203  1  0.75420000  0.93730000  0.23850000  1.0 -0.1992103599
C  C204  1  0.81690000  0.75420000  0.73850000  1.0 -0.1992103599
N  N1  1  0.38040000  0.52640000  0.25000000  1.0 -0.233383919
N  N2  1  0.85400000  0.38040000  0.75000000  1.0 -0.233383919
N  N3  1  0.47360000  0.85400000  0.25000000  1.0 -0.233383919
N  N4  1  0.61960000  0.47360000  0.75000000  1.0 -0.233383919
N  N5  1  0.14600000  0.61960000  0.25000000  1.0 -0.233383919
N  N6  1  0.52640000  0.14600000  0.75000000  1.0 -0.233383919
N  N7  1  0.58240000  0.73670000  0.56550000  1.0 -0.233383919
N  N8  1  0.84570000  0.58240000  0.06550000  1.0 -0.233383919
N  N9  1  0.26330000  0.84570000  0.56550000  1.0 -0.233383919
N  N10  1  0.41760000  0.26330000  0.06550000  1.0 -0.233383919
N  N11  1  0.15430000  0.41760000  0.56550000  1.0 -0.233383919
N  N12  1  0.73670000  0.15430000  0.06550000  1.0 -0.233383919
N  N13  1  0.41760000  0.26330000  0.43450000  1.0 -0.233383919
N  N14  1  0.15430000  0.41760000  0.93450000  1.0 -0.233383919
N  N15  1  0.73670000  0.15430000  0.43450000  1.0 -0.233383919
N  N16  1  0.58240000  0.73670000  0.93450000  1.0 -0.233383919
N  N17  1  0.84570000  0.58240000  0.43450000  1.0 -0.233383919
N  N18  1  0.26330000  0.84570000  0.93450000  1.0 -0.233383919
N  N19  1  0.71200000  0.75150000  0.56210000  1.0 -0.2621726238
N  N20  1  0.96050000  0.71200000  0.06210000  1.0 -0.2621726238
N  N21  1  0.24850000  0.96050000  0.56210000  1.0 -0.2621726238
N  N22  1  0.28800000  0.24850000  0.06210000  1.0 -0.2621726238
N  N23  1  0.03950000  0.28800000  0.56210000  1.0 -0.2621726238
N  N24  1  0.75150000  0.03950000  0.06210000  1.0 -0.2621726238
N  N25  1  0.28800000  0.24850000  0.43790000  1.0 -0.2621726238
N  N26  1  0.03950000  0.28800000  0.93790000  1.0 -0.2621726238
N  N27  1  0.75150000  0.03950000  0.43790000  1.0 -0.2621726238
N  N28  1  0.71200000  0.75150000  0.93790000  1.0 -0.2621726238
N  N29  1  0.96050000  0.71200000  0.43790000  1.0 -0.2621726238
N  N30  1  0.24850000  0.96050000  0.93790000  1.0 -0.2621726238
O  O1  1  0.33333333  0.66666667  0.25000000  1.0 -0.7844217387
O  O2  1  0.66666667  0.33333333  0.75000000  1.0 -0.7844217387
O  O3  1  0.72220000  0.79150000  0.75000000  1.0 -0.8061826495
O  O4  1  0.93070000  0.72220000  0.25000000  1.0 -0.8061826495
O  O5  1  0.20850000  0.93070000  0.75000000  1.0 -0.8061826495
O  O6  1  0.27780000  0.20850000  0.25000000  1.0 -0.8061826495
O  O7  1  0.06930000  0.27780000  0.75000000  1.0 -0.8061826495
O  O8  1  0.79150000  0.06930000  0.25000000  1.0 -0.8061826495
O  O9  1  0.60120000  0.77520000  0.75000000  1.0 -0.8621037769
O  O10  1  0.82600000  0.60120000  0.25000000  1.0 -0.8621037769
O  O11  1  0.22480000  0.82600000  0.75000000  1.0 -0.8621037769
O  O12  1  0.39880000  0.22480000  0.25000000  1.0 -0.8621037769
O  O13  1  0.17400000  0.39880000  0.75000000  1.0 -0.8621037769
O  O14  1  0.77520000  0.17400000  0.25000000  1.0 -0.8621037769
O  O15  1  0.37890000  0.33000000  0.31850000  1.0 -0.5538065402
O  O16  1  0.04890000  0.37890000  0.81850000  1.0 -0.5538065402
O  O17  1  0.67000000  0.04890000  0.31850000  1.0 -0.5538065402
O  O18  1  0.62110000  0.67000000  0.81850000  1.0 -0.5538065402
O  O19  1  0.95110000  0.62110000  0.31850000  1.0 -0.5538065402
O  O20  1  0.33000000  0.95110000  0.81850000  1.0 -0.5538065402
O  O21  1  0.62110000  0.67000000  0.68150000  1.0 -0.5538065402
O  O22  1  0.95110000  0.62110000  0.18150000  1.0 -0.5538065402
O  O23  1  0.33000000  0.95110000  0.68150000  1.0 -0.5538065402
O  O24  1  0.37890000  0.33000000  0.18150000  1.0 -0.5538065402
O  O25  1  0.04890000  0.37890000  0.68150000  1.0 -0.5538065402
O  O26  1  0.67000000  0.04890000  0.18150000  1.0 -0.5538065402
O  O27  1  0.42630000  0.64440000  0.34170000  1.0 -0.5091512171
O  O28  1  0.78190000  0.42630000  0.84170000  1.0 -0.5091512171
O  O29  1  0.35560000  0.78190000  0.34170000  1.0 -0.5091512171
O  O30  1  0.57370000  0.35560000  0.84170000  1.0 -0.5091512171
O  O31  1  0.21810000  0.57370000  0.34170000  1.0 -0.5091512171
O  O32  1  0.64440000  0.21810000  0.84170000  1.0 -0.5091512171
O  O33  1  0.57370000  0.35560000  0.65830000  1.0 -0.5091512171
O  O34  1  0.21810000  0.57370000  0.15830000  1.0 -0.5091512171
O  O35  1  0.64440000  0.21810000  0.65830000  1.0 -0.5091512171
O  O36  1  0.42630000  0.64440000  0.15830000  1.0 -0.5091512171
O  O37  1  0.78190000  0.42630000  0.65830000  1.0 -0.5091512171
O  O38  1  0.35560000  0.78190000  0.15830000  1.0 -0.5091512171
O  O39  1  0.44770000  0.74190000  0.34450000  1.0 -0.5257714955
O  O40  1  0.70580000  0.44770000  0.84450000  1.0 -0.5257714955
O  O41  1  0.25810000  0.70580000  0.34450000  1.0 -0.5257714955
O  O42  1  0.55230000  0.25810000  0.84450000  1.0 -0.5257714955
O  O43  1  0.29420000  0.55230000  0.34450000  1.0 -0.5257714955
O  O44  1  0.74190000  0.29420000  0.84450000  1.0 -0.5257714955
O  O45  1  0.55230000  0.25810000  0.65550000  1.0 -0.5257714955
O  O46  1  0.29420000  0.55230000  0.15550000  1.0 -0.5257714955
O  O47  1  0.74190000  0.29420000  0.65550000  1.0 -0.5257714955
O  O48  1  0.44770000  0.74190000  0.15550000  1.0 -0.5257714955
O  O49  1  0.70580000  0.44770000  0.65550000  1.0 -0.5257714955
O  O50  1  0.25810000  0.70580000  0.15550000  1.0 -0.5257714955
O  O51  1  0.83320000  0.68690000  0.38420000  1.0 -0.5091512171
O  O52  1  0.14630000  0.83320000  0.88420000  1.0 -0.5091512171
O  O53  1  0.31310000  0.14630000  0.38420000  1.0 -0.5091512171
O  O54  1  0.16680000  0.31310000  0.88420000  1.0 -0.5091512171
O  O55  1  0.85370000  0.16680000  0.38420000  1.0 -0.5091512171
O  O56  1  0.68690000  0.85370000  0.88420000  1.0 -0.5091512171
O  O57  1  0.16680000  0.31310000  0.61580000  1.0 -0.5091512171
O  O58  1  0.85370000  0.16680000  0.11580000  1.0 -0.5091512171
O  O59  1  0.68690000  0.85370000  0.61580000  1.0 -0.5091512171
O  O60  1  0.83320000  0.68690000  0.11580000  1.0 -0.5091512171
O  O61  1  0.14630000  0.83320000  0.61580000  1.0 -0.5091512171
O  O62  1  0.31310000  0.14630000  0.11580000  1.0 -0.5091512171
O  O63  1  0.87160000  0.78870000  0.34960000  1.0 -0.1901366487
O  O64  1  0.08290000  0.87160000  0.84960000  1.0 -0.1901366487
O  O65  1  0.21130000  0.08290000  0.34960000  1.0 -0.1901366487
O  O66  1  0.12840000  0.21130000  0.84960000  1.0 -0.1901366487
O  O67  1  0.91710000  0.12840000  0.34960000  1.0 -0.1901366487
O  O68  1  0.78870000  0.91710000  0.84960000  1.0 -0.1901366487
O  O69  1  0.12840000  0.21130000  0.65040000  1.0 -0.1901366487
O  O70  1  0.91710000  0.12840000  0.15040000  1.0 -0.1901366487
O  O71  1  0.78870000  0.91710000  0.65040000  1.0 -0.1901366487
O  O72  1  0.87160000  0.78870000  0.15040000  1.0 -0.1901366487
O  O73  1  0.08290000  0.87160000  0.65040000  1.0 -0.1901366487
O  O74  1  0.21130000  0.08290000  0.15040000  1.0 -0.1901366487
O  O75  1  0.83420000  0.87020000  0.86570000  1.0 -0.0868077619
O  O76  1  0.96400000  0.83420000  0.36570000  1.0 -0.0868077619
O  O77  1  0.12980000  0.96400000  0.86570000  1.0 -0.0868077619
O  O78  1  0.16580000  0.12980000  0.36570000  1.0 -0.0868077619
O  O79  1  0.03600000  0.16580000  0.86570000  1.0 -0.0868077619
O  O80  1  0.87020000  0.03600000  0.36570000  1.0 -0.0868077619
O  O81  1  0.16580000  0.12980000  0.13430000  1.0 -0.0868077619
O  O82  1  0.03600000  0.16580000  0.63430000  1.0 -0.0868077619
O  O83  1  0.87020000  0.03600000  0.13430000  1.0 -0.0868077619
O  O84  1  0.83420000  0.87020000  0.63430000  1.0 -0.0868077619
O  O85  1  0.96400000  0.83420000  0.13430000  1.0 -0.0868077619
O  O86  1  0.12980000  0.96400000  0.63430000  1.0 -0.0868077619
O  O87  1  0.16090000  0.23490000  0.68290000  1.0 -0.2214746195
O  O88  1  0.92600000  0.16090000  0.18290000  1.0 -0.2214746195
O  O89  1  0.76510000  0.92600000  0.68290000  1.0 -0.2214746195
O  O90  1  0.83910000  0.76510000  0.18290000  1.0 -0.2214746195
O  O91  1  0.07400000  0.83910000  0.68290000  1.0 -0.2214746195
O  O92  1  0.23490000  0.07400000  0.18290000  1.0 -0.2214746195
O  O93  1  0.83910000  0.76510000  0.31710000  1.0 -0.2214746195
O  O94  1  0.07400000  0.83910000  0.81710000  1.0 -0.2214746195
O  O95  1  0.23490000  0.07400000  0.31710000  1.0 -0.2214746195
O  O96  1  0.16090000  0.23490000  0.81710000  1.0 -0.2214746195
O  O97  1  0.92600000  0.16090000  0.31710000  1.0 -0.2214746195
O  O98  1  0.76510000  0.92600000  0.81710000  1.0 -0.2214746195
O  O99  1  0.99690000  0.14900000  0.82250000  1.0 0.0610429809
O  O100  1  0.84790000  0.99690000  0.32250000  1.0 0.0610429809
O  O101  1  0.85100000  0.84790000  0.82250000  1.0 0.0610429809
O  O102  1  0.00310000  0.85100000  0.32250000  1.0 0.0610429809
O  O103  1  0.15210000  0.00310000  0.82250000  1.0 0.0610429809
O  O104  1  0.14900000  0.15210000  0.32250000  1.0 0.0610429809
O  O105  1  0.00310000  0.85100000  0.17750000  1.0 0.0610429809
O  O106  1  0.15210000  0.00310000  0.67750000  1.0 0.0610429809
O  O107  1  0.14900000  0.15210000  0.17750000  1.0 0.0610429809
O  O108  1  0.99690000  0.14900000  0.67750000  1.0 0.0610429809
O  O109  1  0.84790000  0.99690000  0.17750000  1.0 0.0610429809
O  O110  1  0.85100000  0.84790000  0.67750000  1.0 0.0610429809
