# DDEC6 charges by PACMAN v1.1 (https://github.com/mtap-research/PACMAN-charge/)
data_LASREF_ASR_pacman
_symmetry_space_group_name_H-M   'P 1'
_cell_length_a   17.51230000
_cell_length_b   18.10040000
_cell_length_c   18.10840000
_cell_angle_alpha   90.00000000
_cell_angle_beta   92.11800000
_cell_angle_gamma   90.00000000
_symmetry_Int_Tables_number   1
_chemical_formula_structural   ZnCu3H3C9BrO18
_chemical_formula_sum   'Zn4 Cu12 H12 C36 Br4 O72'
_cell_volume   5736.07264364
_cell_formula_units_Z   4
loop_
 _symmetry_equiv_pos_site_id
 _symmetry_equiv_pos_as_xyz
  1  'x, y, z'
loop_
 _atom_site_type_symbol
 _atom_site_label
 _atom_site_symmetry_multiplicity
 _atom_site_fract_x
 _atom_site_fract_y
 _atom_site_fract_z
 _atom_site_occupancy
 _atom_site_charge
Zn  Zn1  1  0.39361000  0.19194000  0.87027000  1.0 0.9877277514
Zn  Zn2  1  0.60639000  0.69194000  0.12973000  1.0 0.9877277514
Zn  Zn3  1  0.11137000  0.98648000  0.36542000  1.0 0.996472468
Zn  Zn4  1  0.88863000  0.48648000  0.63458000  1.0 0.996472468
Cu  Cu1  1  0.30628000  0.04195000  0.13208000  1.0 0.9254094164
Cu  Cu2  1  0.69372000  0.54195000  0.86792000  1.0 0.9254094164
Cu  Cu3  1  0.43889000  0.94668000  0.05099000  1.0 0.937146162
Cu  Cu4  1  0.56111000  0.44668000  0.94901000  1.0 0.937146162
Cu  Cu5  1  0.36951000  0.88522000  0.20804000  1.0 0.937146162
Cu  Cu6  1  0.63049000  0.38522000  0.79196000  1.0 0.937146162
Cu  Cu7  1  0.19724000  0.13811000  0.62950000  1.0 0.9215806206
Cu  Cu8  1  0.80276000  0.63811000  0.37050000  1.0 0.9254094164
Cu  Cu9  1  0.05542000  0.23336000  0.54486000  1.0 0.9215806206
Cu  Cu10  1  0.94458000  0.73336000  0.45514000  1.0 0.9215806206
Cu  Cu11  1  0.13161000  0.29319000  0.70450000  1.0 0.9215806206
Cu  Cu12  1  0.86839000  0.79319000  0.29550000  1.0 0.9215806206
H  H1  1  0.44620000  0.18850000  0.02790000  1.0 0.3812794487
H  H2  1  0.55380000  0.68850000  0.97210000  1.0 0.3812794487
H  H3  1  0.61080000  0.84350000  0.17080000  1.0 0.3727678756
H  H4  1  0.38920000  0.34350000  0.82920000  1.0 0.3727678756
H  H5  1  0.27880000  0.02660000  0.37060000  1.0 0.3812794487
H  H6  1  0.72120000  0.52660000  0.62940000  1.0 0.3812794487
H  H7  1  0.05890000  0.99260000  0.51410000  1.0 0.3812794487
H  H8  1  0.94110000  0.49260000  0.48590000  1.0 0.3812794487
H  H9  1  0.88420000  0.32780000  0.67260000  1.0 0.3812794487
H  H10  1  0.11580000  0.82780000  0.32740000  1.0 0.3727678756
H  H11  1  0.22910000  0.15120000  0.86900000  1.0 0.3812794487
H  H12  1  0.77090000  0.65120000  0.13100000  1.0 0.3812794487
C  C1  1  0.32330000  0.12020000  0.00690000  1.0 0.5480842094
C  C2  1  0.67670000  0.62020000  0.99310000  1.0 0.5480842094
C  C3  1  0.51660000  0.81920000  0.06610000  1.0 0.5408303298
C  C4  1  0.48340000  0.31920000  0.93390000  1.0 0.5408303298
C  C5  1  0.25140000  0.91330000  0.29670000  1.0 0.5408303298
C  C6  1  0.74860000  0.41330000  0.70330000  1.0 0.5408303298
C  C7  1  0.18000000  0.06300000  0.50100000  1.0 0.5408303298
C  C8  1  0.82000000  0.56300000  0.49900000  1.0 0.5408303298
C  C9  1  0.96930000  0.35480000  0.56560000  1.0 0.5620986422
C  C10  1  0.03070000  0.85480000  0.43440000  1.0 0.5620986422
C  C11  1  0.25470000  0.26540000  0.79580000  1.0 0.5408303298
C  C12  1  0.74530000  0.76540000  0.20420000  1.0 0.5408303298
C  C13  1  0.40380000  0.09450000  0.02790000  1.0 0.2487580528
C  C14  1  0.59620000  0.59450000  0.97210000  1.0 0.2487580528
C  C15  1  0.50870000  0.84720000  0.14720000  1.0 0.2875799289
C  C16  1  0.49130000  0.34720000  0.85280000  1.0 0.2875799289
C  C17  1  0.28050000  0.99310000  0.27490000  1.0 0.3000379627
C  C18  1  0.71950000  0.49310000  0.72510000  1.0 0.3000379627
C  C19  1  0.09980000  0.08940000  0.52020000  1.0 0.3000379627
C  C20  1  0.90020000  0.58940000  0.47980000  1.0 0.3000379627
C  C21  1  0.98610000  0.32850000  0.64770000  1.0 0.2332058226
C  C22  1  0.01390000  0.82850000  0.35230000  1.0 0.2332058226
C  C23  1  0.22800000  0.18720000  0.77280000  1.0 0.2875799289
C  C24  1  0.77200000  0.68720000  0.22720000  1.0 0.2875799289
C  C25  1  0.44410000  0.06520000  0.96060000  1.0 0.5480842094
C  C26  1  0.55590000  0.56520000  0.03940000  1.0 0.5480842094
C  C27  1  0.48210000  0.78090000  0.19470000  1.0 0.5408303298
C  C28  1  0.51790000  0.28090000  0.80530000  1.0 0.5408303298
C  C29  1  0.21230000  0.03990000  0.24740000  1.0 0.5325918992
C  C30  1  0.78770000  0.53990000  0.75260000  1.0 0.5325918992
C  C31  1  0.05360000  0.11710000  0.44830000  1.0 0.5480842094
C  C32  1  0.94640000  0.61710000  0.55170000  1.0 0.5480842094
C  C33  1  0.01390000  0.38930000  0.69660000  1.0 0.5408303298
C  C34  1  0.98610000  0.88930000  0.30340000  1.0 0.5408303298
C  C35  1  0.29660000  0.13860000  0.74800000  1.0 0.5408303298
C  C36  1  0.70340000  0.63860000  0.25200000  1.0 0.5408303298
Br  Br1  1  0.28290000  0.89844000  0.07416000  1.0 -0.7130015592
Br  Br2  1  0.71710000  0.39844000  0.92584000  1.0 -0.7130015592
Br  Br3  1  0.20344000  0.29588000  0.57480000  1.0 -0.700852553
Br  Br4  1  0.79656000  0.79588000  0.42520000  1.0 -0.700852553
O  O1  1  0.27170000  0.10530000  0.04970000  1.0 -0.4306570336
O  O2  1  0.72830000  0.60530000  0.95030000  1.0 -0.4306570336
O  O3  1  0.48480000  0.85820000  0.01540000  1.0 -0.4507540266
O  O4  1  0.51520000  0.35820000  0.98460000  1.0 -0.4507540266
O  O5  1  0.29180000  0.85910000  0.27580000  1.0 -0.4507540266
O  O6  1  0.70820000  0.35910000  0.72420000  1.0 -0.4507540266
O  O7  1  0.23310000  0.08420000  0.54400000  1.0 -0.4306570336
O  O8  1  0.76690000  0.58420000  0.45600000  1.0 -0.4306570336
O  O9  1  0.99820000  0.31780000  0.51450000  1.0 -0.4507540266
O  O10  1  0.00180000  0.81780000  0.48550000  1.0 -0.4507540266
O  O11  1  0.21560000  0.31930000  0.77110000  1.0 -0.4413383136
O  O12  1  0.78440000  0.81930000  0.22890000  1.0 -0.4413383136
O  O13  1  0.31160000  0.15960000  0.94870000  1.0 -0.5162513951
O  O14  1  0.68840000  0.65960000  0.05130000  1.0 -0.5162513951
O  O15  1  0.55720000  0.76370000  0.05410000  1.0 -0.4914253513
O  O16  1  0.44280000  0.26370000  0.94590000  1.0 -0.49598519
O  O17  1  0.19460000  0.90550000  0.33550000  1.0 -0.4816189656
O  O18  1  0.80540000  0.40550000  0.66450000  1.0 -0.4816189656
O  O19  1  0.19240000  0.02660000  0.44380000  1.0 -0.4914253513
O  O20  1  0.80760000  0.52660000  0.55620000  1.0 -0.4914253513
O  O21  1  0.92840000  0.41200000  0.55490000  1.0 -0.5087284843
O  O22  1  0.07160000  0.91200000  0.44510000  1.0 -0.5087284843
O  O23  1  0.31290000  0.27170000  0.83760000  1.0 -0.4914253513
O  O24  1  0.68710000  0.77170000  0.16240000  1.0 -0.4914253513
O  O25  1  0.40150000  0.04030000  0.08360000  1.0 -0.5815814137
O  O26  1  0.59850000  0.54030000  0.91640000  1.0 -0.5815814137
O  O27  1  0.45530000  0.90390000  0.14900000  1.0 -0.5815814137
O  O28  1  0.54470000  0.40390000  0.85100000  1.0 -0.5815814137
O  O29  1  0.33490000  0.98660000  0.22310000  1.0 -0.5651148359
O  O30  1  0.66510000  0.48660000  0.77690000  1.0 -0.5599536895
O  O31  1  0.10110000  0.14020000  0.57460000  1.0 -0.5442256132
O  O32  1  0.89890000  0.64020000  0.42540000  1.0 -0.5462565819
O  O33  1  0.04030000  0.27110000  0.64570000  1.0 -0.5815814137
O  O34  1  0.95970000  0.77110000  0.35430000  1.0 -0.5815814137
O  O35  1  0.17070000  0.19020000  0.71930000  1.0 -0.5599536895
O  O36  1  0.82930000  0.69020000  0.28070000  1.0 -0.5599536895
O  O37  1  0.44530000  0.15500000  0.05840000  1.0 -0.3703294197
O  O38  1  0.55470000  0.65500000  0.94160000  1.0 -0.3703294197
O  O39  1  0.57810000  0.87580000  0.17170000  1.0 -0.3583269442
O  O40  1  0.42190000  0.37580000  0.82830000  1.0 -0.3583269442
O  O41  1  0.31140000  0.02520000  0.33930000  1.0 -0.3703294197
O  O42  1  0.68860000  0.52520000  0.66070000  1.0 -0.3703294197
O  O43  1  0.06080000  0.02400000  0.54670000  1.0 -0.3703294197
O  O44  1  0.93920000  0.52400000  0.45330000  1.0 -0.3703294197
O  O45  1  0.91770000  0.29620000  0.67160000  1.0 -0.3583269442
O  O46  1  0.08230000  0.79620000  0.32840000  1.0 -0.3583269442
O  O47  1  0.19620000  0.15410000  0.83560000  1.0 -0.3703294197
O  O48  1  0.80380000  0.65410000  0.16440000  1.0 -0.3703294197
O  O49  1  0.45940000  0.10780000  0.90960000  1.0 -0.4306570336
O  O50  1  0.54060000  0.60780000  0.09040000  1.0 -0.4306570336
O  O51  1  0.52430000  0.72660000  0.20340000  1.0 -0.4413383136
O  O52  1  0.47570000  0.22660000  0.79660000  1.0 -0.4413383136
O  O53  1  0.21800000  0.07030000  0.18370000  1.0 -0.4413383136
O  O54  1  0.78200000  0.57030000  0.81630000  1.0 -0.4413383136
O  O55  1  0.04240000  0.07230000  0.39750000  1.0 -0.4413383136
O  O56  1  0.95760000  0.57230000  0.60250000  1.0 -0.4413383136
O  O57  1  0.96950000  0.44510000  0.70620000  1.0 -0.4816189656
O  O58  1  0.03050000  0.94510000  0.29380000  1.0 -0.4816189656
O  O59  1  0.35100000  0.12560000  0.79060000  1.0 -0.4306570336
O  O60  1  0.64900000  0.62560000  0.20940000  1.0 -0.4306570336
O  O61  1  0.46430000  0.99660000  0.96030000  1.0 -0.4622862736
O  O62  1  0.53570000  0.49660000  0.03970000  1.0 -0.4622862736
O  O63  1  0.41920000  0.79010000  0.22610000  1.0 -0.4507540266
O  O64  1  0.58080000  0.29010000  0.77390000  1.0 -0.4507540266
O  O65  1  0.15550000  0.05120000  0.28480000  1.0 -0.4306570336
O  O66  1  0.84450000  0.55120000  0.71520000  1.0 -0.4306570336
O  O67  1  0.03510000  0.18290000  0.45110000  1.0 -0.4413383136
O  O68  1  0.96490000  0.68290000  0.54890000  1.0 -0.4413383136
O  O69  1  0.07810000  0.38380000  0.72650000  1.0 -0.4244745175
O  O70  1  0.92190000  0.88380000  0.27350000  1.0 -0.4306570336
O  O71  1  0.29010000  0.11550000  0.68010000  1.0 -0.4655050436
O  O72  1  0.70990000  0.61550000  0.31990000  1.0 -0.4655050436
