# DDEC6 charges by PACMAN v1.1 (https://github.com/mtap-research/PACMAN-charge/)
data_LATBUG_ASR_pacman
_symmetry_space_group_name_H-M   'P 1'
_cell_length_a   36.12260000
_cell_length_b   36.12260000
_cell_length_c   36.12260000
_cell_angle_alpha   90.00000000
_cell_angle_beta   90.00000000
_cell_angle_gamma   90.00000000
_symmetry_Int_Tables_number   1
_chemical_formula_structural   Fe3H42C72N3O13
_chemical_formula_sum   'Fe24 H336 C576 N24 O104'
_cell_volume   47134.29396485
_cell_formula_units_Z   8
loop_
 _symmetry_equiv_pos_site_id
 _symmetry_equiv_pos_as_xyz
  1  'x, y, z'
loop_
 _atom_site_type_symbol
 _atom_site_label
 _atom_site_symmetry_multiplicity
 _atom_site_fract_x
 _atom_site_fract_y
 _atom_site_fract_z
 _atom_site_occupancy
 _atom_site_charge
Fe  Fe1  1  0.28746000  0.21254000  0.25000000  1.0 1.1640425534
Fe  Fe2  1  0.28746000  0.78746000  0.75000000  1.0 1.1640425534
Fe  Fe3  1  0.71254000  0.78746000  0.25000000  1.0 1.1660150088
Fe  Fe4  1  0.71254000  0.21254000  0.75000000  1.0 1.1640425534
Fe  Fe5  1  0.78746000  0.25000000  0.71254000  1.0 1.1640425534
Fe  Fe6  1  0.78746000  0.75000000  0.28746000  1.0 1.1660150088
Fe  Fe7  1  0.75000000  0.71254000  0.21254000  1.0 1.1660150088
Fe  Fe8  1  0.25000000  0.71254000  0.78746000  1.0 1.1640425534
Fe  Fe9  1  0.25000000  0.28746000  0.21254000  1.0 1.1640425534
Fe  Fe10  1  0.21254000  0.25000000  0.28746000  1.0 1.1640425534
Fe  Fe11  1  0.75000000  0.28746000  0.78746000  1.0 1.1640425534
Fe  Fe12  1  0.21254000  0.75000000  0.71254000  1.0 1.1640425534
Fe  Fe13  1  0.71254000  0.78746000  0.75000000  1.0 1.1660150088
Fe  Fe14  1  0.71254000  0.21254000  0.25000000  1.0 1.1660150088
Fe  Fe15  1  0.28746000  0.21254000  0.75000000  1.0 1.1640425534
Fe  Fe16  1  0.28746000  0.78746000  0.25000000  1.0 1.1640425534
Fe  Fe17  1  0.21254000  0.75000000  0.28746000  1.0 1.1640425534
Fe  Fe18  1  0.21254000  0.25000000  0.71254000  1.0 1.1640425534
Fe  Fe19  1  0.25000000  0.28746000  0.78746000  1.0 1.1640425534
Fe  Fe20  1  0.75000000  0.28746000  0.21254000  1.0 1.1660150088
Fe  Fe21  1  0.75000000  0.71254000  0.78746000  1.0 1.1660150088
Fe  Fe22  1  0.78746000  0.75000000  0.71254000  1.0 1.1660150088
Fe  Fe23  1  0.25000000  0.71254000  0.21254000  1.0 1.1640425534
Fe  Fe24  1  0.78746000  0.25000000  0.28746000  1.0 1.1660150088
H  H1  1  0.29690000  0.15570000  0.15280000  1.0 0.1382856804
H  H2  1  0.34430000  0.79690000  0.65280000  1.0 0.1382856804
H  H3  1  0.70310000  0.84430000  0.15280000  1.0 0.1382856804
H  H4  1  0.65570000  0.20310000  0.65280000  1.0 0.1382856804
H  H5  1  0.79690000  0.34720000  0.65570000  1.0 0.1382856804
H  H6  1  0.29690000  0.84430000  0.84720000  1.0 0.1382856804
H  H7  1  0.79690000  0.65280000  0.34430000  1.0 0.1382856804
H  H8  1  0.65280000  0.65570000  0.20310000  1.0 0.1382856804
H  H9  1  0.70310000  0.15570000  0.84720000  1.0 0.1382856804
H  H10  1  0.34720000  0.65570000  0.79690000  1.0 0.1382856804
H  H11  1  0.15280000  0.29690000  0.15570000  1.0 0.1382856804
H  H12  1  0.15570000  0.15280000  0.29690000  1.0 0.1382856804
H  H13  1  0.84430000  0.84720000  0.29690000  1.0 0.1382856804
H  H14  1  0.15280000  0.70310000  0.84430000  1.0 0.1382856804
H  H15  1  0.84430000  0.15280000  0.70310000  1.0 0.1382856804
H  H16  1  0.84720000  0.70310000  0.15570000  1.0 0.1382856804
H  H17  1  0.84720000  0.29690000  0.84430000  1.0 0.1382856804
H  H18  1  0.15570000  0.84720000  0.70310000  1.0 0.1382856804
H  H19  1  0.65570000  0.79690000  0.34720000  1.0 0.1382856804
H  H20  1  0.34430000  0.20310000  0.34720000  1.0 0.1382856804
H  H21  1  0.20310000  0.65280000  0.65570000  1.0 0.1382856804
H  H22  1  0.20310000  0.34720000  0.34430000  1.0 0.1382856804
H  H23  1  0.65280000  0.34430000  0.79690000  1.0 0.1382856804
H  H24  1  0.34720000  0.34430000  0.20310000  1.0 0.1382856804
H  H25  1  0.70310000  0.84430000  0.84720000  1.0 0.1382856804
H  H26  1  0.65570000  0.20310000  0.34720000  1.0 0.1382856804
H  H27  1  0.29690000  0.15570000  0.84720000  1.0 0.1382856804
H  H28  1  0.34430000  0.79690000  0.34720000  1.0 0.1382856804
H  H29  1  0.20310000  0.65280000  0.34430000  1.0 0.1382856804
H  H30  1  0.70310000  0.15570000  0.15280000  1.0 0.1382856804
H  H31  1  0.20310000  0.34720000  0.65570000  1.0 0.1382856804
H  H32  1  0.34720000  0.34430000  0.79690000  1.0 0.1382856804
H  H33  1  0.29690000  0.84430000  0.15280000  1.0 0.1382856804
H  H34  1  0.65280000  0.34430000  0.20310000  1.0 0.1382856804
H  H35  1  0.84720000  0.70310000  0.84430000  1.0 0.1382856804
H  H36  1  0.84430000  0.84720000  0.70310000  1.0 0.1382856804
H  H37  1  0.15570000  0.15280000  0.70310000  1.0 0.1382856804
H  H38  1  0.84720000  0.29690000  0.15570000  1.0 0.1382856804
H  H39  1  0.15570000  0.84720000  0.29690000  1.0 0.1382856804
H  H40  1  0.15280000  0.29690000  0.84430000  1.0 0.1382856804
H  H41  1  0.15280000  0.70310000  0.15570000  1.0 0.1382856804
H  H42  1  0.84430000  0.15280000  0.29690000  1.0 0.1382856804
H  H43  1  0.34430000  0.20310000  0.65280000  1.0 0.1382856804
H  H44  1  0.65570000  0.79690000  0.65280000  1.0 0.1382856804
H  H45  1  0.79690000  0.34720000  0.34430000  1.0 0.1382856804
H  H46  1  0.79690000  0.65280000  0.65570000  1.0 0.1382856804
H  H47  1  0.34720000  0.65570000  0.20310000  1.0 0.1382856804
H  H48  1  0.65280000  0.65570000  0.79690000  1.0 0.1382856804
H  H49  1  0.24570000  0.23920000  0.10060000  1.0 0.1382856804
H  H50  1  0.26080000  0.74570000  0.60060000  1.0 0.1382856804
H  H51  1  0.75430000  0.76080000  0.10060000  1.0 0.1382856804
H  H52  1  0.73920000  0.25430000  0.60060000  1.0 0.1382856804
H  H53  1  0.74570000  0.39940000  0.73920000  1.0 0.1382856804
H  H54  1  0.24570000  0.76080000  0.89940000  1.0 0.1382856804
H  H55  1  0.74570000  0.60060000  0.26080000  1.0 0.1382856804
H  H56  1  0.60060000  0.73920000  0.25430000  1.0 0.1382856804
H  H57  1  0.75430000  0.23920000  0.89940000  1.0 0.1382856804
H  H58  1  0.39940000  0.73920000  0.74570000  1.0 0.1382856804
H  H59  1  0.10060000  0.24570000  0.23920000  1.0 0.1382856804
H  H60  1  0.23920000  0.10060000  0.24570000  1.0 0.1382856804
H  H61  1  0.76080000  0.89940000  0.24570000  1.0 0.1382856804
H  H62  1  0.10060000  0.75430000  0.76080000  1.0 0.1382856804
H  H63  1  0.76080000  0.10060000  0.75430000  1.0 0.1382856804
H  H64  1  0.89940000  0.75430000  0.23920000  1.0 0.1382856804
H  H65  1  0.89940000  0.24570000  0.76080000  1.0 0.1382856804
H  H66  1  0.23920000  0.89940000  0.75430000  1.0 0.1382856804
H  H67  1  0.73920000  0.74570000  0.39940000  1.0 0.1382856804
H  H68  1  0.26080000  0.25430000  0.39940000  1.0 0.1382856804
H  H69  1  0.25430000  0.60060000  0.73920000  1.0 0.1382856804
H  H70  1  0.25430000  0.39940000  0.26080000  1.0 0.1382856804
H  H71  1  0.60060000  0.26080000  0.74570000  1.0 0.1382856804
H  H72  1  0.39940000  0.26080000  0.25430000  1.0 0.1382856804
H  H73  1  0.75430000  0.76080000  0.89940000  1.0 0.1382856804
H  H74  1  0.73920000  0.25430000  0.39940000  1.0 0.1382856804
H  H75  1  0.24570000  0.23920000  0.89940000  1.0 0.1382856804
H  H76  1  0.26080000  0.74570000  0.39940000  1.0 0.1382856804
H  H77  1  0.25430000  0.60060000  0.26080000  1.0 0.1382856804
H  H78  1  0.75430000  0.23920000  0.10060000  1.0 0.1382856804
H  H79  1  0.25430000  0.39940000  0.73920000  1.0 0.1382856804
H  H80  1  0.39940000  0.26080000  0.74570000  1.0 0.1382856804
H  H81  1  0.24570000  0.76080000  0.10060000  1.0 0.1382856804
H  H82  1  0.60060000  0.26080000  0.25430000  1.0 0.1382856804
H  H83  1  0.89940000  0.75430000  0.76080000  1.0 0.1382856804
H  H84  1  0.76080000  0.89940000  0.75430000  1.0 0.1382856804
H  H85  1  0.23920000  0.10060000  0.75430000  1.0 0.1382856804
H  H86  1  0.89940000  0.24570000  0.23920000  1.0 0.1382856804
H  H87  1  0.23920000  0.89940000  0.24570000  1.0 0.1382856804
H  H88  1  0.10060000  0.24570000  0.76080000  1.0 0.1382856804
H  H89  1  0.10060000  0.75430000  0.23920000  1.0 0.1382856804
H  H90  1  0.76080000  0.10060000  0.24570000  1.0 0.1382856804
H  H91  1  0.26080000  0.25430000  0.60060000  1.0 0.1382856804
H  H92  1  0.73920000  0.74570000  0.60060000  1.0 0.1382856804
H  H93  1  0.74570000  0.39940000  0.26080000  1.0 0.1382856804
H  H94  1  0.74570000  0.60060000  0.73920000  1.0 0.1382856804
H  H95  1  0.39940000  0.73920000  0.25430000  1.0 0.1382856804
H  H96  1  0.60060000  0.73920000  0.74570000  1.0 0.1382856804
H  H97  1  0.29690000  0.12210000  0.09970000  1.0 0.1220669031
H  H98  1  0.37790000  0.79690000  0.59970000  1.0 0.1220669031
H  H99  1  0.70310000  0.87790000  0.09970000  1.0 0.1220669031
H  H100  1  0.62210000  0.20310000  0.59970000  1.0 0.1220669031
H  H101  1  0.79690000  0.40030000  0.62210000  1.0 0.1220669031
H  H102  1  0.29690000  0.87790000  0.90030000  1.0 0.1220669031
H  H103  1  0.79690000  0.59970000  0.37790000  1.0 0.1220669031
H  H104  1  0.59970000  0.62210000  0.20310000  1.0 0.1220669031
H  H105  1  0.70310000  0.12210000  0.90030000  1.0 0.1220669031
H  H106  1  0.40030000  0.62210000  0.79690000  1.0 0.1220669031
H  H107  1  0.09970000  0.29690000  0.12210000  1.0 0.1220669031
H  H108  1  0.12210000  0.09970000  0.29690000  1.0 0.1220669031
H  H109  1  0.87790000  0.90030000  0.29690000  1.0 0.1220669031
H  H110  1  0.09970000  0.70310000  0.87790000  1.0 0.1220669031
H  H111  1  0.87790000  0.09970000  0.70310000  1.0 0.1220669031
H  H112  1  0.90030000  0.70310000  0.12210000  1.0 0.1220669031
H  H113  1  0.90030000  0.29690000  0.87790000  1.0 0.1220669031
H  H114  1  0.12210000  0.90030000  0.70310000  1.0 0.1220669031
H  H115  1  0.62210000  0.79690000  0.40030000  1.0 0.1220669031
H  H116  1  0.37790000  0.20310000  0.40030000  1.0 0.1220669031
H  H117  1  0.20310000  0.59970000  0.62210000  1.0 0.1220669031
H  H118  1  0.20310000  0.40030000  0.37790000  1.0 0.1220669031
H  H119  1  0.59970000  0.37790000  0.79690000  1.0 0.1220669031
H  H120  1  0.40030000  0.37790000  0.20310000  1.0 0.1220669031
H  H121  1  0.70310000  0.87790000  0.90030000  1.0 0.1220669031
H  H122  1  0.62210000  0.20310000  0.40030000  1.0 0.1220669031
H  H123  1  0.29690000  0.12210000  0.90030000  1.0 0.1220669031
H  H124  1  0.37790000  0.79690000  0.40030000  1.0 0.1220669031
H  H125  1  0.20310000  0.59970000  0.37790000  1.0 0.1220669031
H  H126  1  0.70310000  0.12210000  0.09970000  1.0 0.1220669031
H  H127  1  0.20310000  0.40030000  0.62210000  1.0 0.1220669031
H  H128  1  0.40030000  0.37790000  0.79690000  1.0 0.1220669031
H  H129  1  0.29690000  0.87790000  0.09970000  1.0 0.1220669031
H  H130  1  0.59970000  0.37790000  0.20310000  1.0 0.1220669031
H  H131  1  0.90030000  0.70310000  0.87790000  1.0 0.1220669031
H  H132  1  0.87790000  0.90030000  0.70310000  1.0 0.1220669031
H  H133  1  0.12210000  0.09970000  0.70310000  1.0 0.1220669031
H  H134  1  0.90030000  0.29690000  0.12210000  1.0 0.1220669031
H  H135  1  0.12210000  0.90030000  0.29690000  1.0 0.1220669031
H  H136  1  0.09970000  0.29690000  0.87790000  1.0 0.1220669031
H  H137  1  0.09970000  0.70310000  0.12210000  1.0 0.1220669031
H  H138  1  0.87790000  0.09970000  0.29690000  1.0 0.1220669031
H  H139  1  0.37790000  0.20310000  0.59970000  1.0 0.1220669031
H  H140  1  0.62210000  0.79690000  0.59970000  1.0 0.1220669031
H  H141  1  0.79690000  0.40030000  0.37790000  1.0 0.1220669031
H  H142  1  0.79690000  0.59970000  0.62210000  1.0 0.1220669031
H  H143  1  0.40030000  0.62210000  0.20310000  1.0 0.1220669031
H  H144  1  0.59970000  0.62210000  0.79690000  1.0 0.1220669031
H  H145  1  0.27100000  0.08740000  0.05630000  1.0 0.1100904556
H  H146  1  0.41260000  0.77100000  0.55630000  1.0 0.1100904556
H  H147  1  0.72900000  0.91260000  0.05630000  1.0 0.1100904556
H  H148  1  0.58740000  0.22900000  0.55630000  1.0 0.1100904556
H  H149  1  0.77100000  0.44370000  0.58740000  1.0 0.1100904556
H  H150  1  0.27100000  0.91260000  0.94370000  1.0 0.1100904556
H  H151  1  0.77100000  0.55630000  0.41260000  1.0 0.1100904556
H  H152  1  0.55630000  0.58740000  0.22900000  1.0 0.1100904556
H  H153  1  0.72900000  0.08740000  0.94370000  1.0 0.1100904556
H  H154  1  0.44370000  0.58740000  0.77100000  1.0 0.1100904556
H  H155  1  0.05630000  0.27100000  0.08740000  1.0 0.1100904556
H  H156  1  0.08740000  0.05630000  0.27100000  1.0 0.1100904556
H  H157  1  0.91260000  0.94370000  0.27100000  1.0 0.1100904556
H  H158  1  0.05630000  0.72900000  0.91260000  1.0 0.1100904556
H  H159  1  0.91260000  0.05630000  0.72900000  1.0 0.1100904556
H  H160  1  0.94370000  0.72900000  0.08740000  1.0 0.1100904556
H  H161  1  0.94370000  0.27100000  0.91260000  1.0 0.1100904556
H  H162  1  0.08740000  0.94370000  0.72900000  1.0 0.1100904556
H  H163  1  0.58740000  0.77100000  0.44370000  1.0 0.1100904556
H  H164  1  0.41260000  0.22900000  0.44370000  1.0 0.1100904556
H  H165  1  0.22900000  0.55630000  0.58740000  1.0 0.1100904556
H  H166  1  0.22900000  0.44370000  0.41260000  1.0 0.1100904556
H  H167  1  0.55630000  0.41260000  0.77100000  1.0 0.1100904556
H  H168  1  0.44370000  0.41260000  0.22900000  1.0 0.1100904556
H  H169  1  0.72900000  0.91260000  0.94370000  1.0 0.1100904556
H  H170  1  0.58740000  0.22900000  0.44370000  1.0 0.1100904556
H  H171  1  0.27100000  0.08740000  0.94370000  1.0 0.1100904556
H  H172  1  0.41260000  0.77100000  0.44370000  1.0 0.1100904556
H  H173  1  0.22900000  0.55630000  0.41260000  1.0 0.1100904556
H  H174  1  0.72900000  0.08740000  0.05630000  1.0 0.1100904556
H  H175  1  0.22900000  0.44370000  0.58740000  1.0 0.1100904556
H  H176  1  0.44370000  0.41260000  0.77100000  1.0 0.1100904556
H  H177  1  0.27100000  0.91260000  0.05630000  1.0 0.1100904556
H  H178  1  0.55630000  0.41260000  0.22900000  1.0 0.1100904556
H  H179  1  0.94370000  0.72900000  0.91260000  1.0 0.1100904556
H  H180  1  0.91260000  0.94370000  0.72900000  1.0 0.1100904556
H  H181  1  0.08740000  0.05630000  0.72900000  1.0 0.1100904556
H  H182  1  0.94370000  0.27100000  0.08740000  1.0 0.1100904556
H  H183  1  0.08740000  0.94370000  0.27100000  1.0 0.1100904556
H  H184  1  0.05630000  0.27100000  0.91260000  1.0 0.1100904556
H  H185  1  0.05630000  0.72900000  0.08740000  1.0 0.1100904556
H  H186  1  0.91260000  0.05630000  0.27100000  1.0 0.1100904556
H  H187  1  0.41260000  0.22900000  0.55630000  1.0 0.1100904556
H  H188  1  0.58740000  0.77100000  0.55630000  1.0 0.1100904556
H  H189  1  0.77100000  0.44370000  0.41260000  1.0 0.1100904556
H  H190  1  0.77100000  0.55630000  0.58740000  1.0 0.1100904556
H  H191  1  0.44370000  0.58740000  0.22900000  1.0 0.1100904556
H  H192  1  0.55630000  0.58740000  0.77100000  1.0 0.1100904556
H  H193  1  0.24700000  0.20520000  0.04550000  1.0 0.1262927867
H  H194  1  0.29480000  0.74700000  0.54550000  1.0 0.1262927867
H  H195  1  0.75300000  0.79480000  0.04550000  1.0 0.1262927867
H  H196  1  0.70520000  0.25300000  0.54550000  1.0 0.1262927867
H  H197  1  0.74700000  0.45450000  0.70520000  1.0 0.1262927867
H  H198  1  0.24700000  0.79480000  0.95450000  1.0 0.1262927867
H  H199  1  0.74700000  0.54550000  0.29480000  1.0 0.1262927867
H  H200  1  0.54550000  0.70520000  0.25300000  1.0 0.1262927867
H  H201  1  0.75300000  0.20520000  0.95450000  1.0 0.1262927867
H  H202  1  0.45450000  0.70520000  0.74700000  1.0 0.1262927867
H  H203  1  0.04550000  0.24700000  0.20520000  1.0 0.1262927867
H  H204  1  0.20520000  0.04550000  0.24700000  1.0 0.1262927867
H  H205  1  0.79480000  0.95450000  0.24700000  1.0 0.1262927867
H  H206  1  0.04550000  0.75300000  0.79480000  1.0 0.1262927867
H  H207  1  0.79480000  0.04550000  0.75300000  1.0 0.1262927867
H  H208  1  0.95450000  0.75300000  0.20520000  1.0 0.1262927867
H  H209  1  0.95450000  0.24700000  0.79480000  1.0 0.1262927867
H  H210  1  0.20520000  0.95450000  0.75300000  1.0 0.1262927867
H  H211  1  0.70520000  0.74700000  0.45450000  1.0 0.1262927867
H  H212  1  0.29480000  0.25300000  0.45450000  1.0 0.1262927867
H  H213  1  0.25300000  0.54550000  0.70520000  1.0 0.1262927867
H  H214  1  0.25300000  0.45450000  0.29480000  1.0 0.1262927867
H  H215  1  0.54550000  0.29480000  0.74700000  1.0 0.1262927867
H  H216  1  0.45450000  0.29480000  0.25300000  1.0 0.1262927867
H  H217  1  0.75300000  0.79480000  0.95450000  1.0 0.1262927867
H  H218  1  0.70520000  0.25300000  0.45450000  1.0 0.1262927867
H  H219  1  0.24700000  0.20520000  0.95450000  1.0 0.1262927867
H  H220  1  0.29480000  0.74700000  0.45450000  1.0 0.1262927867
H  H221  1  0.25300000  0.54550000  0.29480000  1.0 0.1262927867
H  H222  1  0.75300000  0.20520000  0.04550000  1.0 0.1262927867
H  H223  1  0.25300000  0.45450000  0.70520000  1.0 0.1262927867
H  H224  1  0.45450000  0.29480000  0.74700000  1.0 0.1262927867
H  H225  1  0.24700000  0.79480000  0.04550000  1.0 0.1262927867
H  H226  1  0.54550000  0.29480000  0.25300000  1.0 0.1262927867
H  H227  1  0.95450000  0.75300000  0.79480000  1.0 0.1262927867
H  H228  1  0.79480000  0.95450000  0.75300000  1.0 0.1262927867
H  H229  1  0.20520000  0.04550000  0.75300000  1.0 0.1262927867
H  H230  1  0.95450000  0.24700000  0.20520000  1.0 0.1262927867
H  H231  1  0.20520000  0.95450000  0.24700000  1.0 0.1262927867
H  H232  1  0.04550000  0.24700000  0.79480000  1.0 0.1262927867
H  H233  1  0.04550000  0.75300000  0.20520000  1.0 0.1262927867
H  H234  1  0.79480000  0.04550000  0.24700000  1.0 0.1262927867
H  H235  1  0.29480000  0.25300000  0.54550000  1.0 0.1262927867
H  H236  1  0.70520000  0.74700000  0.54550000  1.0 0.1262927867
H  H237  1  0.74700000  0.45450000  0.29480000  1.0 0.1262927867
H  H238  1  0.74700000  0.54550000  0.70520000  1.0 0.1262927867
H  H239  1  0.45450000  0.70520000  0.25300000  1.0 0.1262927867
H  H240  1  0.54550000  0.70520000  0.74700000  1.0 0.1262927867
H  H241  1  0.23980000  0.03250000  0.95380000  1.0 0.098966717
H  H242  1  0.46750000  0.73980000  0.45380000  1.0 0.098966717
H  H243  1  0.76020000  0.96750000  0.95380000  1.0 0.098966717
H  H244  1  0.53250000  0.26020000  0.45380000  1.0 0.098966717
H  H245  1  0.73980000  0.54620000  0.53250000  1.0 0.098966717
H  H246  1  0.23980000  0.96750000  0.04620000  1.0 0.098966717
H  H247  1  0.73980000  0.45380000  0.46750000  1.0 0.098966717
H  H248  1  0.45380000  0.53250000  0.26020000  1.0 0.098966717
H  H249  1  0.76020000  0.03250000  0.04620000  1.0 0.098966717
H  H250  1  0.54620000  0.53250000  0.73980000  1.0 0.098966717
H  H251  1  0.95380000  0.23980000  0.03250000  1.0 0.098966717
H  H252  1  0.03250000  0.95380000  0.23980000  1.0 0.098966717
H  H253  1  0.96750000  0.04620000  0.23980000  1.0 0.098966717
H  H254  1  0.95380000  0.76020000  0.96750000  1.0 0.098966717
H  H255  1  0.96750000  0.95380000  0.76020000  1.0 0.098966717
H  H256  1  0.04620000  0.76020000  0.03250000  1.0 0.098966717
H  H257  1  0.04620000  0.23980000  0.96750000  1.0 0.098966717
H  H258  1  0.03250000  0.04620000  0.76020000  1.0 0.098966717
H  H259  1  0.53250000  0.73980000  0.54620000  1.0 0.098966717
H  H260  1  0.46750000  0.26020000  0.54620000  1.0 0.098966717
H  H261  1  0.26020000  0.45380000  0.53250000  1.0 0.098966717
H  H262  1  0.26020000  0.54620000  0.46750000  1.0 0.098966717
H  H263  1  0.45380000  0.46750000  0.73980000  1.0 0.098966717
H  H264  1  0.54620000  0.46750000  0.26020000  1.0 0.098966717
H  H265  1  0.76020000  0.96750000  0.04620000  1.0 0.098966717
H  H266  1  0.53250000  0.26020000  0.54620000  1.0 0.098966717
H  H267  1  0.23980000  0.03250000  0.04620000  1.0 0.098966717
H  H268  1  0.46750000  0.73980000  0.54620000  1.0 0.098966717
H  H269  1  0.26020000  0.45380000  0.46750000  1.0 0.098966717
H  H270  1  0.76020000  0.03250000  0.95380000  1.0 0.098966717
H  H271  1  0.26020000  0.54620000  0.53250000  1.0 0.098966717
H  H272  1  0.54620000  0.46750000  0.73980000  1.0 0.098966717
H  H273  1  0.23980000  0.96750000  0.95380000  1.0 0.098966717
H  H274  1  0.45380000  0.46750000  0.26020000  1.0 0.098966717
H  H275  1  0.04620000  0.76020000  0.96750000  1.0 0.098966717
H  H276  1  0.96750000  0.04620000  0.76020000  1.0 0.098966717
H  H277  1  0.03250000  0.95380000  0.76020000  1.0 0.098966717
H  H278  1  0.04620000  0.23980000  0.03250000  1.0 0.098966717
H  H279  1  0.03250000  0.04620000  0.23980000  1.0 0.098966717
H  H280  1  0.95380000  0.23980000  0.96750000  1.0 0.098966717
H  H281  1  0.95380000  0.76020000  0.03250000  1.0 0.098966717
H  H282  1  0.96750000  0.95380000  0.23980000  1.0 0.098966717
H  H283  1  0.46750000  0.26020000  0.45380000  1.0 0.098966717
H  H284  1  0.53250000  0.73980000  0.45380000  1.0 0.098966717
H  H285  1  0.73980000  0.54620000  0.46750000  1.0 0.098966717
H  H286  1  0.73980000  0.45380000  0.53250000  1.0 0.098966717
H  H287  1  0.54620000  0.53250000  0.26020000  1.0 0.098966717
H  H288  1  0.45380000  0.53250000  0.73980000  1.0 0.098966717
H  H289  1  0.30210000  0.03170000  0.95400000  1.0 0.098966717
H  H290  1  0.46830000  0.80210000  0.45400000  1.0 0.098966717
H  H291  1  0.69790000  0.96830000  0.95400000  1.0 0.098966717
H  H292  1  0.53170000  0.19790000  0.45400000  1.0 0.098966717
H  H293  1  0.80210000  0.54600000  0.53170000  1.0 0.098966717
H  H294  1  0.30210000  0.96830000  0.04600000  1.0 0.098966717
H  H295  1  0.80210000  0.45400000  0.46830000  1.0 0.098966717
H  H296  1  0.45400000  0.53170000  0.19790000  1.0 0.098966717
H  H297  1  0.69790000  0.03170000  0.04600000  1.0 0.098966717
H  H298  1  0.54600000  0.53170000  0.80210000  1.0 0.098966717
H  H299  1  0.95400000  0.30210000  0.03170000  1.0 0.098966717
H  H300  1  0.03170000  0.95400000  0.30210000  1.0 0.098966717
H  H301  1  0.96830000  0.04600000  0.30210000  1.0 0.098966717
H  H302  1  0.95400000  0.69790000  0.96830000  1.0 0.098966717
H  H303  1  0.96830000  0.95400000  0.69790000  1.0 0.098966717
H  H304  1  0.04600000  0.69790000  0.03170000  1.0 0.098966717
H  H305  1  0.04600000  0.30210000  0.96830000  1.0 0.098966717
H  H306  1  0.03170000  0.04600000  0.69790000  1.0 0.098966717
H  H307  1  0.53170000  0.80210000  0.54600000  1.0 0.098966717
H  H308  1  0.46830000  0.19790000  0.54600000  1.0 0.098966717
H  H309  1  0.19790000  0.45400000  0.53170000  1.0 0.098966717
H  H310  1  0.19790000  0.54600000  0.46830000  1.0 0.098966717
H  H311  1  0.45400000  0.46830000  0.80210000  1.0 0.098966717
H  H312  1  0.54600000  0.46830000  0.19790000  1.0 0.098966717
H  H313  1  0.69790000  0.96830000  0.04600000  1.0 0.098966717
H  H314  1  0.53170000  0.19790000  0.54600000  1.0 0.098966717
H  H315  1  0.30210000  0.03170000  0.04600000  1.0 0.098966717
H  H316  1  0.46830000  0.80210000  0.54600000  1.0 0.098966717
H  H317  1  0.19790000  0.45400000  0.46830000  1.0 0.098966717
H  H318  1  0.69790000  0.03170000  0.95400000  1.0 0.098966717
H  H319  1  0.19790000  0.54600000  0.53170000  1.0 0.098966717
H  H320  1  0.54600000  0.46830000  0.80210000  1.0 0.098966717
H  H321  1  0.30210000  0.96830000  0.95400000  1.0 0.098966717
H  H322  1  0.45400000  0.46830000  0.19790000  1.0 0.098966717
H  H323  1  0.04600000  0.69790000  0.96830000  1.0 0.098966717
H  H324  1  0.96830000  0.04600000  0.69790000  1.0 0.098966717
H  H325  1  0.03170000  0.95400000  0.69790000  1.0 0.098966717
H  H326  1  0.04600000  0.30210000  0.03170000  1.0 0.098966717
H  H327  1  0.03170000  0.04600000  0.30210000  1.0 0.098966717
H  H328  1  0.95400000  0.30210000  0.96830000  1.0 0.098966717
H  H329  1  0.95400000  0.69790000  0.03170000  1.0 0.098966717
H  H330  1  0.96830000  0.95400000  0.30210000  1.0 0.098966717
H  H331  1  0.46830000  0.19790000  0.45400000  1.0 0.098966717
H  H332  1  0.53170000  0.80210000  0.45400000  1.0 0.098966717
H  H333  1  0.80210000  0.54600000  0.46830000  1.0 0.098966717
H  H334  1  0.80210000  0.45400000  0.53170000  1.0 0.098966717
H  H335  1  0.54600000  0.53170000  0.19790000  1.0 0.098966717
H  H336  1  0.45400000  0.53170000  0.80210000  1.0 0.098966717
C  C1  1  0.28600000  0.16570000  0.13110000  1.0 -0.0913169721
C  C2  1  0.33430000  0.78600000  0.63110000  1.0 -0.0913169721
C  C3  1  0.71400000  0.83430000  0.13110000  1.0 -0.0913169721
C  C4  1  0.66570000  0.21400000  0.63110000  1.0 -0.0913169721
C  C5  1  0.78600000  0.36890000  0.66570000  1.0 -0.0913169721
C  C6  1  0.28600000  0.83430000  0.86890000  1.0 -0.0913169721
C  C7  1  0.78600000  0.63110000  0.33430000  1.0 -0.0913169721
C  C8  1  0.63110000  0.66570000  0.21400000  1.0 -0.0913169721
C  C9  1  0.71400000  0.16570000  0.86890000  1.0 -0.0913169721
C  C10  1  0.36890000  0.66570000  0.78600000  1.0 -0.0913169721
C  C11  1  0.13110000  0.28600000  0.16570000  1.0 -0.0913169721
C  C12  1  0.16570000  0.13110000  0.28600000  1.0 -0.0913169721
C  C13  1  0.83430000  0.86890000  0.28600000  1.0 -0.0913169721
C  C14  1  0.13110000  0.71400000  0.83430000  1.0 -0.0913169721
C  C15  1  0.83430000  0.13110000  0.71400000  1.0 -0.0913169721
C  C16  1  0.86890000  0.71400000  0.16570000  1.0 -0.0913169721
C  C17  1  0.86890000  0.28600000  0.83430000  1.0 -0.0913169721
C  C18  1  0.16570000  0.86890000  0.71400000  1.0 -0.0913169721
C  C19  1  0.66570000  0.78600000  0.36890000  1.0 -0.0913169721
C  C20  1  0.33430000  0.21400000  0.36890000  1.0 -0.0913169721
C  C21  1  0.21400000  0.63110000  0.66570000  1.0 -0.0913169721
C  C22  1  0.21400000  0.36890000  0.33430000  1.0 -0.0913169721
C  C23  1  0.63110000  0.33430000  0.78600000  1.0 -0.0913169721
C  C24  1  0.36890000  0.33430000  0.21400000  1.0 -0.0913169721
C  C25  1  0.71400000  0.83430000  0.86890000  1.0 -0.0913169721
C  C26  1  0.66570000  0.21400000  0.36890000  1.0 -0.0913169721
C  C27  1  0.28600000  0.16570000  0.86890000  1.0 -0.0913169721
C  C28  1  0.33430000  0.78600000  0.36890000  1.0 -0.0913169721
C  C29  1  0.21400000  0.63110000  0.33430000  1.0 -0.0913169721
C  C30  1  0.71400000  0.16570000  0.13110000  1.0 -0.0913169721
C  C31  1  0.21400000  0.36890000  0.66570000  1.0 -0.0913169721
C  C32  1  0.36890000  0.33430000  0.78600000  1.0 -0.0913169721
C  C33  1  0.28600000  0.83430000  0.13110000  1.0 -0.0913169721
C  C34  1  0.63110000  0.33430000  0.21400000  1.0 -0.0913169721
C  C35  1  0.86890000  0.71400000  0.83430000  1.0 -0.0913169721
C  C36  1  0.83430000  0.86890000  0.71400000  1.0 -0.0913169721
C  C37  1  0.16570000  0.13110000  0.71400000  1.0 -0.0913169721
C  C38  1  0.86890000  0.28600000  0.16570000  1.0 -0.0913169721
C  C39  1  0.16570000  0.86890000  0.28600000  1.0 -0.0913169721
C  C40  1  0.13110000  0.28600000  0.83430000  1.0 -0.0913169721
C  C41  1  0.13110000  0.71400000  0.16570000  1.0 -0.0913169721
C  C42  1  0.83430000  0.13110000  0.28600000  1.0 -0.0913169721
C  C43  1  0.33430000  0.21400000  0.63110000  1.0 -0.0913169721
C  C44  1  0.66570000  0.78600000  0.63110000  1.0 -0.0913169721
C  C45  1  0.78600000  0.36890000  0.33430000  1.0 -0.0913169721
C  C46  1  0.78600000  0.63110000  0.66570000  1.0 -0.0913169721
C  C47  1  0.36890000  0.66570000  0.21400000  1.0 -0.0913169721
C  C48  1  0.63110000  0.66570000  0.78600000  1.0 -0.0913169721
C  C49  1  0.25600000  0.21510000  0.10040000  1.0 -0.0913169721
C  C50  1  0.28490000  0.75600000  0.60040000  1.0 -0.0913169721
C  C51  1  0.74400000  0.78490000  0.10040000  1.0 -0.0913169721
C  C52  1  0.71510000  0.24400000  0.60040000  1.0 -0.0913169721
C  C53  1  0.75600000  0.39960000  0.71510000  1.0 -0.0913169721
C  C54  1  0.25600000  0.78490000  0.89960000  1.0 -0.0913169721
C  C55  1  0.75600000  0.60040000  0.28490000  1.0 -0.0913169721
C  C56  1  0.60040000  0.71510000  0.24400000  1.0 -0.0913169721
C  C57  1  0.74400000  0.21510000  0.89960000  1.0 -0.0913169721
C  C58  1  0.39960000  0.71510000  0.75600000  1.0 -0.0913169721
C  C59  1  0.10040000  0.25600000  0.21510000  1.0 -0.0913169721
C  C60  1  0.21510000  0.10040000  0.25600000  1.0 -0.0913169721
C  C61  1  0.78490000  0.89960000  0.25600000  1.0 -0.0913169721
C  C62  1  0.10040000  0.74400000  0.78490000  1.0 -0.0913169721
C  C63  1  0.78490000  0.10040000  0.74400000  1.0 -0.0913169721
C  C64  1  0.89960000  0.74400000  0.21510000  1.0 -0.0913169721
C  C65  1  0.89960000  0.25600000  0.78490000  1.0 -0.0913169721
C  C66  1  0.21510000  0.89960000  0.74400000  1.0 -0.0913169721
C  C67  1  0.71510000  0.75600000  0.39960000  1.0 -0.0913169721
C  C68  1  0.28490000  0.24400000  0.39960000  1.0 -0.0913169721
C  C69  1  0.24400000  0.60040000  0.71510000  1.0 -0.0913169721
C  C70  1  0.24400000  0.39960000  0.28490000  1.0 -0.0913169721
C  C71  1  0.60040000  0.28490000  0.75600000  1.0 -0.0913169721
C  C72  1  0.39960000  0.28490000  0.24400000  1.0 -0.0913169721
C  C73  1  0.74400000  0.78490000  0.89960000  1.0 -0.0913169721
C  C74  1  0.71510000  0.24400000  0.39960000  1.0 -0.0913169721
C  C75  1  0.25600000  0.21510000  0.89960000  1.0 -0.0913169721
C  C76  1  0.28490000  0.75600000  0.39960000  1.0 -0.0913169721
C  C77  1  0.24400000  0.60040000  0.28490000  1.0 -0.0913169721
C  C78  1  0.74400000  0.21510000  0.10040000  1.0 -0.0913169721
C  C79  1  0.24400000  0.39960000  0.71510000  1.0 -0.0913169721
C  C80  1  0.39960000  0.28490000  0.75600000  1.0 -0.0913169721
C  C81  1  0.25600000  0.78490000  0.10040000  1.0 -0.0913169721
C  C82  1  0.60040000  0.28490000  0.24400000  1.0 -0.0913169721
C  C83  1  0.89960000  0.74400000  0.78490000  1.0 -0.0913169721
C  C84  1  0.78490000  0.89960000  0.74400000  1.0 -0.0913169721
C  C85  1  0.21510000  0.10040000  0.74400000  1.0 -0.0913169721
C  C86  1  0.89960000  0.25600000  0.21510000  1.0 -0.0913169721
C  C87  1  0.21510000  0.89960000  0.25600000  1.0 -0.0913169721
C  C88  1  0.10040000  0.25600000  0.78490000  1.0 -0.0913169721
C  C89  1  0.10040000  0.74400000  0.21510000  1.0 -0.0913169721
C  C90  1  0.78490000  0.10040000  0.25600000  1.0 -0.0913169721
C  C91  1  0.28490000  0.24400000  0.60040000  1.0 -0.0913169721
C  C92  1  0.71510000  0.75600000  0.60040000  1.0 -0.0913169721
C  C93  1  0.75600000  0.39960000  0.28490000  1.0 -0.0913169721
C  C94  1  0.75600000  0.60040000  0.71510000  1.0 -0.0913169721
C  C95  1  0.39960000  0.71510000  0.24400000  1.0 -0.0913169721
C  C96  1  0.60040000  0.71510000  0.75600000  1.0 -0.0913169721
C  C97  1  0.27100000  0.08050000  0.00000000  1.0 0.0671199025
C  C98  1  0.41950000  0.77100000  0.50000000  1.0 0.0671199025
C  C99  1  0.72900000  0.91950000  0.00000000  1.0 0.0671199025
C  C100  1  0.58050000  0.22900000  0.50000000  1.0 0.0671199025
C  C101  1  0.77100000  0.50000000  0.58050000  1.0 0.0671199025
C  C102  1  0.27100000  0.91950000  0.00000000  1.0 0.0671199025
C  C103  1  0.77100000  0.50000000  0.41950000  1.0 0.0671199025
C  C104  1  0.50000000  0.58050000  0.22900000  1.0 0.0671199025
C  C105  1  0.72900000  0.08050000  0.00000000  1.0 0.0671199025
C  C106  1  0.50000000  0.58050000  0.77100000  1.0 0.0671199025
C  C107  1  0.00000000  0.27100000  0.08050000  1.0 0.0671199025
C  C108  1  0.08050000  0.00000000  0.27100000  1.0 0.0671199025
C  C109  1  0.91950000  0.00000000  0.27100000  1.0 0.0671199025
C  C110  1  0.00000000  0.72900000  0.91950000  1.0 0.0671199025
C  C111  1  0.91950000  0.00000000  0.72900000  1.0 0.0671199025
C  C112  1  0.00000000  0.72900000  0.08050000  1.0 0.0671199025
C  C113  1  0.00000000  0.27100000  0.91950000  1.0 0.0671199025
C  C114  1  0.08050000  0.00000000  0.72900000  1.0 0.0671199025
C  C115  1  0.58050000  0.77100000  0.50000000  1.0 0.0671199025
C  C116  1  0.41950000  0.22900000  0.50000000  1.0 0.0671199025
C  C117  1  0.22900000  0.50000000  0.58050000  1.0 0.0671199025
C  C118  1  0.22900000  0.50000000  0.41950000  1.0 0.0671199025
C  C119  1  0.50000000  0.41950000  0.77100000  1.0 0.0671199025
C  C120  1  0.50000000  0.41950000  0.22900000  1.0 0.0671199025
C  C121  1  0.28600000  0.14600000  0.09980000  1.0 -0.1483557213
C  C122  1  0.35400000  0.78600000  0.59980000  1.0 -0.1483557213
C  C123  1  0.71400000  0.85400000  0.09980000  1.0 -0.1483557213
C  C124  1  0.64600000  0.21400000  0.59980000  1.0 -0.1483557213
C  C125  1  0.78600000  0.40020000  0.64600000  1.0 -0.1483557213
C  C126  1  0.28600000  0.85400000  0.90020000  1.0 -0.1483557213
C  C127  1  0.78600000  0.59980000  0.35400000  1.0 -0.1483557213
C  C128  1  0.59980000  0.64600000  0.21400000  1.0 -0.1483557213
C  C129  1  0.71400000  0.14600000  0.90020000  1.0 -0.1483557213
C  C130  1  0.40020000  0.64600000  0.78600000  1.0 -0.1483557213
C  C131  1  0.09980000  0.28600000  0.14600000  1.0 -0.1483557213
C  C132  1  0.14600000  0.09980000  0.28600000  1.0 -0.1483557213
C  C133  1  0.85400000  0.90020000  0.28600000  1.0 -0.1483557213
C  C134  1  0.09980000  0.71400000  0.85400000  1.0 -0.1483557213
C  C135  1  0.85400000  0.09980000  0.71400000  1.0 -0.1483557213
C  C136  1  0.90020000  0.71400000  0.14600000  1.0 -0.1483557213
C  C137  1  0.90020000  0.28600000  0.85400000  1.0 -0.1483557213
C  C138  1  0.14600000  0.90020000  0.71400000  1.0 -0.1483557213
C  C139  1  0.64600000  0.78600000  0.40020000  1.0 -0.1483557213
C  C140  1  0.35400000  0.21400000  0.40020000  1.0 -0.1483557213
C  C141  1  0.21400000  0.59980000  0.64600000  1.0 -0.1483557213
C  C142  1  0.21400000  0.40020000  0.35400000  1.0 -0.1483557213
C  C143  1  0.59980000  0.35400000  0.78600000  1.0 -0.1483557213
C  C144  1  0.40020000  0.35400000  0.21400000  1.0 -0.1483557213
C  C145  1  0.71400000  0.85400000  0.90020000  1.0 -0.1483557213
C  C146  1  0.64600000  0.21400000  0.40020000  1.0 -0.1483557213
C  C147  1  0.28600000  0.14600000  0.90020000  1.0 -0.1483557213
C  C148  1  0.35400000  0.78600000  0.40020000  1.0 -0.1483557213
C  C149  1  0.21400000  0.59980000  0.35400000  1.0 -0.1483557213
C  C150  1  0.71400000  0.14600000  0.09980000  1.0 -0.1483557213
C  C151  1  0.21400000  0.40020000  0.64600000  1.0 -0.1483557213
C  C152  1  0.40020000  0.35400000  0.78600000  1.0 -0.1483557213
C  C153  1  0.28600000  0.85400000  0.09980000  1.0 -0.1483557213
C  C154  1  0.59980000  0.35400000  0.21400000  1.0 -0.1483557213
C  C155  1  0.90020000  0.71400000  0.85400000  1.0 -0.1483557213
C  C156  1  0.85400000  0.90020000  0.71400000  1.0 -0.1483557213
C  C157  1  0.14600000  0.09980000  0.71400000  1.0 -0.1483557213
C  C158  1  0.90020000  0.28600000  0.14600000  1.0 -0.1483557213
C  C159  1  0.14600000  0.90020000  0.28600000  1.0 -0.1483557213
C  C160  1  0.09980000  0.28600000  0.85400000  1.0 -0.1483557213
C  C161  1  0.09980000  0.71400000  0.14600000  1.0 -0.1483557213
C  C162  1  0.85400000  0.09980000  0.28600000  1.0 -0.1483557213
C  C163  1  0.35400000  0.21400000  0.59980000  1.0 -0.1483557213
C  C164  1  0.64600000  0.78600000  0.59980000  1.0 -0.1483557213
C  C165  1  0.78600000  0.40020000  0.35400000  1.0 -0.1483557213
C  C166  1  0.78600000  0.59980000  0.64600000  1.0 -0.1483557213
C  C167  1  0.40020000  0.64600000  0.21400000  1.0 -0.1483557213
C  C168  1  0.59980000  0.64600000  0.78600000  1.0 -0.1483557213
C  C169  1  0.27160000  0.13750000  0.03230000  1.0 0.1886892597
C  C170  1  0.36250000  0.77160000  0.53230000  1.0 0.1886892597
C  C171  1  0.72840000  0.86250000  0.03230000  1.0 0.1886892597
C  C172  1  0.63750000  0.22840000  0.53230000  1.0 0.1886892597
C  C173  1  0.77160000  0.46770000  0.63750000  1.0 0.1886892597
C  C174  1  0.27160000  0.86250000  0.96770000  1.0 0.1886892597
C  C175  1  0.77160000  0.53230000  0.36250000  1.0 0.1886892597
C  C176  1  0.53230000  0.63750000  0.22840000  1.0 0.1886892597
C  C177  1  0.72840000  0.13750000  0.96770000  1.0 0.1886892597
C  C178  1  0.46770000  0.63750000  0.77160000  1.0 0.1886892597
C  C179  1  0.03230000  0.27160000  0.13750000  1.0 0.1886892597
C  C180  1  0.13750000  0.03230000  0.27160000  1.0 0.1886892597
C  C181  1  0.86250000  0.96770000  0.27160000  1.0 0.1886892597
C  C182  1  0.03230000  0.72840000  0.86250000  1.0 0.1886892597
C  C183  1  0.86250000  0.03230000  0.72840000  1.0 0.1886892597
C  C184  1  0.96770000  0.72840000  0.13750000  1.0 0.1886892597
C  C185  1  0.96770000  0.27160000  0.86250000  1.0 0.1886892597
C  C186  1  0.13750000  0.96770000  0.72840000  1.0 0.1886892597
C  C187  1  0.63750000  0.77160000  0.46770000  1.0 0.1886892597
C  C188  1  0.36250000  0.22840000  0.46770000  1.0 0.1886892597
C  C189  1  0.22840000  0.53230000  0.63750000  1.0 0.1886892597
C  C190  1  0.22840000  0.46770000  0.36250000  1.0 0.1886892597
C  C191  1  0.53230000  0.36250000  0.77160000  1.0 0.1886892597
C  C192  1  0.46770000  0.36250000  0.22840000  1.0 0.1886892597
C  C193  1  0.72840000  0.86250000  0.96770000  1.0 0.1886892597
C  C194  1  0.63750000  0.22840000  0.46770000  1.0 0.1886892597
C  C195  1  0.27160000  0.13750000  0.96770000  1.0 0.1886892597
C  C196  1  0.36250000  0.77160000  0.46770000  1.0 0.1886892597
C  C197  1  0.22840000  0.53230000  0.36250000  1.0 0.1886892597
C  C198  1  0.72840000  0.13750000  0.03230000  1.0 0.1886892597
C  C199  1  0.22840000  0.46770000  0.63750000  1.0 0.1886892597
C  C200  1  0.46770000  0.36250000  0.77160000  1.0 0.1886892597
C  C201  1  0.27160000  0.86250000  0.03230000  1.0 0.1886892597
C  C202  1  0.53230000  0.36250000  0.22840000  1.0 0.1886892597
C  C203  1  0.96770000  0.72840000  0.86250000  1.0 0.1886892597
C  C204  1  0.86250000  0.96770000  0.72840000  1.0 0.1886892597
C  C205  1  0.13750000  0.03230000  0.72840000  1.0 0.1886892597
C  C206  1  0.96770000  0.27160000  0.13750000  1.0 0.1886892597
C  C207  1  0.13750000  0.96770000  0.27160000  1.0 0.1886892597
C  C208  1  0.03230000  0.27160000  0.86250000  1.0 0.1886892597
C  C209  1  0.03230000  0.72840000  0.13750000  1.0 0.1886892597
C  C210  1  0.86250000  0.03230000  0.27160000  1.0 0.1886892597
C  C211  1  0.36250000  0.22840000  0.53230000  1.0 0.1886892597
C  C212  1  0.63750000  0.77160000  0.53230000  1.0 0.1886892597
C  C213  1  0.77160000  0.46770000  0.36250000  1.0 0.1886892597
C  C214  1  0.77160000  0.53230000  0.63750000  1.0 0.1886892597
C  C215  1  0.46770000  0.63750000  0.22840000  1.0 0.1886892597
C  C216  1  0.53230000  0.63750000  0.77160000  1.0 0.1886892597
C  C217  1  0.27020000  0.15970000  0.06700000  1.0 0.0645695399
C  C218  1  0.34030000  0.77020000  0.56700000  1.0 0.0645695399
C  C219  1  0.72980000  0.84030000  0.06700000  1.0 0.0645695399
C  C220  1  0.65970000  0.22980000  0.56700000  1.0 0.0645695399
C  C221  1  0.77020000  0.43300000  0.65970000  1.0 0.0645695399
C  C222  1  0.27020000  0.84030000  0.93300000  1.0 0.0645695399
C  C223  1  0.77020000  0.56700000  0.34030000  1.0 0.0645695399
C  C224  1  0.56700000  0.65970000  0.22980000  1.0 0.0645695399
C  C225  1  0.72980000  0.15970000  0.93300000  1.0 0.0645695399
C  C226  1  0.43300000  0.65970000  0.77020000  1.0 0.0645695399
C  C227  1  0.06700000  0.27020000  0.15970000  1.0 0.0645695399
C  C228  1  0.15970000  0.06700000  0.27020000  1.0 0.0645695399
C  C229  1  0.84030000  0.93300000  0.27020000  1.0 0.0645695399
C  C230  1  0.06700000  0.72980000  0.84030000  1.0 0.0645695399
C  C231  1  0.84030000  0.06700000  0.72980000  1.0 0.0645695399
C  C232  1  0.93300000  0.72980000  0.15970000  1.0 0.0645695399
C  C233  1  0.93300000  0.27020000  0.84030000  1.0 0.0645695399
C  C234  1  0.15970000  0.93300000  0.72980000  1.0 0.0645695399
C  C235  1  0.65970000  0.77020000  0.43300000  1.0 0.0645695399
C  C236  1  0.34030000  0.22980000  0.43300000  1.0 0.0645695399
C  C237  1  0.22980000  0.56700000  0.65970000  1.0 0.0645695399
C  C238  1  0.22980000  0.43300000  0.34030000  1.0 0.0645695399
C  C239  1  0.56700000  0.34030000  0.77020000  1.0 0.0645695399
C  C240  1  0.43300000  0.34030000  0.22980000  1.0 0.0645695399
C  C241  1  0.72980000  0.84030000  0.93300000  1.0 0.0645695399
C  C242  1  0.65970000  0.22980000  0.43300000  1.0 0.0645695399
C  C243  1  0.27020000  0.15970000  0.93300000  1.0 0.0645695399
C  C244  1  0.34030000  0.77020000  0.43300000  1.0 0.0645695399
C  C245  1  0.22980000  0.56700000  0.34030000  1.0 0.0645695399
C  C246  1  0.72980000  0.15970000  0.06700000  1.0 0.0645695399
C  C247  1  0.22980000  0.43300000  0.65970000  1.0 0.0645695399
C  C248  1  0.43300000  0.34030000  0.77020000  1.0 0.0645695399
C  C249  1  0.27020000  0.84030000  0.06700000  1.0 0.0645695399
C  C250  1  0.56700000  0.34030000  0.22980000  1.0 0.0645695399
C  C251  1  0.93300000  0.72980000  0.84030000  1.0 0.0645695399
C  C252  1  0.84030000  0.93300000  0.72980000  1.0 0.0645695399
C  C253  1  0.15970000  0.06700000  0.72980000  1.0 0.0645695399
C  C254  1  0.93300000  0.27020000  0.15970000  1.0 0.0645695399
C  C255  1  0.15970000  0.93300000  0.27020000  1.0 0.0645695399
C  C256  1  0.06700000  0.27020000  0.84030000  1.0 0.0645695399
C  C257  1  0.06700000  0.72980000  0.15970000  1.0 0.0645695399
C  C258  1  0.84030000  0.06700000  0.27020000  1.0 0.0645695399
C  C259  1  0.34030000  0.22980000  0.56700000  1.0 0.0645695399
C  C260  1  0.65970000  0.77020000  0.56700000  1.0 0.0645695399
C  C261  1  0.77020000  0.43300000  0.34030000  1.0 0.0645695399
C  C262  1  0.77020000  0.56700000  0.65970000  1.0 0.0645695399
C  C263  1  0.43300000  0.65970000  0.22980000  1.0 0.0645695399
C  C264  1  0.56700000  0.65970000  0.77020000  1.0 0.0645695399
C  C265  1  0.27010000  0.20060000  0.13180000  1.0 -0.0218428344
C  C266  1  0.29940000  0.77010000  0.63180000  1.0 -0.0218428344
C  C267  1  0.72990000  0.79940000  0.13180000  1.0 -0.0218428344
C  C268  1  0.70060000  0.22990000  0.63180000  1.0 -0.0218428344
C  C269  1  0.77010000  0.36820000  0.70060000  1.0 -0.0218428344
C  C270  1  0.27010000  0.79940000  0.86820000  1.0 -0.0218428344
C  C271  1  0.77010000  0.63180000  0.29940000  1.0 -0.0218428344
C  C272  1  0.63180000  0.70060000  0.22990000  1.0 -0.0218428344
C  C273  1  0.72990000  0.20060000  0.86820000  1.0 -0.0218428344
C  C274  1  0.36820000  0.70060000  0.77010000  1.0 -0.0218428344
C  C275  1  0.13180000  0.27010000  0.20060000  1.0 -0.0218428344
C  C276  1  0.20060000  0.13180000  0.27010000  1.0 -0.0218428344
C  C277  1  0.79940000  0.86820000  0.27010000  1.0 -0.0218428344
C  C278  1  0.13180000  0.72990000  0.79940000  1.0 -0.0218428344
C  C279  1  0.79940000  0.13180000  0.72990000  1.0 -0.0218428344
C  C280  1  0.86820000  0.72990000  0.20060000  1.0 -0.0218428344
C  C281  1  0.86820000  0.27010000  0.79940000  1.0 -0.0218428344
C  C282  1  0.20060000  0.86820000  0.72990000  1.0 -0.0218428344
C  C283  1  0.70060000  0.77010000  0.36820000  1.0 -0.0218428344
C  C284  1  0.29940000  0.22990000  0.36820000  1.0 -0.0218428344
C  C285  1  0.22990000  0.63180000  0.70060000  1.0 -0.0218428344
C  C286  1  0.22990000  0.36820000  0.29940000  1.0 -0.0218428344
C  C287  1  0.63180000  0.29940000  0.77010000  1.0 -0.0218428344
C  C288  1  0.36820000  0.29940000  0.22990000  1.0 -0.0218428344
C  C289  1  0.72990000  0.79940000  0.86820000  1.0 -0.0218428344
C  C290  1  0.70060000  0.22990000  0.36820000  1.0 -0.0218428344
C  C291  1  0.27010000  0.20060000  0.86820000  1.0 -0.0218428344
C  C292  1  0.29940000  0.77010000  0.36820000  1.0 -0.0218428344
C  C293  1  0.22990000  0.63180000  0.29940000  1.0 -0.0218428344
C  C294  1  0.72990000  0.20060000  0.13180000  1.0 -0.0218428344
C  C295  1  0.22990000  0.36820000  0.70060000  1.0 -0.0218428344
C  C296  1  0.36820000  0.29940000  0.77010000  1.0 -0.0218428344
C  C297  1  0.27010000  0.79940000  0.13180000  1.0 -0.0218428344
C  C298  1  0.63180000  0.29940000  0.22990000  1.0 -0.0218428344
C  C299  1  0.86820000  0.72990000  0.79940000  1.0 -0.0218428344
C  C300  1  0.79940000  0.86820000  0.72990000  1.0 -0.0218428344
C  C301  1  0.20060000  0.13180000  0.72990000  1.0 -0.0218428344
C  C302  1  0.86820000  0.27010000  0.20060000  1.0 -0.0218428344
C  C303  1  0.20060000  0.86820000  0.27010000  1.0 -0.0218428344
C  C304  1  0.13180000  0.27010000  0.79940000  1.0 -0.0218428344
C  C305  1  0.13180000  0.72990000  0.20060000  1.0 -0.0218428344
C  C306  1  0.79940000  0.13180000  0.27010000  1.0 -0.0218428344
C  C307  1  0.29940000  0.22990000  0.63180000  1.0 -0.0218428344
C  C308  1  0.70060000  0.77010000  0.63180000  1.0 -0.0218428344
C  C309  1  0.77010000  0.36820000  0.29940000  1.0 -0.0218428344
C  C310  1  0.77010000  0.63180000  0.70060000  1.0 -0.0218428344
C  C311  1  0.36820000  0.70060000  0.22990000  1.0 -0.0218428344
C  C312  1  0.63180000  0.70060000  0.77010000  1.0 -0.0218428344
C  C313  1  0.27220000  0.04070000  0.00000000  1.0 0.0446321007
C  C314  1  0.45930000  0.77220000  0.50000000  1.0 0.0446321007
C  C315  1  0.72780000  0.95930000  0.00000000  1.0 0.0446321007
C  C316  1  0.54070000  0.22780000  0.50000000  1.0 0.0446321007
C  C317  1  0.77220000  0.50000000  0.54070000  1.0 0.0446321007
C  C318  1  0.27220000  0.95930000  0.00000000  1.0 0.0446321007
C  C319  1  0.77220000  0.50000000  0.45930000  1.0 0.0446321007
C  C320  1  0.50000000  0.54070000  0.22780000  1.0 0.0446321007
C  C321  1  0.72780000  0.04070000  0.00000000  1.0 0.0446321007
C  C322  1  0.50000000  0.54070000  0.77220000  1.0 0.0446321007
C  C323  1  0.00000000  0.27220000  0.04070000  1.0 0.0446321007
C  C324  1  0.04070000  0.00000000  0.27220000  1.0 0.0446321007
C  C325  1  0.95930000  0.00000000  0.27220000  1.0 0.0446321007
C  C326  1  0.00000000  0.72780000  0.95930000  1.0 0.0446321007
C  C327  1  0.95930000  0.00000000  0.72780000  1.0 0.0446321007
C  C328  1  0.00000000  0.72780000  0.04070000  1.0 0.0446321007
C  C329  1  0.00000000  0.27220000  0.95930000  1.0 0.0446321007
C  C330  1  0.04070000  0.00000000  0.72780000  1.0 0.0446321007
C  C331  1  0.54070000  0.77220000  0.50000000  1.0 0.0446321007
C  C332  1  0.45930000  0.22780000  0.50000000  1.0 0.0446321007
C  C333  1  0.22780000  0.50000000  0.54070000  1.0 0.0446321007
C  C334  1  0.22780000  0.50000000  0.45930000  1.0 0.0446321007
C  C335  1  0.50000000  0.45930000  0.77220000  1.0 0.0446321007
C  C336  1  0.50000000  0.45930000  0.22780000  1.0 0.0446321007
C  C337  1  0.27120000  0.10010000  0.03330000  1.0 -0.2395336151
C  C338  1  0.39990000  0.77120000  0.53330000  1.0 -0.2395336151
C  C339  1  0.72880000  0.89990000  0.03330000  1.0 -0.2395336151
C  C340  1  0.60010000  0.22880000  0.53330000  1.0 -0.2395336151
C  C341  1  0.77120000  0.46670000  0.60010000  1.0 -0.2395336151
C  C342  1  0.27120000  0.89990000  0.96670000  1.0 -0.2395336151
C  C343  1  0.77120000  0.53330000  0.39990000  1.0 -0.2395336151
C  C344  1  0.53330000  0.60010000  0.22880000  1.0 -0.2395336151
C  C345  1  0.72880000  0.10010000  0.96670000  1.0 -0.2395336151
C  C346  1  0.46670000  0.60010000  0.77120000  1.0 -0.2395336151
C  C347  1  0.03330000  0.27120000  0.10010000  1.0 -0.2395336151
C  C348  1  0.10010000  0.03330000  0.27120000  1.0 -0.2395336151
C  C349  1  0.89990000  0.96670000  0.27120000  1.0 -0.2395336151
C  C350  1  0.03330000  0.72880000  0.89990000  1.0 -0.2395336151
C  C351  1  0.89990000  0.03330000  0.72880000  1.0 -0.2395336151
C  C352  1  0.96670000  0.72880000  0.10010000  1.0 -0.2395336151
C  C353  1  0.96670000  0.27120000  0.89990000  1.0 -0.2395336151
C  C354  1  0.10010000  0.96670000  0.72880000  1.0 -0.2395336151
C  C355  1  0.60010000  0.77120000  0.46670000  1.0 -0.2395336151
C  C356  1  0.39990000  0.22880000  0.46670000  1.0 -0.2395336151
C  C357  1  0.22880000  0.53330000  0.60010000  1.0 -0.2395336151
C  C358  1  0.22880000  0.46670000  0.39990000  1.0 -0.2395336151
C  C359  1  0.53330000  0.39990000  0.77120000  1.0 -0.2395336151
C  C360  1  0.46670000  0.39990000  0.22880000  1.0 -0.2395336151
C  C361  1  0.72880000  0.89990000  0.96670000  1.0 -0.2395336151
C  C362  1  0.60010000  0.22880000  0.46670000  1.0 -0.2395336151
C  C363  1  0.27120000  0.10010000  0.96670000  1.0 -0.2395336151
C  C364  1  0.39990000  0.77120000  0.46670000  1.0 -0.2395336151
C  C365  1  0.22880000  0.53330000  0.39990000  1.0 -0.2395336151
C  C366  1  0.72880000  0.10010000  0.03330000  1.0 -0.2395336151
C  C367  1  0.22880000  0.46670000  0.60010000  1.0 -0.2395336151
C  C368  1  0.46670000  0.39990000  0.77120000  1.0 -0.2395336151
C  C369  1  0.27120000  0.89990000  0.03330000  1.0 -0.2395336151
C  C370  1  0.53330000  0.39990000  0.22880000  1.0 -0.2395336151
C  C371  1  0.96670000  0.72880000  0.89990000  1.0 -0.2395336151
C  C372  1  0.89990000  0.96670000  0.72880000  1.0 -0.2395336151
C  C373  1  0.10010000  0.03330000  0.72880000  1.0 -0.2395336151
C  C374  1  0.96670000  0.27120000  0.10010000  1.0 -0.2395336151
C  C375  1  0.10010000  0.96670000  0.27120000  1.0 -0.2395336151
C  C376  1  0.03330000  0.27120000  0.89990000  1.0 -0.2395336151
C  C377  1  0.03330000  0.72880000  0.10010000  1.0 -0.2395336151
C  C378  1  0.89990000  0.03330000  0.27120000  1.0 -0.2395336151
C  C379  1  0.39990000  0.22880000  0.53330000  1.0 -0.2395336151
C  C380  1  0.60010000  0.77120000  0.53330000  1.0 -0.2395336151
C  C381  1  0.77120000  0.46670000  0.39990000  1.0 -0.2395336151
C  C382  1  0.77120000  0.53330000  0.60010000  1.0 -0.2395336151
C  C383  1  0.46670000  0.60010000  0.22880000  1.0 -0.2395336151
C  C384  1  0.53330000  0.60010000  0.77120000  1.0 -0.2395336151
C  C385  1  0.25650000  0.19460000  0.06760000  1.0 -0.125806365
C  C386  1  0.30540000  0.75650000  0.56760000  1.0 -0.125806365
C  C387  1  0.74350000  0.80540000  0.06760000  1.0 -0.125806365
C  C388  1  0.69460000  0.24350000  0.56760000  1.0 -0.125806365
C  C389  1  0.75650000  0.43240000  0.69460000  1.0 -0.125806365
C  C390  1  0.25650000  0.80540000  0.93240000  1.0 -0.125806365
C  C391  1  0.75650000  0.56760000  0.30540000  1.0 -0.125806365
C  C392  1  0.56760000  0.69460000  0.24350000  1.0 -0.125806365
C  C393  1  0.74350000  0.19460000  0.93240000  1.0 -0.125806365
C  C394  1  0.43240000  0.69460000  0.75650000  1.0 -0.125806365
C  C395  1  0.06760000  0.25650000  0.19460000  1.0 -0.125806365
C  C396  1  0.19460000  0.06760000  0.25650000  1.0 -0.125806365
C  C397  1  0.80540000  0.93240000  0.25650000  1.0 -0.125806365
C  C398  1  0.06760000  0.74350000  0.80540000  1.0 -0.125806365
C  C399  1  0.80540000  0.06760000  0.74350000  1.0 -0.125806365
C  C400  1  0.93240000  0.74350000  0.19460000  1.0 -0.125806365
C  C401  1  0.93240000  0.25650000  0.80540000  1.0 -0.125806365
C  C402  1  0.19460000  0.93240000  0.74350000  1.0 -0.125806365
C  C403  1  0.69460000  0.75650000  0.43240000  1.0 -0.125806365
C  C404  1  0.30540000  0.24350000  0.43240000  1.0 -0.125806365
C  C405  1  0.24350000  0.56760000  0.69460000  1.0 -0.125806365
C  C406  1  0.24350000  0.43240000  0.30540000  1.0 -0.125806365
C  C407  1  0.56760000  0.30540000  0.75650000  1.0 -0.125806365
C  C408  1  0.43240000  0.30540000  0.24350000  1.0 -0.125806365
C  C409  1  0.74350000  0.80540000  0.93240000  1.0 -0.125806365
C  C410  1  0.69460000  0.24350000  0.43240000  1.0 -0.125806365
C  C411  1  0.25650000  0.19460000  0.93240000  1.0 -0.125806365
C  C412  1  0.30540000  0.75650000  0.43240000  1.0 -0.125806365
C  C413  1  0.24350000  0.56760000  0.30540000  1.0 -0.125806365
C  C414  1  0.74350000  0.19460000  0.06760000  1.0 -0.125806365
C  C415  1  0.24350000  0.43240000  0.69460000  1.0 -0.125806365
C  C416  1  0.43240000  0.30540000  0.75650000  1.0 -0.125806365
C  C417  1  0.25650000  0.80540000  0.06760000  1.0 -0.125806365
C  C418  1  0.56760000  0.30540000  0.24350000  1.0 -0.125806365
C  C419  1  0.93240000  0.74350000  0.80540000  1.0 -0.125806365
C  C420  1  0.80540000  0.93240000  0.74350000  1.0 -0.125806365
C  C421  1  0.19460000  0.06760000  0.74350000  1.0 -0.125806365
C  C422  1  0.93240000  0.25650000  0.19460000  1.0 -0.125806365
C  C423  1  0.19460000  0.93240000  0.25650000  1.0 -0.125806365
C  C424  1  0.06760000  0.25650000  0.80540000  1.0 -0.125806365
C  C425  1  0.06760000  0.74350000  0.19460000  1.0 -0.125806365
C  C426  1  0.80540000  0.06760000  0.25650000  1.0 -0.125806365
C  C427  1  0.30540000  0.24350000  0.56760000  1.0 -0.125806365
C  C428  1  0.69460000  0.75650000  0.56760000  1.0 -0.125806365
C  C429  1  0.75650000  0.43240000  0.30540000  1.0 -0.125806365
C  C430  1  0.75650000  0.56760000  0.69460000  1.0 -0.125806365
C  C431  1  0.43240000  0.69460000  0.24350000  1.0 -0.125806365
C  C432  1  0.56760000  0.69460000  0.75650000  1.0 -0.125806365
C  C433  1  0.27090000  0.22050000  0.16890000  1.0 0.5996985763
C  C434  1  0.27950000  0.77090000  0.66890000  1.0 0.5996985763
C  C435  1  0.72910000  0.77950000  0.16890000  1.0 0.5996985763
C  C436  1  0.72050000  0.22910000  0.66890000  1.0 0.5996985763
C  C437  1  0.77090000  0.33110000  0.72050000  1.0 0.5996985763
C  C438  1  0.27090000  0.77950000  0.83110000  1.0 0.5996985763
C  C439  1  0.77090000  0.66890000  0.27950000  1.0 0.5996985763
C  C440  1  0.66890000  0.72050000  0.22910000  1.0 0.5996985763
C  C441  1  0.72910000  0.22050000  0.83110000  1.0 0.5996985763
C  C442  1  0.33110000  0.72050000  0.77090000  1.0 0.5996985763
C  C443  1  0.16890000  0.27090000  0.22050000  1.0 0.5996985763
C  C444  1  0.22050000  0.16890000  0.27090000  1.0 0.5996985763
C  C445  1  0.77950000  0.83110000  0.27090000  1.0 0.5996985763
C  C446  1  0.16890000  0.72910000  0.77950000  1.0 0.5996985763
C  C447  1  0.77950000  0.16890000  0.72910000  1.0 0.5996985763
C  C448  1  0.83110000  0.72910000  0.22050000  1.0 0.5996985763
C  C449  1  0.83110000  0.27090000  0.77950000  1.0 0.5996985763
C  C450  1  0.22050000  0.83110000  0.72910000  1.0 0.5996985763
C  C451  1  0.72050000  0.77090000  0.33110000  1.0 0.5996985763
C  C452  1  0.27950000  0.22910000  0.33110000  1.0 0.5996985763
C  C453  1  0.22910000  0.66890000  0.72050000  1.0 0.5996985763
C  C454  1  0.22910000  0.33110000  0.27950000  1.0 0.5996985763
C  C455  1  0.66890000  0.27950000  0.77090000  1.0 0.5996985763
C  C456  1  0.33110000  0.27950000  0.22910000  1.0 0.5996985763
C  C457  1  0.72910000  0.77950000  0.83110000  1.0 0.5996985763
C  C458  1  0.72050000  0.22910000  0.33110000  1.0 0.5996985763
C  C459  1  0.27090000  0.22050000  0.83110000  1.0 0.5996985763
C  C460  1  0.27950000  0.77090000  0.33110000  1.0 0.5996985763
C  C461  1  0.22910000  0.66890000  0.27950000  1.0 0.5996985763
C  C462  1  0.72910000  0.22050000  0.16890000  1.0 0.5996985763
C  C463  1  0.22910000  0.33110000  0.72050000  1.0 0.5996985763
C  C464  1  0.33110000  0.27950000  0.77090000  1.0 0.5996985763
C  C465  1  0.27090000  0.77950000  0.16890000  1.0 0.5996985763
C  C466  1  0.66890000  0.27950000  0.22910000  1.0 0.5996985763
C  C467  1  0.83110000  0.72910000  0.77950000  1.0 0.5996985763
C  C468  1  0.77950000  0.83110000  0.72910000  1.0 0.5996985763
C  C469  1  0.22050000  0.16890000  0.72910000  1.0 0.5996985763
C  C470  1  0.83110000  0.27090000  0.22050000  1.0 0.5996985763
C  C471  1  0.22050000  0.83110000  0.27090000  1.0 0.5996985763
C  C472  1  0.16890000  0.27090000  0.77950000  1.0 0.5996985763
C  C473  1  0.16890000  0.72910000  0.22050000  1.0 0.5996985763
C  C474  1  0.77950000  0.16890000  0.27090000  1.0 0.5996985763
C  C475  1  0.27950000  0.22910000  0.66890000  1.0 0.5996985763
C  C476  1  0.72050000  0.77090000  0.66890000  1.0 0.5996985763
C  C477  1  0.77090000  0.33110000  0.27950000  1.0 0.5996985763
C  C478  1  0.77090000  0.66890000  0.72050000  1.0 0.5996985763
C  C479  1  0.33110000  0.72050000  0.22910000  1.0 0.5996985763
C  C480  1  0.66890000  0.72050000  0.77090000  1.0 0.5996985763
C  C481  1  0.25310000  0.01980000  0.97270000  1.0 -0.0913169721
C  C482  1  0.48020000  0.75310000  0.47270000  1.0 -0.0913169721
C  C483  1  0.74690000  0.98020000  0.97270000  1.0 -0.0913169721
C  C484  1  0.51980000  0.24690000  0.47270000  1.0 -0.0913169721
C  C485  1  0.75310000  0.52730000  0.51980000  1.0 -0.0913169721
C  C486  1  0.25310000  0.98020000  0.02730000  1.0 -0.0913169721
C  C487  1  0.75310000  0.47270000  0.48020000  1.0 -0.0913169721
C  C488  1  0.47270000  0.51980000  0.24690000  1.0 -0.0913169721
C  C489  1  0.74690000  0.01980000  0.02730000  1.0 -0.0913169721
C  C490  1  0.52730000  0.51980000  0.75310000  1.0 -0.0913169721
C  C491  1  0.97270000  0.25310000  0.01980000  1.0 -0.0913169721
C  C492  1  0.01980000  0.97270000  0.25310000  1.0 -0.0913169721
C  C493  1  0.98020000  0.02730000  0.25310000  1.0 -0.0913169721
C  C494  1  0.97270000  0.74690000  0.98020000  1.0 -0.0913169721
C  C495  1  0.98020000  0.97270000  0.74690000  1.0 -0.0913169721
C  C496  1  0.02730000  0.74690000  0.01980000  1.0 -0.0913169721
C  C497  1  0.02730000  0.25310000  0.98020000  1.0 -0.0913169721
C  C498  1  0.01980000  0.02730000  0.74690000  1.0 -0.0913169721
C  C499  1  0.51980000  0.75310000  0.52730000  1.0 -0.0913169721
C  C500  1  0.48020000  0.24690000  0.52730000  1.0 -0.0913169721
C  C501  1  0.24690000  0.47270000  0.51980000  1.0 -0.0913169721
C  C502  1  0.24690000  0.52730000  0.48020000  1.0 -0.0913169721
C  C503  1  0.47270000  0.48020000  0.75310000  1.0 -0.0913169721
C  C504  1  0.52730000  0.48020000  0.24690000  1.0 -0.0913169721
C  C505  1  0.74690000  0.98020000  0.02730000  1.0 -0.0913169721
C  C506  1  0.51980000  0.24690000  0.52730000  1.0 -0.0913169721
C  C507  1  0.25310000  0.01980000  0.02730000  1.0 -0.0913169721
C  C508  1  0.48020000  0.75310000  0.52730000  1.0 -0.0913169721
C  C509  1  0.24690000  0.47270000  0.48020000  1.0 -0.0913169721
C  C510  1  0.74690000  0.01980000  0.97270000  1.0 -0.0913169721
C  C511  1  0.24690000  0.52730000  0.51980000  1.0 -0.0913169721
C  C512  1  0.52730000  0.48020000  0.75310000  1.0 -0.0913169721
C  C513  1  0.25310000  0.98020000  0.97270000  1.0 -0.0913169721
C  C514  1  0.47270000  0.48020000  0.24690000  1.0 -0.0913169721
C  C515  1  0.02730000  0.74690000  0.98020000  1.0 -0.0913169721
C  C516  1  0.98020000  0.02730000  0.74690000  1.0 -0.0913169721
C  C517  1  0.01980000  0.97270000  0.74690000  1.0 -0.0913169721
C  C518  1  0.02730000  0.25310000  0.01980000  1.0 -0.0913169721
C  C519  1  0.01980000  0.02730000  0.25310000  1.0 -0.0913169721
C  C520  1  0.97270000  0.25310000  0.98020000  1.0 -0.0913169721
C  C521  1  0.97270000  0.74690000  0.01980000  1.0 -0.0913169721
C  C522  1  0.98020000  0.97270000  0.25310000  1.0 -0.0913169721
C  C523  1  0.48020000  0.24690000  0.47270000  1.0 -0.0913169721
C  C524  1  0.51980000  0.75310000  0.47270000  1.0 -0.0913169721
C  C525  1  0.75310000  0.52730000  0.48020000  1.0 -0.0913169721
C  C526  1  0.75310000  0.47270000  0.51980000  1.0 -0.0913169721
C  C527  1  0.52730000  0.51980000  0.24690000  1.0 -0.0913169721
C  C528  1  0.47270000  0.51980000  0.75310000  1.0 -0.0913169721
C  C529  1  0.28950000  0.01940000  0.97340000  1.0 -0.0913169721
C  C530  1  0.48060000  0.78950000  0.47340000  1.0 -0.0913169721
C  C531  1  0.71050000  0.98060000  0.97340000  1.0 -0.0913169721
C  C532  1  0.51940000  0.21050000  0.47340000  1.0 -0.0913169721
C  C533  1  0.78950000  0.52660000  0.51940000  1.0 -0.0913169721
C  C534  1  0.28950000  0.98060000  0.02660000  1.0 -0.0913169721
C  C535  1  0.78950000  0.47340000  0.48060000  1.0 -0.0913169721
C  C536  1  0.47340000  0.51940000  0.21050000  1.0 -0.0913169721
C  C537  1  0.71050000  0.01940000  0.02660000  1.0 -0.0913169721
C  C538  1  0.52660000  0.51940000  0.78950000  1.0 -0.0913169721
C  C539  1  0.97340000  0.28950000  0.01940000  1.0 -0.0913169721
C  C540  1  0.01940000  0.97340000  0.28950000  1.0 -0.0913169721
C  C541  1  0.98060000  0.02660000  0.28950000  1.0 -0.0913169721
C  C542  1  0.97340000  0.71050000  0.98060000  1.0 -0.0913169721
C  C543  1  0.98060000  0.97340000  0.71050000  1.0 -0.0913169721
C  C544  1  0.02660000  0.71050000  0.01940000  1.0 -0.0913169721
C  C545  1  0.02660000  0.28950000  0.98060000  1.0 -0.0913169721
C  C546  1  0.01940000  0.02660000  0.71050000  1.0 -0.0913169721
C  C547  1  0.51940000  0.78950000  0.52660000  1.0 -0.0913169721
C  C548  1  0.48060000  0.21050000  0.52660000  1.0 -0.0913169721
C  C549  1  0.21050000  0.47340000  0.51940000  1.0 -0.0913169721
C  C550  1  0.21050000  0.52660000  0.48060000  1.0 -0.0913169721
C  C551  1  0.47340000  0.48060000  0.78950000  1.0 -0.0913169721
C  C552  1  0.52660000  0.48060000  0.21050000  1.0 -0.0913169721
C  C553  1  0.71050000  0.98060000  0.02660000  1.0 -0.0913169721
C  C554  1  0.51940000  0.21050000  0.52660000  1.0 -0.0913169721
C  C555  1  0.28950000  0.01940000  0.02660000  1.0 -0.0913169721
C  C556  1  0.48060000  0.78950000  0.52660000  1.0 -0.0913169721
C  C557  1  0.21050000  0.47340000  0.48060000  1.0 -0.0913169721
C  C558  1  0.71050000  0.01940000  0.97340000  1.0 -0.0913169721
C  C559  1  0.21050000  0.52660000  0.51940000  1.0 -0.0913169721
C  C560  1  0.52660000  0.48060000  0.78950000  1.0 -0.0913169721
C  C561  1  0.28950000  0.98060000  0.97340000  1.0 -0.0913169721
C  C562  1  0.47340000  0.48060000  0.21050000  1.0 -0.0913169721
C  C563  1  0.02660000  0.71050000  0.98060000  1.0 -0.0913169721
C  C564  1  0.98060000  0.02660000  0.71050000  1.0 -0.0913169721
C  C565  1  0.01940000  0.97340000  0.71050000  1.0 -0.0913169721
C  C566  1  0.02660000  0.28950000  0.01940000  1.0 -0.0913169721
C  C567  1  0.01940000  0.02660000  0.28950000  1.0 -0.0913169721
C  C568  1  0.97340000  0.28950000  0.98060000  1.0 -0.0913169721
C  C569  1  0.97340000  0.71050000  0.01940000  1.0 -0.0913169721
C  C570  1  0.98060000  0.97340000  0.28950000  1.0 -0.0913169721
C  C571  1  0.48060000  0.21050000  0.47340000  1.0 -0.0913169721
C  C572  1  0.51940000  0.78950000  0.47340000  1.0 -0.0913169721
C  C573  1  0.78950000  0.52660000  0.48060000  1.0 -0.0913169721
C  C574  1  0.78950000  0.47340000  0.51940000  1.0 -0.0913169721
C  C575  1  0.52660000  0.51940000  0.21050000  1.0 -0.0913169721
C  C576  1  0.47340000  0.51940000  0.78950000  1.0 -0.0913169721
N  N1  1  0.27170000  0.15760000  0.00000000  1.0 -0.3663584411
N  N2  1  0.34240000  0.77170000  0.50000000  1.0 -0.3663584411
N  N3  1  0.72830000  0.84240000  0.00000000  1.0 -0.3663584411
N  N4  1  0.65760000  0.22830000  0.50000000  1.0 -0.3663584411
N  N5  1  0.77170000  0.50000000  0.65760000  1.0 -0.3663584411
N  N6  1  0.27170000  0.84240000  0.00000000  1.0 -0.3663584411
N  N7  1  0.77170000  0.50000000  0.34240000  1.0 -0.3663584411
N  N8  1  0.50000000  0.65760000  0.22830000  1.0 -0.3663584411
N  N9  1  0.72830000  0.15760000  0.00000000  1.0 -0.3663584411
N  N10  1  0.50000000  0.65760000  0.77170000  1.0 -0.3663584411
N  N11  1  0.00000000  0.27170000  0.15760000  1.0 -0.3663584411
N  N12  1  0.15760000  0.00000000  0.27170000  1.0 -0.3663584411
N  N13  1  0.84240000  0.00000000  0.27170000  1.0 -0.3663584411
N  N14  1  0.00000000  0.72830000  0.84240000  1.0 -0.3663584411
N  N15  1  0.84240000  0.00000000  0.72830000  1.0 -0.3663584411
N  N16  1  0.00000000  0.72830000  0.15760000  1.0 -0.3663584411
N  N17  1  0.00000000  0.27170000  0.84240000  1.0 -0.3663584411
N  N18  1  0.15760000  0.00000000  0.72830000  1.0 -0.3663584411
N  N19  1  0.65760000  0.77170000  0.50000000  1.0 -0.3663584411
N  N20  1  0.34240000  0.22830000  0.50000000  1.0 -0.3663584411
N  N21  1  0.22830000  0.50000000  0.65760000  1.0 -0.3663584411
N  N22  1  0.22830000  0.50000000  0.34240000  1.0 -0.3663584411
N  N23  1  0.50000000  0.34240000  0.77170000  1.0 -0.3663584411
N  N24  1  0.50000000  0.34240000  0.22830000  1.0 -0.3663584411
O  O1  1  0.25000000  0.25000000  0.25000000  1.0 -0.9322016209
O  O2  1  0.25000000  0.75000000  0.75000000  1.0 -0.9322016209
O  O3  1  0.75000000  0.75000000  0.25000000  1.0 -0.9322016209
O  O4  1  0.75000000  0.25000000  0.75000000  1.0 -0.9322016209
O  O5  1  0.75000000  0.75000000  0.75000000  1.0 -0.9322016209
O  O6  1  0.75000000  0.25000000  0.25000000  1.0 -0.9322016209
O  O7  1  0.25000000  0.25000000  0.75000000  1.0 -0.9322016209
O  O8  1  0.25000000  0.75000000  0.25000000  1.0 -0.9322016209
O  O9  1  0.28804000  0.20640000  0.19520000  1.0 -0.5391148063
O  O10  1  0.29360000  0.78804000  0.69520000  1.0 -0.5391148063
O  O11  1  0.71196000  0.79360000  0.19520000  1.0 -0.5391148063
O  O12  1  0.70640000  0.21196000  0.69520000  1.0 -0.5391148063
O  O13  1  0.78804000  0.30480000  0.70640000  1.0 -0.5391148063
O  O14  1  0.28804000  0.79360000  0.80480000  1.0 -0.5391148063
O  O15  1  0.78804000  0.69520000  0.29360000  1.0 -0.5391148063
O  O16  1  0.69520000  0.70640000  0.21196000  1.0 -0.5391148063
O  O17  1  0.71196000  0.20640000  0.80480000  1.0 -0.5391148063
O  O18  1  0.30480000  0.70640000  0.78804000  1.0 -0.5391148063
O  O19  1  0.19520000  0.28804000  0.20640000  1.0 -0.5391148063
O  O20  1  0.20640000  0.19520000  0.28804000  1.0 -0.5391148063
O  O21  1  0.79360000  0.80480000  0.28804000  1.0 -0.5391148063
O  O22  1  0.19520000  0.71196000  0.79360000  1.0 -0.5391148063
O  O23  1  0.79360000  0.19520000  0.71196000  1.0 -0.5391148063
O  O24  1  0.80480000  0.71196000  0.20640000  1.0 -0.5391148063
O  O25  1  0.80480000  0.28804000  0.79360000  1.0 -0.5391148063
O  O26  1  0.20640000  0.80480000  0.71196000  1.0 -0.5391148063
O  O27  1  0.70640000  0.78804000  0.30480000  1.0 -0.5391148063
O  O28  1  0.29360000  0.21196000  0.30480000  1.0 -0.5391148063
O  O29  1  0.21196000  0.69520000  0.70640000  1.0 -0.5391148063
O  O30  1  0.21196000  0.30480000  0.29360000  1.0 -0.5391148063
O  O31  1  0.69520000  0.29360000  0.78804000  1.0 -0.5391148063
O  O32  1  0.30480000  0.29360000  0.21196000  1.0 -0.5391148063
O  O33  1  0.71196000  0.79360000  0.80480000  1.0 -0.5391148063
O  O34  1  0.70640000  0.21196000  0.30480000  1.0 -0.5391148063
O  O35  1  0.28804000  0.20640000  0.80480000  1.0 -0.5391148063
O  O36  1  0.29360000  0.78804000  0.30480000  1.0 -0.5391148063
O  O37  1  0.21196000  0.69520000  0.29360000  1.0 -0.5391148063
O  O38  1  0.71196000  0.20640000  0.19520000  1.0 -0.5391148063
O  O39  1  0.21196000  0.30480000  0.70640000  1.0 -0.5391148063
O  O40  1  0.30480000  0.29360000  0.78804000  1.0 -0.5391148063
O  O41  1  0.28804000  0.79360000  0.19520000  1.0 -0.5391148063
O  O42  1  0.69520000  0.29360000  0.21196000  1.0 -0.5391148063
O  O43  1  0.80480000  0.71196000  0.79360000  1.0 -0.5391148063
O  O44  1  0.79360000  0.80480000  0.71196000  1.0 -0.5391148063
O  O45  1  0.20640000  0.19520000  0.71196000  1.0 -0.5391148063
O  O46  1  0.80480000  0.28804000  0.20640000  1.0 -0.5391148063
O  O47  1  0.20640000  0.80480000  0.28804000  1.0 -0.5391148063
O  O48  1  0.19520000  0.28804000  0.79360000  1.0 -0.5391148063
O  O49  1  0.19520000  0.71196000  0.20640000  1.0 -0.5391148063
O  O50  1  0.79360000  0.19520000  0.28804000  1.0 -0.5391148063
O  O51  1  0.29360000  0.21196000  0.69520000  1.0 -0.5391148063
O  O52  1  0.70640000  0.78804000  0.69520000  1.0 -0.5391148063
O  O53  1  0.78804000  0.30480000  0.29360000  1.0 -0.5391148063
O  O54  1  0.78804000  0.69520000  0.70640000  1.0 -0.5391148063
O  O55  1  0.30480000  0.70640000  0.21196000  1.0 -0.5391148063
O  O56  1  0.69520000  0.70640000  0.78804000  1.0 -0.5391148063
O  O57  1  0.25310000  0.25060000  0.16977000  1.0 -0.5457120421
O  O58  1  0.24940000  0.75310000  0.66977000  1.0 -0.5457120421
O  O59  1  0.74690000  0.74940000  0.16977000  1.0 -0.5457120421
O  O60  1  0.75060000  0.24690000  0.66977000  1.0 -0.5457120421
O  O61  1  0.75310000  0.33023000  0.75060000  1.0 -0.5457120421
O  O62  1  0.25310000  0.74940000  0.83023000  1.0 -0.5457120421
O  O63  1  0.75310000  0.66977000  0.24940000  1.0 -0.5457120421
O  O64  1  0.66977000  0.75060000  0.24690000  1.0 -0.5457120421
O  O65  1  0.74690000  0.25060000  0.83023000  1.0 -0.5457120421
O  O66  1  0.33023000  0.75060000  0.75310000  1.0 -0.5457120421
O  O67  1  0.16977000  0.25310000  0.25060000  1.0 -0.5457120421
O  O68  1  0.25060000  0.16977000  0.25310000  1.0 -0.5457120421
O  O69  1  0.74940000  0.83023000  0.25310000  1.0 -0.5457120421
O  O70  1  0.16977000  0.74690000  0.74940000  1.0 -0.5457120421
O  O71  1  0.74940000  0.16977000  0.74690000  1.0 -0.5457120421
O  O72  1  0.83023000  0.74690000  0.25060000  1.0 -0.5457120421
O  O73  1  0.83023000  0.25310000  0.74940000  1.0 -0.5457120421
O  O74  1  0.25060000  0.83023000  0.74690000  1.0 -0.5457120421
O  O75  1  0.75060000  0.75310000  0.33023000  1.0 -0.5457120421
O  O76  1  0.24940000  0.24690000  0.33023000  1.0 -0.5457120421
O  O77  1  0.24690000  0.66977000  0.75060000  1.0 -0.5457120421
O  O78  1  0.24690000  0.33023000  0.24940000  1.0 -0.5457120421
O  O79  1  0.66977000  0.24940000  0.75310000  1.0 -0.5457120421
O  O80  1  0.33023000  0.24940000  0.24690000  1.0 -0.5457120421
O  O81  1  0.74690000  0.74940000  0.83023000  1.0 -0.5457120421
O  O82  1  0.75060000  0.24690000  0.33023000  1.0 -0.5457120421
O  O83  1  0.25310000  0.25060000  0.83023000  1.0 -0.5457120421
O  O84  1  0.24940000  0.75310000  0.33023000  1.0 -0.5457120421
O  O85  1  0.24690000  0.66977000  0.24940000  1.0 -0.5457120421
O  O86  1  0.74690000  0.25060000  0.16977000  1.0 -0.5457120421
O  O87  1  0.24690000  0.33023000  0.75060000  1.0 -0.5457120421
O  O88  1  0.33023000  0.24940000  0.75310000  1.0 -0.5457120421
O  O89  1  0.25310000  0.74940000  0.16977000  1.0 -0.5457120421
O  O90  1  0.66977000  0.24940000  0.24690000  1.0 -0.5457120421
O  O91  1  0.83023000  0.74690000  0.74940000  1.0 -0.5457120421
O  O92  1  0.74940000  0.83023000  0.74690000  1.0 -0.5457120421
O  O93  1  0.25060000  0.16977000  0.74690000  1.0 -0.5457120421
O  O94  1  0.83023000  0.25310000  0.25060000  1.0 -0.5457120421
O  O95  1  0.25060000  0.83023000  0.25310000  1.0 -0.5457120421
O  O96  1  0.16977000  0.25310000  0.74940000  1.0 -0.5457120421
O  O97  1  0.16977000  0.74690000  0.25060000  1.0 -0.5457120421
O  O98  1  0.74940000  0.16977000  0.25310000  1.0 -0.5457120421
O  O99  1  0.24940000  0.24690000  0.66977000  1.0 -0.5457120421
O  O100  1  0.75060000  0.75310000  0.66977000  1.0 -0.5457120421
O  O101  1  0.75310000  0.33023000  0.24940000  1.0 -0.5457120421
O  O102  1  0.75310000  0.66977000  0.75060000  1.0 -0.5457120421
O  O103  1  0.33023000  0.75060000  0.24690000  1.0 -0.5457120421
O  O104  1  0.66977000  0.75060000  0.75310000  1.0 -0.5457120421
