# DDEC6 charges by PACMAN v1.1 (https://github.com/mtap-research/PACMAN-charge/)
data_LATCIS_ASR_pacman
_symmetry_space_group_name_H-M   'P 1'
_cell_length_a   11.39980000
_cell_length_b   11.39980000
_cell_length_c   13.04300000
_cell_angle_alpha   76.90820000
_cell_angle_beta   103.09200000
_cell_angle_gamma   77.37220000
_symmetry_Int_Tables_number   1
_chemical_formula_structural   CdC4
_chemical_formula_sum   'Cd6 C24'
_cell_volume   1541.57871716
_cell_formula_units_Z   6
loop_
 _symmetry_equiv_pos_site_id
 _symmetry_equiv_pos_as_xyz
  1  'x, y, z'
loop_
 _atom_site_type_symbol
 _atom_site_label
 _atom_site_symmetry_multiplicity
 _atom_site_fract_x
 _atom_site_fract_y
 _atom_site_fract_z
 _atom_site_occupancy
 _atom_site_charge
Cd  Cd1  1  0.35234000  0.35234000  0.75000000  1.0 0.6350306799
Cd  Cd2  1  0.64766000  0.64766000  0.25000000  1.0 0.6652088096
Cd  Cd3  1  0.78148000  0.93934000  0.91498000  1.0 0.681949231
Cd  Cd4  1  0.93934000  0.78148000  0.58502000  1.0 0.718010359
Cd  Cd5  1  0.21852000  0.06066000  0.08502000  1.0 0.681949231
Cd  Cd6  1  0.06066000  0.21852000  0.41498000  1.0 0.681949231
C  C1  1  0.61580000  0.11580000  0.83890000  1.0 -0.1669550235
C  C2  1  0.11580000  0.61580000  0.66110000  1.0 -0.1606989126
C  C3  1  0.38420000  0.88420000  0.16110000  1.0 -0.1669550235
C  C4  1  0.88420000  0.38420000  0.33890000  1.0 -0.1606989126
C  C5  1  0.53470000  0.19610000  0.80580000  1.0 -0.1222317735
C  C6  1  0.19610000  0.53470000  0.69420000  1.0 -0.1222317735
C  C7  1  0.46530000  0.80390000  0.19420000  1.0 -0.1132906223
C  C8  1  0.80390000  0.46530000  0.30580000  1.0 -0.1300304825
C  C9  1  0.95550000  0.98870000  0.98140000  1.0 -0.2199317783
C  C10  1  0.98870000  0.95550000  0.51860000  1.0 -0.2199317783
C  C11  1  0.04450000  0.01130000  0.01860000  1.0 -0.2076200912
C  C12  1  0.01130000  0.04450000  0.48140000  1.0 -0.2014516289
C  C13  1  0.27570000  0.25610000  0.88150000  1.0 -0.0827897224
C  C14  1  0.25610000  0.27570000  0.61850000  1.0 -0.0827897224
C  C15  1  0.72430000  0.74390000  0.11850000  1.0 -0.0642413529
C  C16  1  0.74390000  0.72430000  0.38150000  1.0 -0.0662246379
C  C17  1  0.82770000  0.85970000  0.78450000  1.0 -0.2014516289
C  C18  1  0.85970000  0.82770000  0.71550000  1.0 -0.2294041614
C  C19  1  0.17230000  0.14030000  0.21550000  1.0 -0.2076200912
C  C20  1  0.14030000  0.17230000  0.28450000  1.0 -0.2294041614
C  C21  1  0.74790000  0.80270000  0.05110000  1.0 -0.2294041614
C  C22  1  0.80270000  0.74790000  0.44890000  1.0 -0.2294041614
C  C23  1  0.25210000  0.19730000  0.94890000  1.0 -0.2294041614
C  C24  1  0.19730000  0.25210000  0.55110000  1.0 -0.2199317783
