# DDEC6 charges by PACMAN v1.1 (https://github.com/mtap-research/PACMAN-charge/)
data_LATCAN_ASR_pacman
_symmetry_space_group_name_H-M   'P 1'
_cell_length_a   35.79480000
_cell_length_b   35.79480000
_cell_length_c   35.79480000
_cell_angle_alpha   90.00000000
_cell_angle_beta   90.00000000
_cell_angle_gamma   90.00000000
_symmetry_Int_Tables_number   1
_chemical_formula_structural   Cr3H42C72N3O13
_chemical_formula_sum   'Cr24 H336 C576 N24 O104'
_cell_volume   45862.72131996
_cell_formula_units_Z   8
loop_
 _symmetry_equiv_pos_site_id
 _symmetry_equiv_pos_as_xyz
  1  'x, y, z'
loop_
 _atom_site_type_symbol
 _atom_site_label
 _atom_site_symmetry_multiplicity
 _atom_site_fract_x
 _atom_site_fract_y
 _atom_site_fract_z
 _atom_site_occupancy
 _atom_site_charge
Cr  Cr1  1  0.75000000  0.71250000  0.21250000  1.0 1.4046849065
Cr  Cr2  1  0.25000000  0.28750000  0.21250000  1.0 1.4165406926
Cr  Cr3  1  0.25000000  0.71250000  0.78750000  1.0 1.4165406926
Cr  Cr4  1  0.75000000  0.28750000  0.78750000  1.0 1.4046849065
Cr  Cr5  1  0.21250000  0.75000000  0.71250000  1.0 1.4062038266
Cr  Cr6  1  0.21250000  0.25000000  0.28750000  1.0 1.4165406926
Cr  Cr7  1  0.78750000  0.25000000  0.71250000  1.0 1.4165406926
Cr  Cr8  1  0.78750000  0.75000000  0.28750000  1.0 1.4046849065
Cr  Cr9  1  0.71250000  0.21250000  0.75000000  1.0 1.4046849065
Cr  Cr10  1  0.28750000  0.21250000  0.25000000  1.0 1.4165406926
Cr  Cr11  1  0.71250000  0.78750000  0.25000000  1.0 1.4165406926
Cr  Cr12  1  0.28750000  0.78750000  0.75000000  1.0 1.4062038266
Cr  Cr13  1  0.25000000  0.28750000  0.78750000  1.0 1.4165406926
Cr  Cr14  1  0.75000000  0.71250000  0.78750000  1.0 1.4046849065
Cr  Cr15  1  0.75000000  0.28750000  0.21250000  1.0 1.4046849065
Cr  Cr16  1  0.25000000  0.71250000  0.21250000  1.0 1.4165406926
Cr  Cr17  1  0.78750000  0.25000000  0.28750000  1.0 1.4165406926
Cr  Cr18  1  0.78750000  0.75000000  0.71250000  1.0 1.4046849065
Cr  Cr19  1  0.21250000  0.75000000  0.28750000  1.0 1.4062038266
Cr  Cr20  1  0.21250000  0.25000000  0.71250000  1.0 1.4165406926
Cr  Cr21  1  0.28750000  0.78750000  0.25000000  1.0 1.4165406926
Cr  Cr22  1  0.71250000  0.78750000  0.75000000  1.0 1.4046849065
Cr  Cr23  1  0.28750000  0.21250000  0.75000000  1.0 1.4062038266
Cr  Cr24  1  0.71250000  0.21250000  0.25000000  1.0 1.4165406926
H  H1  1  0.74460000  0.60230000  0.25870000  1.0 0.1318442213
H  H2  1  0.25540000  0.39770000  0.25870000  1.0 0.1318442213
H  H3  1  0.25540000  0.60230000  0.74130000  1.0 0.1318442213
H  H4  1  0.74460000  0.39770000  0.74130000  1.0 0.1318442213
H  H5  1  0.25870000  0.74460000  0.60230000  1.0 0.1318442213
H  H6  1  0.25870000  0.25540000  0.39770000  1.0 0.1318442213
H  H7  1  0.74130000  0.25540000  0.60230000  1.0 0.1318442213
H  H8  1  0.74130000  0.74460000  0.39770000  1.0 0.1318442213
H  H9  1  0.60230000  0.25870000  0.74460000  1.0 0.1318442213
H  H10  1  0.39770000  0.25870000  0.25540000  1.0 0.1318442213
H  H11  1  0.60230000  0.74130000  0.25540000  1.0 0.1318442213
H  H12  1  0.39770000  0.74130000  0.74460000  1.0 0.1318442213
H  H13  1  0.10230000  0.24460000  0.24130000  1.0 0.1318442213
H  H14  1  0.89770000  0.75540000  0.24130000  1.0 0.1318442213
H  H15  1  0.10230000  0.75540000  0.75870000  1.0 0.1318442213
H  H16  1  0.89770000  0.24460000  0.75870000  1.0 0.1318442213
H  H17  1  0.24460000  0.75870000  0.89770000  1.0 0.1318442213
H  H18  1  0.75540000  0.75870000  0.10230000  1.0 0.1318442213
H  H19  1  0.75540000  0.24130000  0.89770000  1.0 0.1318442213
H  H20  1  0.24460000  0.24130000  0.10230000  1.0 0.1318442213
H  H21  1  0.75870000  0.10230000  0.75540000  1.0 0.1318442213
H  H22  1  0.75870000  0.89770000  0.24460000  1.0 0.1318442213
H  H23  1  0.24130000  0.10230000  0.24460000  1.0 0.1318442213
H  H24  1  0.24130000  0.89770000  0.75540000  1.0 0.1318442213
H  H25  1  0.25540000  0.39770000  0.74130000  1.0 0.1318442213
H  H26  1  0.74460000  0.60230000  0.74130000  1.0 0.1318442213
H  H27  1  0.74460000  0.39770000  0.25870000  1.0 0.1318442213
H  H28  1  0.25540000  0.60230000  0.25870000  1.0 0.1318442213
H  H29  1  0.74130000  0.25540000  0.39770000  1.0 0.1318442213
H  H30  1  0.74130000  0.74460000  0.60230000  1.0 0.1318442213
H  H31  1  0.25870000  0.74460000  0.39770000  1.0 0.1318442213
H  H32  1  0.25870000  0.25540000  0.60230000  1.0 0.1318442213
H  H33  1  0.39770000  0.74130000  0.25540000  1.0 0.1318442213
H  H34  1  0.60230000  0.74130000  0.74460000  1.0 0.1318442213
H  H35  1  0.39770000  0.25870000  0.74460000  1.0 0.1318442213
H  H36  1  0.60230000  0.25870000  0.25540000  1.0 0.1318442213
H  H37  1  0.89770000  0.75540000  0.75870000  1.0 0.1318442213
H  H38  1  0.10230000  0.24460000  0.75870000  1.0 0.1318442213
H  H39  1  0.89770000  0.24460000  0.24130000  1.0 0.1318442213
H  H40  1  0.10230000  0.75540000  0.24130000  1.0 0.1318442213
H  H41  1  0.75540000  0.24130000  0.10230000  1.0 0.1318442213
H  H42  1  0.24460000  0.24130000  0.89770000  1.0 0.1318442213
H  H43  1  0.24460000  0.75870000  0.10230000  1.0 0.1318442213
H  H44  1  0.75540000  0.75870000  0.89770000  1.0 0.1318442213
H  H45  1  0.24130000  0.89770000  0.24460000  1.0 0.1318442213
H  H46  1  0.24130000  0.10230000  0.75540000  1.0 0.1318442213
H  H47  1  0.75870000  0.89770000  0.75540000  1.0 0.1318442213
H  H48  1  0.75870000  0.10230000  0.24460000  1.0 0.1318442213
H  H49  1  0.79430000  0.65340000  0.34620000  1.0 0.1318442213
H  H50  1  0.20570000  0.34660000  0.34620000  1.0 0.1318442213
H  H51  1  0.20570000  0.65340000  0.65380000  1.0 0.1318442213
H  H52  1  0.79430000  0.34660000  0.65380000  1.0 0.1318442213
H  H53  1  0.34620000  0.79430000  0.65340000  1.0 0.1318442213
H  H54  1  0.34620000  0.20570000  0.34660000  1.0 0.1318442213
H  H55  1  0.65380000  0.20570000  0.65340000  1.0 0.1318442213
H  H56  1  0.65380000  0.79430000  0.34660000  1.0 0.1318442213
H  H57  1  0.65340000  0.34620000  0.79430000  1.0 0.1318442213
H  H58  1  0.34660000  0.34620000  0.20570000  1.0 0.1318442213
H  H59  1  0.65340000  0.65380000  0.20570000  1.0 0.1318442213
H  H60  1  0.34660000  0.65380000  0.79430000  1.0 0.1318442213
H  H61  1  0.15340000  0.29430000  0.15380000  1.0 0.1318442213
H  H62  1  0.84660000  0.70570000  0.15380000  1.0 0.1318442213
H  H63  1  0.15340000  0.70570000  0.84620000  1.0 0.1318442213
H  H64  1  0.84660000  0.29430000  0.84620000  1.0 0.1318442213
H  H65  1  0.29430000  0.84620000  0.84660000  1.0 0.1318442213
H  H66  1  0.70570000  0.84620000  0.15340000  1.0 0.1318442213
H  H67  1  0.70570000  0.15380000  0.84660000  1.0 0.1318442213
H  H68  1  0.29430000  0.15380000  0.15340000  1.0 0.1318442213
H  H69  1  0.84620000  0.15340000  0.70570000  1.0 0.1318442213
H  H70  1  0.84620000  0.84660000  0.29430000  1.0 0.1318442213
H  H71  1  0.15380000  0.15340000  0.29430000  1.0 0.1318442213
H  H72  1  0.15380000  0.84660000  0.70570000  1.0 0.1318442213
H  H73  1  0.20570000  0.34660000  0.65380000  1.0 0.1318442213
H  H74  1  0.79430000  0.65340000  0.65380000  1.0 0.1318442213
H  H75  1  0.79430000  0.34660000  0.34620000  1.0 0.1318442213
H  H76  1  0.20570000  0.65340000  0.34620000  1.0 0.1318442213
H  H77  1  0.65380000  0.20570000  0.34660000  1.0 0.1318442213
H  H78  1  0.65380000  0.79430000  0.65340000  1.0 0.1318442213
H  H79  1  0.34620000  0.79430000  0.34660000  1.0 0.1318442213
H  H80  1  0.34620000  0.20570000  0.65340000  1.0 0.1318442213
H  H81  1  0.34660000  0.65380000  0.20570000  1.0 0.1318442213
H  H82  1  0.65340000  0.65380000  0.79430000  1.0 0.1318442213
H  H83  1  0.34660000  0.34620000  0.79430000  1.0 0.1318442213
H  H84  1  0.65340000  0.34620000  0.20570000  1.0 0.1318442213
H  H85  1  0.84660000  0.70570000  0.84620000  1.0 0.1318442213
H  H86  1  0.15340000  0.29430000  0.84620000  1.0 0.1318442213
H  H87  1  0.84660000  0.29430000  0.15380000  1.0 0.1318442213
H  H88  1  0.15340000  0.70570000  0.15380000  1.0 0.1318442213
H  H89  1  0.70570000  0.15380000  0.15340000  1.0 0.1318442213
H  H90  1  0.29430000  0.15380000  0.84660000  1.0 0.1318442213
H  H91  1  0.29430000  0.84620000  0.15340000  1.0 0.1318442213
H  H92  1  0.70570000  0.84620000  0.84660000  1.0 0.1318442213
H  H93  1  0.15380000  0.84660000  0.29430000  1.0 0.1318442213
H  H94  1  0.15380000  0.15340000  0.70570000  1.0 0.1318442213
H  H95  1  0.84620000  0.84660000  0.70570000  1.0 0.1318442213
H  H96  1  0.84620000  0.15340000  0.29430000  1.0 0.1318442213
H  H97  1  0.74330000  0.54680000  0.29200000  1.0 0.1218947604
H  H98  1  0.25670000  0.45320000  0.29200000  1.0 0.1218947604
H  H99  1  0.25670000  0.54680000  0.70800000  1.0 0.1218947604
H  H100  1  0.74330000  0.45320000  0.70800000  1.0 0.1218947604
H  H101  1  0.29200000  0.74330000  0.54680000  1.0 0.1218947604
H  H102  1  0.29200000  0.25670000  0.45320000  1.0 0.1218947604
H  H103  1  0.70800000  0.25670000  0.54680000  1.0 0.1218947604
H  H104  1  0.70800000  0.74330000  0.45320000  1.0 0.1218947604
H  H105  1  0.54680000  0.29200000  0.74330000  1.0 0.1218947604
H  H106  1  0.45320000  0.29200000  0.25670000  1.0 0.1218947604
H  H107  1  0.54680000  0.70800000  0.25670000  1.0 0.1218947604
H  H108  1  0.45320000  0.70800000  0.74330000  1.0 0.1218947604
H  H109  1  0.04680000  0.24330000  0.20800000  1.0 0.1218947604
H  H110  1  0.95320000  0.75670000  0.20800000  1.0 0.1218947604
H  H111  1  0.04680000  0.75670000  0.79200000  1.0 0.1218947604
H  H112  1  0.95320000  0.24330000  0.79200000  1.0 0.1218947604
H  H113  1  0.24330000  0.79200000  0.95320000  1.0 0.1218947604
H  H114  1  0.75670000  0.79200000  0.04680000  1.0 0.1218947604
H  H115  1  0.75670000  0.20800000  0.95320000  1.0 0.1218947604
H  H116  1  0.24330000  0.20800000  0.04680000  1.0 0.1218947604
H  H117  1  0.79200000  0.04680000  0.75670000  1.0 0.1218947604
H  H118  1  0.79200000  0.95320000  0.24330000  1.0 0.1218947604
H  H119  1  0.20800000  0.04680000  0.24330000  1.0 0.1218947604
H  H120  1  0.20800000  0.95320000  0.75670000  1.0 0.1218947604
H  H121  1  0.25670000  0.45320000  0.70800000  1.0 0.1218947604
H  H122  1  0.74330000  0.54680000  0.70800000  1.0 0.1218947604
H  H123  1  0.74330000  0.45320000  0.29200000  1.0 0.1218947604
H  H124  1  0.25670000  0.54680000  0.29200000  1.0 0.1218947604
H  H125  1  0.70800000  0.25670000  0.45320000  1.0 0.1218947604
H  H126  1  0.70800000  0.74330000  0.54680000  1.0 0.1218947604
H  H127  1  0.29200000  0.74330000  0.45320000  1.0 0.1218947604
H  H128  1  0.29200000  0.25670000  0.54680000  1.0 0.1218947604
H  H129  1  0.45320000  0.70800000  0.25670000  1.0 0.1218947604
H  H130  1  0.54680000  0.70800000  0.74330000  1.0 0.1218947604
H  H131  1  0.45320000  0.29200000  0.74330000  1.0 0.1218947604
H  H132  1  0.54680000  0.29200000  0.25670000  1.0 0.1218947604
H  H133  1  0.95320000  0.75670000  0.79200000  1.0 0.1218947604
H  H134  1  0.04680000  0.24330000  0.79200000  1.0 0.1218947604
H  H135  1  0.95320000  0.24330000  0.20800000  1.0 0.1218947604
H  H136  1  0.04680000  0.75670000  0.20800000  1.0 0.1218947604
H  H137  1  0.75670000  0.20800000  0.04680000  1.0 0.1218947604
H  H138  1  0.24330000  0.20800000  0.95320000  1.0 0.1218947604
H  H139  1  0.24330000  0.79200000  0.04680000  1.0 0.1218947604
H  H140  1  0.75670000  0.79200000  0.95320000  1.0 0.1218947604
H  H141  1  0.20800000  0.95320000  0.24330000  1.0 0.1218947604
H  H142  1  0.20800000  0.04680000  0.75670000  1.0 0.1218947604
H  H143  1  0.79200000  0.95320000  0.75670000  1.0 0.1218947604
H  H144  1  0.79200000  0.04680000  0.24330000  1.0 0.1218947604
H  H145  1  0.79190000  0.59870000  0.37930000  1.0 0.1218947604
H  H146  1  0.20810000  0.40130000  0.37930000  1.0 0.1218947604
H  H147  1  0.20810000  0.59870000  0.62070000  1.0 0.1218947604
H  H148  1  0.79190000  0.40130000  0.62070000  1.0 0.1218947604
H  H149  1  0.37930000  0.79190000  0.59870000  1.0 0.1218947604
H  H150  1  0.37930000  0.20810000  0.40130000  1.0 0.1218947604
H  H151  1  0.62070000  0.20810000  0.59870000  1.0 0.1218947604
H  H152  1  0.62070000  0.79190000  0.40130000  1.0 0.1218947604
H  H153  1  0.59870000  0.37930000  0.79190000  1.0 0.1218947604
H  H154  1  0.40130000  0.37930000  0.20810000  1.0 0.1218947604
H  H155  1  0.59870000  0.62070000  0.20810000  1.0 0.1218947604
H  H156  1  0.40130000  0.62070000  0.79190000  1.0 0.1218947604
H  H157  1  0.09870000  0.29190000  0.12070000  1.0 0.1218947604
H  H158  1  0.90130000  0.70810000  0.12070000  1.0 0.1218947604
H  H159  1  0.09870000  0.70810000  0.87930000  1.0 0.1218947604
H  H160  1  0.90130000  0.29190000  0.87930000  1.0 0.1218947604
H  H161  1  0.29190000  0.87930000  0.90130000  1.0 0.1218947604
H  H162  1  0.70810000  0.87930000  0.09870000  1.0 0.1218947604
H  H163  1  0.70810000  0.12070000  0.90130000  1.0 0.1218947604
H  H164  1  0.29190000  0.12070000  0.09870000  1.0 0.1218947604
H  H165  1  0.87930000  0.09870000  0.70810000  1.0 0.1218947604
H  H166  1  0.87930000  0.90130000  0.29190000  1.0 0.1218947604
H  H167  1  0.12070000  0.09870000  0.29190000  1.0 0.1218947604
H  H168  1  0.12070000  0.90130000  0.70810000  1.0 0.1218947604
H  H169  1  0.20810000  0.40130000  0.62070000  1.0 0.1218947604
H  H170  1  0.79190000  0.59870000  0.62070000  1.0 0.1218947604
H  H171  1  0.79190000  0.40130000  0.37930000  1.0 0.1218947604
H  H172  1  0.20810000  0.59870000  0.37930000  1.0 0.1218947604
H  H173  1  0.62070000  0.20810000  0.40130000  1.0 0.1218947604
H  H174  1  0.62070000  0.79190000  0.59870000  1.0 0.1218947604
H  H175  1  0.37930000  0.79190000  0.40130000  1.0 0.1218947604
H  H176  1  0.37930000  0.20810000  0.59870000  1.0 0.1218947604
H  H177  1  0.40130000  0.62070000  0.20810000  1.0 0.1218947604
H  H178  1  0.59870000  0.62070000  0.79190000  1.0 0.1218947604
H  H179  1  0.40130000  0.37930000  0.79190000  1.0 0.1218947604
H  H180  1  0.59870000  0.37930000  0.20810000  1.0 0.1218947604
H  H181  1  0.90130000  0.70810000  0.87930000  1.0 0.1218947604
H  H182  1  0.09870000  0.29190000  0.87930000  1.0 0.1218947604
H  H183  1  0.90130000  0.29190000  0.12070000  1.0 0.1218947604
H  H184  1  0.09870000  0.70810000  0.12070000  1.0 0.1218947604
H  H185  1  0.70810000  0.12070000  0.09870000  1.0 0.1218947604
H  H186  1  0.29190000  0.12070000  0.90130000  1.0 0.1218947604
H  H187  1  0.29190000  0.87930000  0.09870000  1.0 0.1218947604
H  H188  1  0.70810000  0.87930000  0.90130000  1.0 0.1218947604
H  H189  1  0.12070000  0.90130000  0.29190000  1.0 0.1218947604
H  H190  1  0.12070000  0.09870000  0.70810000  1.0 0.1218947604
H  H191  1  0.87930000  0.90130000  0.70810000  1.0 0.1218947604
H  H192  1  0.87930000  0.09870000  0.29190000  1.0 0.1218947604
H  H193  1  0.76170000  0.55640000  0.41220000  1.0 0.1063747808
H  H194  1  0.23830000  0.44360000  0.41220000  1.0 0.1063747808
H  H195  1  0.23830000  0.55640000  0.58780000  1.0 0.1063747808
H  H196  1  0.76170000  0.44360000  0.58780000  1.0 0.1063747808
H  H197  1  0.41220000  0.76170000  0.55640000  1.0 0.1063747808
H  H198  1  0.41220000  0.23830000  0.44360000  1.0 0.1063747808
H  H199  1  0.58780000  0.23830000  0.55640000  1.0 0.1063747808
H  H200  1  0.58780000  0.76170000  0.44360000  1.0 0.1063747808
H  H201  1  0.55640000  0.41220000  0.76170000  1.0 0.1063747808
H  H202  1  0.44360000  0.41220000  0.23830000  1.0 0.1063747808
H  H203  1  0.55640000  0.58780000  0.23830000  1.0 0.1063747808
H  H204  1  0.44360000  0.58780000  0.76170000  1.0 0.1063747808
H  H205  1  0.05640000  0.26170000  0.08780000  1.0 0.1063747808
H  H206  1  0.94360000  0.73830000  0.08780000  1.0 0.1063747808
H  H207  1  0.05640000  0.73830000  0.91220000  1.0 0.1063747808
H  H208  1  0.94360000  0.26170000  0.91220000  1.0 0.1063747808
H  H209  1  0.26170000  0.91220000  0.94360000  1.0 0.1063747808
H  H210  1  0.73830000  0.91220000  0.05640000  1.0 0.1063747808
H  H211  1  0.73830000  0.08780000  0.94360000  1.0 0.1063747808
H  H212  1  0.26170000  0.08780000  0.05640000  1.0 0.1063747808
H  H213  1  0.91220000  0.05640000  0.73830000  1.0 0.1063747808
H  H214  1  0.91220000  0.94360000  0.26170000  1.0 0.1063747808
H  H215  1  0.08780000  0.05640000  0.26170000  1.0 0.1063747808
H  H216  1  0.08780000  0.94360000  0.73830000  1.0 0.1063747808
H  H217  1  0.23830000  0.44360000  0.58780000  1.0 0.1063747808
H  H218  1  0.76170000  0.55640000  0.58780000  1.0 0.1063747808
H  H219  1  0.76170000  0.44360000  0.41220000  1.0 0.1063747808
H  H220  1  0.23830000  0.55640000  0.41220000  1.0 0.1063747808
H  H221  1  0.58780000  0.23830000  0.44360000  1.0 0.1063747808
H  H222  1  0.58780000  0.76170000  0.55640000  1.0 0.1063747808
H  H223  1  0.41220000  0.76170000  0.44360000  1.0 0.1063747808
H  H224  1  0.41220000  0.23830000  0.55640000  1.0 0.1063747808
H  H225  1  0.44360000  0.58780000  0.23830000  1.0 0.1063747808
H  H226  1  0.55640000  0.58780000  0.76170000  1.0 0.1063747808
H  H227  1  0.44360000  0.41220000  0.76170000  1.0 0.1063747808
H  H228  1  0.55640000  0.41220000  0.23830000  1.0 0.1063747808
H  H229  1  0.94360000  0.73830000  0.91220000  1.0 0.1063747808
H  H230  1  0.05640000  0.26170000  0.91220000  1.0 0.1063747808
H  H231  1  0.94360000  0.26170000  0.08780000  1.0 0.1063747808
H  H232  1  0.05640000  0.73830000  0.08780000  1.0 0.1063747808
H  H233  1  0.73830000  0.08780000  0.05640000  1.0 0.1063747808
H  H234  1  0.26170000  0.08780000  0.94360000  1.0 0.1063747808
H  H235  1  0.26170000  0.91220000  0.05640000  1.0 0.1063747808
H  H236  1  0.73830000  0.91220000  0.94360000  1.0 0.1063747808
H  H237  1  0.08780000  0.94360000  0.26170000  1.0 0.1063747808
H  H238  1  0.08780000  0.05640000  0.73830000  1.0 0.1063747808
H  H239  1  0.91220000  0.94360000  0.73830000  1.0 0.1063747808
H  H240  1  0.91220000  0.05640000  0.26170000  1.0 0.1063747808
H  H241  1  0.78410000  0.54940000  0.46850000  1.0 0.1063747808
H  H242  1  0.21590000  0.45060000  0.46850000  1.0 0.1063747808
H  H243  1  0.21590000  0.54940000  0.53150000  1.0 0.1063747808
H  H244  1  0.78410000  0.45060000  0.53150000  1.0 0.1063747808
H  H245  1  0.46850000  0.78410000  0.54940000  1.0 0.1063747808
H  H246  1  0.46850000  0.21590000  0.45060000  1.0 0.1063747808
H  H247  1  0.53150000  0.21590000  0.54940000  1.0 0.1063747808
H  H248  1  0.53150000  0.78410000  0.45060000  1.0 0.1063747808
H  H249  1  0.54940000  0.46850000  0.78410000  1.0 0.1063747808
H  H250  1  0.45060000  0.46850000  0.21590000  1.0 0.1063747808
H  H251  1  0.54940000  0.53150000  0.21590000  1.0 0.1063747808
H  H252  1  0.45060000  0.53150000  0.78410000  1.0 0.1063747808
H  H253  1  0.04940000  0.28410000  0.03150000  1.0 0.1063747808
H  H254  1  0.95060000  0.71590000  0.03150000  1.0 0.1063747808
H  H255  1  0.04940000  0.71590000  0.96850000  1.0 0.1063747808
H  H256  1  0.95060000  0.28410000  0.96850000  1.0 0.1063747808
H  H257  1  0.28410000  0.96850000  0.95060000  1.0 0.1063747808
H  H258  1  0.71590000  0.96850000  0.04940000  1.0 0.1063747808
H  H259  1  0.71590000  0.03150000  0.95060000  1.0 0.1063747808
H  H260  1  0.28410000  0.03150000  0.04940000  1.0 0.1063747808
H  H261  1  0.96850000  0.04940000  0.71590000  1.0 0.1063747808
H  H262  1  0.96850000  0.95060000  0.28410000  1.0 0.1063747808
H  H263  1  0.03150000  0.04940000  0.28410000  1.0 0.1063747808
H  H264  1  0.03150000  0.95060000  0.71590000  1.0 0.1063747808
H  H265  1  0.21590000  0.45060000  0.53150000  1.0 0.1063747808
H  H266  1  0.78410000  0.54940000  0.53150000  1.0 0.1063747808
H  H267  1  0.78410000  0.45060000  0.46850000  1.0 0.1063747808
H  H268  1  0.21590000  0.54940000  0.46850000  1.0 0.1063747808
H  H269  1  0.53150000  0.21590000  0.45060000  1.0 0.1063747808
H  H270  1  0.53150000  0.78410000  0.54940000  1.0 0.1063747808
H  H271  1  0.46850000  0.78410000  0.45060000  1.0 0.1063747808
H  H272  1  0.46850000  0.21590000  0.54940000  1.0 0.1063747808
H  H273  1  0.45060000  0.53150000  0.21590000  1.0 0.1063747808
H  H274  1  0.54940000  0.53150000  0.78410000  1.0 0.1063747808
H  H275  1  0.45060000  0.46850000  0.78410000  1.0 0.1063747808
H  H276  1  0.54940000  0.46850000  0.21590000  1.0 0.1063747808
H  H277  1  0.95060000  0.71590000  0.96850000  1.0 0.1063747808
H  H278  1  0.04940000  0.28410000  0.96850000  1.0 0.1063747808
H  H279  1  0.95060000  0.28410000  0.03150000  1.0 0.1063747808
H  H280  1  0.04940000  0.71590000  0.03150000  1.0 0.1063747808
H  H281  1  0.71590000  0.03150000  0.04940000  1.0 0.1063747808
H  H282  1  0.28410000  0.03150000  0.95060000  1.0 0.1063747808
H  H283  1  0.28410000  0.96850000  0.04940000  1.0 0.1063747808
H  H284  1  0.71590000  0.96850000  0.95060000  1.0 0.1063747808
H  H285  1  0.03150000  0.95060000  0.28410000  1.0 0.1063747808
H  H286  1  0.03150000  0.04940000  0.71590000  1.0 0.1063747808
H  H287  1  0.96850000  0.95060000  0.71590000  1.0 0.1063747808
H  H288  1  0.96850000  0.04940000  0.28410000  1.0 0.1063747808
H  H289  1  0.72440000  0.54320000  0.46560000  1.0 0.1035404282
H  H290  1  0.27560000  0.45680000  0.46560000  1.0 0.1035404282
H  H291  1  0.27560000  0.54320000  0.53440000  1.0 0.1035404282
H  H292  1  0.72440000  0.45680000  0.53440000  1.0 0.1035404282
H  H293  1  0.46560000  0.72440000  0.54320000  1.0 0.1035404282
H  H294  1  0.46560000  0.27560000  0.45680000  1.0 0.1035404282
H  H295  1  0.53440000  0.27560000  0.54320000  1.0 0.1035404282
H  H296  1  0.53440000  0.72440000  0.45680000  1.0 0.1035404282
H  H297  1  0.54320000  0.46560000  0.72440000  1.0 0.1035404282
H  H298  1  0.45680000  0.46560000  0.27560000  1.0 0.1035404282
H  H299  1  0.54320000  0.53440000  0.27560000  1.0 0.1035404282
H  H300  1  0.45680000  0.53440000  0.72440000  1.0 0.1035404282
H  H301  1  0.04320000  0.22440000  0.03440000  1.0 0.1035404282
H  H302  1  0.95680000  0.77560000  0.03440000  1.0 0.1035404282
H  H303  1  0.04320000  0.77560000  0.96560000  1.0 0.1035404282
H  H304  1  0.95680000  0.22440000  0.96560000  1.0 0.1035404282
H  H305  1  0.22440000  0.96560000  0.95680000  1.0 0.1035404282
H  H306  1  0.77560000  0.96560000  0.04320000  1.0 0.1035404282
H  H307  1  0.77560000  0.03440000  0.95680000  1.0 0.1035404282
H  H308  1  0.22440000  0.03440000  0.04320000  1.0 0.1035404282
H  H309  1  0.96560000  0.04320000  0.77560000  1.0 0.1035404282
H  H310  1  0.96560000  0.95680000  0.22440000  1.0 0.1035404282
H  H311  1  0.03440000  0.04320000  0.22440000  1.0 0.1035404282
H  H312  1  0.03440000  0.95680000  0.77560000  1.0 0.1035404282
H  H313  1  0.27560000  0.45680000  0.53440000  1.0 0.1035404282
H  H314  1  0.72440000  0.54320000  0.53440000  1.0 0.1035404282
H  H315  1  0.72440000  0.45680000  0.46560000  1.0 0.1035404282
H  H316  1  0.27560000  0.54320000  0.46560000  1.0 0.1035404282
H  H317  1  0.53440000  0.27560000  0.45680000  1.0 0.1035404282
H  H318  1  0.53440000  0.72440000  0.54320000  1.0 0.1035404282
H  H319  1  0.46560000  0.72440000  0.45680000  1.0 0.1035404282
H  H320  1  0.46560000  0.27560000  0.54320000  1.0 0.1035404282
H  H321  1  0.45680000  0.53440000  0.27560000  1.0 0.1035404282
H  H322  1  0.54320000  0.53440000  0.72440000  1.0 0.1035404282
H  H323  1  0.45680000  0.46560000  0.72440000  1.0 0.1035404282
H  H324  1  0.54320000  0.46560000  0.27560000  1.0 0.1035404282
H  H325  1  0.95680000  0.77560000  0.96560000  1.0 0.1035404282
H  H326  1  0.04320000  0.22440000  0.96560000  1.0 0.1035404282
H  H327  1  0.95680000  0.22440000  0.03440000  1.0 0.1035404282
H  H328  1  0.04320000  0.77560000  0.03440000  1.0 0.1035404282
H  H329  1  0.77560000  0.03440000  0.04320000  1.0 0.1035404282
H  H330  1  0.22440000  0.03440000  0.95680000  1.0 0.1035404282
H  H331  1  0.22440000  0.96560000  0.04320000  1.0 0.1035404282
H  H332  1  0.77560000  0.96560000  0.95680000  1.0 0.1035404282
H  H333  1  0.03440000  0.95680000  0.22440000  1.0 0.1035404282
H  H334  1  0.03440000  0.04320000  0.77560000  1.0 0.1035404282
H  H335  1  0.96560000  0.95680000  0.77560000  1.0 0.1035404282
H  H336  1  0.96560000  0.04320000  0.22440000  1.0 0.1035404282
C  C1  1  0.76978000  0.66936000  0.27883000  1.0 0.6085705437
C  C2  1  0.23022000  0.33064000  0.27883000  1.0 0.6085705437
C  C3  1  0.23022000  0.66936000  0.72117000  1.0 0.6085705437
C  C4  1  0.76978000  0.33064000  0.72117000  1.0 0.6085705437
C  C5  1  0.27883000  0.76978000  0.66936000  1.0 0.6085705437
C  C6  1  0.27883000  0.23022000  0.33064000  1.0 0.6085705437
C  C7  1  0.72117000  0.23022000  0.66936000  1.0 0.6085705437
C  C8  1  0.72117000  0.76978000  0.33064000  1.0 0.6085705437
C  C9  1  0.66936000  0.27883000  0.76978000  1.0 0.6085705437
C  C10  1  0.33064000  0.27883000  0.23022000  1.0 0.6085705437
C  C11  1  0.66936000  0.72117000  0.23022000  1.0 0.6085705437
C  C12  1  0.33064000  0.72117000  0.76978000  1.0 0.6085705437
C  C13  1  0.16936000  0.26978000  0.22117000  1.0 0.6085705437
C  C14  1  0.83064000  0.73022000  0.22117000  1.0 0.6085705437
C  C15  1  0.16936000  0.73022000  0.77883000  1.0 0.6085705437
C  C16  1  0.83064000  0.26978000  0.77883000  1.0 0.6085705437
C  C17  1  0.26978000  0.77883000  0.83064000  1.0 0.6085705437
C  C18  1  0.73022000  0.77883000  0.16936000  1.0 0.6085705437
C  C19  1  0.73022000  0.22117000  0.83064000  1.0 0.6085705437
C  C20  1  0.26978000  0.22117000  0.16936000  1.0 0.6085705437
C  C21  1  0.77883000  0.16936000  0.73022000  1.0 0.6085705437
C  C22  1  0.77883000  0.83064000  0.26978000  1.0 0.6085705437
C  C23  1  0.22117000  0.16936000  0.26978000  1.0 0.6085705437
C  C24  1  0.22117000  0.83064000  0.73022000  1.0 0.6085705437
C  C25  1  0.23022000  0.33064000  0.72117000  1.0 0.6085705437
C  C26  1  0.76978000  0.66936000  0.72117000  1.0 0.6085705437
C  C27  1  0.76978000  0.33064000  0.27883000  1.0 0.6085705437
C  C28  1  0.23022000  0.66936000  0.27883000  1.0 0.6085705437
C  C29  1  0.72117000  0.23022000  0.33064000  1.0 0.6085705437
C  C30  1  0.72117000  0.76978000  0.66936000  1.0 0.6085705437
C  C31  1  0.27883000  0.76978000  0.33064000  1.0 0.6085705437
C  C32  1  0.27883000  0.23022000  0.66936000  1.0 0.6085705437
C  C33  1  0.33064000  0.72117000  0.23022000  1.0 0.6085705437
C  C34  1  0.66936000  0.72117000  0.76978000  1.0 0.6085705437
C  C35  1  0.33064000  0.27883000  0.76978000  1.0 0.6085705437
C  C36  1  0.66936000  0.27883000  0.23022000  1.0 0.6085705437
C  C37  1  0.83064000  0.73022000  0.77883000  1.0 0.6085705437
C  C38  1  0.16936000  0.26978000  0.77883000  1.0 0.6085705437
C  C39  1  0.83064000  0.26978000  0.22117000  1.0 0.6085705437
C  C40  1  0.16936000  0.73022000  0.22117000  1.0 0.6085705437
C  C41  1  0.73022000  0.22117000  0.16936000  1.0 0.6085705437
C  C42  1  0.26978000  0.22117000  0.83064000  1.0 0.6085705437
C  C43  1  0.26978000  0.77883000  0.16936000  1.0 0.6085705437
C  C44  1  0.73022000  0.77883000  0.83064000  1.0 0.6085705437
C  C45  1  0.22117000  0.83064000  0.26978000  1.0 0.6085705437
C  C46  1  0.22117000  0.16936000  0.73022000  1.0 0.6085705437
C  C47  1  0.77883000  0.83064000  0.73022000  1.0 0.6085705437
C  C48  1  0.77883000  0.16936000  0.26978000  1.0 0.6085705437
C  C49  1  0.76878000  0.63354000  0.29909000  1.0 -0.0524785654
C  C50  1  0.23122000  0.36646000  0.29909000  1.0 -0.0524785654
C  C51  1  0.23122000  0.63354000  0.70091000  1.0 -0.0524785654
C  C52  1  0.76878000  0.36646000  0.70091000  1.0 -0.0524785654
C  C53  1  0.29909000  0.76878000  0.63354000  1.0 -0.0524785654
C  C54  1  0.29909000  0.23122000  0.36646000  1.0 -0.0524785654
C  C55  1  0.70091000  0.23122000  0.63354000  1.0 -0.0524785654
C  C56  1  0.70091000  0.76878000  0.36646000  1.0 -0.0524785654
C  C57  1  0.63354000  0.29909000  0.76878000  1.0 -0.0524785654
C  C58  1  0.36646000  0.29909000  0.23122000  1.0 -0.0524785654
C  C59  1  0.63354000  0.70091000  0.23122000  1.0 -0.0524785654
C  C60  1  0.36646000  0.70091000  0.76878000  1.0 -0.0524785654
C  C61  1  0.13354000  0.26878000  0.20091000  1.0 -0.0524785654
C  C62  1  0.86646000  0.73122000  0.20091000  1.0 -0.0524785654
C  C63  1  0.13354000  0.73122000  0.79909000  1.0 -0.0524785654
C  C64  1  0.86646000  0.26878000  0.79909000  1.0 -0.0524785654
C  C65  1  0.26878000  0.79909000  0.86646000  1.0 -0.0524785654
C  C66  1  0.73122000  0.79909000  0.13354000  1.0 -0.0524785654
C  C67  1  0.73122000  0.20091000  0.86646000  1.0 -0.0524785654
C  C68  1  0.26878000  0.20091000  0.13354000  1.0 -0.0524785654
C  C69  1  0.79909000  0.13354000  0.73122000  1.0 -0.0524785654
C  C70  1  0.79909000  0.86646000  0.26878000  1.0 -0.0524785654
C  C71  1  0.20091000  0.13354000  0.26878000  1.0 -0.0524785654
C  C72  1  0.20091000  0.86646000  0.73122000  1.0 -0.0524785654
C  C73  1  0.23122000  0.36646000  0.70091000  1.0 -0.0524785654
C  C74  1  0.76878000  0.63354000  0.70091000  1.0 -0.0524785654
C  C75  1  0.76878000  0.36646000  0.29909000  1.0 -0.0524785654
C  C76  1  0.23122000  0.63354000  0.29909000  1.0 -0.0524785654
C  C77  1  0.70091000  0.23122000  0.36646000  1.0 -0.0524785654
C  C78  1  0.70091000  0.76878000  0.63354000  1.0 -0.0524785654
C  C79  1  0.29909000  0.76878000  0.36646000  1.0 -0.0524785654
C  C80  1  0.29909000  0.23122000  0.63354000  1.0 -0.0524785654
C  C81  1  0.36646000  0.70091000  0.23122000  1.0 -0.0524785654
C  C82  1  0.63354000  0.70091000  0.76878000  1.0 -0.0524785654
C  C83  1  0.36646000  0.29909000  0.76878000  1.0 -0.0524785654
C  C84  1  0.63354000  0.29909000  0.23122000  1.0 -0.0524785654
C  C85  1  0.86646000  0.73122000  0.79909000  1.0 -0.0524785654
C  C86  1  0.13354000  0.26878000  0.79909000  1.0 -0.0524785654
C  C87  1  0.86646000  0.26878000  0.20091000  1.0 -0.0524785654
C  C88  1  0.13354000  0.73122000  0.20091000  1.0 -0.0524785654
C  C89  1  0.73122000  0.20091000  0.13354000  1.0 -0.0524785654
C  C90  1  0.26878000  0.20091000  0.86646000  1.0 -0.0524785654
C  C91  1  0.26878000  0.79909000  0.13354000  1.0 -0.0524785654
C  C92  1  0.73122000  0.79909000  0.86646000  1.0 -0.0524785654
C  C93  1  0.20091000  0.86646000  0.26878000  1.0 -0.0524785654
C  C94  1  0.20091000  0.13354000  0.73122000  1.0 -0.0524785654
C  C95  1  0.79909000  0.86646000  0.73122000  1.0 -0.0524785654
C  C96  1  0.79909000  0.13354000  0.26878000  1.0 -0.0524785654
C  C97  1  0.75420000  0.60163000  0.28343000  1.0 -0.0901751595
C  C98  1  0.24580000  0.39837000  0.28343000  1.0 -0.0901751595
C  C99  1  0.24580000  0.60163000  0.71657000  1.0 -0.0901751595
C  C100  1  0.75420000  0.39837000  0.71657000  1.0 -0.0901751595
C  C101  1  0.28343000  0.75420000  0.60163000  1.0 -0.0901751595
C  C102  1  0.28343000  0.24580000  0.39837000  1.0 -0.0901751595
C  C103  1  0.71657000  0.24580000  0.60163000  1.0 -0.0901751595
C  C104  1  0.71657000  0.75420000  0.39837000  1.0 -0.0901751595
C  C105  1  0.60163000  0.28343000  0.75420000  1.0 -0.0901751595
C  C106  1  0.39837000  0.28343000  0.24580000  1.0 -0.0901751595
C  C107  1  0.60163000  0.71657000  0.24580000  1.0 -0.0901751595
C  C108  1  0.39837000  0.71657000  0.75420000  1.0 -0.0901751595
C  C109  1  0.10163000  0.25420000  0.21657000  1.0 -0.0901751595
C  C110  1  0.89837000  0.74580000  0.21657000  1.0 -0.0901751595
C  C111  1  0.10163000  0.74580000  0.78343000  1.0 -0.0901751595
C  C112  1  0.89837000  0.25420000  0.78343000  1.0 -0.0901751595
C  C113  1  0.25420000  0.78343000  0.89837000  1.0 -0.0901751595
C  C114  1  0.74580000  0.78343000  0.10163000  1.0 -0.0901751595
C  C115  1  0.74580000  0.21657000  0.89837000  1.0 -0.0901751595
C  C116  1  0.25420000  0.21657000  0.10163000  1.0 -0.0901751595
C  C117  1  0.78343000  0.10163000  0.74580000  1.0 -0.0901751595
C  C118  1  0.78343000  0.89837000  0.25420000  1.0 -0.0901751595
C  C119  1  0.21657000  0.10163000  0.25420000  1.0 -0.0901751595
C  C120  1  0.21657000  0.89837000  0.74580000  1.0 -0.0901751595
C  C121  1  0.24580000  0.39837000  0.71657000  1.0 -0.0901751595
C  C122  1  0.75420000  0.60163000  0.71657000  1.0 -0.0901751595
C  C123  1  0.75420000  0.39837000  0.28343000  1.0 -0.0901751595
C  C124  1  0.24580000  0.60163000  0.28343000  1.0 -0.0901751595
C  C125  1  0.71657000  0.24580000  0.39837000  1.0 -0.0901751595
C  C126  1  0.71657000  0.75420000  0.60163000  1.0 -0.0901751595
C  C127  1  0.28343000  0.75420000  0.39837000  1.0 -0.0901751595
C  C128  1  0.28343000  0.24580000  0.60163000  1.0 -0.0901751595
C  C129  1  0.39837000  0.71657000  0.24580000  1.0 -0.0901751595
C  C130  1  0.60163000  0.71657000  0.75420000  1.0 -0.0901751595
C  C131  1  0.39837000  0.28343000  0.75420000  1.0 -0.0901751595
C  C132  1  0.60163000  0.28343000  0.24580000  1.0 -0.0901751595
C  C133  1  0.89837000  0.74580000  0.78343000  1.0 -0.0901751595
C  C134  1  0.10163000  0.25420000  0.78343000  1.0 -0.0901751595
C  C135  1  0.89837000  0.25420000  0.21657000  1.0 -0.0901751595
C  C136  1  0.10163000  0.74580000  0.21657000  1.0 -0.0901751595
C  C137  1  0.74580000  0.21657000  0.10163000  1.0 -0.0901751595
C  C138  1  0.25420000  0.21657000  0.89837000  1.0 -0.0901751595
C  C139  1  0.25420000  0.78343000  0.10163000  1.0 -0.0901751595
C  C140  1  0.74580000  0.78343000  0.89837000  1.0 -0.0901751595
C  C141  1  0.21657000  0.89837000  0.25420000  1.0 -0.0901751595
C  C142  1  0.21657000  0.10163000  0.74580000  1.0 -0.0901751595
C  C143  1  0.78343000  0.89837000  0.74580000  1.0 -0.0901751595
C  C144  1  0.78343000  0.10163000  0.25420000  1.0 -0.0901751595
C  C145  1  0.78340000  0.63185000  0.33524000  1.0 -0.0835705905
C  C146  1  0.21660000  0.36815000  0.33524000  1.0 -0.0835705905
C  C147  1  0.21660000  0.63185000  0.66476000  1.0 -0.0835705905
C  C148  1  0.78340000  0.36815000  0.66476000  1.0 -0.0835705905
C  C149  1  0.33524000  0.78340000  0.63185000  1.0 -0.0835705905
C  C150  1  0.33524000  0.21660000  0.36815000  1.0 -0.0835705905
C  C151  1  0.66476000  0.21660000  0.63185000  1.0 -0.0835705905
C  C152  1  0.66476000  0.78340000  0.36815000  1.0 -0.0835705905
C  C153  1  0.63185000  0.33524000  0.78340000  1.0 -0.0835705905
C  C154  1  0.36815000  0.33524000  0.21660000  1.0 -0.0835705905
C  C155  1  0.63185000  0.66476000  0.21660000  1.0 -0.0835705905
C  C156  1  0.36815000  0.66476000  0.78340000  1.0 -0.0835705905
C  C157  1  0.13185000  0.28340000  0.16476000  1.0 -0.0835705905
C  C158  1  0.86815000  0.71660000  0.16476000  1.0 -0.0835705905
C  C159  1  0.13185000  0.71660000  0.83524000  1.0 -0.0835705905
C  C160  1  0.86815000  0.28340000  0.83524000  1.0 -0.0835705905
C  C161  1  0.28340000  0.83524000  0.86815000  1.0 -0.0835705905
C  C162  1  0.71660000  0.83524000  0.13185000  1.0 -0.0835705905
C  C163  1  0.71660000  0.16476000  0.86815000  1.0 -0.0835705905
C  C164  1  0.28340000  0.16476000  0.13185000  1.0 -0.0835705905
C  C165  1  0.83524000  0.13185000  0.71660000  1.0 -0.0835705905
C  C166  1  0.83524000  0.86815000  0.28340000  1.0 -0.0835705905
C  C167  1  0.16476000  0.13185000  0.28340000  1.0 -0.0835705905
C  C168  1  0.16476000  0.86815000  0.71660000  1.0 -0.0835705905
C  C169  1  0.21660000  0.36815000  0.66476000  1.0 -0.0835705905
C  C170  1  0.78340000  0.63185000  0.66476000  1.0 -0.0835705905
C  C171  1  0.78340000  0.36815000  0.33524000  1.0 -0.0835705905
C  C172  1  0.21660000  0.63185000  0.33524000  1.0 -0.0835705905
C  C173  1  0.66476000  0.21660000  0.36815000  1.0 -0.0835705905
C  C174  1  0.66476000  0.78340000  0.63185000  1.0 -0.0835705905
C  C175  1  0.33524000  0.78340000  0.36815000  1.0 -0.0835705905
C  C176  1  0.33524000  0.21660000  0.63185000  1.0 -0.0835705905
C  C177  1  0.36815000  0.66476000  0.21660000  1.0 -0.0835705905
C  C178  1  0.63185000  0.66476000  0.78340000  1.0 -0.0835705905
C  C179  1  0.36815000  0.33524000  0.78340000  1.0 -0.0835705905
C  C180  1  0.63185000  0.33524000  0.21660000  1.0 -0.0835705905
C  C181  1  0.86815000  0.71660000  0.83524000  1.0 -0.0835705905
C  C182  1  0.13185000  0.28340000  0.83524000  1.0 -0.0835705905
C  C183  1  0.86815000  0.28340000  0.16476000  1.0 -0.0835705905
C  C184  1  0.13185000  0.71660000  0.16476000  1.0 -0.0835705905
C  C185  1  0.71660000  0.16476000  0.13185000  1.0 -0.0835705905
C  C186  1  0.28340000  0.16476000  0.86815000  1.0 -0.0835705905
C  C187  1  0.28340000  0.83524000  0.13185000  1.0 -0.0835705905
C  C188  1  0.71660000  0.83524000  0.86815000  1.0 -0.0835705905
C  C189  1  0.16476000  0.86815000  0.28340000  1.0 -0.0835705905
C  C190  1  0.16476000  0.13185000  0.71660000  1.0 -0.0835705905
C  C191  1  0.83524000  0.86815000  0.71660000  1.0 -0.0835705905
C  C192  1  0.83524000  0.13185000  0.28340000  1.0 -0.0835705905
C  C193  1  0.75320000  0.56873000  0.30326000  1.0 -0.1367370154
C  C194  1  0.24680000  0.43127000  0.30326000  1.0 -0.1367370154
C  C195  1  0.24680000  0.56873000  0.69674000  1.0 -0.1367370154
C  C196  1  0.75320000  0.43127000  0.69674000  1.0 -0.1367370154
C  C197  1  0.30326000  0.75320000  0.56873000  1.0 -0.1367370154
C  C198  1  0.30326000  0.24680000  0.43127000  1.0 -0.1367370154
C  C199  1  0.69674000  0.24680000  0.56873000  1.0 -0.1367370154
C  C200  1  0.69674000  0.75320000  0.43127000  1.0 -0.1367370154
C  C201  1  0.56873000  0.30326000  0.75320000  1.0 -0.1367370154
C  C202  1  0.43127000  0.30326000  0.24680000  1.0 -0.1367370154
C  C203  1  0.56873000  0.69674000  0.24680000  1.0 -0.1367370154
C  C204  1  0.43127000  0.69674000  0.75320000  1.0 -0.1367370154
C  C205  1  0.06873000  0.25320000  0.19674000  1.0 -0.1367370154
C  C206  1  0.93127000  0.74680000  0.19674000  1.0 -0.1367370154
C  C207  1  0.06873000  0.74680000  0.80326000  1.0 -0.1367370154
C  C208  1  0.93127000  0.25320000  0.80326000  1.0 -0.1367370154
C  C209  1  0.25320000  0.80326000  0.93127000  1.0 -0.1367370154
C  C210  1  0.74680000  0.80326000  0.06873000  1.0 -0.1367370154
C  C211  1  0.74680000  0.19674000  0.93127000  1.0 -0.1367370154
C  C212  1  0.25320000  0.19674000  0.06873000  1.0 -0.1367370154
C  C213  1  0.80326000  0.06873000  0.74680000  1.0 -0.1367370154
C  C214  1  0.80326000  0.93127000  0.25320000  1.0 -0.1367370154
C  C215  1  0.19674000  0.06873000  0.25320000  1.0 -0.1367370154
C  C216  1  0.19674000  0.93127000  0.74680000  1.0 -0.1367370154
C  C217  1  0.24680000  0.43127000  0.69674000  1.0 -0.1367370154
C  C218  1  0.75320000  0.56873000  0.69674000  1.0 -0.1367370154
C  C219  1  0.75320000  0.43127000  0.30326000  1.0 -0.1367370154
C  C220  1  0.24680000  0.56873000  0.30326000  1.0 -0.1367370154
C  C221  1  0.69674000  0.24680000  0.43127000  1.0 -0.1367370154
C  C222  1  0.69674000  0.75320000  0.56873000  1.0 -0.1367370154
C  C223  1  0.30326000  0.75320000  0.43127000  1.0 -0.1367370154
C  C224  1  0.30326000  0.24680000  0.56873000  1.0 -0.1367370154
C  C225  1  0.43127000  0.69674000  0.24680000  1.0 -0.1367370154
C  C226  1  0.56873000  0.69674000  0.75320000  1.0 -0.1367370154
C  C227  1  0.43127000  0.30326000  0.75320000  1.0 -0.1367370154
C  C228  1  0.56873000  0.30326000  0.24680000  1.0 -0.1367370154
C  C229  1  0.93127000  0.74680000  0.80326000  1.0 -0.1367370154
C  C230  1  0.06873000  0.25320000  0.80326000  1.0 -0.1367370154
C  C231  1  0.93127000  0.25320000  0.19674000  1.0 -0.1367370154
C  C232  1  0.06873000  0.74680000  0.19674000  1.0 -0.1367370154
C  C233  1  0.74680000  0.19674000  0.06873000  1.0 -0.1367370154
C  C234  1  0.25320000  0.19674000  0.93127000  1.0 -0.1367370154
C  C235  1  0.25320000  0.80326000  0.06873000  1.0 -0.1367370154
C  C236  1  0.74680000  0.80326000  0.93127000  1.0 -0.1367370154
C  C237  1  0.19674000  0.93127000  0.25320000  1.0 -0.1367370154
C  C238  1  0.19674000  0.06873000  0.74680000  1.0 -0.1367370154
C  C239  1  0.80326000  0.93127000  0.74680000  1.0 -0.1367370154
C  C240  1  0.80326000  0.06873000  0.25320000  1.0 -0.1367370154
C  C241  1  0.76650000  0.56726000  0.33936000  1.0 0.0577969848
C  C242  1  0.23350000  0.43274000  0.33936000  1.0 0.0577969848
C  C243  1  0.23350000  0.56726000  0.66064000  1.0 0.0577969848
C  C244  1  0.76650000  0.43274000  0.66064000  1.0 0.0577969848
C  C245  1  0.33936000  0.76650000  0.56726000  1.0 0.0577969848
C  C246  1  0.33936000  0.23350000  0.43274000  1.0 0.0577969848
C  C247  1  0.66064000  0.23350000  0.56726000  1.0 0.0577969848
C  C248  1  0.66064000  0.76650000  0.43274000  1.0 0.0577969848
C  C249  1  0.56726000  0.33936000  0.76650000  1.0 0.0577969848
C  C250  1  0.43274000  0.33936000  0.23350000  1.0 0.0577969848
C  C251  1  0.56726000  0.66064000  0.23350000  1.0 0.0577969848
C  C252  1  0.43274000  0.66064000  0.76650000  1.0 0.0577969848
C  C253  1  0.06726000  0.26650000  0.16064000  1.0 0.0577969848
C  C254  1  0.93274000  0.73350000  0.16064000  1.0 0.0577969848
C  C255  1  0.06726000  0.73350000  0.83936000  1.0 0.0577969848
C  C256  1  0.93274000  0.26650000  0.83936000  1.0 0.0577969848
C  C257  1  0.26650000  0.83936000  0.93274000  1.0 0.0577969848
C  C258  1  0.73350000  0.83936000  0.06726000  1.0 0.0577969848
C  C259  1  0.73350000  0.16064000  0.93274000  1.0 0.0577969848
C  C260  1  0.26650000  0.16064000  0.06726000  1.0 0.0577969848
C  C261  1  0.83936000  0.06726000  0.73350000  1.0 0.0577969848
C  C262  1  0.83936000  0.93274000  0.26650000  1.0 0.0577969848
C  C263  1  0.16064000  0.06726000  0.26650000  1.0 0.0577969848
C  C264  1  0.16064000  0.93274000  0.73350000  1.0 0.0577969848
C  C265  1  0.23350000  0.43274000  0.66064000  1.0 0.0577969848
C  C266  1  0.76650000  0.56726000  0.66064000  1.0 0.0577969848
C  C267  1  0.76650000  0.43274000  0.33936000  1.0 0.0577969848
C  C268  1  0.23350000  0.56726000  0.33936000  1.0 0.0577969848
C  C269  1  0.66064000  0.23350000  0.43274000  1.0 0.0577969848
C  C270  1  0.66064000  0.76650000  0.56726000  1.0 0.0577969848
C  C271  1  0.33936000  0.76650000  0.43274000  1.0 0.0577969848
C  C272  1  0.33936000  0.23350000  0.56726000  1.0 0.0577969848
C  C273  1  0.43274000  0.66064000  0.23350000  1.0 0.0577969848
C  C274  1  0.56726000  0.66064000  0.76650000  1.0 0.0577969848
C  C275  1  0.43274000  0.33936000  0.76650000  1.0 0.0577969848
C  C276  1  0.56726000  0.33936000  0.23350000  1.0 0.0577969848
C  C277  1  0.93274000  0.73350000  0.83936000  1.0 0.0577969848
C  C278  1  0.06726000  0.26650000  0.83936000  1.0 0.0577969848
C  C279  1  0.93274000  0.26650000  0.16064000  1.0 0.0577969848
C  C280  1  0.06726000  0.73350000  0.16064000  1.0 0.0577969848
C  C281  1  0.73350000  0.16064000  0.06726000  1.0 0.0577969848
C  C282  1  0.26650000  0.16064000  0.93274000  1.0 0.0577969848
C  C283  1  0.26650000  0.83936000  0.06726000  1.0 0.0577969848
C  C284  1  0.73350000  0.83936000  0.93274000  1.0 0.0577969848
C  C285  1  0.16064000  0.93274000  0.26650000  1.0 0.0577969848
C  C286  1  0.16064000  0.06726000  0.73350000  1.0 0.0577969848
C  C287  1  0.83936000  0.93274000  0.73350000  1.0 0.0577969848
C  C288  1  0.83936000  0.06726000  0.26650000  1.0 0.0577969848
C  C289  1  0.76480000  0.53226000  0.36124000  1.0 0.1842420191
C  C290  1  0.23520000  0.46774000  0.36124000  1.0 0.1842420191
C  C291  1  0.23520000  0.53226000  0.63876000  1.0 0.1842420191
C  C292  1  0.76480000  0.46774000  0.63876000  1.0 0.1842420191
C  C293  1  0.36124000  0.76480000  0.53226000  1.0 0.1842420191
C  C294  1  0.36124000  0.23520000  0.46774000  1.0 0.1842420191
C  C295  1  0.63876000  0.23520000  0.53226000  1.0 0.1842420191
C  C296  1  0.63876000  0.76480000  0.46774000  1.0 0.1842420191
C  C297  1  0.53226000  0.36124000  0.76480000  1.0 0.1842420191
C  C298  1  0.46774000  0.36124000  0.23520000  1.0 0.1842420191
C  C299  1  0.53226000  0.63876000  0.23520000  1.0 0.1842420191
C  C300  1  0.46774000  0.63876000  0.76480000  1.0 0.1842420191
C  C301  1  0.03226000  0.26480000  0.13876000  1.0 0.1842420191
C  C302  1  0.96774000  0.73520000  0.13876000  1.0 0.1842420191
C  C303  1  0.03226000  0.73520000  0.86124000  1.0 0.1842420191
C  C304  1  0.96774000  0.26480000  0.86124000  1.0 0.1842420191
C  C305  1  0.26480000  0.86124000  0.96774000  1.0 0.1842420191
C  C306  1  0.73520000  0.86124000  0.03226000  1.0 0.1842420191
C  C307  1  0.73520000  0.13876000  0.96774000  1.0 0.1842420191
C  C308  1  0.26480000  0.13876000  0.03226000  1.0 0.1842420191
C  C309  1  0.86124000  0.03226000  0.73520000  1.0 0.1842420191
C  C310  1  0.86124000  0.96774000  0.26480000  1.0 0.1842420191
C  C311  1  0.13876000  0.03226000  0.26480000  1.0 0.1842420191
C  C312  1  0.13876000  0.96774000  0.73520000  1.0 0.1842420191
C  C313  1  0.23520000  0.46774000  0.63876000  1.0 0.1842420191
C  C314  1  0.76480000  0.53226000  0.63876000  1.0 0.1842420191
C  C315  1  0.76480000  0.46774000  0.36124000  1.0 0.1842420191
C  C316  1  0.23520000  0.53226000  0.36124000  1.0 0.1842420191
C  C317  1  0.63876000  0.23520000  0.46774000  1.0 0.1842420191
C  C318  1  0.63876000  0.76480000  0.53226000  1.0 0.1842420191
C  C319  1  0.36124000  0.76480000  0.46774000  1.0 0.1842420191
C  C320  1  0.36124000  0.23520000  0.53226000  1.0 0.1842420191
C  C321  1  0.46774000  0.63876000  0.23520000  1.0 0.1842420191
C  C322  1  0.53226000  0.63876000  0.76480000  1.0 0.1842420191
C  C323  1  0.46774000  0.36124000  0.76480000  1.0 0.1842420191
C  C324  1  0.53226000  0.36124000  0.23520000  1.0 0.1842420191
C  C325  1  0.96774000  0.73520000  0.86124000  1.0 0.1842420191
C  C326  1  0.03226000  0.26480000  0.86124000  1.0 0.1842420191
C  C327  1  0.96774000  0.26480000  0.13876000  1.0 0.1842420191
C  C328  1  0.03226000  0.73520000  0.13876000  1.0 0.1842420191
C  C329  1  0.73520000  0.13876000  0.03226000  1.0 0.1842420191
C  C330  1  0.26480000  0.13876000  0.96774000  1.0 0.1842420191
C  C331  1  0.26480000  0.86124000  0.03226000  1.0 0.1842420191
C  C332  1  0.73520000  0.86124000  0.96774000  1.0 0.1842420191
C  C333  1  0.13876000  0.96774000  0.26480000  1.0 0.1842420191
C  C334  1  0.13876000  0.03226000  0.73520000  1.0 0.1842420191
C  C335  1  0.86124000  0.96774000  0.73520000  1.0 0.1842420191
C  C336  1  0.86124000  0.03226000  0.26480000  1.0 0.1842420191
C  C337  1  0.78200000  0.59946000  0.35470000  1.0 -0.1583246772
C  C338  1  0.21800000  0.40054000  0.35470000  1.0 -0.1583246772
C  C339  1  0.21800000  0.59946000  0.64530000  1.0 -0.1583246772
C  C340  1  0.78200000  0.40054000  0.64530000  1.0 -0.1583246772
C  C341  1  0.35470000  0.78200000  0.59946000  1.0 -0.1583246772
C  C342  1  0.35470000  0.21800000  0.40054000  1.0 -0.1583246772
C  C343  1  0.64530000  0.21800000  0.59946000  1.0 -0.1583246772
C  C344  1  0.64530000  0.78200000  0.40054000  1.0 -0.1583246772
C  C345  1  0.59946000  0.35470000  0.78200000  1.0 -0.1583246772
C  C346  1  0.40054000  0.35470000  0.21800000  1.0 -0.1583246772
C  C347  1  0.59946000  0.64530000  0.21800000  1.0 -0.1583246772
C  C348  1  0.40054000  0.64530000  0.78200000  1.0 -0.1583246772
C  C349  1  0.09946000  0.28200000  0.14530000  1.0 -0.1583246772
C  C350  1  0.90054000  0.71800000  0.14530000  1.0 -0.1583246772
C  C351  1  0.09946000  0.71800000  0.85470000  1.0 -0.1583246772
C  C352  1  0.90054000  0.28200000  0.85470000  1.0 -0.1583246772
C  C353  1  0.28200000  0.85470000  0.90054000  1.0 -0.1583246772
C  C354  1  0.71800000  0.85470000  0.09946000  1.0 -0.1583246772
C  C355  1  0.71800000  0.14530000  0.90054000  1.0 -0.1583246772
C  C356  1  0.28200000  0.14530000  0.09946000  1.0 -0.1583246772
C  C357  1  0.85470000  0.09946000  0.71800000  1.0 -0.1583246772
C  C358  1  0.85470000  0.90054000  0.28200000  1.0 -0.1583246772
C  C359  1  0.14530000  0.09946000  0.28200000  1.0 -0.1583246772
C  C360  1  0.14530000  0.90054000  0.71800000  1.0 -0.1583246772
C  C361  1  0.21800000  0.40054000  0.64530000  1.0 -0.1583246772
C  C362  1  0.78200000  0.59946000  0.64530000  1.0 -0.1583246772
C  C363  1  0.78200000  0.40054000  0.35470000  1.0 -0.1583246772
C  C364  1  0.21800000  0.59946000  0.35470000  1.0 -0.1583246772
C  C365  1  0.64530000  0.21800000  0.40054000  1.0 -0.1583246772
C  C366  1  0.64530000  0.78200000  0.59946000  1.0 -0.1583246772
C  C367  1  0.35470000  0.78200000  0.40054000  1.0 -0.1583246772
C  C368  1  0.35470000  0.21800000  0.59946000  1.0 -0.1583246772
C  C369  1  0.40054000  0.64530000  0.21800000  1.0 -0.1583246772
C  C370  1  0.59946000  0.64530000  0.78200000  1.0 -0.1583246772
C  C371  1  0.40054000  0.35470000  0.78200000  1.0 -0.1583246772
C  C372  1  0.59946000  0.35470000  0.21800000  1.0 -0.1583246772
C  C373  1  0.90054000  0.71800000  0.85470000  1.0 -0.1583246772
C  C374  1  0.09946000  0.28200000  0.85470000  1.0 -0.1583246772
C  C375  1  0.90054000  0.28200000  0.14530000  1.0 -0.1583246772
C  C376  1  0.09946000  0.71800000  0.14530000  1.0 -0.1583246772
C  C377  1  0.71800000  0.14530000  0.09946000  1.0 -0.1583246772
C  C378  1  0.28200000  0.14530000  0.90054000  1.0 -0.1583246772
C  C379  1  0.28200000  0.85470000  0.09946000  1.0 -0.1583246772
C  C380  1  0.71800000  0.85470000  0.90054000  1.0 -0.1583246772
C  C381  1  0.14530000  0.90054000  0.28200000  1.0 -0.1583246772
C  C382  1  0.14530000  0.09946000  0.71800000  1.0 -0.1583246772
C  C383  1  0.85470000  0.90054000  0.71800000  1.0 -0.1583246772
C  C384  1  0.85470000  0.09946000  0.28200000  1.0 -0.1583246772
C  C385  1  0.76160000  0.50000000  0.41990000  1.0 0.0898287309
C  C386  1  0.23840000  0.50000000  0.41990000  1.0 0.0898287309
C  C387  1  0.23840000  0.50000000  0.58010000  1.0 0.0898287309
C  C388  1  0.76160000  0.50000000  0.58010000  1.0 0.0898287309
C  C389  1  0.41990000  0.76160000  0.50000000  1.0 0.0898287309
C  C390  1  0.41990000  0.23840000  0.50000000  1.0 0.0898287309
C  C391  1  0.58010000  0.23840000  0.50000000  1.0 0.0898287309
C  C392  1  0.58010000  0.76160000  0.50000000  1.0 0.0898287309
C  C393  1  0.50000000  0.41990000  0.76160000  1.0 0.0898287309
C  C394  1  0.50000000  0.41990000  0.23840000  1.0 0.0898287309
C  C395  1  0.50000000  0.58010000  0.23840000  1.0 0.0898287309
C  C396  1  0.50000000  0.58010000  0.76160000  1.0 0.0898287309
C  C397  1  0.00000000  0.26160000  0.08010000  1.0 0.0898287309
C  C398  1  0.00000000  0.73840000  0.08010000  1.0 0.0898287309
C  C399  1  0.00000000  0.73840000  0.91990000  1.0 0.0898287309
C  C400  1  0.00000000  0.26160000  0.91990000  1.0 0.0898287309
C  C401  1  0.26160000  0.91990000  0.00000000  1.0 0.0898287309
C  C402  1  0.73840000  0.91990000  0.00000000  1.0 0.0898287309
C  C403  1  0.73840000  0.08010000  0.00000000  1.0 0.0898287309
C  C404  1  0.26160000  0.08010000  0.00000000  1.0 0.0898287309
C  C405  1  0.91990000  0.00000000  0.73840000  1.0 0.0898287309
C  C406  1  0.91990000  0.00000000  0.26160000  1.0 0.0898287309
C  C407  1  0.08010000  0.00000000  0.26160000  1.0 0.0898287309
C  C408  1  0.08010000  0.00000000  0.73840000  1.0 0.0898287309
C  C409  1  0.76260000  0.53310000  0.39952000  1.0 -0.2482468917
C  C410  1  0.23740000  0.46690000  0.39952000  1.0 -0.2482468917
C  C411  1  0.23740000  0.53310000  0.60048000  1.0 -0.2482468917
C  C412  1  0.76260000  0.46690000  0.60048000  1.0 -0.2482468917
C  C413  1  0.39952000  0.76260000  0.53310000  1.0 -0.2482468917
C  C414  1  0.39952000  0.23740000  0.46690000  1.0 -0.2482468917
C  C415  1  0.60048000  0.23740000  0.53310000  1.0 -0.2482468917
C  C416  1  0.60048000  0.76260000  0.46690000  1.0 -0.2482468917
C  C417  1  0.53310000  0.39952000  0.76260000  1.0 -0.2482468917
C  C418  1  0.46690000  0.39952000  0.23740000  1.0 -0.2482468917
C  C419  1  0.53310000  0.60048000  0.23740000  1.0 -0.2482468917
C  C420  1  0.46690000  0.60048000  0.76260000  1.0 -0.2482468917
C  C421  1  0.03310000  0.26260000  0.10048000  1.0 -0.2482468917
C  C422  1  0.96690000  0.73740000  0.10048000  1.0 -0.2482468917
C  C423  1  0.03310000  0.73740000  0.89952000  1.0 -0.2482468917
C  C424  1  0.96690000  0.26260000  0.89952000  1.0 -0.2482468917
C  C425  1  0.26260000  0.89952000  0.96690000  1.0 -0.2482468917
C  C426  1  0.73740000  0.89952000  0.03310000  1.0 -0.2482468917
C  C427  1  0.73740000  0.10048000  0.96690000  1.0 -0.2482468917
C  C428  1  0.26260000  0.10048000  0.03310000  1.0 -0.2482468917
C  C429  1  0.89952000  0.03310000  0.73740000  1.0 -0.2482468917
C  C430  1  0.89952000  0.96690000  0.26260000  1.0 -0.2482468917
C  C431  1  0.10048000  0.03310000  0.26260000  1.0 -0.2482468917
C  C432  1  0.10048000  0.96690000  0.73740000  1.0 -0.2482468917
C  C433  1  0.23740000  0.46690000  0.60048000  1.0 -0.2482468917
C  C434  1  0.76260000  0.53310000  0.60048000  1.0 -0.2482468917
C  C435  1  0.76260000  0.46690000  0.39952000  1.0 -0.2482468917
C  C436  1  0.23740000  0.53310000  0.39952000  1.0 -0.2482468917
C  C437  1  0.60048000  0.23740000  0.46690000  1.0 -0.2482468917
C  C438  1  0.60048000  0.76260000  0.53310000  1.0 -0.2482468917
C  C439  1  0.39952000  0.76260000  0.46690000  1.0 -0.2482468917
C  C440  1  0.39952000  0.23740000  0.53310000  1.0 -0.2482468917
C  C441  1  0.46690000  0.60048000  0.23740000  1.0 -0.2482468917
C  C442  1  0.53310000  0.60048000  0.76260000  1.0 -0.2482468917
C  C443  1  0.46690000  0.39952000  0.76260000  1.0 -0.2482468917
C  C444  1  0.53310000  0.39952000  0.23740000  1.0 -0.2482468917
C  C445  1  0.96690000  0.73740000  0.89952000  1.0 -0.2482468917
C  C446  1  0.03310000  0.26260000  0.89952000  1.0 -0.2482468917
C  C447  1  0.96690000  0.26260000  0.10048000  1.0 -0.2482468917
C  C448  1  0.03310000  0.73740000  0.10048000  1.0 -0.2482468917
C  C449  1  0.73740000  0.10048000  0.03310000  1.0 -0.2482468917
C  C450  1  0.26260000  0.10048000  0.96690000  1.0 -0.2482468917
C  C451  1  0.26260000  0.89952000  0.03310000  1.0 -0.2482468917
C  C452  1  0.73740000  0.89952000  0.96690000  1.0 -0.2482468917
C  C453  1  0.10048000  0.96690000  0.26260000  1.0 -0.2482468917
C  C454  1  0.10048000  0.03310000  0.73740000  1.0 -0.2482468917
C  C455  1  0.89952000  0.96690000  0.73740000  1.0 -0.2482468917
C  C456  1  0.89952000  0.03310000  0.26260000  1.0 -0.2482468917
C  C457  1  0.76060000  0.50000000  0.46120000  1.0 0.0096766268
C  C458  1  0.23940000  0.50000000  0.46120000  1.0 0.0096766268
C  C459  1  0.23940000  0.50000000  0.53880000  1.0 0.0096766268
C  C460  1  0.76060000  0.50000000  0.53880000  1.0 0.0096766268
C  C461  1  0.46120000  0.76060000  0.50000000  1.0 0.0096766268
C  C462  1  0.46120000  0.23940000  0.50000000  1.0 0.0096766268
C  C463  1  0.53880000  0.23940000  0.50000000  1.0 0.0096766268
C  C464  1  0.53880000  0.76060000  0.50000000  1.0 0.0096766268
C  C465  1  0.50000000  0.46120000  0.76060000  1.0 0.0096766268
C  C466  1  0.50000000  0.46120000  0.23940000  1.0 0.0096766268
C  C467  1  0.50000000  0.53880000  0.23940000  1.0 0.0096766268
C  C468  1  0.50000000  0.53880000  0.76060000  1.0 0.0096766268
C  C469  1  0.00000000  0.26060000  0.03880000  1.0 0.0096766268
C  C470  1  0.00000000  0.73940000  0.03880000  1.0 0.0096766268
C  C471  1  0.00000000  0.73940000  0.96120000  1.0 0.0096766268
C  C472  1  0.00000000  0.26060000  0.96120000  1.0 0.0096766268
C  C473  1  0.26060000  0.96120000  0.00000000  1.0 0.0096766268
C  C474  1  0.73940000  0.96120000  0.00000000  1.0 0.0096766268
C  C475  1  0.73940000  0.03880000  0.00000000  1.0 0.0096766268
C  C476  1  0.26060000  0.03880000  0.00000000  1.0 0.0096766268
C  C477  1  0.96120000  0.00000000  0.73940000  1.0 0.0096766268
C  C478  1  0.96120000  0.00000000  0.26060000  1.0 0.0096766268
C  C479  1  0.03880000  0.00000000  0.26060000  1.0 0.0096766268
C  C480  1  0.03880000  0.00000000  0.73940000  1.0 0.0096766268
C  C481  1  0.77400000  0.52840000  0.48130000  1.0 -0.1123242164
C  C482  1  0.22600000  0.47160000  0.48130000  1.0 -0.1123242164
C  C483  1  0.22600000  0.52840000  0.51870000  1.0 -0.1123242164
C  C484  1  0.77400000  0.47160000  0.51870000  1.0 -0.1123242164
C  C485  1  0.48130000  0.77400000  0.52840000  1.0 -0.1123242164
C  C486  1  0.48130000  0.22600000  0.47160000  1.0 -0.1123242164
C  C487  1  0.51870000  0.22600000  0.52840000  1.0 -0.1123242164
C  C488  1  0.51870000  0.77400000  0.47160000  1.0 -0.1123242164
C  C489  1  0.52840000  0.48130000  0.77400000  1.0 -0.1123242164
C  C490  1  0.47160000  0.48130000  0.22600000  1.0 -0.1123242164
C  C491  1  0.52840000  0.51870000  0.22600000  1.0 -0.1123242164
C  C492  1  0.47160000  0.51870000  0.77400000  1.0 -0.1123242164
C  C493  1  0.02840000  0.27400000  0.01870000  1.0 -0.1123242164
C  C494  1  0.97160000  0.72600000  0.01870000  1.0 -0.1123242164
C  C495  1  0.02840000  0.72600000  0.98130000  1.0 -0.1123242164
C  C496  1  0.97160000  0.27400000  0.98130000  1.0 -0.1123242164
C  C497  1  0.27400000  0.98130000  0.97160000  1.0 -0.1123242164
C  C498  1  0.72600000  0.98130000  0.02840000  1.0 -0.1123242164
C  C499  1  0.72600000  0.01870000  0.97160000  1.0 -0.1123242164
C  C500  1  0.27400000  0.01870000  0.02840000  1.0 -0.1123242164
C  C501  1  0.98130000  0.02840000  0.72600000  1.0 -0.1123242164
C  C502  1  0.98130000  0.97160000  0.27400000  1.0 -0.1123242164
C  C503  1  0.01870000  0.02840000  0.27400000  1.0 -0.1123242164
C  C504  1  0.01870000  0.97160000  0.72600000  1.0 -0.1123242164
C  C505  1  0.22600000  0.47160000  0.51870000  1.0 -0.1123242164
C  C506  1  0.77400000  0.52840000  0.51870000  1.0 -0.1123242164
C  C507  1  0.77400000  0.47160000  0.48130000  1.0 -0.1123242164
C  C508  1  0.22600000  0.52840000  0.48130000  1.0 -0.1123242164
C  C509  1  0.51870000  0.22600000  0.47160000  1.0 -0.1123242164
C  C510  1  0.51870000  0.77400000  0.52840000  1.0 -0.1123242164
C  C511  1  0.48130000  0.77400000  0.47160000  1.0 -0.1123242164
C  C512  1  0.48130000  0.22600000  0.52840000  1.0 -0.1123242164
C  C513  1  0.47160000  0.51870000  0.22600000  1.0 -0.1123242164
C  C514  1  0.52840000  0.51870000  0.77400000  1.0 -0.1123242164
C  C515  1  0.47160000  0.48130000  0.77400000  1.0 -0.1123242164
C  C516  1  0.52840000  0.48130000  0.22600000  1.0 -0.1123242164
C  C517  1  0.97160000  0.72600000  0.98130000  1.0 -0.1123242164
C  C518  1  0.02840000  0.27400000  0.98130000  1.0 -0.1123242164
C  C519  1  0.97160000  0.27400000  0.01870000  1.0 -0.1123242164
C  C520  1  0.02840000  0.72600000  0.01870000  1.0 -0.1123242164
C  C521  1  0.72600000  0.01870000  0.02840000  1.0 -0.1123242164
C  C522  1  0.27400000  0.01870000  0.97160000  1.0 -0.1123242164
C  C523  1  0.27400000  0.98130000  0.02840000  1.0 -0.1123242164
C  C524  1  0.72600000  0.98130000  0.97160000  1.0 -0.1123242164
C  C525  1  0.01870000  0.97160000  0.27400000  1.0 -0.1123242164
C  C526  1  0.01870000  0.02840000  0.72600000  1.0 -0.1123242164
C  C527  1  0.98130000  0.97160000  0.72600000  1.0 -0.1123242164
C  C528  1  0.98130000  0.02840000  0.27400000  1.0 -0.1123242164
C  C529  1  0.73900000  0.52580000  0.47930000  1.0 -0.0697328998
C  C530  1  0.26100000  0.47420000  0.47930000  1.0 -0.0697328998
C  C531  1  0.26100000  0.52580000  0.52070000  1.0 -0.0697328998
C  C532  1  0.73900000  0.47420000  0.52070000  1.0 -0.0697328998
C  C533  1  0.47930000  0.73900000  0.52580000  1.0 -0.0697328998
C  C534  1  0.47930000  0.26100000  0.47420000  1.0 -0.0697328998
C  C535  1  0.52070000  0.26100000  0.52580000  1.0 -0.0697328998
C  C536  1  0.52070000  0.73900000  0.47420000  1.0 -0.0697328998
C  C537  1  0.52580000  0.47930000  0.73900000  1.0 -0.0697328998
C  C538  1  0.47420000  0.47930000  0.26100000  1.0 -0.0697328998
C  C539  1  0.52580000  0.52070000  0.26100000  1.0 -0.0697328998
C  C540  1  0.47420000  0.52070000  0.73900000  1.0 -0.0697328998
C  C541  1  0.02580000  0.23900000  0.02070000  1.0 -0.0697328998
C  C542  1  0.97420000  0.76100000  0.02070000  1.0 -0.0697328998
C  C543  1  0.02580000  0.76100000  0.97930000  1.0 -0.0697328998
C  C544  1  0.97420000  0.23900000  0.97930000  1.0 -0.0697328998
C  C545  1  0.23900000  0.97930000  0.97420000  1.0 -0.0697328998
C  C546  1  0.76100000  0.97930000  0.02580000  1.0 -0.0697328998
C  C547  1  0.76100000  0.02070000  0.97420000  1.0 -0.0697328998
C  C548  1  0.23900000  0.02070000  0.02580000  1.0 -0.0697328998
C  C549  1  0.97930000  0.02580000  0.76100000  1.0 -0.0697328998
C  C550  1  0.97930000  0.97420000  0.23900000  1.0 -0.0697328998
C  C551  1  0.02070000  0.02580000  0.23900000  1.0 -0.0697328998
C  C552  1  0.02070000  0.97420000  0.76100000  1.0 -0.0697328998
C  C553  1  0.26100000  0.47420000  0.52070000  1.0 -0.0697328998
C  C554  1  0.73900000  0.52580000  0.52070000  1.0 -0.0697328998
C  C555  1  0.73900000  0.47420000  0.47930000  1.0 -0.0697328998
C  C556  1  0.26100000  0.52580000  0.47930000  1.0 -0.0697328998
C  C557  1  0.52070000  0.26100000  0.47420000  1.0 -0.0697328998
C  C558  1  0.52070000  0.73900000  0.52580000  1.0 -0.0697328998
C  C559  1  0.47930000  0.73900000  0.47420000  1.0 -0.0697328998
C  C560  1  0.47930000  0.26100000  0.52580000  1.0 -0.0697328998
C  C561  1  0.47420000  0.52070000  0.26100000  1.0 -0.0697328998
C  C562  1  0.52580000  0.52070000  0.73900000  1.0 -0.0697328998
C  C563  1  0.47420000  0.47930000  0.73900000  1.0 -0.0697328998
C  C564  1  0.52580000  0.47930000  0.26100000  1.0 -0.0697328998
C  C565  1  0.97420000  0.76100000  0.97930000  1.0 -0.0697328998
C  C566  1  0.02580000  0.23900000  0.97930000  1.0 -0.0697328998
C  C567  1  0.97420000  0.23900000  0.02070000  1.0 -0.0697328998
C  C568  1  0.02580000  0.76100000  0.02070000  1.0 -0.0697328998
C  C569  1  0.76100000  0.02070000  0.02580000  1.0 -0.0697328998
C  C570  1  0.23900000  0.02070000  0.97420000  1.0 -0.0697328998
C  C571  1  0.23900000  0.97930000  0.02580000  1.0 -0.0697328998
C  C572  1  0.76100000  0.97930000  0.97420000  1.0 -0.0697328998
C  C573  1  0.02070000  0.97420000  0.23900000  1.0 -0.0697328998
C  C574  1  0.02070000  0.02580000  0.76100000  1.0 -0.0697328998
C  C575  1  0.97930000  0.97420000  0.76100000  1.0 -0.0697328998
C  C576  1  0.97930000  0.02580000  0.23900000  1.0 -0.0697328998
N  N1  1  0.76520000  0.50000000  0.34202000  1.0 -0.3360299512
N  N2  1  0.23480000  0.50000000  0.34202000  1.0 -0.3360299512
N  N3  1  0.23480000  0.50000000  0.65798000  1.0 -0.3360299512
N  N4  1  0.76520000  0.50000000  0.65798000  1.0 -0.3360299512
N  N5  1  0.34202000  0.76520000  0.50000000  1.0 -0.3360299512
N  N6  1  0.34202000  0.23480000  0.50000000  1.0 -0.3360299512
N  N7  1  0.65798000  0.23480000  0.50000000  1.0 -0.3360299512
N  N8  1  0.65798000  0.76520000  0.50000000  1.0 -0.3360299512
N  N9  1  0.50000000  0.34202000  0.76520000  1.0 -0.3360299512
N  N10  1  0.50000000  0.34202000  0.23480000  1.0 -0.3360299512
N  N11  1  0.50000000  0.65798000  0.23480000  1.0 -0.3360299512
N  N12  1  0.50000000  0.65798000  0.76520000  1.0 -0.3360299512
N  N13  1  0.00000000  0.26520000  0.15798000  1.0 -0.3360299512
N  N14  1  0.00000000  0.73480000  0.15798000  1.0 -0.3360299512
N  N15  1  0.00000000  0.73480000  0.84202000  1.0 -0.3360299512
N  N16  1  0.00000000  0.26520000  0.84202000  1.0 -0.3360299512
N  N17  1  0.26520000  0.84202000  0.00000000  1.0 -0.3360299512
N  N18  1  0.73480000  0.84202000  0.00000000  1.0 -0.3360299512
N  N19  1  0.73480000  0.15798000  0.00000000  1.0 -0.3360299512
N  N20  1  0.26520000  0.15798000  0.00000000  1.0 -0.3360299512
N  N21  1  0.84202000  0.00000000  0.73480000  1.0 -0.3342816926
N  N22  1  0.84202000  0.00000000  0.26520000  1.0 -0.3360299512
N  N23  1  0.15798000  0.00000000  0.26520000  1.0 -0.3360299512
N  N24  1  0.15798000  0.00000000  0.73480000  1.0 -0.3360299512
O  O1  1  0.75000000  0.75000000  0.25000000  1.0 -1.0589969851
O  O2  1  0.25000000  0.25000000  0.25000000  1.0 -1.0589969851
O  O3  1  0.25000000  0.75000000  0.75000000  1.0 -1.0589969851
O  O4  1  0.75000000  0.25000000  0.75000000  1.0 -1.0589969851
O  O5  1  0.25000000  0.25000000  0.75000000  1.0 -1.0589969851
O  O6  1  0.75000000  0.75000000  0.75000000  1.0 -1.0589969851
O  O7  1  0.75000000  0.25000000  0.25000000  1.0 -1.0589969851
O  O8  1  0.25000000  0.75000000  0.25000000  1.0 -1.0589969851
O  O9  1  0.75210000  0.67087000  0.24855000  1.0 -0.573432295
O  O10  1  0.24790000  0.32913000  0.24855000  1.0 -0.573432295
O  O11  1  0.24790000  0.67087000  0.75145000  1.0 -0.573432295
O  O12  1  0.75210000  0.32913000  0.75145000  1.0 -0.573432295
O  O13  1  0.24855000  0.75210000  0.67087000  1.0 -0.573432295
O  O14  1  0.24855000  0.24790000  0.32913000  1.0 -0.573432295
O  O15  1  0.75145000  0.24790000  0.67087000  1.0 -0.573432295
O  O16  1  0.75145000  0.75210000  0.32913000  1.0 -0.573432295
O  O17  1  0.67087000  0.24855000  0.75210000  1.0 -0.573432295
O  O18  1  0.32913000  0.24855000  0.24790000  1.0 -0.573432295
O  O19  1  0.67087000  0.75145000  0.24790000  1.0 -0.573432295
O  O20  1  0.32913000  0.75145000  0.75210000  1.0 -0.573432295
O  O21  1  0.17087000  0.25210000  0.25145000  1.0 -0.573432295
O  O22  1  0.82913000  0.74790000  0.25145000  1.0 -0.573432295
O  O23  1  0.17087000  0.74790000  0.74855000  1.0 -0.573432295
O  O24  1  0.82913000  0.25210000  0.74855000  1.0 -0.573432295
O  O25  1  0.25210000  0.74855000  0.82913000  1.0 -0.573432295
O  O26  1  0.74790000  0.74855000  0.17087000  1.0 -0.573432295
O  O27  1  0.74790000  0.25145000  0.82913000  1.0 -0.573432295
O  O28  1  0.25210000  0.25145000  0.17087000  1.0 -0.573432295
O  O29  1  0.74855000  0.17087000  0.74790000  1.0 -0.573432295
O  O30  1  0.74855000  0.82913000  0.25210000  1.0 -0.573432295
O  O31  1  0.25145000  0.17087000  0.25210000  1.0 -0.573432295
O  O32  1  0.25145000  0.82913000  0.74790000  1.0 -0.573432295
O  O33  1  0.24790000  0.32913000  0.75145000  1.0 -0.573432295
O  O34  1  0.75210000  0.67087000  0.75145000  1.0 -0.573432295
O  O35  1  0.75210000  0.32913000  0.24855000  1.0 -0.573432295
O  O36  1  0.24790000  0.67087000  0.24855000  1.0 -0.573432295
O  O37  1  0.75145000  0.24790000  0.32913000  1.0 -0.573432295
O  O38  1  0.75145000  0.75210000  0.67087000  1.0 -0.573432295
O  O39  1  0.24855000  0.75210000  0.32913000  1.0 -0.573432295
O  O40  1  0.24855000  0.24790000  0.67087000  1.0 -0.573432295
O  O41  1  0.32913000  0.75145000  0.24790000  1.0 -0.573432295
O  O42  1  0.67087000  0.75145000  0.75210000  1.0 -0.573432295
O  O43  1  0.32913000  0.24855000  0.75210000  1.0 -0.573432295
O  O44  1  0.67087000  0.24855000  0.24790000  1.0 -0.573432295
O  O45  1  0.82913000  0.74790000  0.74855000  1.0 -0.573432295
O  O46  1  0.17087000  0.25210000  0.74855000  1.0 -0.573432295
O  O47  1  0.82913000  0.25210000  0.25145000  1.0 -0.573432295
O  O48  1  0.17087000  0.74790000  0.25145000  1.0 -0.573432295
O  O49  1  0.74790000  0.25145000  0.17087000  1.0 -0.573432295
O  O50  1  0.25210000  0.25145000  0.82913000  1.0 -0.573432295
O  O51  1  0.25210000  0.74855000  0.17087000  1.0 -0.573432295
O  O52  1  0.74790000  0.74855000  0.82913000  1.0 -0.573432295
O  O53  1  0.25145000  0.82913000  0.25210000  1.0 -0.573432295
O  O54  1  0.25145000  0.17087000  0.74790000  1.0 -0.573432295
O  O55  1  0.74855000  0.82913000  0.74790000  1.0 -0.573432295
O  O56  1  0.74855000  0.17087000  0.25210000  1.0 -0.573432295
O  O57  1  0.78780000  0.69532000  0.29317000  1.0 -0.5600627943
O  O58  1  0.21220000  0.30468000  0.29317000  1.0 -0.5600627943
O  O59  1  0.21220000  0.69532000  0.70683000  1.0 -0.5600627943
O  O60  1  0.78780000  0.30468000  0.70683000  1.0 -0.5600627943
O  O61  1  0.29317000  0.78780000  0.69532000  1.0 -0.5600627943
O  O62  1  0.29317000  0.21220000  0.30468000  1.0 -0.5600627943
O  O63  1  0.70683000  0.21220000  0.69532000  1.0 -0.5600627943
O  O64  1  0.70683000  0.78780000  0.30468000  1.0 -0.5600627943
O  O65  1  0.69532000  0.29317000  0.78780000  1.0 -0.5600627943
O  O66  1  0.30468000  0.29317000  0.21220000  1.0 -0.5600627943
O  O67  1  0.69532000  0.70683000  0.21220000  1.0 -0.5600627943
O  O68  1  0.30468000  0.70683000  0.78780000  1.0 -0.5600627943
O  O69  1  0.19532000  0.28780000  0.20683000  1.0 -0.5600627943
O  O70  1  0.80468000  0.71220000  0.20683000  1.0 -0.5600627943
O  O71  1  0.19532000  0.71220000  0.79317000  1.0 -0.5600627943
O  O72  1  0.80468000  0.28780000  0.79317000  1.0 -0.5600627943
O  O73  1  0.28780000  0.79317000  0.80468000  1.0 -0.5600627943
O  O74  1  0.71220000  0.79317000  0.19532000  1.0 -0.5600627943
O  O75  1  0.71220000  0.20683000  0.80468000  1.0 -0.5600627943
O  O76  1  0.28780000  0.20683000  0.19532000  1.0 -0.5600627943
O  O77  1  0.79317000  0.19532000  0.71220000  1.0 -0.5600627943
O  O78  1  0.79317000  0.80468000  0.28780000  1.0 -0.5600627943
O  O79  1  0.20683000  0.19532000  0.28780000  1.0 -0.5600627943
O  O80  1  0.20683000  0.80468000  0.71220000  1.0 -0.5600627943
O  O81  1  0.21220000  0.30468000  0.70683000  1.0 -0.5600627943
O  O82  1  0.78780000  0.69532000  0.70683000  1.0 -0.5600627943
O  O83  1  0.78780000  0.30468000  0.29317000  1.0 -0.5600627943
O  O84  1  0.21220000  0.69532000  0.29317000  1.0 -0.5600627943
O  O85  1  0.70683000  0.21220000  0.30468000  1.0 -0.5600627943
O  O86  1  0.70683000  0.78780000  0.69532000  1.0 -0.5600627943
O  O87  1  0.29317000  0.78780000  0.30468000  1.0 -0.5600627943
O  O88  1  0.29317000  0.21220000  0.69532000  1.0 -0.5600627943
O  O89  1  0.30468000  0.70683000  0.21220000  1.0 -0.5600627943
O  O90  1  0.69532000  0.70683000  0.78780000  1.0 -0.5600627943
O  O91  1  0.30468000  0.29317000  0.78780000  1.0 -0.5600627943
O  O92  1  0.69532000  0.29317000  0.21220000  1.0 -0.5600627943
O  O93  1  0.80468000  0.71220000  0.79317000  1.0 -0.5600627943
O  O94  1  0.19532000  0.28780000  0.79317000  1.0 -0.5600627943
O  O95  1  0.80468000  0.28780000  0.20683000  1.0 -0.5600627943
O  O96  1  0.19532000  0.71220000  0.20683000  1.0 -0.5600627943
O  O97  1  0.71220000  0.20683000  0.19532000  1.0 -0.5600627943
O  O98  1  0.28780000  0.20683000  0.80468000  1.0 -0.5600627943
O  O99  1  0.28780000  0.79317000  0.19532000  1.0 -0.5600627943
O  O100  1  0.71220000  0.79317000  0.80468000  1.0 -0.5600627943
O  O101  1  0.20683000  0.80468000  0.28780000  1.0 -0.5600627943
O  O102  1  0.20683000  0.19532000  0.71220000  1.0 -0.5600627943
O  O103  1  0.79317000  0.80468000  0.71220000  1.0 -0.5600627943
O  O104  1  0.79317000  0.19532000  0.28780000  1.0 -0.5600627943
