# DDEC6 charges by PACMAN v1.1 (https://github.com/mtap-research/PACMAN-charge/)
data_LAVMAY_FSR_pacman
_symmetry_space_group_name_H-M   'P 1'
_cell_length_a   9.42770000
_cell_length_b   9.86650000
_cell_length_c   12.88050000
_cell_angle_alpha   108.81000000
_cell_angle_beta   94.99600000
_cell_angle_gamma   105.38700000
_symmetry_Int_Tables_number   1
_chemical_formula_structural   Zn3PH6C7N15O4
_chemical_formula_sum   'Zn6 P2 H12 C14 N30 O8'
_cell_volume   1073.74158069
_cell_formula_units_Z   2
loop_
 _symmetry_equiv_pos_site_id
 _symmetry_equiv_pos_as_xyz
  1  'x, y, z'
loop_
 _atom_site_type_symbol
 _atom_site_label
 _atom_site_symmetry_multiplicity
 _atom_site_fract_x
 _atom_site_fract_y
 _atom_site_fract_z
 _atom_site_occupancy
 _atom_site_charge
Zn  Zn1  1  0.27192000  0.63836000  0.25999000  1.0 0.7056681782
Zn  Zn2  1  0.72808000  0.36164000  0.74001000  1.0 0.7056681782
Zn  Zn3  1  0.87740000  0.55882000  0.24182000  1.0 0.7259422511
Zn  Zn4  1  0.12260000  0.44118000  0.75818000  1.0 0.7240083784
Zn  Zn5  1  0.10364000  0.18954000  0.47715000  1.0 0.8799425035
Zn  Zn6  1  0.89636000  0.81046000  0.52285000  1.0 0.8799425035
P  P1  1  0.12851000  0.87081000  0.36803000  1.0 1.4859682887
P  P2  1  0.87149000  0.12919000  0.63197000  1.0 1.4859682887
H  H1  1  0.28860000  0.40370000  0.37060000  1.0 0.1073804281
H  H2  1  0.71140000  0.59630000  0.62940000  1.0 0.1073804281
H  H3  1  0.52690000  0.49030000  0.17310000  1.0 0.1073804281
H  H4  1  0.47310000  0.50970000  0.82690000  1.0 0.1073804281
H  H5  1  0.74940000  0.34280000  0.37360000  1.0 0.3138028353
H  H6  1  0.25060000  0.65720000  0.62640000  1.0 0.3138028353
H  H7  1  0.81300000  0.25190000  0.43000000  1.0 0.3286523193
H  H8  1  0.18700000  0.74810000  0.57000000  1.0 0.3286523193
H  H9  1  0.59630000  0.86190000  0.55690000  1.0 0.3286523193
H  H10  1  0.40370000  0.13810000  0.44310000  1.0 0.3286523193
H  H11  1  0.44090000  0.81900000  0.48750000  1.0 0.3231207102
H  H12  1  0.55910000  0.18100000  0.51250000  1.0 0.3231207102
C  C1  1  0.18840000  0.40640000  0.36130000  1.0 0.1315793179
C  C2  1  0.81160000  0.59360000  0.63870000  1.0 0.1315793179
C  C3  1  0.95770000  0.36540000  0.36790000  1.0 0.5046540469
C  C4  1  0.04230000  0.63460000  0.63210000  1.0 0.5046540469
C  C5  1  0.19110000  0.50820000  0.00560000  1.0 0.3482920944
C  C6  1  0.80890000  0.49180000  0.99440000  1.0 0.3482920944
C  C7  1  0.57360000  0.72350000  0.40460000  1.0 0.5067166954
C  C8  1  0.42640000  0.27650000  0.59540000  1.0 0.5067166954
C  C9  1  0.56320000  0.56210000  0.24680000  1.0 0.1315793179
C  C10  1  0.43680000  0.43790000  0.75320000  1.0 0.1315793179
C  C11  1  0.26240000  0.70360000  0.96210000  1.0 0.0803957365
C  C12  1  0.73760000  0.29640000  0.03790000  1.0 0.0803957365
C  C13  1  0.81700000  0.29810000  0.03470000  1.0 0.0206662023
C  C14  1  0.18300000  0.70190000  0.96530000  1.0 0.0206662023
N  N1  1  0.14240000  0.48560000  0.30880000  1.0 -0.2240155071
N  N2  1  0.85760000  0.51440000  0.69120000  1.0 -0.2240155071
N  N3  1  0.99010000  0.45890000  0.31340000  1.0 -0.341460678
N  N4  1  0.00990000  0.54110000  0.68660000  1.0 -0.341460678
N  N5  1  0.08030000  0.33010000  0.40020000  1.0 -0.4175113469
N  N6  1  0.91970000  0.66990000  0.59980000  1.0 -0.4175113469
N  N7  1  0.82510000  0.31430000  0.39340000  1.0 -0.6146612793
N  N8  1  0.17490000  0.68570000  0.60660000  1.0 -0.615704301
N  N9  1  0.18420000  0.55090000  0.91980000  1.0 -0.3242722184
N  N10  1  0.81580000  0.44910000  0.08020000  1.0 -0.3242722184
N  N11  1  0.24300000  0.61500000  0.10420000  1.0 -0.3135890395
N  N12  1  0.75700000  0.38500000  0.89580000  1.0 -0.3135890395
N  N13  1  0.30000000  0.74670000  0.07600000  1.0 0.1902392402
N  N14  1  0.70000000  0.25330000  0.92400000  1.0 0.1902392402
N  N15  1  0.12870000  0.35800000  0.99020000  1.0 -0.0187902792
N  N16  1  0.87130000  0.64200000  0.00980000  1.0 -0.0187902792
N  N17  1  0.70920000  0.70560000  0.40560000  1.0 -0.3460947007
N  N18  1  0.29080000  0.29440000  0.59440000  1.0 -0.3460947007
N  N19  1  0.70110000  0.59950000  0.30090000  1.0 -0.2270362705
N  N20  1  0.29890000  0.40050000  0.69910000  1.0 -0.2270362705
N  N21  1  0.47960000  0.63570000  0.30650000  1.0 -0.4006665975
N  N22  1  0.52040000  0.36430000  0.69350000  1.0 -0.4006665975
N  N23  1  0.53210000  0.81180000  0.49340000  1.0 -0.6439395279
N  N24  1  0.46790000  0.18820000  0.50660000  1.0 -0.6439395279
N  N25  1  0.77700000  0.37400000  0.89610000  1.0 -0.2747886807
N  N26  1  0.22300000  0.62600000  0.10390000  1.0 -0.2763201326
N  N27  1  0.79300000  0.26200000  0.92700000  1.0 0.1524703249
N  N28  1  0.20700000  0.73800000  0.07300000  1.0 0.1524703249
N  N29  1  0.76900000  0.62500000  0.99930000  1.0 -0.0705314011
N  N30  1  0.23100000  0.37500000  0.00070000  1.0 -0.0705314011
O  O1  1  0.00870000  0.75820000  0.26630000  1.0 -0.7868745953
O  O2  1  0.99130000  0.24180000  0.73370000  1.0 -0.7868745953
O  O3  1  0.27890000  0.83770000  0.35960000  1.0 -0.767909798
O  O4  1  0.72110000  0.16230000  0.64040000  1.0 -0.767909798
O  O5  1  0.15200000  0.03030000  0.36810000  1.0 -0.7834952802
O  O6  1  0.84800000  0.96970000  0.63190000  1.0 -0.7834952802
O  O7  1  0.08440000  0.86350000  0.47780000  1.0 -0.8156785995
O  O8  1  0.91560000  0.13650000  0.52220000  1.0 -0.8147451311
