# DDEC6 charges by PACMAN v1.1 (https://github.com/mtap-research/PACMAN-charge/)
data_LAWHEZ01_ASR_pacman
_symmetry_space_group_name_H-M   'P 1'
_cell_length_a   16.28250000
_cell_length_b   16.96490000
_cell_length_c   33.84050000
_cell_angle_alpha   90.00000000
_cell_angle_beta   90.00000000
_cell_angle_gamma   90.00000000
_symmetry_Int_Tables_number   1
_chemical_formula_structural   Eu3Zn6H40C62(N9O14)2
_chemical_formula_sum   'Eu12 Zn24 H160 C248 N72 O112'
_cell_volume   9347.79462251
_cell_formula_units_Z   4
loop_
 _symmetry_equiv_pos_site_id
 _symmetry_equiv_pos_as_xyz
  1  'x, y, z'
loop_
 _atom_site_type_symbol
 _atom_site_label
 _atom_site_symmetry_multiplicity
 _atom_site_fract_x
 _atom_site_fract_y
 _atom_site_fract_z
 _atom_site_occupancy
 _atom_site_charge
Eu  Eu1  1  0.48219000  0.44508000  0.55375000  1.0 2.1247540186
Eu  Eu2  1  0.01781000  0.94508000  0.44625000  1.0 2.1247540186
Eu  Eu3  1  0.51781000  0.55492000  0.05375000  1.0 2.1247540186
Eu  Eu4  1  0.98219000  0.05492000  0.94625000  1.0 2.1247540186
Eu  Eu5  1  0.51781000  0.55492000  0.44625000  1.0 2.1247540186
Eu  Eu6  1  0.98219000  0.05492000  0.55375000  1.0 2.1247540186
Eu  Eu7  1  0.48219000  0.44508000  0.94625000  1.0 2.1247540186
Eu  Eu8  1  0.01781000  0.94508000  0.05375000  1.0 2.1247540186
Eu  Eu9  1  0.59508000  0.84997000  0.75000000  1.0 2.2277109096
Eu  Eu10  1  0.90492000  0.34997000  0.25000000  1.0 2.2277109096
Eu  Eu11  1  0.40492000  0.15003000  0.25000000  1.0 2.2277109096
Eu  Eu12  1  0.09508000  0.65003000  0.75000000  1.0 2.2277109096
Zn  Zn1  1  0.73881000  0.71146000  0.49087000  1.0 0.7228297661
Zn  Zn2  1  0.76119000  0.21146000  0.50913000  1.0 0.7228297661
Zn  Zn3  1  0.26119000  0.28854000  0.99087000  1.0 0.7228297661
Zn  Zn4  1  0.23881000  0.78854000  0.00913000  1.0 0.7228297661
Zn  Zn5  1  0.26119000  0.28854000  0.50913000  1.0 0.7228297661
Zn  Zn6  1  0.23881000  0.78854000  0.49087000  1.0 0.7228297661
Zn  Zn7  1  0.73881000  0.71146000  0.00913000  1.0 0.7228297661
Zn  Zn8  1  0.76119000  0.21146000  0.99087000  1.0 0.7228297661
Zn  Zn9  1  0.56340000  0.17231000  0.66551000  1.0 0.7681853282
Zn  Zn10  1  0.93660000  0.67231000  0.33449000  1.0 0.7681853282
Zn  Zn11  1  0.43660000  0.82769000  0.16551000  1.0 0.7681853282
Zn  Zn12  1  0.06340000  0.32769000  0.83449000  1.0 0.7681853282
Zn  Zn13  1  0.43660000  0.82769000  0.33449000  1.0 0.7681853282
Zn  Zn14  1  0.06340000  0.32769000  0.66551000  1.0 0.7681853282
Zn  Zn15  1  0.56340000  0.17231000  0.83449000  1.0 0.7681853282
Zn  Zn16  1  0.93660000  0.67231000  0.16551000  1.0 0.7681853282
Zn  Zn17  1  0.26818000  0.93129000  0.65984000  1.0 0.7681853282
Zn  Zn18  1  0.23182000  0.43129000  0.34016000  1.0 0.7681853282
Zn  Zn19  1  0.73182000  0.06871000  0.15984000  1.0 0.7681853282
Zn  Zn20  1  0.76818000  0.56871000  0.84016000  1.0 0.7681853282
Zn  Zn21  1  0.73182000  0.06871000  0.34016000  1.0 0.7681853282
Zn  Zn22  1  0.76818000  0.56871000  0.65984000  1.0 0.7681853282
Zn  Zn23  1  0.26818000  0.93129000  0.84016000  1.0 0.7681853282
Zn  Zn24  1  0.23182000  0.43129000  0.15984000  1.0 0.7681853282
H  H1  1  0.91270000  0.66500000  0.58160000  1.0 0.1400211114
H  H2  1  0.58730000  0.16500000  0.41840000  1.0 0.1400211114
H  H3  1  0.08730000  0.33500000  0.08160000  1.0 0.1400211114
H  H4  1  0.41270000  0.83500000  0.91840000  1.0 0.1400211114
H  H5  1  0.08730000  0.33500000  0.41840000  1.0 0.1400211114
H  H6  1  0.41270000  0.83500000  0.58160000  1.0 0.1400211114
H  H7  1  0.91270000  0.66500000  0.91840000  1.0 0.1400211114
H  H8  1  0.58730000  0.16500000  0.08160000  1.0 0.1400211114
H  H9  1  0.86780000  0.73470000  0.56020000  1.0 0.1502162605
H  H10  1  0.63220000  0.23470000  0.43980000  1.0 0.1502162605
H  H11  1  0.13220000  0.26530000  0.06020000  1.0 0.1502162605
H  H12  1  0.36780000  0.76530000  0.93980000  1.0 0.1502162605
H  H13  1  0.13220000  0.26530000  0.43980000  1.0 0.1502162605
H  H14  1  0.36780000  0.76530000  0.56020000  1.0 0.1502162605
H  H15  1  0.86780000  0.73470000  0.93980000  1.0 0.1502162605
H  H16  1  0.63220000  0.23470000  0.06020000  1.0 0.1502162605
H  H17  1  0.85600000  0.72200000  0.60570000  1.0 0.1691192359
H  H18  1  0.64400000  0.22200000  0.39430000  1.0 0.1691192359
H  H19  1  0.14400000  0.27800000  0.10570000  1.0 0.1691192359
H  H20  1  0.35600000  0.77800000  0.89430000  1.0 0.1691192359
H  H21  1  0.14400000  0.27800000  0.39430000  1.0 0.1691192359
H  H22  1  0.35600000  0.77800000  0.60570000  1.0 0.1691192359
H  H23  1  0.85600000  0.72200000  0.89430000  1.0 0.1691192359
H  H24  1  0.64400000  0.22200000  0.10570000  1.0 0.1691192359
H  H25  1  0.79880000  0.14560000  0.61780000  1.0 0.1691192359
H  H26  1  0.70120000  0.64560000  0.38220000  1.0 0.1691192359
H  H27  1  0.20120000  0.85440000  0.11780000  1.0 0.1691192359
H  H28  1  0.29880000  0.35440000  0.88220000  1.0 0.1691192359
H  H29  1  0.20120000  0.85440000  0.38220000  1.0 0.1691192359
H  H30  1  0.29880000  0.35440000  0.61780000  1.0 0.1691192359
H  H31  1  0.79880000  0.14560000  0.88220000  1.0 0.1691192359
H  H32  1  0.70120000  0.64560000  0.11780000  1.0 0.1691192359
H  H33  1  0.72860000  0.08800000  0.63080000  1.0 0.1586881946
H  H34  1  0.77140000  0.58800000  0.36920000  1.0 0.1586881946
H  H35  1  0.27140000  0.91200000  0.13080000  1.0 0.1586881946
H  H36  1  0.22860000  0.41200000  0.86920000  1.0 0.1586881946
H  H37  1  0.27140000  0.91200000  0.36920000  1.0 0.1586881946
H  H38  1  0.22860000  0.41200000  0.63080000  1.0 0.1586881946
H  H39  1  0.72860000  0.08800000  0.86920000  1.0 0.1586881946
H  H40  1  0.77140000  0.58800000  0.13080000  1.0 0.1586881946
H  H41  1  0.76690000  0.08100000  0.58850000  1.0 0.1400211114
H  H42  1  0.73310000  0.58100000  0.41150000  1.0 0.1400211114
H  H43  1  0.23310000  0.91900000  0.08850000  1.0 0.1400211114
H  H44  1  0.26690000  0.41900000  0.91150000  1.0 0.1400211114
H  H45  1  0.23310000  0.91900000  0.41150000  1.0 0.1400211114
H  H46  1  0.26690000  0.41900000  0.58850000  1.0 0.1400211114
H  H47  1  0.76690000  0.08100000  0.91150000  1.0 0.1400211114
H  H48  1  0.73310000  0.58100000  0.08850000  1.0 0.1400211114
H  H49  1  0.32270000  0.17820000  0.67440000  1.0 0.1691192359
H  H50  1  0.17730000  0.67820000  0.32560000  1.0 0.1691192359
H  H51  1  0.67730000  0.82180000  0.17440000  1.0 0.1691192359
H  H52  1  0.82270000  0.32180000  0.82560000  1.0 0.1691192359
H  H53  1  0.67730000  0.82180000  0.32560000  1.0 0.1691192359
H  H54  1  0.82270000  0.32180000  0.67440000  1.0 0.1691192359
H  H55  1  0.32270000  0.17820000  0.82560000  1.0 0.1691192359
H  H56  1  0.17730000  0.67820000  0.17440000  1.0 0.1691192359
H  H57  1  0.35940000  0.17850000  0.63160000  1.0 0.1400211114
H  H58  1  0.14060000  0.67850000  0.36840000  1.0 0.1400211114
H  H59  1  0.64060000  0.82150000  0.13160000  1.0 0.1400211114
H  H60  1  0.85940000  0.32150000  0.86840000  1.0 0.1400211114
H  H61  1  0.64060000  0.82150000  0.36840000  1.0 0.1400211114
H  H62  1  0.85940000  0.32150000  0.63160000  1.0 0.1400211114
H  H63  1  0.35940000  0.17850000  0.86840000  1.0 0.1400211114
H  H64  1  0.14060000  0.67850000  0.13160000  1.0 0.1400211114
H  H65  1  0.28440000  0.12420000  0.64160000  1.0 0.1502162605
H  H66  1  0.21560000  0.62420000  0.35840000  1.0 0.1502162605
H  H67  1  0.71560000  0.87580000  0.14160000  1.0 0.1502162605
H  H68  1  0.78440000  0.37580000  0.85840000  1.0 0.1502162605
H  H69  1  0.71560000  0.87580000  0.35840000  1.0 0.1502162605
H  H70  1  0.78440000  0.37580000  0.64160000  1.0 0.1502162605
H  H71  1  0.28440000  0.12420000  0.85840000  1.0 0.1502162605
H  H72  1  0.21560000  0.62420000  0.14160000  1.0 0.1502162605
H  H73  1  0.56330000  0.75880000  0.51900000  1.0 0.1205560858
H  H74  1  0.93670000  0.25880000  0.48100000  1.0 0.1205560858
H  H75  1  0.43670000  0.24120000  0.01900000  1.0 0.1205560858
H  H76  1  0.06330000  0.74120000  0.98100000  1.0 0.1205560858
H  H77  1  0.43670000  0.24120000  0.48100000  1.0 0.1205560858
H  H78  1  0.06330000  0.74120000  0.51900000  1.0 0.1205560858
H  H79  1  0.56330000  0.75880000  0.98100000  1.0 0.1205560858
H  H80  1  0.93670000  0.25880000  0.01900000  1.0 0.1205560858
H  H81  1  0.46300000  0.84810000  0.50190000  1.0 0.1297567696
H  H82  1  0.03700000  0.34810000  0.49810000  1.0 0.1297567696
H  H83  1  0.53700000  0.15190000  0.00190000  1.0 0.1297567696
H  H84  1  0.96300000  0.65190000  0.99810000  1.0 0.1297567696
H  H85  1  0.53700000  0.15190000  0.49810000  1.0 0.1297567696
H  H86  1  0.96300000  0.65190000  0.50190000  1.0 0.1297567696
H  H87  1  0.46300000  0.84810000  0.99810000  1.0 0.1297567696
H  H88  1  0.03700000  0.34810000  0.00190000  1.0 0.1297567696
H  H89  1  0.62250000  0.94580000  0.42640000  1.0 0.1400211114
H  H90  1  0.87750000  0.44580000  0.57360000  1.0 0.1400211114
H  H91  1  0.37750000  0.05420000  0.92640000  1.0 0.1400211114
H  H92  1  0.12250000  0.55420000  0.07360000  1.0 0.1400211114
H  H93  1  0.37750000  0.05420000  0.57360000  1.0 0.1400211114
H  H94  1  0.12250000  0.55420000  0.42640000  1.0 0.1400211114
H  H95  1  0.62250000  0.94580000  0.07360000  1.0 0.1400211114
H  H96  1  0.87750000  0.44580000  0.92640000  1.0 0.1400211114
H  H97  1  0.71710000  0.85430000  0.44490000  1.0 0.1120390875
H  H98  1  0.78290000  0.35430000  0.55510000  1.0 0.1120390875
H  H99  1  0.28290000  0.14570000  0.94490000  1.0 0.1120390875
H  H100  1  0.21710000  0.64570000  0.05510000  1.0 0.1120390875
H  H101  1  0.28290000  0.14570000  0.55510000  1.0 0.1120390875
H  H102  1  0.21710000  0.64570000  0.44490000  1.0 0.1120390875
H  H103  1  0.71710000  0.85430000  0.05510000  1.0 0.1120390875
H  H104  1  0.78290000  0.35430000  0.94490000  1.0 0.1120390875
H  H105  1  0.28540000  0.03300000  0.46860000  1.0 0.0998061742
H  H106  1  0.21460000  0.53300000  0.53140000  1.0 0.0998061742
H  H107  1  0.71460000  0.96700000  0.96860000  1.0 0.0998061742
H  H108  1  0.78540000  0.46700000  0.03140000  1.0 0.0998061742
H  H109  1  0.71460000  0.96700000  0.53140000  1.0 0.0998061742
H  H110  1  0.78540000  0.46700000  0.46860000  1.0 0.0998061742
H  H111  1  0.28540000  0.03300000  0.03140000  1.0 0.0998061742
H  H112  1  0.21460000  0.53300000  0.96860000  1.0 0.0998061742
H  H113  1  0.38160000  0.94400000  0.49140000  1.0 0.1205560858
H  H114  1  0.11840000  0.44400000  0.50860000  1.0 0.1205560858
H  H115  1  0.61840000  0.05600000  0.99140000  1.0 0.1205560858
H  H116  1  0.88160000  0.55600000  0.00860000  1.0 0.1205560858
H  H117  1  0.61840000  0.05600000  0.50860000  1.0 0.1205560858
H  H118  1  0.88160000  0.55600000  0.49140000  1.0 0.1205560858
H  H119  1  0.38160000  0.94400000  0.00860000  1.0 0.1205560858
H  H120  1  0.11840000  0.44400000  0.99140000  1.0 0.1205560858
H  H121  1  0.52800000  0.01280000  0.40280000  1.0 0.1297567696
H  H122  1  0.97200000  0.51280000  0.59720000  1.0 0.1297567696
H  H123  1  0.47200000  0.98720000  0.90280000  1.0 0.1297567696
H  H124  1  0.02800000  0.48720000  0.09720000  1.0 0.1297567696
H  H125  1  0.47200000  0.98720000  0.59720000  1.0 0.1297567696
H  H126  1  0.02800000  0.48720000  0.40280000  1.0 0.1297567696
H  H127  1  0.52800000  0.01280000  0.09720000  1.0 0.1297567696
H  H128  1  0.97200000  0.51280000  0.90280000  1.0 0.1297567696
H  H129  1  0.42820000  0.09720000  0.38200000  1.0 0.1120390875
H  H130  1  0.07180000  0.59720000  0.61800000  1.0 0.1120390875
H  H131  1  0.57180000  0.90280000  0.88200000  1.0 0.1120390875
H  H132  1  0.92820000  0.40280000  0.11800000  1.0 0.1120390875
H  H133  1  0.57180000  0.90280000  0.61800000  1.0 0.1120390875
H  H134  1  0.92820000  0.40280000  0.38200000  1.0 0.1120390875
H  H135  1  0.42820000  0.09720000  0.11800000  1.0 0.1120390875
H  H136  1  0.07180000  0.59720000  0.88200000  1.0 0.1120390875
H  H137  1  0.78230000  0.42460000  0.77650000  1.0 0.0422898219
H  H138  1  0.71770000  0.92460000  0.22350000  1.0 0.0422898219
H  H139  1  0.21770000  0.57540000  0.27650000  1.0 0.0422898219
H  H140  1  0.28230000  0.07540000  0.72350000  1.0 0.0422898219
H  H141  1  0.21770000  0.57540000  0.22350000  1.0 0.0422898219
H  H142  1  0.28230000  0.07540000  0.77650000  1.0 0.0422898219
H  H143  1  0.78230000  0.42460000  0.72350000  1.0 0.0422898219
H  H144  1  0.71770000  0.92460000  0.27650000  1.0 0.0422898219
H  H145  1  0.74790000  0.41090000  0.73380000  1.0 0.0524874916
H  H146  1  0.75210000  0.91090000  0.26620000  1.0 0.0524874916
H  H147  1  0.25210000  0.58910000  0.23380000  1.0 0.0524874916
H  H148  1  0.24790000  0.08910000  0.76620000  1.0 0.0524874916
H  H149  1  0.25210000  0.58910000  0.26620000  1.0 0.0524874916
H  H150  1  0.24790000  0.08910000  0.73380000  1.0 0.0524874916
H  H151  1  0.74790000  0.41090000  0.76620000  1.0 0.0524874916
H  H152  1  0.75210000  0.91090000  0.23380000  1.0 0.0524874916
H  H153  1  0.83610000  0.44600000  0.73970000  1.0 0.0524874916
H  H154  1  0.66390000  0.94600000  0.26030000  1.0 0.0524874916
H  H155  1  0.16390000  0.55400000  0.23970000  1.0 0.0524874916
H  H156  1  0.33610000  0.05400000  0.76030000  1.0 0.0524874916
H  H157  1  0.16390000  0.55400000  0.26030000  1.0 0.0524874916
H  H158  1  0.33610000  0.05400000  0.73970000  1.0 0.0524874916
H  H159  1  0.83610000  0.44600000  0.76030000  1.0 0.0524874916
H  H160  1  0.66390000  0.94600000  0.23970000  1.0 0.0524874916
C  C1  1  0.62790000  0.57670000  0.51216000  1.0 0.5903391511
C  C2  1  0.87210000  0.07670000  0.48784000  1.0 0.5903391511
C  C3  1  0.37210000  0.42330000  0.01216000  1.0 0.5903391511
C  C4  1  0.12790000  0.92330000  0.98784000  1.0 0.5903391511
C  C5  1  0.37210000  0.42330000  0.48784000  1.0 0.5903391511
C  C6  1  0.12790000  0.92330000  0.51216000  1.0 0.5903391511
C  C7  1  0.62790000  0.57670000  0.98784000  1.0 0.5903391511
C  C8  1  0.87210000  0.07670000  0.01216000  1.0 0.5903391511
C  C9  1  0.68720000  0.58700000  0.54368000  1.0 -0.0418564105
C  C10  1  0.81280000  0.08700000  0.45632000  1.0 -0.0418564105
C  C11  1  0.31280000  0.41300000  0.04368000  1.0 -0.0418564105
C  C12  1  0.18720000  0.91300000  0.95632000  1.0 -0.0418564105
C  C13  1  0.31280000  0.41300000  0.45632000  1.0 -0.0418564105
C  C14  1  0.18720000  0.91300000  0.54368000  1.0 -0.0418564105
C  C15  1  0.68720000  0.58700000  0.95632000  1.0 -0.0418564105
C  C16  1  0.81280000  0.08700000  0.04368000  1.0 -0.0418564105
C  C17  1  0.69830000  0.55400000  0.58085000  1.0 0.0017985664
C  C18  1  0.80170000  0.05400000  0.41915000  1.0 0.0017985664
C  C19  1  0.30170000  0.44600000  0.08085000  1.0 0.0017985664
C  C20  1  0.19830000  0.94600000  0.91915000  1.0 0.0017985664
C  C21  1  0.30170000  0.44600000  0.41915000  1.0 0.0017985664
C  C22  1  0.19830000  0.94600000  0.58085000  1.0 0.0017985664
C  C23  1  0.69830000  0.55400000  0.91915000  1.0 0.0017985664
C  C24  1  0.80170000  0.05400000  0.08085000  1.0 0.0017985664
C  C25  1  0.65340000  0.49320000  0.60439000  1.0 0.6139493059
C  C26  1  0.84660000  0.99320000  0.39561000  1.0 0.6139493059
C  C27  1  0.34660000  0.50680000  0.10439000  1.0 0.6139493059
C  C28  1  0.15340000  0.00680000  0.89561000  1.0 0.6139493059
C  C29  1  0.34660000  0.50680000  0.39561000  1.0 0.6139493059
C  C30  1  0.15340000  0.00680000  0.60439000  1.0 0.6139493059
C  C31  1  0.65340000  0.49320000  0.89561000  1.0 0.6139493059
C  C32  1  0.84660000  0.99320000  0.10439000  1.0 0.6139493059
C  C33  1  0.79100000  0.64330000  0.57274000  1.0 0.4497540476
C  C34  1  0.70900000  0.14330000  0.42726000  1.0 0.4497540476
C  C35  1  0.20900000  0.35670000  0.07274000  1.0 0.4497540476
C  C36  1  0.29100000  0.85670000  0.92726000  1.0 0.4497540476
C  C37  1  0.20900000  0.35670000  0.42726000  1.0 0.4497540476
C  C38  1  0.29100000  0.85670000  0.57274000  1.0 0.4497540476
C  C39  1  0.79100000  0.64330000  0.92726000  1.0 0.4497540476
C  C40  1  0.70900000  0.14330000  0.07274000  1.0 0.4497540476
C  C41  1  0.86340000  0.69600000  0.58080000  1.0 -0.5162391593
C  C42  1  0.63660000  0.19600000  0.41920000  1.0 -0.5162391593
C  C43  1  0.13660000  0.30400000  0.08080000  1.0 -0.5162391593
C  C44  1  0.36340000  0.80400000  0.91920000  1.0 -0.5162391593
C  C45  1  0.13660000  0.30400000  0.41920000  1.0 -0.5162391593
C  C46  1  0.36340000  0.80400000  0.58080000  1.0 -0.5162391593
C  C47  1  0.86340000  0.69600000  0.91920000  1.0 -0.5162391593
C  C48  1  0.63660000  0.19600000  0.08080000  1.0 -0.5162391593
C  C49  1  0.50470000  0.28380000  0.60730000  1.0 0.5903391511
C  C50  1  0.99530000  0.78380000  0.39270000  1.0 0.5903391511
C  C51  1  0.49530000  0.71620000  0.10730000  1.0 0.5903391511
C  C52  1  0.00470000  0.21620000  0.89270000  1.0 0.5903391511
C  C53  1  0.49530000  0.71620000  0.39270000  1.0 0.5903391511
C  C54  1  0.00470000  0.21620000  0.60730000  1.0 0.5903391511
C  C55  1  0.50470000  0.28380000  0.89270000  1.0 0.5903391511
C  C56  1  0.99530000  0.78380000  0.10730000  1.0 0.5903391511
C  C57  1  0.58210000  0.25000000  0.59148000  1.0 -0.015725221
C  C58  1  0.91790000  0.75000000  0.40852000  1.0 -0.015725221
C  C59  1  0.41790000  0.75000000  0.09148000  1.0 -0.015725221
C  C60  1  0.08210000  0.25000000  0.90852000  1.0 -0.015725221
C  C61  1  0.41790000  0.75000000  0.40852000  1.0 -0.015725221
C  C62  1  0.08210000  0.25000000  0.59148000  1.0 -0.015725221
C  C63  1  0.58210000  0.25000000  0.90852000  1.0 -0.015725221
C  C64  1  0.91790000  0.75000000  0.09148000  1.0 -0.015725221
C  C65  1  0.62620000  0.25970000  0.55684000  1.0 -0.0454180353
C  C66  1  0.87380000  0.75970000  0.44316000  1.0 -0.0454180353
C  C67  1  0.37380000  0.74030000  0.05684000  1.0 -0.0454180353
C  C68  1  0.12620000  0.24030000  0.94316000  1.0 -0.0454180353
C  C69  1  0.37380000  0.74030000  0.44316000  1.0 -0.0454180353
C  C70  1  0.12620000  0.24030000  0.55684000  1.0 -0.0454180353
C  C71  1  0.62620000  0.25970000  0.94316000  1.0 -0.0454180353
C  C72  1  0.87380000  0.75970000  0.05684000  1.0 -0.0454180353
C  C73  1  0.61790000  0.30880000  0.52102000  1.0 0.5903391511
C  C74  1  0.88210000  0.80880000  0.47898000  1.0 0.5903391511
C  C75  1  0.38210000  0.69120000  0.02102000  1.0 0.5903391511
C  C76  1  0.11790000  0.19120000  0.97898000  1.0 0.5903391511
C  C77  1  0.38210000  0.69120000  0.47898000  1.0 0.5903391511
C  C78  1  0.11790000  0.19120000  0.52102000  1.0 0.5903391511
C  C79  1  0.61790000  0.30880000  0.97898000  1.0 0.5903391511
C  C80  1  0.88210000  0.80880000  0.02102000  1.0 0.5903391511
C  C81  1  0.68870000  0.17320000  0.59370000  1.0 0.4436465795
C  C82  1  0.81130000  0.67320000  0.40630000  1.0 0.4436465795
C  C83  1  0.31130000  0.82680000  0.09370000  1.0 0.4436465795
C  C84  1  0.18870000  0.32680000  0.90630000  1.0 0.4436465795
C  C85  1  0.31130000  0.82680000  0.40630000  1.0 0.4436465795
C  C86  1  0.18870000  0.32680000  0.59370000  1.0 0.4436465795
C  C87  1  0.68870000  0.17320000  0.90630000  1.0 0.4436465795
C  C88  1  0.81130000  0.67320000  0.09370000  1.0 0.4436465795
C  C89  1  0.75130000  0.11690000  0.60910000  1.0 -0.5103323837
C  C90  1  0.74870000  0.61690000  0.39090000  1.0 -0.5103323837
C  C91  1  0.24870000  0.88310000  0.10910000  1.0 -0.5103323837
C  C92  1  0.25130000  0.38310000  0.89090000  1.0 -0.5103323837
C  C93  1  0.24870000  0.88310000  0.39090000  1.0 -0.5103323837
C  C94  1  0.25130000  0.38310000  0.60910000  1.0 -0.5103323837
C  C95  1  0.75130000  0.11690000  0.89090000  1.0 -0.5103323837
C  C96  1  0.74870000  0.61690000  0.10910000  1.0 -0.5103323837
C  C97  1  0.58920000  0.01650000  0.69510000  1.0 0.6009036223
C  C98  1  0.91080000  0.51650000  0.30490000  1.0 0.6009036223
C  C99  1  0.41080000  0.98350000  0.19510000  1.0 0.6009036223
C  C100  1  0.08920000  0.48350000  0.80490000  1.0 0.6009036223
C  C101  1  0.41080000  0.98350000  0.30490000  1.0 0.6009036223
C  C102  1  0.08920000  0.48350000  0.69510000  1.0 0.6009036223
C  C103  1  0.58920000  0.01650000  0.80490000  1.0 0.6009036223
C  C104  1  0.91080000  0.51650000  0.19510000  1.0 0.6009036223
C  C105  1  0.50100000  0.02140000  0.68550000  1.0 -0.0418564105
C  C106  1  0.99900000  0.52140000  0.31450000  1.0 -0.0418564105
C  C107  1  0.49900000  0.97860000  0.18550000  1.0 -0.0418564105
C  C108  1  0.00100000  0.47860000  0.81450000  1.0 -0.0418564105
C  C109  1  0.49900000  0.97860000  0.31450000  1.0 -0.0418564105
C  C110  1  0.00100000  0.47860000  0.68550000  1.0 -0.0418564105
C  C111  1  0.50100000  0.02140000  0.81450000  1.0 -0.0418564105
C  C112  1  0.99900000  0.52140000  0.18550000  1.0 -0.0418564105
C  C113  1  0.43770000  0.96800000  0.68200000  1.0 -0.0092613132
C  C114  1  0.06230000  0.46800000  0.31800000  1.0 -0.0092613132
C  C115  1  0.56230000  0.03200000  0.18200000  1.0 -0.0092613132
C  C116  1  0.93770000  0.53200000  0.81800000  1.0 -0.0092613132
C  C117  1  0.56230000  0.03200000  0.31800000  1.0 -0.0092613132
C  C118  1  0.93770000  0.53200000  0.68200000  1.0 -0.0092613132
C  C119  1  0.43770000  0.96800000  0.81800000  1.0 -0.0092613132
C  C120  1  0.06230000  0.46800000  0.18200000  1.0 -0.0092613132
C  C121  1  0.42970000  0.88150000  0.68982000  1.0 0.6009036223
C  C122  1  0.07030000  0.38150000  0.31018000  1.0 0.6009036223
C  C123  1  0.57030000  0.11850000  0.18982000  1.0 0.6009036223
C  C124  1  0.92970000  0.61850000  0.81018000  1.0 0.6009036223
C  C125  1  0.57030000  0.11850000  0.31018000  1.0 0.6009036223
C  C126  1  0.92970000  0.61850000  0.68982000  1.0 0.6009036223
C  C127  1  0.42970000  0.88150000  0.81018000  1.0 0.6009036223
C  C128  1  0.07030000  0.38150000  0.18982000  1.0 0.6009036223
C  C129  1  0.39200000  0.08160000  0.66288000  1.0 0.3983384738
C  C130  1  0.10800000  0.58160000  0.33712000  1.0 0.3983384738
C  C131  1  0.60800000  0.91840000  0.16288000  1.0 0.3983384738
C  C132  1  0.89200000  0.41840000  0.83712000  1.0 0.3983384738
C  C133  1  0.60800000  0.91840000  0.33712000  1.0 0.3983384738
C  C134  1  0.89200000  0.41840000  0.66288000  1.0 0.3983384738
C  C135  1  0.39200000  0.08160000  0.83712000  1.0 0.3983384738
C  C136  1  0.10800000  0.58160000  0.16288000  1.0 0.3983384738
C  C137  1  0.33450000  0.14640000  0.65160000  1.0 -0.5392984082
C  C138  1  0.16550000  0.64640000  0.34840000  1.0 -0.5392984082
C  C139  1  0.66550000  0.85360000  0.15160000  1.0 -0.5392984082
C  C140  1  0.83450000  0.35360000  0.84840000  1.0 -0.5392984082
C  C141  1  0.66550000  0.85360000  0.34840000  1.0 -0.5392984082
C  C142  1  0.83450000  0.35360000  0.65160000  1.0 -0.5392984082
C  C143  1  0.33450000  0.14640000  0.84840000  1.0 -0.5392984082
C  C144  1  0.16550000  0.64640000  0.15160000  1.0 -0.5392984082
C  C145  1  0.66830000  0.69280000  0.69888000  1.0 0.6297662701
C  C146  1  0.83170000  0.19280000  0.30112000  1.0 0.6297662701
C  C147  1  0.33170000  0.30720000  0.19888000  1.0 0.6297662701
C  C148  1  0.16830000  0.80720000  0.80112000  1.0 0.6297662701
C  C149  1  0.33170000  0.30720000  0.30112000  1.0 0.6297662701
C  C150  1  0.16830000  0.80720000  0.69888000  1.0 0.6297662701
C  C151  1  0.66830000  0.69280000  0.80112000  1.0 0.6297662701
C  C152  1  0.83170000  0.19280000  0.19888000  1.0 0.6297662701
C  C153  1  0.69270000  0.63600000  0.72939000  1.0 -0.0092613132
C  C154  1  0.80730000  0.13600000  0.27061000  1.0 -0.0092613132
C  C155  1  0.30730000  0.36400000  0.22939000  1.0 -0.0092613132
C  C156  1  0.19270000  0.86400000  0.77061000  1.0 -0.0092613132
C  C157  1  0.30730000  0.36400000  0.27061000  1.0 -0.0092613132
C  C158  1  0.19270000  0.86400000  0.72939000  1.0 -0.0092613132
C  C159  1  0.69270000  0.63600000  0.77061000  1.0 -0.0092613132
C  C160  1  0.80730000  0.13600000  0.22939000  1.0 -0.0092613132
C  C161  1  0.74620000  0.52570000  0.75000000  1.0 0.3432575087
C  C162  1  0.75380000  0.02570000  0.25000000  1.0 0.3432575087
C  C163  1  0.25380000  0.47430000  0.25000000  1.0 0.3432575087
C  C164  1  0.24620000  0.97430000  0.75000000  1.0 0.3432575087
C  C165  1  0.78120000  0.44460000  0.75000000  1.0 -0.256337483
C  C166  1  0.71880000  0.94460000  0.25000000  1.0 -0.256337483
C  C167  1  0.21880000  0.55540000  0.25000000  1.0 -0.256337483
C  C168  1  0.28120000  0.05540000  0.75000000  1.0 -0.256337483
C  C169  1  0.57480000  0.79600000  0.49960000  1.0 0.0927887517
C  C170  1  0.92520000  0.29600000  0.50040000  1.0 0.0927887517
C  C171  1  0.42520000  0.20400000  0.99960000  1.0 0.0927887517
C  C172  1  0.07480000  0.70400000  0.00040000  1.0 0.0927887517
C  C173  1  0.42520000  0.20400000  0.50040000  1.0 0.0927887517
C  C174  1  0.07480000  0.70400000  0.49960000  1.0 0.0927887517
C  C175  1  0.57480000  0.79600000  0.00040000  1.0 0.0927887517
C  C176  1  0.92520000  0.29600000  0.99960000  1.0 0.0927887517
C  C177  1  0.51390000  0.85020000  0.48950000  1.0 -0.1892637801
C  C178  1  0.98610000  0.35020000  0.51050000  1.0 -0.1892637801
C  C179  1  0.48610000  0.14980000  0.98950000  1.0 -0.1892637801
C  C180  1  0.01390000  0.64980000  0.01050000  1.0 -0.1892637801
C  C181  1  0.48610000  0.14980000  0.51050000  1.0 -0.1892637801
C  C182  1  0.01390000  0.64980000  0.48950000  1.0 -0.1892637801
C  C183  1  0.51390000  0.85020000  0.01050000  1.0 -0.1892637801
C  C184  1  0.98610000  0.35020000  0.98950000  1.0 -0.1892637801
C  C185  1  0.52940000  0.90730000  0.46100000  1.0 0.1120390875
C  C186  1  0.97060000  0.40730000  0.53900000  1.0 0.1120390875
C  C187  1  0.47060000  0.09270000  0.96100000  1.0 0.1120390875
C  C188  1  0.02940000  0.59270000  0.03900000  1.0 0.1120390875
C  C189  1  0.47060000  0.09270000  0.53900000  1.0 0.1120390875
C  C190  1  0.02940000  0.59270000  0.46100000  1.0 0.1120390875
C  C191  1  0.52940000  0.90730000  0.03900000  1.0 0.1120390875
C  C192  1  0.97060000  0.40730000  0.96100000  1.0 0.1120390875
C  C193  1  0.60830000  0.90770000  0.44490000  1.0 -0.1821027179
C  C194  1  0.89170000  0.40770000  0.55510000  1.0 -0.1821027179
C  C195  1  0.39170000  0.09230000  0.94490000  1.0 -0.1821027179
C  C196  1  0.10830000  0.59230000  0.05510000  1.0 -0.1821027179
C  C197  1  0.39170000  0.09230000  0.55510000  1.0 -0.1821027179
C  C198  1  0.10830000  0.59230000  0.44490000  1.0 -0.1821027179
C  C199  1  0.60830000  0.90770000  0.05510000  1.0 -0.1821027179
C  C200  1  0.89170000  0.40770000  0.94490000  1.0 -0.1821027179
C  C201  1  0.66500000  0.85220000  0.45610000  1.0 0.0783611159
C  C202  1  0.83500000  0.35220000  0.54390000  1.0 0.0783611159
C  C203  1  0.33500000  0.14780000  0.95610000  1.0 0.0783611159
C  C204  1  0.16500000  0.64780000  0.04390000  1.0 0.0783611159
C  C205  1  0.33500000  0.14780000  0.54390000  1.0 0.0783611159
C  C206  1  0.16500000  0.64780000  0.45610000  1.0 0.0783611159
C  C207  1  0.66500000  0.85220000  0.04390000  1.0 0.0783611159
C  C208  1  0.83500000  0.35220000  0.95610000  1.0 0.0783611159
C  C209  1  0.33500000  0.02890000  0.45520000  1.0 0.0783611159
C  C210  1  0.16500000  0.52890000  0.54480000  1.0 0.0783611159
C  C211  1  0.66500000  0.97110000  0.95520000  1.0 0.0783611159
C  C212  1  0.83500000  0.47110000  0.04480000  1.0 0.0783611159
C  C213  1  0.66500000  0.97110000  0.54480000  1.0 0.0783611159
C  C214  1  0.83500000  0.47110000  0.45520000  1.0 0.0783611159
C  C215  1  0.33500000  0.02890000  0.04480000  1.0 0.0783611159
C  C216  1  0.16500000  0.52890000  0.95520000  1.0 0.0783611159
C  C217  1  0.39250000  0.97410000  0.46900000  1.0 -0.2050482263
C  C218  1  0.10750000  0.47410000  0.53100000  1.0 -0.2050482263
C  C219  1  0.60750000  0.02590000  0.96900000  1.0 -0.2050482263
C  C220  1  0.89250000  0.52590000  0.03100000  1.0 -0.2050482263
C  C221  1  0.60750000  0.02590000  0.53100000  1.0 -0.2050482263
C  C222  1  0.89250000  0.52590000  0.46900000  1.0 -0.2050482263
C  C223  1  0.39250000  0.97410000  0.03100000  1.0 -0.2050482263
C  C224  1  0.10750000  0.47410000  0.96900000  1.0 -0.2050482263
C  C225  1  0.46660000  0.96540000  0.44870000  1.0 0.0927887517
C  C226  1  0.03340000  0.46540000  0.55130000  1.0 0.0927887517
C  C227  1  0.53340000  0.03460000  0.94870000  1.0 0.0927887517
C  C228  1  0.96660000  0.53460000  0.05130000  1.0 0.0927887517
C  C229  1  0.53340000  0.03460000  0.55130000  1.0 0.0927887517
C  C230  1  0.96660000  0.53460000  0.44870000  1.0 0.0927887517
C  C231  1  0.46660000  0.96540000  0.05130000  1.0 0.0927887517
C  C232  1  0.03340000  0.46540000  0.94870000  1.0 0.0927887517
C  C233  1  0.47850000  0.01490000  0.41650000  1.0 -0.1892637801
C  C234  1  0.02150000  0.51490000  0.58350000  1.0 -0.1892637801
C  C235  1  0.52150000  0.98510000  0.91650000  1.0 -0.1892637801
C  C236  1  0.97850000  0.48510000  0.08350000  1.0 -0.1892637801
C  C237  1  0.52150000  0.98510000  0.58350000  1.0 -0.1892637801
C  C238  1  0.97850000  0.48510000  0.41650000  1.0 -0.1892637801
C  C239  1  0.47850000  0.01490000  0.08350000  1.0 -0.1892637801
C  C240  1  0.02150000  0.51490000  0.91650000  1.0 -0.1892637801
C  C241  1  0.41880000  0.06680000  0.40450000  1.0 0.0635471265
C  C242  1  0.08120000  0.56680000  0.59550000  1.0 0.0635471265
C  C243  1  0.58120000  0.93320000  0.90450000  1.0 0.0635471265
C  C244  1  0.91880000  0.43320000  0.09550000  1.0 0.0635471265
C  C245  1  0.58120000  0.93320000  0.59550000  1.0 0.0635471265
C  C246  1  0.91880000  0.43320000  0.40450000  1.0 0.0635471265
C  C247  1  0.41880000  0.06680000  0.09550000  1.0 0.0635471265
C  C248  1  0.08120000  0.56680000  0.90450000  1.0 0.0635471265
N  N1  1  0.74770000  0.64390000  0.53903000  1.0 -0.3800225213
N  N2  1  0.75230000  0.14390000  0.46097000  1.0 -0.3800225213
N  N3  1  0.25230000  0.35610000  0.03903000  1.0 -0.3800225213
N  N4  1  0.24770000  0.85610000  0.96097000  1.0 -0.3800225213
N  N5  1  0.25230000  0.35610000  0.46097000  1.0 -0.3800225213
N  N6  1  0.24770000  0.85610000  0.53903000  1.0 -0.3800225213
N  N7  1  0.74770000  0.64390000  0.96097000  1.0 -0.3800225213
N  N8  1  0.75230000  0.14390000  0.03903000  1.0 -0.3800225213
N  N9  1  0.76350000  0.58990000  0.59862000  1.0 -0.361178719
N  N10  1  0.73650000  0.08990000  0.40138000  1.0 -0.361178719
N  N11  1  0.23650000  0.41010000  0.09862000  1.0 -0.361178719
N  N12  1  0.26350000  0.91010000  0.90138000  1.0 -0.361178719
N  N13  1  0.23650000  0.41010000  0.40138000  1.0 -0.361178719
N  N14  1  0.26350000  0.91010000  0.59862000  1.0 -0.361178719
N  N15  1  0.76350000  0.58990000  0.90138000  1.0 -0.361178719
N  N16  1  0.73650000  0.08990000  0.09862000  1.0 -0.361178719
N  N17  1  0.62200000  0.19540000  0.61440000  1.0 -0.3800225213
N  N18  1  0.87800000  0.69540000  0.38560000  1.0 -0.3800225213
N  N19  1  0.37800000  0.80460000  0.11440000  1.0 -0.3800225213
N  N20  1  0.12200000  0.30460000  0.88560000  1.0 -0.3800225213
N  N21  1  0.37800000  0.80460000  0.38560000  1.0 -0.3800225213
N  N22  1  0.12200000  0.30460000  0.61440000  1.0 -0.3800225213
N  N23  1  0.62200000  0.19540000  0.88560000  1.0 -0.3800225213
N  N24  1  0.87800000  0.69540000  0.11440000  1.0 -0.3800225213
N  N25  1  0.69300000  0.20920000  0.55866000  1.0 -0.3866430898
N  N26  1  0.80700000  0.70920000  0.44134000  1.0 -0.3866430898
N  N27  1  0.30700000  0.79080000  0.05866000  1.0 -0.3866430898
N  N28  1  0.19300000  0.29080000  0.94134000  1.0 -0.3866430898
N  N29  1  0.30700000  0.79080000  0.44134000  1.0 -0.3866430898
N  N30  1  0.19300000  0.29080000  0.55866000  1.0 -0.3866430898
N  N31  1  0.69300000  0.20920000  0.94134000  1.0 -0.3866430898
N  N32  1  0.80700000  0.70920000  0.05866000  1.0 -0.3866430898
N  N33  1  0.47180000  0.09410000  0.67273000  1.0 -0.3800225213
N  N34  1  0.02820000  0.59410000  0.32727000  1.0 -0.3800225213
N  N35  1  0.52820000  0.90590000  0.17273000  1.0 -0.3800225213
N  N36  1  0.97180000  0.40590000  0.82727000  1.0 -0.3800225213
N  N37  1  0.52820000  0.90590000  0.32727000  1.0 -0.3800225213
N  N38  1  0.97180000  0.40590000  0.67273000  1.0 -0.3800225213
N  N39  1  0.47180000  0.09410000  0.82727000  1.0 -0.3800225213
N  N40  1  0.02820000  0.59410000  0.17273000  1.0 -0.3800225213
N  N41  1  0.37030000  0.00650000  0.66720000  1.0 -0.361178719
N  N42  1  0.12970000  0.50650000  0.33280000  1.0 -0.361178719
N  N43  1  0.62970000  0.99350000  0.16720000  1.0 -0.361178719
N  N44  1  0.87030000  0.49350000  0.83280000  1.0 -0.361178719
N  N45  1  0.62970000  0.99350000  0.33280000  1.0 -0.361178719
N  N46  1  0.87030000  0.49350000  0.66720000  1.0 -0.361178719
N  N47  1  0.37030000  0.00650000  0.83280000  1.0 -0.361178719
N  N48  1  0.12970000  0.50650000  0.16720000  1.0 -0.361178719
N  N49  1  0.72740000  0.56640000  0.71701000  1.0 -0.341901504
N  N50  1  0.77260000  0.06640000  0.28299000  1.0 -0.341901504
N  N51  1  0.27260000  0.43360000  0.21701000  1.0 -0.341901504
N  N52  1  0.22740000  0.93360000  0.78299000  1.0 -0.341901504
N  N53  1  0.27260000  0.43360000  0.28299000  1.0 -0.341901504
N  N54  1  0.22740000  0.93360000  0.71701000  1.0 -0.341901504
N  N55  1  0.72740000  0.56640000  0.78299000  1.0 -0.341901504
N  N56  1  0.77260000  0.06640000  0.21701000  1.0 -0.341901504
N  N57  1  0.64930000  0.79520000  0.48249000  1.0 -0.2225593966
N  N58  1  0.85070000  0.29520000  0.51751000  1.0 -0.2225593966
N  N59  1  0.35070000  0.20480000  0.98249000  1.0 -0.2225593966
N  N60  1  0.14930000  0.70480000  0.01751000  1.0 -0.2225593966
N  N61  1  0.35070000  0.20480000  0.51751000  1.0 -0.2225593966
N  N62  1  0.14930000  0.70480000  0.48249000  1.0 -0.2225593966
N  N63  1  0.64930000  0.79520000  0.01751000  1.0 -0.2225593966
N  N64  1  0.85070000  0.29520000  0.98249000  1.0 -0.2225593966
N  N65  1  0.34690000  0.07540000  0.42400000  1.0 -0.2478604247
N  N66  1  0.15310000  0.57540000  0.57600000  1.0 -0.2478604247
N  N67  1  0.65310000  0.92460000  0.92400000  1.0 -0.2478604247
N  N68  1  0.84690000  0.42460000  0.07600000  1.0 -0.2478604247
N  N69  1  0.65310000  0.92460000  0.57600000  1.0 -0.2478604247
N  N70  1  0.84690000  0.42460000  0.42400000  1.0 -0.2478604247
N  N71  1  0.34690000  0.07540000  0.07600000  1.0 -0.2478604247
N  N72  1  0.15310000  0.57540000  0.92400000  1.0 -0.2478604247
O  O1  1  0.56540000  0.53250000  0.51485000  1.0 -0.7596693863
O  O2  1  0.93460000  0.03250000  0.48515000  1.0 -0.7596693863
O  O3  1  0.43460000  0.46750000  0.01485000  1.0 -0.7596693863
O  O4  1  0.06540000  0.96750000  0.98515000  1.0 -0.7596693863
O  O5  1  0.43460000  0.46750000  0.48515000  1.0 -0.7596693863
O  O6  1  0.06540000  0.96750000  0.51485000  1.0 -0.7596693863
O  O7  1  0.56540000  0.53250000  0.98515000  1.0 -0.7596693863
O  O8  1  0.93460000  0.03250000  0.01485000  1.0 -0.7596693863
O  O9  1  0.63950000  0.61400000  0.48009000  1.0 -0.6230034162
O  O10  1  0.86050000  0.11400000  0.51991000  1.0 -0.6230034162
O  O11  1  0.36050000  0.38600000  0.98009000  1.0 -0.6230034162
O  O12  1  0.13950000  0.88600000  0.01991000  1.0 -0.6230034162
O  O13  1  0.36050000  0.38600000  0.51991000  1.0 -0.6230034162
O  O14  1  0.13950000  0.88600000  0.48009000  1.0 -0.6230034162
O  O15  1  0.63950000  0.61400000  0.01991000  1.0 -0.6230034162
O  O16  1  0.86050000  0.11400000  0.98009000  1.0 -0.6230034162
O  O17  1  0.59770000  0.45350000  0.58822000  1.0 -0.7194368472
O  O18  1  0.90230000  0.95350000  0.41178000  1.0 -0.7194368472
O  O19  1  0.40230000  0.54650000  0.08822000  1.0 -0.7194368472
O  O20  1  0.09770000  0.04650000  0.91178000  1.0 -0.7194368472
O  O21  1  0.40230000  0.54650000  0.41178000  1.0 -0.7194368472
O  O22  1  0.09770000  0.04650000  0.58822000  1.0 -0.7194368472
O  O23  1  0.59770000  0.45350000  0.91178000  1.0 -0.7194368472
O  O24  1  0.90230000  0.95350000  0.08822000  1.0 -0.7194368472
O  O25  1  0.67720000  0.48340000  0.63929000  1.0 -0.4943831717
O  O26  1  0.82280000  0.98340000  0.36071000  1.0 -0.4943831717
O  O27  1  0.32280000  0.51660000  0.13929000  1.0 -0.4943831717
O  O28  1  0.17720000  0.01660000  0.86071000  1.0 -0.4943831717
O  O29  1  0.32280000  0.51660000  0.36071000  1.0 -0.4943831717
O  O30  1  0.17720000  0.01660000  0.63929000  1.0 -0.4943831717
O  O31  1  0.67720000  0.48340000  0.86071000  1.0 -0.4943831717
O  O32  1  0.82280000  0.98340000  0.13929000  1.0 -0.4943831717
O  O33  1  0.46300000  0.33120000  0.58707000  1.0 -0.6874118676
O  O34  1  0.03700000  0.83120000  0.41293000  1.0 -0.6874118676
O  O35  1  0.53700000  0.66880000  0.08707000  1.0 -0.6874118676
O  O36  1  0.96300000  0.16880000  0.91293000  1.0 -0.6874118676
O  O37  1  0.53700000  0.66880000  0.41293000  1.0 -0.6874118676
O  O38  1  0.96300000  0.16880000  0.58707000  1.0 -0.6874118676
O  O39  1  0.46300000  0.33120000  0.91293000  1.0 -0.6874118676
O  O40  1  0.03700000  0.83120000  0.08707000  1.0 -0.6874118676
O  O41  1  0.48500000  0.26210000  0.64148000  1.0 -0.5103323837
O  O42  1  0.01500000  0.76210000  0.35852000  1.0 -0.5103323837
O  O43  1  0.51500000  0.73790000  0.14148000  1.0 -0.5103323837
O  O44  1  0.98500000  0.23790000  0.85852000  1.0 -0.5103323837
O  O45  1  0.51500000  0.73790000  0.35852000  1.0 -0.5103323837
O  O46  1  0.98500000  0.23790000  0.64148000  1.0 -0.5103323837
O  O47  1  0.48500000  0.26210000  0.85852000  1.0 -0.5103323837
O  O48  1  0.01500000  0.76210000  0.14148000  1.0 -0.5103323837
O  O49  1  0.55970000  0.35800000  0.51710000  1.0 -0.6771634151
O  O50  1  0.94030000  0.85800000  0.48290000  1.0 -0.6771634151
O  O51  1  0.44030000  0.64200000  0.01710000  1.0 -0.6771634151
O  O52  1  0.05970000  0.14200000  0.98290000  1.0 -0.6771634151
O  O53  1  0.44030000  0.64200000  0.48290000  1.0 -0.6771634151
O  O54  1  0.05970000  0.14200000  0.51710000  1.0 -0.6771634151
O  O55  1  0.55970000  0.35800000  0.98290000  1.0 -0.6771634151
O  O56  1  0.94030000  0.85800000  0.01710000  1.0 -0.6771634151
O  O57  1  0.67140000  0.29850000  0.49487000  1.0 -0.5103323837
O  O58  1  0.82860000  0.79850000  0.50513000  1.0 -0.5103323837
O  O59  1  0.32860000  0.70150000  0.99487000  1.0 -0.5103323837
O  O60  1  0.17140000  0.20150000  0.00513000  1.0 -0.5103323837
O  O61  1  0.32860000  0.70150000  0.50513000  1.0 -0.5103323837
O  O62  1  0.17140000  0.20150000  0.49487000  1.0 -0.5103323837
O  O63  1  0.67140000  0.29850000  0.00513000  1.0 -0.5103323837
O  O64  1  0.82860000  0.79850000  0.99487000  1.0 -0.5103323837
O  O65  1  0.61970000  0.95260000  0.70824000  1.0 -0.69668733
O  O66  1  0.88030000  0.45260000  0.29176000  1.0 -0.69668733
O  O67  1  0.38030000  0.04740000  0.20824000  1.0 -0.69668733
O  O68  1  0.11970000  0.54740000  0.79176000  1.0 -0.69668733
O  O69  1  0.38030000  0.04740000  0.29176000  1.0 -0.69668733
O  O70  1  0.11970000  0.54740000  0.70824000  1.0 -0.69668733
O  O71  1  0.61970000  0.95260000  0.79176000  1.0 -0.69668733
O  O72  1  0.88030000  0.45260000  0.20824000  1.0 -0.69668733
O  O73  1  0.63220000  0.07720000  0.68805000  1.0 -0.5103323837
O  O74  1  0.86780000  0.57720000  0.31195000  1.0 -0.5103323837
O  O75  1  0.36780000  0.92280000  0.18805000  1.0 -0.5103323837
O  O76  1  0.13220000  0.42280000  0.81195000  1.0 -0.5103323837
O  O77  1  0.36780000  0.92280000  0.31195000  1.0 -0.5103323837
O  O78  1  0.13220000  0.42280000  0.68805000  1.0 -0.5103323837
O  O79  1  0.63220000  0.07720000  0.81195000  1.0 -0.5103323837
O  O80  1  0.86780000  0.57720000  0.18805000  1.0 -0.5103323837
O  O81  1  0.48510000  0.84520000  0.70894000  1.0 -0.6720196535
O  O82  1  0.01490000  0.34520000  0.29106000  1.0 -0.6720196535
O  O83  1  0.51490000  0.15480000  0.20894000  1.0 -0.6720196535
O  O84  1  0.98510000  0.65480000  0.79106000  1.0 -0.6720196535
O  O85  1  0.51490000  0.15480000  0.29106000  1.0 -0.6720196535
O  O86  1  0.98510000  0.65480000  0.70894000  1.0 -0.6720196535
O  O87  1  0.48510000  0.84520000  0.79106000  1.0 -0.6720196535
O  O88  1  0.01490000  0.34520000  0.20894000  1.0 -0.6720196535
O  O89  1  0.36640000  0.84830000  0.67651000  1.0 -0.4705323805
O  O90  1  0.13360000  0.34830000  0.32349000  1.0 -0.4705323805
O  O91  1  0.63360000  0.15170000  0.17651000  1.0 -0.4705323805
O  O92  1  0.86640000  0.65170000  0.82349000  1.0 -0.4705323805
O  O93  1  0.63360000  0.15170000  0.32349000  1.0 -0.4705323805
O  O94  1  0.86640000  0.65170000  0.67651000  1.0 -0.4705323805
O  O95  1  0.36640000  0.84830000  0.82349000  1.0 -0.4705323805
O  O96  1  0.13360000  0.34830000  0.17651000  1.0 -0.4705323805
O  O97  1  0.63050000  0.75580000  0.70762000  1.0 -0.69668733
O  O98  1  0.86950000  0.25580000  0.29238000  1.0 -0.69668733
O  O99  1  0.36950000  0.24420000  0.20762000  1.0 -0.69668733
O  O100  1  0.13050000  0.74420000  0.79238000  1.0 -0.69668733
O  O101  1  0.36950000  0.24420000  0.29238000  1.0 -0.69668733
O  O102  1  0.13050000  0.74420000  0.70762000  1.0 -0.69668733
O  O103  1  0.63050000  0.75580000  0.79238000  1.0 -0.69668733
O  O104  1  0.86950000  0.25580000  0.20762000  1.0 -0.69668733
O  O105  1  0.68600000  0.67380000  0.66363000  1.0 -0.4832630088
O  O106  1  0.81400000  0.17380000  0.33637000  1.0 -0.4832630088
O  O107  1  0.31400000  0.32620000  0.16363000  1.0 -0.4832630088
O  O108  1  0.18600000  0.82620000  0.83637000  1.0 -0.4832630088
O  O109  1  0.31400000  0.32620000  0.33637000  1.0 -0.4832630088
O  O110  1  0.18600000  0.82620000  0.66363000  1.0 -0.4832630088
O  O111  1  0.68600000  0.67380000  0.83637000  1.0 -0.4832630088
O  O112  1  0.81400000  0.17380000  0.16363000  1.0 -0.4832630088
