# DDEC6 charges by PACMAN v1.1 (https://github.com/mtap-research/PACMAN-charge/)
data_LAWHEZ_FSR_pacman
_symmetry_space_group_name_H-M   'P 1'
_cell_length_a   16.28250000
_cell_length_b   16.96490000
_cell_length_c   33.84050000
_cell_angle_alpha   90.00000000
_cell_angle_beta   90.00000000
_cell_angle_gamma   90.00000000
_symmetry_Int_Tables_number   1
_chemical_formula_structural   Eu3Zn6H40C62N18O35
_chemical_formula_sum   'Eu12 Zn24 H160 C248 N72 O140'
_cell_volume   9347.79462251
_cell_formula_units_Z   4
loop_
 _symmetry_equiv_pos_site_id
 _symmetry_equiv_pos_as_xyz
  1  'x, y, z'
loop_
 _atom_site_type_symbol
 _atom_site_label
 _atom_site_symmetry_multiplicity
 _atom_site_fract_x
 _atom_site_fract_y
 _atom_site_fract_z
 _atom_site_occupancy
 _atom_site_charge
Eu  Eu1  1  0.48219000  0.44509000  0.55374000  1.0 2.1145334014
Eu  Eu2  1  0.01781000  0.94509000  0.44626000  1.0 2.1145334014
Eu  Eu3  1  0.51781000  0.55491000  0.05374000  1.0 2.1145334014
Eu  Eu4  1  0.98219000  0.05491000  0.94626000  1.0 2.1145334014
Eu  Eu5  1  0.51781000  0.55491000  0.44626000  1.0 2.1145334014
Eu  Eu6  1  0.98219000  0.05491000  0.55374000  1.0 2.1151754626
Eu  Eu7  1  0.48219000  0.44509000  0.94626000  1.0 2.1145334014
Eu  Eu8  1  0.01781000  0.94509000  0.05374000  1.0 2.1145334014
Eu  Eu9  1  0.59507000  0.84996000  0.75000000  1.0 2.1875986823
Eu  Eu10  1  0.90493000  0.34996000  0.25000000  1.0 2.1875986823
Eu  Eu11  1  0.40493000  0.15004000  0.25000000  1.0 2.1875986823
Eu  Eu12  1  0.09507000  0.65004000  0.75000000  1.0 2.1875986823
Zn  Zn1  1  0.73878000  0.71149000  0.49086000  1.0 0.7328595885
Zn  Zn2  1  0.56346000  0.17236000  0.66557000  1.0 0.8675305911
Zn  Zn3  1  0.26818000  0.93124000  0.65983000  1.0 0.7839286693
Zn  Zn4  1  0.76122000  0.21149000  0.50914000  1.0 0.7328595885
Zn  Zn5  1  0.93654000  0.67236000  0.33443000  1.0 0.8675305911
Zn  Zn6  1  0.23182000  0.43124000  0.34017000  1.0 0.7839286693
Zn  Zn7  1  0.26122000  0.28851000  0.99086000  1.0 0.7328595885
Zn  Zn8  1  0.43654000  0.82764000  0.16557000  1.0 0.8675305911
Zn  Zn9  1  0.73182000  0.06876000  0.15983000  1.0 0.7839286693
Zn  Zn10  1  0.23878000  0.78851000  0.00914000  1.0 0.7328595885
Zn  Zn11  1  0.06346000  0.32764000  0.83443000  1.0 0.8675305911
Zn  Zn12  1  0.76818000  0.56876000  0.84017000  1.0 0.7839286693
Zn  Zn13  1  0.26122000  0.28851000  0.50914000  1.0 0.7328595885
Zn  Zn14  1  0.43654000  0.82764000  0.33443000  1.0 0.8675305911
Zn  Zn15  1  0.73182000  0.06876000  0.34017000  1.0 0.7839286693
Zn  Zn16  1  0.23878000  0.78851000  0.49086000  1.0 0.7328595885
Zn  Zn17  1  0.06346000  0.32764000  0.66557000  1.0 0.8675305911
Zn  Zn18  1  0.76818000  0.56876000  0.65983000  1.0 0.7839286693
Zn  Zn19  1  0.73878000  0.71149000  0.00914000  1.0 0.7328595885
Zn  Zn20  1  0.56346000  0.17236000  0.83443000  1.0 0.8675305911
Zn  Zn21  1  0.26818000  0.93124000  0.84017000  1.0 0.7839286693
Zn  Zn22  1  0.76122000  0.21149000  0.99086000  1.0 0.7328595885
Zn  Zn23  1  0.93654000  0.67236000  0.16557000  1.0 0.8675305911
Zn  Zn24  1  0.23182000  0.43124000  0.15983000  1.0 0.7839286693
H  H1  1  0.91280000  0.66560000  0.57790000  1.0 0.1399903663
H  H2  1  0.86300000  0.73910000  0.56310000  1.0 0.1596904763
H  H3  1  0.86010000  0.71480000  0.60780000  1.0 0.1709032449
H  H4  1  0.78090000  0.14110000  0.63020000  1.0 0.1709032449
H  H5  1  0.72420000  0.07010000  0.61870000  1.0 0.1513753713
H  H6  1  0.78900000  0.10200000  0.58840000  1.0 0.1513753713
H  H7  1  0.31550000  0.17360000  0.67420000  1.0 0.1709032449
H  H8  1  0.36170000  0.18190000  0.63380000  1.0 0.1513753713
H  H9  1  0.28760000  0.12340000  0.63770000  1.0 0.1513753713
H  H10  1  0.56110000  0.75920000  0.51830000  1.0 0.1290446252
H  H11  1  0.46210000  0.84810000  0.50130000  1.0 0.1399903663
H  H12  1  0.62480000  0.94900000  0.42890000  1.0 0.1513753713
H  H13  1  0.71500000  0.85220000  0.44360000  1.0 0.1190454655
H  H14  1  0.28690000  0.03350000  0.46900000  1.0 0.1111191449
H  H15  1  0.38000000  0.94410000  0.49080000  1.0 0.1290446252
H  H16  1  0.52820000  0.01250000  0.40280000  1.0 0.1290446252
H  H17  1  0.42980000  0.10010000  0.38230000  1.0 0.1190454655
H  H18  1  0.78670000  0.42510000  0.77660000  1.0 0.0482703878
H  H19  1  0.83760000  0.44690000  0.73880000  1.0 0.0600237728
H  H20  1  0.75010000  0.40950000  0.73450000  1.0 0.0600237728
H  H21  1  0.58720000  0.16560000  0.42210000  1.0 0.1399903663
H  H22  1  0.63700000  0.23910000  0.43690000  1.0 0.1596904763
H  H23  1  0.63990000  0.21480000  0.39220000  1.0 0.1709032449
H  H24  1  0.71910000  0.64110000  0.36980000  1.0 0.1709032449
H  H25  1  0.77580000  0.57010000  0.38130000  1.0 0.1513753713
H  H26  1  0.71100000  0.60200000  0.41160000  1.0 0.1513753713
H  H27  1  0.18450000  0.67360000  0.32580000  1.0 0.1709032449
H  H28  1  0.13830000  0.68190000  0.36620000  1.0 0.1513753713
H  H29  1  0.21240000  0.62340000  0.36230000  1.0 0.1513753713
H  H30  1  0.93890000  0.25920000  0.48170000  1.0 0.1290446252
H  H31  1  0.03790000  0.34810000  0.49870000  1.0 0.1399903663
H  H32  1  0.87520000  0.44900000  0.57110000  1.0 0.1513753713
H  H33  1  0.78500000  0.35220000  0.55640000  1.0 0.1190454655
H  H34  1  0.21310000  0.53350000  0.53100000  1.0 0.1111191449
H  H35  1  0.12000000  0.44410000  0.50920000  1.0 0.1290446252
H  H36  1  0.97180000  0.51250000  0.59720000  1.0 0.1290446252
H  H37  1  0.07020000  0.60010000  0.61770000  1.0 0.1190454655
H  H38  1  0.71330000  0.92510000  0.22340000  1.0 0.0482703878
H  H39  1  0.66240000  0.94690000  0.26120000  1.0 0.0600237728
H  H40  1  0.74990000  0.90950000  0.26550000  1.0 0.0600237728
H  H41  1  0.08720000  0.33440000  0.07790000  1.0 0.1399903663
H  H42  1  0.13700000  0.26090000  0.06310000  1.0 0.1596904763
H  H43  1  0.13990000  0.28520000  0.10780000  1.0 0.1709032449
H  H44  1  0.21910000  0.85890000  0.13020000  1.0 0.1709032449
H  H45  1  0.27580000  0.92990000  0.11870000  1.0 0.1513753713
H  H46  1  0.21100000  0.89800000  0.08840000  1.0 0.1513753713
H  H47  1  0.68450000  0.82640000  0.17420000  1.0 0.1709032449
H  H48  1  0.63830000  0.81810000  0.13380000  1.0 0.1513753713
H  H49  1  0.71240000  0.87660000  0.13770000  1.0 0.1513753713
H  H50  1  0.43890000  0.24080000  0.01830000  1.0 0.1290446252
H  H51  1  0.53790000  0.15190000  0.00130000  1.0 0.1399903663
H  H52  1  0.37520000  0.05100000  0.92890000  1.0 0.1513753713
H  H53  1  0.28500000  0.14780000  0.94360000  1.0 0.1190454655
H  H54  1  0.71310000  0.96650000  0.96900000  1.0 0.1111191449
H  H55  1  0.62000000  0.05590000  0.99080000  1.0 0.1290446252
H  H56  1  0.47180000  0.98750000  0.90280000  1.0 0.1290446252
H  H57  1  0.57020000  0.89990000  0.88230000  1.0 0.1190454655
H  H58  1  0.21330000  0.57490000  0.27660000  1.0 0.0482703878
H  H59  1  0.16240000  0.55310000  0.23880000  1.0 0.0600237728
H  H60  1  0.24990000  0.59050000  0.23450000  1.0 0.0600237728
H  H61  1  0.41280000  0.83440000  0.92210000  1.0 0.1399903663
H  H62  1  0.36300000  0.76090000  0.93690000  1.0 0.1596904763
H  H63  1  0.36010000  0.78520000  0.89220000  1.0 0.1709032449
H  H64  1  0.28090000  0.35890000  0.86980000  1.0 0.1709032449
H  H65  1  0.22420000  0.42990000  0.88130000  1.0 0.1513753713
H  H66  1  0.28900000  0.39800000  0.91160000  1.0 0.1513753713
H  H67  1  0.81550000  0.32640000  0.82580000  1.0 0.1709032449
H  H68  1  0.86170000  0.31810000  0.86620000  1.0 0.1513753713
H  H69  1  0.78760000  0.37660000  0.86230000  1.0 0.1513753713
H  H70  1  0.06110000  0.74080000  0.98170000  1.0 0.1290446252
H  H71  1  0.96210000  0.65190000  0.99870000  1.0 0.1399903663
H  H72  1  0.12480000  0.55100000  0.07110000  1.0 0.1513753713
H  H73  1  0.21500000  0.64780000  0.05640000  1.0 0.1190454655
H  H74  1  0.78690000  0.46650000  0.03100000  1.0 0.1111191449
H  H75  1  0.88000000  0.55590000  0.00920000  1.0 0.1290446252
H  H76  1  0.02820000  0.48750000  0.09720000  1.0 0.1290446252
H  H77  1  0.92980000  0.39990000  0.11770000  1.0 0.1190454655
H  H78  1  0.28670000  0.07490000  0.72340000  1.0 0.0482703878
H  H79  1  0.33760000  0.05310000  0.76120000  1.0 0.0600237728
H  H80  1  0.25010000  0.09050000  0.76550000  1.0 0.0600237728
H  H81  1  0.08720000  0.33440000  0.42210000  1.0 0.1399903663
H  H82  1  0.13700000  0.26090000  0.43690000  1.0 0.1596904763
H  H83  1  0.13990000  0.28520000  0.39220000  1.0 0.1709032449
H  H84  1  0.21910000  0.85890000  0.36980000  1.0 0.1709032449
H  H85  1  0.27580000  0.92990000  0.38130000  1.0 0.1513753713
H  H86  1  0.21100000  0.89800000  0.41160000  1.0 0.1513753713
H  H87  1  0.68450000  0.82640000  0.32580000  1.0 0.1709032449
H  H88  1  0.63830000  0.81810000  0.36620000  1.0 0.1513753713
H  H89  1  0.71240000  0.87660000  0.36230000  1.0 0.1513753713
H  H90  1  0.43890000  0.24080000  0.48170000  1.0 0.1290446252
H  H91  1  0.53790000  0.15190000  0.49870000  1.0 0.1399903663
H  H92  1  0.37520000  0.05100000  0.57110000  1.0 0.1513753713
H  H93  1  0.28500000  0.14780000  0.55640000  1.0 0.1190454655
H  H94  1  0.71310000  0.96650000  0.53100000  1.0 0.1111191449
H  H95  1  0.62000000  0.05590000  0.50920000  1.0 0.1290446252
H  H96  1  0.47180000  0.98750000  0.59720000  1.0 0.1290446252
H  H97  1  0.57020000  0.89990000  0.61770000  1.0 0.1190454655
H  H98  1  0.21330000  0.57490000  0.22340000  1.0 0.0482703878
H  H99  1  0.16240000  0.55310000  0.26120000  1.0 0.0600237728
H  H100  1  0.24990000  0.59050000  0.26550000  1.0 0.0600237728
H  H101  1  0.41280000  0.83440000  0.57790000  1.0 0.1399903663
H  H102  1  0.36300000  0.76090000  0.56310000  1.0 0.1596904763
H  H103  1  0.36010000  0.78520000  0.60780000  1.0 0.1709032449
H  H104  1  0.28090000  0.35890000  0.63020000  1.0 0.1709032449
H  H105  1  0.22420000  0.42990000  0.61870000  1.0 0.1513753713
H  H106  1  0.28900000  0.39800000  0.58840000  1.0 0.1513753713
H  H107  1  0.81550000  0.32640000  0.67420000  1.0 0.1709032449
H  H108  1  0.86170000  0.31810000  0.63380000  1.0 0.1513753713
H  H109  1  0.78760000  0.37660000  0.63770000  1.0 0.1513753713
H  H110  1  0.06110000  0.74080000  0.51830000  1.0 0.1290446252
H  H111  1  0.96210000  0.65190000  0.50130000  1.0 0.1399903663
H  H112  1  0.12480000  0.55100000  0.42890000  1.0 0.1513753713
H  H113  1  0.21500000  0.64780000  0.44360000  1.0 0.1190454655
H  H114  1  0.78690000  0.46650000  0.46900000  1.0 0.1111191449
H  H115  1  0.88000000  0.55590000  0.49080000  1.0 0.1290446252
H  H116  1  0.02820000  0.48750000  0.40280000  1.0 0.1290446252
H  H117  1  0.92980000  0.39990000  0.38230000  1.0 0.1190454655
H  H118  1  0.28670000  0.07490000  0.77660000  1.0 0.0482703878
H  H119  1  0.33760000  0.05310000  0.73880000  1.0 0.0600237728
H  H120  1  0.25010000  0.09050000  0.73450000  1.0 0.0600237728
H  H121  1  0.91280000  0.66560000  0.92210000  1.0 0.1399903663
H  H122  1  0.86300000  0.73910000  0.93690000  1.0 0.1596904763
H  H123  1  0.86010000  0.71480000  0.89220000  1.0 0.1709032449
H  H124  1  0.78090000  0.14110000  0.86980000  1.0 0.1709032449
H  H125  1  0.72420000  0.07010000  0.88130000  1.0 0.1513753713
H  H126  1  0.78900000  0.10200000  0.91160000  1.0 0.1513753713
H  H127  1  0.31550000  0.17360000  0.82580000  1.0 0.1709032449
H  H128  1  0.36170000  0.18190000  0.86620000  1.0 0.1513753713
H  H129  1  0.28760000  0.12340000  0.86230000  1.0 0.1513753713
H  H130  1  0.56110000  0.75920000  0.98170000  1.0 0.1290446252
H  H131  1  0.46210000  0.84810000  0.99870000  1.0 0.1399903663
H  H132  1  0.62480000  0.94900000  0.07110000  1.0 0.1513753713
H  H133  1  0.71500000  0.85220000  0.05640000  1.0 0.1190454655
H  H134  1  0.28690000  0.03350000  0.03100000  1.0 0.1111191449
H  H135  1  0.38000000  0.94410000  0.00920000  1.0 0.1290446252
H  H136  1  0.52820000  0.01250000  0.09720000  1.0 0.1290446252
H  H137  1  0.42980000  0.10010000  0.11770000  1.0 0.1190454655
H  H138  1  0.78670000  0.42510000  0.72340000  1.0 0.0482703878
H  H139  1  0.83760000  0.44690000  0.76120000  1.0 0.0600237728
H  H140  1  0.75010000  0.40950000  0.76550000  1.0 0.0600237728
H  H141  1  0.58720000  0.16560000  0.07790000  1.0 0.1399903663
H  H142  1  0.63700000  0.23910000  0.06310000  1.0 0.1596904763
H  H143  1  0.63990000  0.21480000  0.10780000  1.0 0.1709032449
H  H144  1  0.71910000  0.64110000  0.13020000  1.0 0.1709032449
H  H145  1  0.77580000  0.57010000  0.11870000  1.0 0.1513753713
H  H146  1  0.71100000  0.60200000  0.08840000  1.0 0.1513753713
H  H147  1  0.18450000  0.67360000  0.17420000  1.0 0.1709032449
H  H148  1  0.13830000  0.68190000  0.13380000  1.0 0.1513753713
H  H149  1  0.21240000  0.62340000  0.13770000  1.0 0.1513753713
H  H150  1  0.93890000  0.25920000  0.01830000  1.0 0.1290446252
H  H151  1  0.03790000  0.34810000  0.00130000  1.0 0.1399903663
H  H152  1  0.87520000  0.44900000  0.92890000  1.0 0.1513753713
H  H153  1  0.78500000  0.35220000  0.94360000  1.0 0.1190454655
H  H154  1  0.21310000  0.53350000  0.96900000  1.0 0.1111191449
H  H155  1  0.12000000  0.44410000  0.99080000  1.0 0.1290446252
H  H156  1  0.97180000  0.51250000  0.90280000  1.0 0.1290446252
H  H157  1  0.07020000  0.60010000  0.88230000  1.0 0.1190454655
H  H158  1  0.71330000  0.92510000  0.27660000  1.0 0.0482703878
H  H159  1  0.66240000  0.94690000  0.23880000  1.0 0.0600237728
H  H160  1  0.74990000  0.90950000  0.23450000  1.0 0.0600237728
C  C1  1  0.62760000  0.57670000  0.51210000  1.0 0.5781826444
C  C2  1  0.68730000  0.58670000  0.54380000  1.0 -0.0266091609
C  C3  1  0.69890000  0.55390000  0.58100000  1.0 0.008708088
C  C4  1  0.65420000  0.49360000  0.60420000  1.0 0.6108275422
C  C5  1  0.79050000  0.64350000  0.57300000  1.0 0.4537449696
C  C6  1  0.86310000  0.69540000  0.58120000  1.0 -0.5002606444
C  C7  1  0.50500000  0.28370000  0.60690000  1.0 0.5781826444
C  C8  1  0.58290000  0.25020000  0.59100000  1.0 -0.0113128238
C  C9  1  0.62630000  0.26020000  0.55720000  1.0 -0.040900382
C  C10  1  0.61670000  0.30910000  0.52100000  1.0 0.5746337541
C  C11  1  0.68900000  0.17260000  0.59300000  1.0 0.4448396929
C  C12  1  0.75130000  0.11640000  0.60900000  1.0 -0.4885444201
C  C13  1  0.58920000  0.01560000  0.69540000  1.0 0.5984934934
C  C14  1  0.50100000  0.02040000  0.68520000  1.0 -0.0237335681
C  C15  1  0.43800000  0.96720000  0.68190000  1.0 -0.0113128238
C  C16  1  0.43030000  0.88180000  0.68970000  1.0 0.5901028581
C  C17  1  0.39200000  0.08140000  0.66320000  1.0 0.4013313719
C  C18  1  0.33400000  0.14590000  0.65110000  1.0 -0.5220858685
C  C19  1  0.66820000  0.69270000  0.69850000  1.0 0.6242222556
C  C20  1  0.69220000  0.63590000  0.72930000  1.0 0.0040721663
C  C21  1  0.57290000  0.79650000  0.49900000  1.0 0.0730358281
C  C22  1  0.51330000  0.85000000  0.48910000  1.0 -0.1786949315
C  C23  1  0.52970000  0.90680000  0.46090000  1.0 0.1190454655
C  C24  1  0.60910000  0.90860000  0.44590000  1.0 -0.1786949315
C  C25  1  0.66390000  0.85150000  0.45590000  1.0 0.0879928239
C  C26  1  0.33600000  0.02900000  0.45520000  1.0 0.0879928239
C  C27  1  0.39180000  0.97460000  0.46860000  1.0 -0.202095459
C  C28  1  0.46700000  0.96520000  0.44850000  1.0 0.0879928239
C  C29  1  0.47890000  0.01510000  0.41650000  1.0 -0.1857697784
C  C30  1  0.41970000  0.06860000  0.40430000  1.0 0.0600237728
C  C31  1  0.87240000  0.07670000  0.48790000  1.0 0.5781826444
C  C32  1  0.81270000  0.08670000  0.45620000  1.0 -0.0266091609
C  C33  1  0.80110000  0.05390000  0.41900000  1.0 0.008708088
C  C34  1  0.84580000  0.99360000  0.39580000  1.0 0.6108275422
C  C35  1  0.70950000  0.14350000  0.42700000  1.0 0.4537449696
C  C36  1  0.63690000  0.19540000  0.41880000  1.0 -0.5002606444
C  C37  1  0.99500000  0.78370000  0.39310000  1.0 0.5781826444
C  C38  1  0.91710000  0.75020000  0.40900000  1.0 -0.0113128238
C  C39  1  0.87370000  0.76020000  0.44280000  1.0 -0.040900382
C  C40  1  0.88330000  0.80910000  0.47900000  1.0 0.5746337541
C  C41  1  0.81100000  0.67260000  0.40700000  1.0 0.4448396929
C  C42  1  0.74870000  0.61640000  0.39100000  1.0 -0.4885444201
C  C43  1  0.91080000  0.51560000  0.30460000  1.0 0.5984934934
C  C44  1  0.99900000  0.52040000  0.31480000  1.0 -0.0237335681
C  C45  1  0.06200000  0.46720000  0.31810000  1.0 -0.0113128238
C  C46  1  0.06970000  0.38180000  0.31030000  1.0 0.5901028581
C  C47  1  0.10800000  0.58140000  0.33680000  1.0 0.4013313719
C  C48  1  0.16600000  0.64590000  0.34890000  1.0 -0.5220858685
C  C49  1  0.83180000  0.19270000  0.30150000  1.0 0.6242222556
C  C50  1  0.80780000  0.13590000  0.27070000  1.0 0.0040721663
C  C51  1  0.92710000  0.29650000  0.50100000  1.0 0.0730358281
C  C52  1  0.98670000  0.35000000  0.51090000  1.0 -0.1786949315
C  C53  1  0.97030000  0.40680000  0.53910000  1.0 0.1190454655
C  C54  1  0.89090000  0.40860000  0.55410000  1.0 -0.1786949315
C  C55  1  0.83610000  0.35150000  0.54410000  1.0 0.0879928239
C  C56  1  0.16400000  0.52900000  0.54480000  1.0 0.0879928239
C  C57  1  0.10820000  0.47460000  0.53140000  1.0 -0.202095459
C  C58  1  0.03300000  0.46520000  0.55150000  1.0 0.0879928239
C  C59  1  0.02110000  0.51510000  0.58350000  1.0 -0.1857697784
C  C60  1  0.08030000  0.56860000  0.59570000  1.0 0.0600237728
C  C61  1  0.37240000  0.42330000  0.01210000  1.0 0.5781826444
C  C62  1  0.31270000  0.41330000  0.04380000  1.0 -0.0266091609
C  C63  1  0.30110000  0.44610000  0.08100000  1.0 0.008708088
C  C64  1  0.34580000  0.50640000  0.10420000  1.0 0.6108275422
C  C65  1  0.20950000  0.35650000  0.07300000  1.0 0.4537449696
C  C66  1  0.13690000  0.30460000  0.08120000  1.0 -0.5002606444
C  C67  1  0.49500000  0.71630000  0.10690000  1.0 0.5781826444
C  C68  1  0.41710000  0.74980000  0.09100000  1.0 -0.0113128238
C  C69  1  0.37370000  0.73980000  0.05720000  1.0 -0.040900382
C  C70  1  0.38330000  0.69090000  0.02100000  1.0 0.5746337541
C  C71  1  0.31100000  0.82740000  0.09300000  1.0 0.4448396929
C  C72  1  0.24870000  0.88360000  0.10900000  1.0 -0.4885444201
C  C73  1  0.41080000  0.98440000  0.19540000  1.0 0.5984934934
C  C74  1  0.49900000  0.97960000  0.18520000  1.0 -0.0237335681
C  C75  1  0.56200000  0.03280000  0.18190000  1.0 -0.0113128238
C  C76  1  0.56970000  0.11820000  0.18970000  1.0 0.5901028581
C  C77  1  0.60800000  0.91860000  0.16320000  1.0 0.4013313719
C  C78  1  0.66600000  0.85410000  0.15110000  1.0 -0.5220858685
C  C79  1  0.33180000  0.30730000  0.19850000  1.0 0.6242222556
C  C80  1  0.30780000  0.36410000  0.22930000  1.0 0.0040721663
C  C81  1  0.42710000  0.20350000  0.99900000  1.0 0.0730358281
C  C82  1  0.48670000  0.15000000  0.98910000  1.0 -0.1786949315
C  C83  1  0.47030000  0.09320000  0.96090000  1.0 0.1190454655
C  C84  1  0.39090000  0.09140000  0.94590000  1.0 -0.1786949315
C  C85  1  0.33610000  0.14850000  0.95590000  1.0 0.0879928239
C  C86  1  0.66400000  0.97100000  0.95520000  1.0 0.0879928239
C  C87  1  0.60820000  0.02540000  0.96860000  1.0 -0.202095459
C  C88  1  0.53300000  0.03480000  0.94850000  1.0 0.0879928239
C  C89  1  0.52110000  0.98490000  0.91650000  1.0 -0.1857697784
C  C90  1  0.58030000  0.93140000  0.90430000  1.0 0.0600237728
C  C91  1  0.12760000  0.92330000  0.98790000  1.0 0.5781826444
C  C92  1  0.18730000  0.91330000  0.95620000  1.0 -0.0266091609
C  C93  1  0.19890000  0.94610000  0.91900000  1.0 0.008708088
C  C94  1  0.15420000  0.00640000  0.89580000  1.0 0.6108275422
C  C95  1  0.29050000  0.85650000  0.92700000  1.0 0.4537449696
C  C96  1  0.36310000  0.80460000  0.91880000  1.0 -0.5002606444
C  C97  1  0.00500000  0.21630000  0.89310000  1.0 0.5781826444
C  C98  1  0.08290000  0.24980000  0.90900000  1.0 -0.0113128238
C  C99  1  0.12630000  0.23980000  0.94280000  1.0 -0.040900382
C  C100  1  0.11670000  0.19090000  0.97900000  1.0 0.5746337541
C  C101  1  0.18900000  0.32740000  0.90700000  1.0 0.4448396929
C  C102  1  0.25130000  0.38360000  0.89100000  1.0 -0.4885444201
C  C103  1  0.08920000  0.48440000  0.80460000  1.0 0.5984934934
C  C104  1  0.00100000  0.47960000  0.81480000  1.0 -0.0237335681
C  C105  1  0.93800000  0.53280000  0.81810000  1.0 -0.0113128238
C  C106  1  0.93030000  0.61820000  0.81030000  1.0 0.5901028581
C  C107  1  0.89200000  0.41860000  0.83680000  1.0 0.4013313719
C  C108  1  0.83400000  0.35410000  0.84890000  1.0 -0.5220858685
C  C109  1  0.16820000  0.80730000  0.80150000  1.0 0.6242222556
C  C110  1  0.19220000  0.86410000  0.77070000  1.0 0.0040721663
C  C111  1  0.07290000  0.70350000  0.00100000  1.0 0.0730358281
C  C112  1  0.01330000  0.65000000  0.01090000  1.0 -0.1786949315
C  C113  1  0.02970000  0.59320000  0.03910000  1.0 0.1190454655
C  C114  1  0.10910000  0.59140000  0.05410000  1.0 -0.1786949315
C  C115  1  0.16390000  0.64850000  0.04410000  1.0 0.0879928239
C  C116  1  0.83600000  0.47100000  0.04480000  1.0 0.0879928239
C  C117  1  0.89180000  0.52540000  0.03140000  1.0 -0.202095459
C  C118  1  0.96700000  0.53480000  0.05150000  1.0 0.0879928239
C  C119  1  0.97890000  0.48490000  0.08350000  1.0 -0.1857697784
C  C120  1  0.91970000  0.43140000  0.09570000  1.0 0.0600237728
C  C121  1  0.37240000  0.42330000  0.48790000  1.0 0.5781826444
C  C122  1  0.31270000  0.41330000  0.45620000  1.0 -0.0266091609
C  C123  1  0.30110000  0.44610000  0.41900000  1.0 0.008708088
C  C124  1  0.34580000  0.50640000  0.39580000  1.0 0.6108275422
C  C125  1  0.20950000  0.35650000  0.42700000  1.0 0.4537449696
C  C126  1  0.13690000  0.30460000  0.41880000  1.0 -0.5002606444
C  C127  1  0.49500000  0.71630000  0.39310000  1.0 0.5781826444
C  C128  1  0.41710000  0.74980000  0.40900000  1.0 -0.0113128238
C  C129  1  0.37370000  0.73980000  0.44280000  1.0 -0.040900382
C  C130  1  0.38330000  0.69090000  0.47900000  1.0 0.5746337541
C  C131  1  0.31100000  0.82740000  0.40700000  1.0 0.4448396929
C  C132  1  0.24870000  0.88360000  0.39100000  1.0 -0.4885444201
C  C133  1  0.41080000  0.98440000  0.30460000  1.0 0.5984934934
C  C134  1  0.49900000  0.97960000  0.31480000  1.0 -0.0237335681
C  C135  1  0.56200000  0.03280000  0.31810000  1.0 -0.0113128238
C  C136  1  0.56970000  0.11820000  0.31030000  1.0 0.5901028581
C  C137  1  0.60800000  0.91860000  0.33680000  1.0 0.4013313719
C  C138  1  0.66600000  0.85410000  0.34890000  1.0 -0.5220858685
C  C139  1  0.33180000  0.30730000  0.30150000  1.0 0.6242222556
C  C140  1  0.30780000  0.36410000  0.27070000  1.0 0.0040721663
C  C141  1  0.42710000  0.20350000  0.50100000  1.0 0.0730358281
C  C142  1  0.48670000  0.15000000  0.51090000  1.0 -0.1786949315
C  C143  1  0.47030000  0.09320000  0.53910000  1.0 0.1190454655
C  C144  1  0.39090000  0.09140000  0.55410000  1.0 -0.1786949315
C  C145  1  0.33610000  0.14850000  0.54410000  1.0 0.0879928239
C  C146  1  0.66400000  0.97100000  0.54480000  1.0 0.0879928239
C  C147  1  0.60820000  0.02540000  0.53140000  1.0 -0.202095459
C  C148  1  0.53300000  0.03480000  0.55150000  1.0 0.0879928239
C  C149  1  0.52110000  0.98490000  0.58350000  1.0 -0.1857697784
C  C150  1  0.58030000  0.93140000  0.59570000  1.0 0.0600237728
C  C151  1  0.12760000  0.92330000  0.51210000  1.0 0.5781826444
C  C152  1  0.18730000  0.91330000  0.54380000  1.0 -0.0266091609
C  C153  1  0.19890000  0.94610000  0.58100000  1.0 0.008708088
C  C154  1  0.15420000  0.00640000  0.60420000  1.0 0.6108275422
C  C155  1  0.29050000  0.85650000  0.57300000  1.0 0.4537449696
C  C156  1  0.36310000  0.80460000  0.58120000  1.0 -0.5002606444
C  C157  1  0.00500000  0.21630000  0.60690000  1.0 0.5781826444
C  C158  1  0.08290000  0.24980000  0.59100000  1.0 -0.0113128238
C  C159  1  0.12630000  0.23980000  0.55720000  1.0 -0.040900382
C  C160  1  0.11670000  0.19090000  0.52100000  1.0 0.5746337541
C  C161  1  0.18900000  0.32740000  0.59300000  1.0 0.4448396929
C  C162  1  0.25130000  0.38360000  0.60900000  1.0 -0.4885444201
C  C163  1  0.08920000  0.48440000  0.69540000  1.0 0.5984934934
C  C164  1  0.00100000  0.47960000  0.68520000  1.0 -0.0237335681
C  C165  1  0.93800000  0.53280000  0.68190000  1.0 -0.0113128238
C  C166  1  0.93030000  0.61820000  0.68970000  1.0 0.5901028581
C  C167  1  0.89200000  0.41860000  0.66320000  1.0 0.4013313719
C  C168  1  0.83400000  0.35410000  0.65110000  1.0 -0.5220858685
C  C169  1  0.16820000  0.80730000  0.69850000  1.0 0.6242222556
C  C170  1  0.19220000  0.86410000  0.72930000  1.0 0.0040721663
C  C171  1  0.07290000  0.70350000  0.49900000  1.0 0.0730358281
C  C172  1  0.01330000  0.65000000  0.48910000  1.0 -0.1786949315
C  C173  1  0.02970000  0.59320000  0.46090000  1.0 0.1190454655
C  C174  1  0.10910000  0.59140000  0.44590000  1.0 -0.1786949315
C  C175  1  0.16390000  0.64850000  0.45590000  1.0 0.0879928239
C  C176  1  0.83600000  0.47100000  0.45520000  1.0 0.0879928239
C  C177  1  0.89180000  0.52540000  0.46860000  1.0 -0.202095459
C  C178  1  0.96700000  0.53480000  0.44850000  1.0 0.0879928239
C  C179  1  0.97890000  0.48490000  0.41650000  1.0 -0.1857697784
C  C180  1  0.91970000  0.43140000  0.40430000  1.0 0.0600237728
C  C181  1  0.62760000  0.57670000  0.98790000  1.0 0.5781826444
C  C182  1  0.68730000  0.58670000  0.95620000  1.0 -0.0266091609
C  C183  1  0.69890000  0.55390000  0.91900000  1.0 0.008708088
C  C184  1  0.65420000  0.49360000  0.89580000  1.0 0.6108275422
C  C185  1  0.79050000  0.64350000  0.92700000  1.0 0.4537449696
C  C186  1  0.86310000  0.69540000  0.91880000  1.0 -0.5002606444
C  C187  1  0.50500000  0.28370000  0.89310000  1.0 0.5781826444
C  C188  1  0.58290000  0.25020000  0.90900000  1.0 -0.0113128238
C  C189  1  0.62630000  0.26020000  0.94280000  1.0 -0.040900382
C  C190  1  0.61670000  0.30910000  0.97900000  1.0 0.5746337541
C  C191  1  0.68900000  0.17260000  0.90700000  1.0 0.4448396929
C  C192  1  0.75130000  0.11640000  0.89100000  1.0 -0.4885444201
C  C193  1  0.58920000  0.01560000  0.80460000  1.0 0.5984934934
C  C194  1  0.50100000  0.02040000  0.81480000  1.0 -0.0237335681
C  C195  1  0.43800000  0.96720000  0.81810000  1.0 -0.0113128238
C  C196  1  0.43030000  0.88180000  0.81030000  1.0 0.5901028581
C  C197  1  0.39200000  0.08140000  0.83680000  1.0 0.4013313719
C  C198  1  0.33400000  0.14590000  0.84890000  1.0 -0.5220858685
C  C199  1  0.66820000  0.69270000  0.80150000  1.0 0.6242222556
C  C200  1  0.69220000  0.63590000  0.77070000  1.0 0.0040721663
C  C201  1  0.57290000  0.79650000  0.00100000  1.0 0.0730358281
C  C202  1  0.51330000  0.85000000  0.01090000  1.0 -0.1786949315
C  C203  1  0.52970000  0.90680000  0.03910000  1.0 0.1190454655
C  C204  1  0.60910000  0.90860000  0.05410000  1.0 -0.1786949315
C  C205  1  0.66390000  0.85150000  0.04410000  1.0 0.0879928239
C  C206  1  0.33600000  0.02900000  0.04480000  1.0 0.0879928239
C  C207  1  0.39180000  0.97460000  0.03140000  1.0 -0.202095459
C  C208  1  0.46700000  0.96520000  0.05150000  1.0 0.0879928239
C  C209  1  0.47890000  0.01510000  0.08350000  1.0 -0.1857697784
C  C210  1  0.41970000  0.06860000  0.09570000  1.0 0.0600237728
C  C211  1  0.87240000  0.07670000  0.01210000  1.0 0.5781826444
C  C212  1  0.81270000  0.08670000  0.04380000  1.0 -0.0266091609
C  C213  1  0.80110000  0.05390000  0.08100000  1.0 0.008708088
C  C214  1  0.84580000  0.99360000  0.10420000  1.0 0.6108275422
C  C215  1  0.70950000  0.14350000  0.07300000  1.0 0.4537449696
C  C216  1  0.63690000  0.19540000  0.08120000  1.0 -0.5002606444
C  C217  1  0.99500000  0.78370000  0.10690000  1.0 0.5781826444
C  C218  1  0.91710000  0.75020000  0.09100000  1.0 -0.0113128238
C  C219  1  0.87370000  0.76020000  0.05720000  1.0 -0.040900382
C  C220  1  0.88330000  0.80910000  0.02100000  1.0 0.5746337541
C  C221  1  0.81100000  0.67260000  0.09300000  1.0 0.4448396929
C  C222  1  0.74870000  0.61640000  0.10900000  1.0 -0.4885444201
C  C223  1  0.91080000  0.51560000  0.19540000  1.0 0.5984934934
C  C224  1  0.99900000  0.52040000  0.18520000  1.0 -0.0237335681
C  C225  1  0.06200000  0.46720000  0.18190000  1.0 -0.0113128238
C  C226  1  0.06970000  0.38180000  0.18970000  1.0 0.5901028581
C  C227  1  0.10800000  0.58140000  0.16320000  1.0 0.4013313719
C  C228  1  0.16600000  0.64590000  0.15110000  1.0 -0.5220858685
C  C229  1  0.83180000  0.19270000  0.19850000  1.0 0.6242222556
C  C230  1  0.80780000  0.13590000  0.22930000  1.0 0.0040721663
C  C231  1  0.92710000  0.29650000  0.99900000  1.0 0.0730358281
C  C232  1  0.98670000  0.35000000  0.98910000  1.0 -0.1786949315
C  C233  1  0.97030000  0.40680000  0.96090000  1.0 0.1190454655
C  C234  1  0.89090000  0.40860000  0.94590000  1.0 -0.1786949315
C  C235  1  0.83610000  0.35150000  0.95590000  1.0 0.0879928239
C  C236  1  0.16400000  0.52900000  0.95520000  1.0 0.0879928239
C  C237  1  0.10820000  0.47460000  0.96860000  1.0 -0.202095459
C  C238  1  0.03300000  0.46520000  0.94850000  1.0 0.0879928239
C  C239  1  0.02110000  0.51510000  0.91650000  1.0 -0.1857697784
C  C240  1  0.08030000  0.56860000  0.90430000  1.0 0.0600237728
C  C241  1  0.74540000  0.52630000  0.75000000  1.0 0.3694548973
C  C242  1  0.78350000  0.44440000  0.75000000  1.0 -0.2595205438
C  C243  1  0.75460000  0.02630000  0.25000000  1.0 0.3694548973
C  C244  1  0.71650000  0.94440000  0.25000000  1.0 -0.2595205438
C  C245  1  0.25460000  0.47370000  0.25000000  1.0 0.3694548973
C  C246  1  0.21650000  0.55560000  0.25000000  1.0 -0.2535724274
C  C247  1  0.24540000  0.97370000  0.75000000  1.0 0.3694548973
C  C248  1  0.28350000  0.05560000  0.75000000  1.0 -0.2535724274
N  N1  1  0.74760000  0.64420000  0.53930000  1.0 -0.3803698949
N  N2  1  0.76300000  0.59020000  0.59885000  1.0 -0.3518899798
N  N3  1  0.62230000  0.19540000  0.61401000  1.0 -0.394080493
N  N4  1  0.69330000  0.20900000  0.55866000  1.0 -0.3803698949
N  N5  1  0.47210000  0.09400000  0.67260000  1.0 -0.394080493
N  N6  1  0.36970000  0.00590000  0.66730000  1.0 -0.356494569
N  N7  1  0.72650000  0.56640000  0.71667000  1.0 -0.3390273086
N  N8  1  0.64910000  0.79520000  0.48190000  1.0 -0.202095459
N  N9  1  0.34620000  0.07600000  0.42410000  1.0 -0.2329106393
N  N10  1  0.75240000  0.14420000  0.46070000  1.0 -0.3803698949
N  N11  1  0.73700000  0.09020000  0.40115000  1.0 -0.3518899798
N  N12  1  0.87770000  0.69540000  0.38599000  1.0 -0.394080493
N  N13  1  0.80670000  0.70900000  0.44134000  1.0 -0.3803698949
N  N14  1  0.02790000  0.59400000  0.32740000  1.0 -0.394080493
N  N15  1  0.13030000  0.50590000  0.33270000  1.0 -0.356494569
N  N16  1  0.77350000  0.06640000  0.28333000  1.0 -0.3390273086
N  N17  1  0.85090000  0.29520000  0.51810000  1.0 -0.202095459
N  N18  1  0.15380000  0.57600000  0.57590000  1.0 -0.2329106393
N  N19  1  0.25240000  0.35580000  0.03930000  1.0 -0.3803698949
N  N20  1  0.23700000  0.40980000  0.09885000  1.0 -0.3518899798
N  N21  1  0.37770000  0.80460000  0.11401000  1.0 -0.394080493
N  N22  1  0.30670000  0.79100000  0.05866000  1.0 -0.3803698949
N  N23  1  0.52790000  0.90600000  0.17260000  1.0 -0.394080493
N  N24  1  0.63030000  0.99410000  0.16730000  1.0 -0.356494569
N  N25  1  0.27350000  0.43360000  0.21667000  1.0 -0.3390273086
N  N26  1  0.35090000  0.20480000  0.98190000  1.0 -0.202095459
N  N27  1  0.65380000  0.92400000  0.92410000  1.0 -0.2329106393
N  N28  1  0.24760000  0.85580000  0.96070000  1.0 -0.3803698949
N  N29  1  0.26300000  0.90980000  0.90115000  1.0 -0.3518899798
N  N30  1  0.12230000  0.30460000  0.88599000  1.0 -0.394080493
N  N31  1  0.19330000  0.29100000  0.94134000  1.0 -0.3803698949
N  N32  1  0.97210000  0.40600000  0.82740000  1.0 -0.394080493
N  N33  1  0.86970000  0.49410000  0.83270000  1.0 -0.356494569
N  N34  1  0.22650000  0.93360000  0.78333000  1.0 -0.3390273086
N  N35  1  0.14910000  0.70480000  0.01810000  1.0 -0.202095459
N  N36  1  0.84620000  0.42400000  0.07590000  1.0 -0.2329106393
N  N37  1  0.25240000  0.35580000  0.46070000  1.0 -0.3803698949
N  N38  1  0.23700000  0.40980000  0.40115000  1.0 -0.3518899798
N  N39  1  0.37770000  0.80460000  0.38599000  1.0 -0.394080493
N  N40  1  0.30670000  0.79100000  0.44134000  1.0 -0.3803698949
N  N41  1  0.52790000  0.90600000  0.32740000  1.0 -0.394080493
N  N42  1  0.63030000  0.99410000  0.33270000  1.0 -0.356494569
N  N43  1  0.27350000  0.43360000  0.28333000  1.0 -0.3390273086
N  N44  1  0.35090000  0.20480000  0.51810000  1.0 -0.202095459
N  N45  1  0.65380000  0.92400000  0.57590000  1.0 -0.2329106393
N  N46  1  0.24760000  0.85580000  0.53930000  1.0 -0.3803698949
N  N47  1  0.26300000  0.90980000  0.59885000  1.0 -0.3518899798
N  N48  1  0.12230000  0.30460000  0.61401000  1.0 -0.394080493
N  N49  1  0.19330000  0.29100000  0.55866000  1.0 -0.3803698949
N  N50  1  0.97210000  0.40600000  0.67260000  1.0 -0.394080493
N  N51  1  0.86970000  0.49410000  0.66730000  1.0 -0.356494569
N  N52  1  0.22650000  0.93360000  0.71667000  1.0 -0.3390273086
N  N53  1  0.14910000  0.70480000  0.48190000  1.0 -0.202095459
N  N54  1  0.84620000  0.42400000  0.42410000  1.0 -0.2329106393
N  N55  1  0.74760000  0.64420000  0.96070000  1.0 -0.3803698949
N  N56  1  0.76300000  0.59020000  0.90115000  1.0 -0.3518899798
N  N57  1  0.62230000  0.19540000  0.88599000  1.0 -0.394080493
N  N58  1  0.69330000  0.20900000  0.94134000  1.0 -0.3803698949
N  N59  1  0.47210000  0.09400000  0.82740000  1.0 -0.394080493
N  N60  1  0.36970000  0.00590000  0.83270000  1.0 -0.356494569
N  N61  1  0.72650000  0.56640000  0.78333000  1.0 -0.3390273086
N  N62  1  0.64910000  0.79520000  0.01810000  1.0 -0.202095459
N  N63  1  0.34620000  0.07600000  0.07590000  1.0 -0.2329106393
N  N64  1  0.75240000  0.14420000  0.03930000  1.0 -0.3803698949
N  N65  1  0.73700000  0.09020000  0.09885000  1.0 -0.3518899798
N  N66  1  0.87770000  0.69540000  0.11401000  1.0 -0.394080493
N  N67  1  0.80670000  0.70900000  0.05866000  1.0 -0.3803698949
N  N68  1  0.02790000  0.59400000  0.17260000  1.0 -0.394080493
N  N69  1  0.13030000  0.50590000  0.16730000  1.0 -0.356494569
N  N70  1  0.77350000  0.06640000  0.21667000  1.0 -0.3390273086
N  N71  1  0.85090000  0.29520000  0.98190000  1.0 -0.202095459
N  N72  1  0.15380000  0.57600000  0.92410000  1.0 -0.2329106393
O  O1  1  0.56590000  0.53240000  0.51502000  1.0 -0.6584427885
O  O2  1  0.40670000  0.56140000  0.55120000  1.0 -0.329955478
O  O3  1  0.63980000  0.61370000  0.47992000  1.0 -0.5914999477
O  O4  1  0.42960000  0.47870000  0.61580000  1.0 -0.394080493
O  O5  1  0.59830000  0.45320000  0.58773000  1.0 -0.6680360816
O  O6  1  0.67800000  0.48380000  0.63899000  1.0 -0.4740262225
O  O7  1  0.60240000  0.24610000  0.70740000  1.0 -0.0785681948
O  O8  1  0.46310000  0.33140000  0.58714000  1.0 -0.613093578
O  O9  1  0.48480000  0.26200000  0.64140000  1.0 -0.4885444201
O  O10  1  0.55950000  0.35770000  0.51717000  1.0 -0.5989183865
O  O11  1  0.67140000  0.29890000  0.49498000  1.0 -0.4793554775
O  O12  1  0.61940000  0.95300000  0.70860000  1.0 -0.6289020709
O  O13  1  0.63200000  0.07750000  0.68820000  1.0 -0.5002606444
O  O14  1  0.48480000  0.84480000  0.70890000  1.0 -0.6584427885
O  O15  1  0.36620000  0.84820000  0.67648000  1.0 -0.4526312749
O  O16  1  0.63090000  0.75640000  0.70730000  1.0 -0.6475235454
O  O17  1  0.68600000  0.67380000  0.66354000  1.0 -0.4526312749
O  O18  1  0.93410000  0.03240000  0.48498000  1.0 -0.6584427885
O  O19  1  0.09330000  0.06140000  0.44880000  1.0 -0.329955478
O  O20  1  0.86020000  0.11370000  0.52008000  1.0 -0.5914999477
O  O21  1  0.07040000  0.97870000  0.38420000  1.0 -0.394080493
O  O22  1  0.90170000  0.95320000  0.41227000  1.0 -0.6680360816
O  O23  1  0.82200000  0.98380000  0.36101000  1.0 -0.4740262225
O  O24  1  0.89760000  0.74610000  0.29260000  1.0 -0.0785681948
O  O25  1  0.03690000  0.83140000  0.41286000  1.0 -0.613093578
O  O26  1  0.01520000  0.76200000  0.35860000  1.0 -0.4885444201
O  O27  1  0.94050000  0.85770000  0.48283000  1.0 -0.5989183865
O  O28  1  0.82860000  0.79890000  0.50502000  1.0 -0.4793554775
O  O29  1  0.88060000  0.45300000  0.29140000  1.0 -0.6289020709
O  O30  1  0.86800000  0.57750000  0.31180000  1.0 -0.5002606444
O  O31  1  0.01520000  0.34480000  0.29110000  1.0 -0.6584427885
O  O32  1  0.13380000  0.34820000  0.32352000  1.0 -0.4526312749
O  O33  1  0.86910000  0.25640000  0.29270000  1.0 -0.6475235454
O  O34  1  0.81400000  0.17380000  0.33646000  1.0 -0.4526312749
O  O35  1  0.43410000  0.46760000  0.01502000  1.0 -0.6584427885
O  O36  1  0.59330000  0.43860000  0.05120000  1.0 -0.329955478
O  O37  1  0.36020000  0.38630000  0.97992000  1.0 -0.5914999477
O  O38  1  0.57040000  0.52130000  0.11580000  1.0 -0.394080493
O  O39  1  0.40170000  0.54680000  0.08773000  1.0 -0.6680360816
O  O40  1  0.32200000  0.51620000  0.13899000  1.0 -0.4740262225
O  O41  1  0.39760000  0.75390000  0.20740000  1.0 -0.0785681948
O  O42  1  0.53690000  0.66860000  0.08714000  1.0 -0.613093578
O  O43  1  0.51520000  0.73800000  0.14140000  1.0 -0.4885444201
O  O44  1  0.44050000  0.64230000  0.01717000  1.0 -0.5989183865
O  O45  1  0.32860000  0.70110000  0.99498000  1.0 -0.4793554775
O  O46  1  0.38060000  0.04700000  0.20860000  1.0 -0.6289020709
O  O47  1  0.36800000  0.92250000  0.18820000  1.0 -0.5002606444
O  O48  1  0.51520000  0.15520000  0.20890000  1.0 -0.6584427885
O  O49  1  0.63380000  0.15180000  0.17648000  1.0 -0.4526312749
O  O50  1  0.36910000  0.24360000  0.20730000  1.0 -0.6475235454
O  O51  1  0.31400000  0.32620000  0.16354000  1.0 -0.4526312749
O  O52  1  0.06590000  0.96760000  0.98498000  1.0 -0.6584427885
O  O53  1  0.90670000  0.93860000  0.94880000  1.0 -0.329955478
O  O54  1  0.13980000  0.88630000  0.02008000  1.0 -0.5914999477
O  O55  1  0.92960000  0.02130000  0.88420000  1.0 -0.3954786193
O  O56  1  0.09830000  0.04680000  0.91227000  1.0 -0.6680360816
O  O57  1  0.17800000  0.01620000  0.86101000  1.0 -0.4740262225
O  O58  1  0.10240000  0.25390000  0.79260000  1.0 -0.0785681948
O  O59  1  0.96310000  0.16860000  0.91286000  1.0 -0.613093578
O  O60  1  0.98480000  0.23800000  0.85860000  1.0 -0.4885444201
O  O61  1  0.05950000  0.14230000  0.98283000  1.0 -0.5989183865
O  O62  1  0.17140000  0.20110000  0.00502000  1.0 -0.4793554775
O  O63  1  0.11940000  0.54700000  0.79140000  1.0 -0.6289020709
O  O64  1  0.13200000  0.42250000  0.81180000  1.0 -0.5002606444
O  O65  1  0.98480000  0.65520000  0.79110000  1.0 -0.6584427885
O  O66  1  0.86620000  0.65180000  0.82352000  1.0 -0.4526312749
O  O67  1  0.13090000  0.74360000  0.79270000  1.0 -0.6475235454
O  O68  1  0.18600000  0.82620000  0.83646000  1.0 -0.4526312749
O  O69  1  0.43410000  0.46760000  0.48498000  1.0 -0.6584427885
O  O70  1  0.59330000  0.43860000  0.44880000  1.0 -0.329955478
O  O71  1  0.36020000  0.38630000  0.52008000  1.0 -0.5914999477
O  O72  1  0.57040000  0.52130000  0.38420000  1.0 -0.394080493
O  O73  1  0.40170000  0.54680000  0.41227000  1.0 -0.6680360816
O  O74  1  0.32200000  0.51620000  0.36101000  1.0 -0.4740262225
O  O75  1  0.39760000  0.75390000  0.29260000  1.0 -0.0785681948
O  O76  1  0.53690000  0.66860000  0.41286000  1.0 -0.613093578
O  O77  1  0.51520000  0.73800000  0.35860000  1.0 -0.4885444201
O  O78  1  0.44050000  0.64230000  0.48283000  1.0 -0.5989183865
O  O79  1  0.32860000  0.70110000  0.50502000  1.0 -0.4793554775
O  O80  1  0.38060000  0.04700000  0.29140000  1.0 -0.6289020709
O  O81  1  0.36800000  0.92250000  0.31180000  1.0 -0.5002606444
O  O82  1  0.51520000  0.15520000  0.29110000  1.0 -0.6584427885
O  O83  1  0.63380000  0.15180000  0.32352000  1.0 -0.4526312749
O  O84  1  0.36910000  0.24360000  0.29270000  1.0 -0.6475235454
O  O85  1  0.31400000  0.32620000  0.33646000  1.0 -0.4526312749
O  O86  1  0.06590000  0.96760000  0.51502000  1.0 -0.6584427885
O  O87  1  0.90670000  0.93860000  0.55120000  1.0 -0.329955478
O  O88  1  0.13980000  0.88630000  0.47992000  1.0 -0.5914999477
O  O89  1  0.92960000  0.02130000  0.61580000  1.0 -0.3954786193
O  O90  1  0.09830000  0.04680000  0.58773000  1.0 -0.6680360816
O  O91  1  0.17800000  0.01620000  0.63899000  1.0 -0.4740262225
O  O92  1  0.10240000  0.25390000  0.70740000  1.0 -0.0785681948
O  O93  1  0.96310000  0.16860000  0.58714000  1.0 -0.613093578
O  O94  1  0.98480000  0.23800000  0.64140000  1.0 -0.4885444201
O  O95  1  0.05950000  0.14230000  0.51717000  1.0 -0.5989183865
O  O96  1  0.17140000  0.20110000  0.49498000  1.0 -0.4793554775
O  O97  1  0.11940000  0.54700000  0.70860000  1.0 -0.6289020709
O  O98  1  0.13200000  0.42250000  0.68820000  1.0 -0.5002606444
O  O99  1  0.98480000  0.65520000  0.70890000  1.0 -0.6584427885
O  O100  1  0.86620000  0.65180000  0.67648000  1.0 -0.4526312749
O  O101  1  0.13090000  0.74360000  0.70730000  1.0 -0.6475235454
O  O102  1  0.18600000  0.82620000  0.66354000  1.0 -0.4526312749
O  O103  1  0.56590000  0.53240000  0.98498000  1.0 -0.6584427885
O  O104  1  0.40670000  0.56140000  0.94880000  1.0 -0.329955478
O  O105  1  0.63980000  0.61370000  0.02008000  1.0 -0.5914999477
O  O106  1  0.42960000  0.47870000  0.88420000  1.0 -0.3954786193
O  O107  1  0.59830000  0.45320000  0.91227000  1.0 -0.6680360816
O  O108  1  0.67800000  0.48380000  0.86101000  1.0 -0.4740262225
O  O109  1  0.60240000  0.24610000  0.79260000  1.0 -0.0785681948
O  O110  1  0.46310000  0.33140000  0.91286000  1.0 -0.613093578
O  O111  1  0.48480000  0.26200000  0.85860000  1.0 -0.4885444201
O  O112  1  0.55950000  0.35770000  0.98283000  1.0 -0.5989183865
O  O113  1  0.67140000  0.29890000  0.00502000  1.0 -0.4793554775
O  O114  1  0.61940000  0.95300000  0.79140000  1.0 -0.6289020709
O  O115  1  0.63200000  0.07750000  0.81180000  1.0 -0.5002606444
O  O116  1  0.48480000  0.84480000  0.79110000  1.0 -0.6584427885
O  O117  1  0.36620000  0.84820000  0.82352000  1.0 -0.4526312749
O  O118  1  0.63090000  0.75640000  0.79270000  1.0 -0.6475235454
O  O119  1  0.68600000  0.67380000  0.83646000  1.0 -0.4526312749
O  O120  1  0.93410000  0.03240000  0.01502000  1.0 -0.6584427885
O  O121  1  0.09330000  0.06140000  0.05120000  1.0 -0.329955478
O  O122  1  0.86020000  0.11370000  0.97992000  1.0 -0.5914999477
O  O123  1  0.07040000  0.97870000  0.11580000  1.0 -0.394080493
O  O124  1  0.90170000  0.95320000  0.08773000  1.0 -0.6680360816
O  O125  1  0.82200000  0.98380000  0.13899000  1.0 -0.4740262225
O  O126  1  0.89760000  0.74610000  0.20740000  1.0 -0.0785681948
O  O127  1  0.03690000  0.83140000  0.08714000  1.0 -0.613093578
O  O128  1  0.01520000  0.76200000  0.14140000  1.0 -0.4885444201
O  O129  1  0.94050000  0.85770000  0.01717000  1.0 -0.5989183865
O  O130  1  0.82860000  0.79890000  0.99498000  1.0 -0.4793554775
O  O131  1  0.88060000  0.45300000  0.20860000  1.0 -0.6289020709
O  O132  1  0.86800000  0.57750000  0.18820000  1.0 -0.5002606444
O  O133  1  0.01520000  0.34480000  0.20890000  1.0 -0.6584427885
O  O134  1  0.13380000  0.34820000  0.17648000  1.0 -0.4526312749
O  O135  1  0.86910000  0.25640000  0.20730000  1.0 -0.6475235454
O  O136  1  0.81400000  0.17380000  0.16354000  1.0 -0.4526312749
O  O137  1  0.74100000  0.86210000  0.75000000  1.0 -0.2595205438
O  O138  1  0.75900000  0.36210000  0.25000000  1.0 -0.2595205438
O  O139  1  0.25900000  0.13790000  0.25000000  1.0 -0.2595205438
O  O140  1  0.24100000  0.63790000  0.75000000  1.0 -0.2595205438
