# DDEC6 charges by PACMAN v1.1 (https://github.com/mtap-research/PACMAN-charge/)
data_LAXCUK_ASR_pacman
_symmetry_space_group_name_H-M   'P 1'
_cell_length_a   19.65000000
_cell_length_b   37.98000000
_cell_length_c   28.82000000
_cell_angle_alpha   90.00000000
_cell_angle_beta   94.57000000
_cell_angle_gamma   90.00000000
_symmetry_Int_Tables_number   1
_chemical_formula_structural   Zn4Cu3C159(N3O5)4
_chemical_formula_sum   'Zn16 Cu12 C636 N48 O80'
_cell_volume   21440.18627922
_cell_formula_units_Z   4
loop_
 _symmetry_equiv_pos_site_id
 _symmetry_equiv_pos_as_xyz
  1  'x, y, z'
loop_
 _atom_site_type_symbol
 _atom_site_label
 _atom_site_symmetry_multiplicity
 _atom_site_fract_x
 _atom_site_fract_y
 _atom_site_fract_z
 _atom_site_occupancy
 _atom_site_charge
Zn  Zn1  1  0.24420000  0.21730000  0.43170000  1.0 0.8973723092
Zn  Zn2  1  0.75580000  0.71730000  0.06830000  1.0 0.8973723092
Zn  Zn3  1  0.75580000  0.78270000  0.56830000  1.0 0.8973723092
Zn  Zn4  1  0.24420000  0.28270000  0.93170000  1.0 0.8973723092
Zn  Zn5  1  0.21180000  0.24360000  0.02370000  1.0 0.9872738161
Zn  Zn6  1  0.78820000  0.74360000  0.47630000  1.0 0.9872738161
Zn  Zn7  1  0.78820000  0.75640000  0.97630000  1.0 0.9872738161
Zn  Zn8  1  0.21180000  0.25640000  0.52370000  1.0 0.9872738161
Zn  Zn9  1  0.34180000  0.20880000  0.52350000  1.0 0.8927716055
Zn  Zn10  1  0.65820000  0.70880000  0.97650000  1.0 0.8927716055
Zn  Zn11  1  0.65820000  0.79120000  0.47650000  1.0 0.8927716055
Zn  Zn12  1  0.34180000  0.29120000  0.02350000  1.0 0.8927716055
Zn  Zn13  1  0.19470000  0.17360000  0.51790000  1.0 0.9763574341
Zn  Zn14  1  0.80530000  0.67360000  0.98210000  1.0 0.9763574341
Zn  Zn15  1  0.80530000  0.82640000  0.48210000  1.0 0.9763574341
Zn  Zn16  1  0.19470000  0.32640000  0.01790000  1.0 0.9763574341
Cu  Cu1  1  0.87080000  0.45140000  0.27750000  1.0 0.3364868799
Cu  Cu2  1  0.12920000  0.95140000  0.22250000  1.0 0.3364868799
Cu  Cu3  1  0.12920000  0.54860000  0.72250000  1.0 0.3364868799
Cu  Cu4  1  0.87080000  0.04860000  0.77750000  1.0 0.3364868799
Cu  Cu5  1  0.52140000  0.08300000  0.32620000  1.0 0.4974927494
Cu  Cu6  1  0.47860000  0.58300000  0.17380000  1.0 0.4974927494
Cu  Cu7  1  0.47860000  0.91700000  0.67380000  1.0 0.4974927494
Cu  Cu8  1  0.52140000  0.41700000  0.82620000  1.0 0.4974927494
Cu  Cu9  1  0.83000000  0.26920000  0.32140000  1.0 0.3978349009
Cu  Cu10  1  0.17000000  0.76920000  0.17860000  1.0 0.3978349009
Cu  Cu11  1  0.17000000  0.73080000  0.67860000  1.0 0.3978349009
Cu  Cu12  1  0.83000000  0.23080000  0.82140000  1.0 0.3978349009
C  C1  1  0.69450000  0.24200000  0.16530000  1.0 0.0204694393
C  C2  1  0.30550000  0.74200000  0.33470000  1.0 0.0204694393
C  C3  1  0.30550000  0.75800000  0.83470000  1.0 0.0204694393
C  C4  1  0.69450000  0.25800000  0.66530000  1.0 0.0095759279
C  C5  1  0.77060000  0.25550000  0.23160000  1.0 0.1061363594
C  C6  1  0.22940000  0.75550000  0.26840000  1.0 0.1061363594
C  C7  1  0.22940000  0.74450000  0.76840000  1.0 0.1061363594
C  C8  1  0.77060000  0.24450000  0.73160000  1.0 0.1061363594
C  C9  1  0.76090000  0.25180000  0.18360000  1.0 -0.0093522876
C  C10  1  0.23910000  0.75180000  0.31640000  1.0 -0.0093522876
C  C11  1  0.23910000  0.74820000  0.81640000  1.0 -0.0093522876
C  C12  1  0.76090000  0.24820000  0.68360000  1.0 -0.0093522876
C  C13  1  0.81510000  0.25720000  0.15620000  1.0 -0.039134498
C  C14  1  0.18490000  0.75720000  0.34380000  1.0 -0.039134498
C  C15  1  0.18490000  0.74280000  0.84380000  1.0 -0.039134498
C  C16  1  0.81510000  0.24280000  0.65620000  1.0 -0.039134498
C  C17  1  0.87910000  0.26610000  0.17690000  1.0 0.0032959763
C  C18  1  0.12090000  0.76610000  0.32310000  1.0 0.0032959763
C  C19  1  0.12090000  0.73390000  0.82310000  1.0 0.0032959763
C  C20  1  0.87910000  0.23390000  0.67690000  1.0 0.0032959763
C  C21  1  0.88880000  0.26970000  0.22500000  1.0 0.1969192812
C  C22  1  0.11120000  0.76970000  0.27500000  1.0 0.1969192812
C  C23  1  0.11120000  0.73030000  0.77500000  1.0 0.1969192812
C  C24  1  0.88880000  0.23030000  0.72500000  1.0 0.1969192812
C  C25  1  0.66260000  0.23140000  0.23110000  1.0 -0.0193768511
C  C26  1  0.33740000  0.73140000  0.26890000  1.0 -0.0193768511
C  C27  1  0.33740000  0.76860000  0.76890000  1.0 -0.0193768511
C  C28  1  0.66260000  0.26860000  0.73110000  1.0 -0.0193768511
C  C29  1  0.71880000  0.24540000  0.25760000  1.0 0.0974111782
C  C30  1  0.28120000  0.74540000  0.24240000  1.0 0.0974111782
C  C31  1  0.28120000  0.75460000  0.74240000  1.0 0.0974111782
C  C32  1  0.71880000  0.25460000  0.75760000  1.0 0.0974111782
C  C33  1  0.66340000  0.23150000  0.18050000  1.0 0.0592843695
C  C34  1  0.33660000  0.73150000  0.31950000  1.0 0.0592843695
C  C35  1  0.33660000  0.76850000  0.81950000  1.0 0.0592843695
C  C36  1  0.66340000  0.26850000  0.68050000  1.0 0.0592843695
C  C37  1  0.11600000  0.41850000  0.30100000  1.0 -0.039134498
C  C38  1  0.88400000  0.91850000  0.19900000  1.0 -0.039134498
C  C39  1  0.88400000  0.58150000  0.69900000  1.0 -0.0510505837
C  C40  1  0.11600000  0.08150000  0.80100000  1.0 -0.0510505837
C  C41  1  0.05300000  0.39950000  0.33010000  1.0 -0.0193768511
C  C42  1  0.94700000  0.89950000  0.16990000  1.0 -0.0193768511
C  C43  1  0.94700000  0.60050000  0.66990000  1.0 -0.0193768511
C  C44  1  0.05300000  0.10050000  0.83010000  1.0 -0.0193768511
C  C45  1  0.98440000  0.41120000  0.32160000  1.0 0.275426481
C  C46  1  0.01560000  0.91120000  0.17840000  1.0 0.275426481
C  C47  1  0.01560000  0.58880000  0.67840000  1.0 0.275426481
C  C48  1  0.98440000  0.08880000  0.82160000  1.0 0.275426481
C  C49  1  0.90550000  0.51910000  0.22020000  1.0 0.1914187361
C  C50  1  0.09450000  0.01910000  0.27980000  1.0 0.1914187361
C  C51  1  0.09450000  0.48090000  0.77980000  1.0 0.1914187361
C  C52  1  0.90550000  0.98090000  0.72020000  1.0 0.1914187361
C  C53  1  0.94120000  0.53820000  0.19070000  1.0 -0.0012043333
C  C54  1  0.05880000  0.03820000  0.30930000  1.0 -0.0012043333
C  C55  1  0.05880000  0.46180000  0.80930000  1.0 -0.0012043333
C  C56  1  0.94120000  0.96180000  0.69070000  1.0 -0.0012043333
C  C57  1  0.93230000  0.38870000  0.34480000  1.0 -0.2590632288
C  C58  1  0.06770000  0.88870000  0.15520000  1.0 -0.2590632288
C  C59  1  0.06770000  0.61130000  0.65520000  1.0 -0.2590632288
C  C60  1  0.93230000  0.11130000  0.84480000  1.0 -0.2590632288
C  C61  1  0.01420000  0.52500000  0.17920000  1.0 -0.068983732
C  C62  1  0.98580000  0.02500000  0.32080000  1.0 -0.068983732
C  C63  1  0.98580000  0.47500000  0.82080000  1.0 -0.068983732
C  C64  1  0.01420000  0.97500000  0.67920000  1.0 -0.068983732
C  C65  1  0.02160000  0.46200000  0.27660000  1.0 0.0974111782
C  C66  1  0.97840000  0.96200000  0.22340000  1.0 0.0974111782
C  C67  1  0.97840000  0.53800000  0.72340000  1.0 0.0974111782
C  C68  1  0.02160000  0.03800000  0.77660000  1.0 0.0974111782
C  C69  1  0.08230000  0.44570000  0.27150000  1.0 0.0032959763
C  C70  1  0.91770000  0.94570000  0.22850000  1.0 0.0032959763
C  C71  1  0.91770000  0.55430000  0.72850000  1.0 0.0032959763
C  C72  1  0.08230000  0.05430000  0.77150000  1.0 0.0032959763
C  C73  1  0.12360000  0.46480000  0.23490000  1.0 0.0297777034
C  C74  1  0.87640000  0.96480000  0.26510000  1.0 0.0297777034
C  C75  1  0.87640000  0.53520000  0.76510000  1.0 0.0297777034
C  C76  1  0.12360000  0.03520000  0.73490000  1.0 0.0297777034
C  C77  1  0.99420000  0.48930000  0.25100000  1.0 0.0974111782
C  C78  1  0.00580000  0.98930000  0.24900000  1.0 0.0974111782
C  C79  1  0.00580000  0.51070000  0.74900000  1.0 0.0974111782
C  C80  1  0.99420000  0.01070000  0.75100000  1.0 0.0974111782
C  C81  1  0.03000000  0.50470000  0.21660000  1.0 0.0204694393
C  C82  1  0.97000000  0.00470000  0.28340000  1.0 0.0204694393
C  C83  1  0.97000000  0.49530000  0.78340000  1.0 0.0204694393
C  C84  1  0.03000000  0.99530000  0.71660000  1.0 0.0204694393
C  C85  1  0.10620000  0.48870000  0.22140000  1.0 0.0297777034
C  C86  1  0.89380000  0.98870000  0.27860000  1.0 0.0297777034
C  C87  1  0.89380000  0.51130000  0.77860000  1.0 0.0297777034
C  C88  1  0.10620000  0.01130000  0.72140000  1.0 0.0297777034
C  C89  1  0.56130000  0.00140000  0.33740000  1.0 0.2385673561
C  C90  1  0.43870000  0.50140000  0.16260000  1.0 0.2385673561
C  C91  1  0.43870000  0.99860000  0.66260000  1.0 0.2385673561
C  C92  1  0.56130000  0.49860000  0.83740000  1.0 0.2385673561
C  C93  1  0.57180000  0.97230000  0.31280000  1.0 -0.0012043333
C  C94  1  0.42820000  0.47230000  0.18720000  1.0 -0.0012043333
C  C95  1  0.42820000  0.02770000  0.68720000  1.0 -0.0012043333
C  C96  1  0.57180000  0.52770000  0.81280000  1.0 -0.0012043333
C  C97  1  0.56450000  0.97210000  0.26880000  1.0 -0.099821665
C  C98  1  0.43550000  0.47210000  0.23120000  1.0 -0.099821665
C  C99  1  0.43550000  0.02790000  0.73120000  1.0 -0.099821665
C  C100  1  0.56450000  0.52790000  0.76880000  1.0 -0.099821665
C  C101  1  0.53490000  0.99270000  0.18760000  1.0 0.0396367931
C  C102  1  0.46510000  0.49270000  0.31240000  1.0 0.0396367931
C  C103  1  0.46510000  0.00730000  0.81240000  1.0 0.0297777034
C  C104  1  0.53490000  0.50730000  0.68760000  1.0 0.0297777034
C  C105  1  0.53750000  0.02890000  0.26850000  1.0 0.1803560072
C  C106  1  0.46250000  0.52890000  0.23150000  1.0 0.1803560072
C  C107  1  0.46250000  0.97110000  0.73150000  1.0 0.1803560072
C  C108  1  0.53750000  0.47110000  0.76850000  1.0 0.1803560072
C  C109  1  0.50800000  0.02530000  0.16110000  1.0 -0.0093522876
C  C110  1  0.49200000  0.52530000  0.33890000  1.0 -0.0093522876
C  C111  1  0.49200000  0.97470000  0.83890000  1.0 -0.0093522876
C  C112  1  0.50800000  0.47470000  0.66110000  1.0 -0.0093522876
C  C113  1  0.04220000  0.28090000  0.09060000  1.0 -0.1379197028
C  C114  1  0.95780000  0.78090000  0.40940000  1.0 -0.1379197028
C  C115  1  0.95780000  0.71910000  0.90940000  1.0 -0.1379197028
C  C116  1  0.04220000  0.21910000  0.59060000  1.0 -0.1379197028
C  C117  1  0.02150000  0.24750000  0.10350000  1.0 0.0907930938
C  C118  1  0.97850000  0.74750000  0.39650000  1.0 0.0907930938
C  C119  1  0.97850000  0.75250000  0.89650000  1.0 0.0907930938
C  C120  1  0.02150000  0.25250000  0.60350000  1.0 0.0907930938
C  C121  1  0.33010000  0.23300000  0.08640000  1.0 0.6431469658
C  C122  1  0.66990000  0.73300000  0.41360000  1.0 0.6431469658
C  C123  1  0.66990000  0.76700000  0.91360000  1.0 0.6431469658
C  C124  1  0.33010000  0.26700000  0.58640000  1.0 0.6431469658
C  C125  1  0.96260000  0.24480000  0.13270000  1.0 0.0032959763
C  C126  1  0.03740000  0.74480000  0.36730000  1.0 0.0032959763
C  C127  1  0.03740000  0.75520000  0.86730000  1.0 0.0032959763
C  C128  1  0.96260000  0.25520000  0.63270000  1.0 0.0032959763
C  C129  1  0.92820000  0.27440000  0.14690000  1.0 0.0592843695
C  C130  1  0.07180000  0.77440000  0.35310000  1.0 0.0592843695
C  C131  1  0.07180000  0.72560000  0.85310000  1.0 0.0592843695
C  C132  1  0.92820000  0.22560000  0.64690000  1.0 0.0592843695
C  C133  1  0.94880000  0.30780000  0.13400000  1.0 -0.030259445
C  C134  1  0.05120000  0.80780000  0.36600000  1.0 -0.030259445
C  C135  1  0.05120000  0.69220000  0.86600000  1.0 -0.030259445
C  C136  1  0.94880000  0.19220000  0.63400000  1.0 -0.030259445
C  C137  1  0.00390000  0.31160000  0.10700000  1.0 0.0592843695
C  C138  1  0.99610000  0.81160000  0.39300000  1.0 0.0592843695
C  C139  1  0.99610000  0.68840000  0.89300000  1.0 0.0708616549
C  C140  1  0.00390000  0.18840000  0.60700000  1.0 0.0708616549
C  C141  1  0.39630000  0.21300000  0.43260000  1.0 0.5813321013
C  C142  1  0.60370000  0.71300000  0.06740000  1.0 0.5813321013
C  C143  1  0.60370000  0.78700000  0.56740000  1.0 0.5813321013
C  C144  1  0.39630000  0.28700000  0.93260000  1.0 0.5813321013
C  C145  1  0.83220000  0.65800000  0.07800000  1.0 0.5673444906
C  C146  1  0.16780000  0.15800000  0.42200000  1.0 0.5673444906
C  C147  1  0.16780000  0.34200000  0.92200000  1.0 0.5673444906
C  C148  1  0.83220000  0.84200000  0.57800000  1.0 0.5673444906
C  C149  1  0.17140000  0.28350000  0.43420000  1.0 0.5899903217
C  C150  1  0.82860000  0.78350000  0.06580000  1.0 0.5899903217
C  C151  1  0.82860000  0.71650000  0.56580000  1.0 0.5899903217
C  C152  1  0.17140000  0.21650000  0.93420000  1.0 0.5899903217
C  C153  1  0.10300000  0.28370000  0.06510000  1.0 0.5899903217
C  C154  1  0.89700000  0.78370000  0.43490000  1.0 0.5963868338
C  C155  1  0.89700000  0.71630000  0.93490000  1.0 0.5963868338
C  C156  1  0.10300000  0.21630000  0.56510000  1.0 0.5963868338
C  C157  1  0.67100000  0.85580000  0.42340000  1.0 0.5813321013
C  C158  1  0.32900000  0.35580000  0.07660000  1.0 0.5813321013
C  C159  1  0.32900000  0.14420000  0.57660000  1.0 0.5899903217
C  C160  1  0.67100000  0.64420000  0.92340000  1.0 0.5899903217
C  C161  1  0.64980000  0.88770000  0.39870000  1.0 -0.0909079461
C  C162  1  0.35020000  0.38770000  0.10130000  1.0 -0.0909079461
C  C163  1  0.35020000  0.11230000  0.60130000  1.0 -0.0909079461
C  C164  1  0.64980000  0.61230000  0.89870000  1.0 -0.0909079461
C  C165  1  0.58720000  0.88400000  0.37310000  1.0 0.0204694393
C  C166  1  0.41280000  0.38400000  0.12690000  1.0 0.0204694393
C  C167  1  0.41280000  0.11600000  0.62690000  1.0 0.0204694393
C  C168  1  0.58720000  0.61600000  0.87310000  1.0 0.0204694393
C  C169  1  0.56150000  0.91140000  0.34490000  1.0 -0.030259445
C  C170  1  0.43850000  0.41140000  0.15510000  1.0 -0.030259445
C  C171  1  0.43850000  0.08860000  0.65510000  1.0 -0.030259445
C  C172  1  0.56150000  0.58860000  0.84490000  1.0 -0.030259445
C  C173  1  0.59830000  0.94250000  0.34240000  1.0 0.0708616549
C  C174  1  0.40170000  0.44250000  0.15760000  1.0 0.0708616549
C  C175  1  0.40170000  0.05750000  0.65760000  1.0 0.0708616549
C  C176  1  0.59830000  0.55750000  0.84240000  1.0 0.0708616549
C  C177  1  0.66090000  0.94620000  0.36800000  1.0 -0.0093522876
C  C178  1  0.33910000  0.44620000  0.13200000  1.0 -0.0093522876
C  C179  1  0.33910000  0.05380000  0.63200000  1.0 -0.0093522876
C  C180  1  0.66090000  0.55380000  0.86800000  1.0 -0.0093522876
C  C181  1  0.68660000  0.91880000  0.39610000  1.0 0.0396367931
C  C182  1  0.31340000  0.41880000  0.10390000  1.0 0.0396367931
C  C183  1  0.31340000  0.08120000  0.60390000  1.0 0.0396367931
C  C184  1  0.68660000  0.58120000  0.89610000  1.0 0.0396367931
C  C185  1  0.86250000  0.62640000  0.10900000  1.0 -0.0590835857
C  C186  1  0.13750000  0.12640000  0.39100000  1.0 -0.0590835857
C  C187  1  0.13750000  0.37360000  0.89100000  1.0 -0.0590835857
C  C188  1  0.86250000  0.87360000  0.60900000  1.0 -0.0590835857
C  C189  1  0.87570000  0.63080000  0.15680000  1.0 0.0297777034
C  C190  1  0.12430000  0.13080000  0.34320000  1.0 0.0297777034
C  C191  1  0.12430000  0.36920000  0.84320000  1.0 0.0297777034
C  C192  1  0.87570000  0.86920000  0.65680000  1.0 0.0297777034
C  C193  1  0.89640000  0.60220000  0.18460000  1.0 -0.039134498
C  C194  1  0.10360000  0.10220000  0.31540000  1.0 -0.039134498
C  C195  1  0.10360000  0.39780000  0.81540000  1.0 -0.039134498
C  C196  1  0.89640000  0.89780000  0.68460000  1.0 -0.039134498
C  C197  1  0.90400000  0.56930000  0.16470000  1.0 0.0708616549
C  C198  1  0.09600000  0.06930000  0.33530000  1.0 0.0708616549
C  C199  1  0.09600000  0.43070000  0.83530000  1.0 0.0708616549
C  C200  1  0.90400000  0.93070000  0.66470000  1.0 0.0708616549
C  C201  1  0.89080000  0.56490000  0.11690000  1.0 -0.0193768511
C  C202  1  0.10920000  0.06490000  0.38310000  1.0 -0.0193768511
C  C203  1  0.10920000  0.43510000  0.88310000  1.0 -0.0193768511
C  C204  1  0.89080000  0.93510000  0.61690000  1.0 -0.0193768511
C  C205  1  0.87000000  0.59340000  0.08910000  1.0 0.0204694393
C  C206  1  0.13000000  0.09340000  0.41090000  1.0 0.0204694393
C  C207  1  0.13000000  0.40660000  0.91090000  1.0 0.0204694393
C  C208  1  0.87000000  0.90660000  0.58910000  1.0 0.0204694393
C  C209  1  0.13690000  0.31160000  0.40190000  1.0 -0.068983732
C  C210  1  0.86310000  0.81160000  0.09810000  1.0 -0.068983732
C  C211  1  0.86310000  0.68840000  0.59810000  1.0 -0.068983732
C  C212  1  0.13690000  0.18840000  0.90190000  1.0 -0.068983732
C  C213  1  0.13560000  0.31270000  0.35370000  1.0 0.0498046748
C  C214  1  0.86440000  0.81270000  0.14630000  1.0 0.0498046748
C  C215  1  0.86440000  0.68730000  0.64630000  1.0 0.0498046748
C  C216  1  0.13560000  0.18730000  0.85370000  1.0 0.0498046748
C  C217  1  0.11420000  0.34310000  0.32990000  1.0 0.0095759279
C  C218  1  0.88580000  0.84310000  0.17010000  1.0 0.0095759279
C  C219  1  0.88580000  0.65690000  0.67010000  1.0 0.0095759279
C  C220  1  0.11420000  0.15690000  0.82990000  1.0 0.0095759279
C  C221  1  0.09420000  0.37230000  0.35440000  1.0 0.077105095
C  C222  1  0.90580000  0.87230000  0.14560000  1.0 0.077105095
C  C223  1  0.90580000  0.62770000  0.64560000  1.0 0.077105095
C  C224  1  0.09420000  0.12770000  0.85440000  1.0 0.077105095
C  C225  1  0.09560000  0.37120000  0.40260000  1.0 0.0032959763
C  C226  1  0.90440000  0.87120000  0.09740000  1.0 0.0032959763
C  C227  1  0.90440000  0.62880000  0.59740000  1.0 0.0032959763
C  C228  1  0.09560000  0.12880000  0.90260000  1.0 0.0032959763
C  C229  1  0.11690000  0.34080000  0.42640000  1.0 0.0095759279
C  C230  1  0.88310000  0.84080000  0.07360000  1.0 0.0095759279
C  C231  1  0.88310000  0.65920000  0.57360000  1.0 0.0095759279
C  C232  1  0.11690000  0.15920000  0.92640000  1.0 0.0095759279
C  C233  1  0.72730000  0.44540000  0.29910000  1.0 0.0708616549
C  C234  1  0.27270000  0.94540000  0.20090000  1.0 0.0708616549
C  C235  1  0.27270000  0.55460000  0.70090000  1.0 0.077105095
C  C236  1  0.72730000  0.05460000  0.79910000  1.0 0.0708616549
C  C237  1  0.72580000  0.43830000  0.24970000  1.0 0.2205640936
C  C238  1  0.27420000  0.93830000  0.25030000  1.0 0.2205640936
C  C239  1  0.27420000  0.56170000  0.75030000  1.0 0.2205640936
C  C240  1  0.72580000  0.06170000  0.74970000  1.0 0.2205640936
C  C241  1  0.78920000  0.43280000  0.18500000  1.0 0.1326842942
C  C242  1  0.21080000  0.93280000  0.31500000  1.0 0.1326842942
C  C243  1  0.21080000  0.56720000  0.81500000  1.0 0.1326842942
C  C244  1  0.78920000  0.06720000  0.68500000  1.0 0.1326842942
C  C245  1  0.72900000  0.42990000  0.15620000  1.0 -0.039134498
C  C246  1  0.27100000  0.92990000  0.34380000  1.0 -0.039134498
C  C247  1  0.27100000  0.57010000  0.84380000  1.0 -0.039134498
C  C248  1  0.72900000  0.07010000  0.65620000  1.0 -0.039134498
C  C249  1  0.66720000  0.42880000  0.17510000  1.0 0.0297777034
C  C250  1  0.33280000  0.92880000  0.32490000  1.0 0.0297777034
C  C251  1  0.33280000  0.57120000  0.82490000  1.0 0.0297777034
C  C252  1  0.66720000  0.07120000  0.67510000  1.0 0.0297777034
C  C253  1  0.66470000  0.43330000  0.22360000  1.0 -0.030259445
C  C254  1  0.33530000  0.93330000  0.27640000  1.0 -0.030259445
C  C255  1  0.33530000  0.56670000  0.77640000  1.0 -0.030259445
C  C256  1  0.66470000  0.06670000  0.72360000  1.0 -0.030259445
C  C257  1  0.60150000  0.43180000  0.24590000  1.0 -0.0193768511
C  C258  1  0.39850000  0.93180000  0.25410000  1.0 -0.0193768511
C  C259  1  0.39850000  0.56820000  0.75410000  1.0 -0.0193768511
C  C260  1  0.60150000  0.06820000  0.74590000  1.0 -0.0193768511
C  C261  1  0.60240000  0.43580000  0.29210000  1.0 -0.068983732
C  C262  1  0.39760000  0.93580000  0.20790000  1.0 -0.068983732
C  C263  1  0.39760000  0.56420000  0.70790000  1.0 -0.068983732
C  C264  1  0.60240000  0.06420000  0.79210000  1.0 -0.068983732
C  C265  1  0.66400000  0.44290000  0.32080000  1.0 0.0396367931
C  C266  1  0.33600000  0.94290000  0.17920000  1.0 0.0396367931
C  C267  1  0.33600000  0.55710000  0.67920000  1.0 0.0396367931
C  C268  1  0.66400000  0.05710000  0.82080000  1.0 0.0396367931
C  C269  1  0.66960000  0.44720000  0.36950000  1.0 0.0592843695
C  C270  1  0.33040000  0.94720000  0.13050000  1.0 0.0592843695
C  C271  1  0.33040000  0.55280000  0.63050000  1.0 0.0592843695
C  C272  1  0.66960000  0.05280000  0.86950000  1.0 0.0592843695
C  C273  1  0.73130000  0.45430000  0.39280000  1.0 -0.1599501575
C  C274  1  0.26870000  0.95430000  0.10720000  1.0 -0.1599501575
C  C275  1  0.26870000  0.54570000  0.60720000  1.0 -0.1599501575
C  C276  1  0.73130000  0.04570000  0.89280000  1.0 -0.1599501575
C  C277  1  0.79000000  0.45710000  0.36850000  1.0 0.2622956895
C  C278  1  0.21000000  0.95710000  0.13150000  1.0 0.2622956895
C  C279  1  0.21000000  0.54290000  0.63150000  1.0 0.2622956895
C  C280  1  0.79000000  0.04290000  0.86850000  1.0 0.2622956895
C  C281  1  0.47330000  0.10930000  0.41080000  1.0 0.1914187361
C  C282  1  0.52670000  0.60930000  0.08920000  1.0 0.1914187361
C  C283  1  0.52670000  0.89070000  0.58920000  1.0 0.1914187361
C  C284  1  0.47330000  0.39070000  0.91080000  1.0 0.1914187361
C  C285  1  0.54710000  0.10660000  0.41520000  1.0 0.0907930938
C  C286  1  0.45290000  0.60660000  0.08480000  1.0 0.0907930938
C  C287  1  0.45290000  0.89340000  0.58480000  1.0 0.0907930938
C  C288  1  0.54710000  0.39340000  0.91520000  1.0 0.0907930938
C  C289  1  0.64520000  0.09360000  0.37800000  1.0 0.2486393714
C  C290  1  0.35480000  0.59360000  0.12200000  1.0 0.2486393714
C  C291  1  0.35480000  0.90640000  0.62200000  1.0 0.2486393714
C  C292  1  0.64520000  0.40640000  0.87800000  1.0 0.2486393714
C  C293  1  0.58380000  0.11580000  0.45610000  1.0 0.0396367931
C  C294  1  0.41620000  0.61580000  0.04390000  1.0 0.0396367931
C  C295  1  0.41620000  0.88420000  0.54390000  1.0 0.0396367931
C  C296  1  0.58380000  0.38420000  0.95610000  1.0 0.0396367931
C  C297  1  0.68560000  0.10470000  0.41730000  1.0 -0.1379197028
C  C298  1  0.31440000  0.60470000  0.08270000  1.0 -0.1379197028
C  C299  1  0.31440000  0.89530000  0.58270000  1.0 -0.1379197028
C  C300  1  0.68560000  0.39530000  0.91730000  1.0 -0.1379197028
C  C301  1  0.65580000  0.11450000  0.45680000  1.0 0.0708616549
C  C302  1  0.34420000  0.61450000  0.04320000  1.0 0.0708616549
C  C303  1  0.34420000  0.88550000  0.54320000  1.0 0.0708616549
C  C304  1  0.65580000  0.38550000  0.95680000  1.0 0.0708616549
C  C305  1  0.54930000  0.12520000  0.49670000  1.0 -0.0590835857
C  C306  1  0.45070000  0.62520000  0.00330000  1.0 -0.0590835857
C  C307  1  0.45070000  0.87480000  0.50330000  1.0 -0.0590835857
C  C308  1  0.54930000  0.37480000  0.99670000  1.0 -0.0590835857
C  C309  1  0.48100000  0.12560000  0.49410000  1.0 -0.030259445
C  C310  1  0.51900000  0.62560000  0.00590000  1.0 -0.030259445
C  C311  1  0.51900000  0.87440000  0.50590000  1.0 -0.030259445
C  C312  1  0.48100000  0.37440000  0.99410000  1.0 -0.030259445
C  C313  1  0.33470000  0.11020000  0.40390000  1.0 -0.099821665
C  C314  1  0.66530000  0.61020000  0.09610000  1.0 -0.099821665
C  C315  1  0.66530000  0.88980000  0.59610000  1.0 -0.1062528465
C  C316  1  0.33470000  0.38980000  0.90390000  1.0 -0.099821665
C  C317  1  0.37190000  0.10290000  0.36560000  1.0 0.2075182089
C  C318  1  0.62810000  0.60290000  0.13440000  1.0 0.2075182089
C  C319  1  0.62810000  0.89710000  0.63440000  1.0 0.2075182089
C  C320  1  0.37190000  0.39710000  0.86560000  1.0 0.2075182089
C  C321  1  0.36790000  0.11740000  0.44630000  1.0 0.0032959763
C  C322  1  0.63210000  0.61740000  0.05370000  1.0 0.0095759279
C  C323  1  0.63210000  0.88260000  0.55370000  1.0 0.0095759279
C  C324  1  0.36790000  0.38260000  0.94630000  1.0 0.0032959763
C  C325  1  0.43980000  0.11790000  0.45190000  1.0 0.0095759279
C  C326  1  0.56020000  0.61790000  0.04810000  1.0 0.0095759279
C  C327  1  0.56020000  0.88210000  0.54810000  1.0 0.0095759279
C  C328  1  0.43980000  0.38210000  0.95190000  1.0 0.0095759279
C  C329  1  0.45240000  0.21740000  0.40320000  1.0 -0.1062528465
C  C330  1  0.54760000  0.71740000  0.09680000  1.0 -0.1062528465
C  C331  1  0.54760000  0.78260000  0.59680000  1.0 -0.1062528465
C  C332  1  0.45240000  0.28260000  0.90320000  1.0 -0.1062528465
C  C333  1  0.51500000  0.20340000  0.42000000  1.0 -0.0093522876
C  C334  1  0.48500000  0.70340000  0.08000000  1.0 -0.0093522876
C  C335  1  0.48500000  0.79660000  0.58000000  1.0 -0.0093522876
C  C336  1  0.51500000  0.29660000  0.92000000  1.0 -0.0093522876
C  C337  1  0.57040000  0.20500000  0.39290000  1.0 -0.0093522876
C  C338  1  0.42960000  0.70500000  0.10710000  1.0 -0.0093522876
C  C339  1  0.42960000  0.79500000  0.60710000  1.0 -0.0093522876
C  C340  1  0.57040000  0.29500000  0.89290000  1.0 -0.0093522876
C  C341  1  0.56320000  0.22050000  0.34910000  1.0 0.077105095
C  C342  1  0.43680000  0.72050000  0.15090000  1.0 0.077105095
C  C343  1  0.43680000  0.77950000  0.65090000  1.0 0.077105095
C  C344  1  0.56320000  0.27950000  0.84910000  1.0 0.077105095
C  C345  1  0.50070000  0.23440000  0.33240000  1.0 0.0095759279
C  C346  1  0.49930000  0.73440000  0.16760000  1.0 0.0095759279
C  C347  1  0.49930000  0.76560000  0.66760000  1.0 0.0095759279
C  C348  1  0.50070000  0.26560000  0.83240000  1.0 0.0095759279
C  C349  1  0.44520000  0.23290000  0.35940000  1.0 0.0498046748
C  C350  1  0.55480000  0.73290000  0.14060000  1.0 0.0498046748
C  C351  1  0.55480000  0.76710000  0.64060000  1.0 0.0498046748
C  C352  1  0.44520000  0.26710000  0.85940000  1.0 0.0498046748
C  C353  1  0.37150000  0.19450000  0.10190000  1.0 -0.099821665
C  C354  1  0.62850000  0.69450000  0.39810000  1.0 -0.099821665
C  C355  1  0.62850000  0.80550000  0.89810000  1.0 -0.099821665
C  C356  1  0.37150000  0.30550000  0.60190000  1.0 -0.099821665
C  C357  1  0.44090000  0.19770000  0.11480000  1.0 0.0592843695
C  C358  1  0.55910000  0.69770000  0.38520000  1.0 0.0592843695
C  C359  1  0.55910000  0.80230000  0.88520000  1.0 0.0592843695
C  C360  1  0.44090000  0.30230000  0.61480000  1.0 0.0592843695
C  C361  1  0.47440000  0.17180000  0.14210000  1.0 0.0204694393
C  C362  1  0.52560000  0.67180000  0.35790000  1.0 0.0204694393
C  C363  1  0.52560000  0.82820000  0.85790000  1.0 0.0204694393
C  C364  1  0.47440000  0.32820000  0.64210000  1.0 0.0204694393
C  C365  1  0.43860000  0.14280000  0.15630000  1.0 0.0297777034
C  C366  1  0.56140000  0.64280000  0.34370000  1.0 0.0396367931
C  C367  1  0.56140000  0.85720000  0.84370000  1.0 0.0297777034
C  C368  1  0.43860000  0.35720000  0.65630000  1.0 0.0297777034
C  C369  1  0.36920000  0.13960000  0.14350000  1.0 0.0095759279
C  C370  1  0.63080000  0.63960000  0.35650000  1.0 0.0095759279
C  C371  1  0.63080000  0.86040000  0.85650000  1.0 0.0095759279
C  C372  1  0.36920000  0.36040000  0.64350000  1.0 0.0095759279
C  C373  1  0.33560000  0.16550000  0.11620000  1.0 -0.0193768511
C  C374  1  0.66440000  0.66550000  0.38380000  1.0 -0.0193768511
C  C375  1  0.66440000  0.83450000  0.88380000  1.0 -0.0193768511
C  C376  1  0.33560000  0.33450000  0.61620000  1.0 -0.0193768511
C  C377  1  0.47790000  0.14940000  0.26200000  1.0 -0.2092909476
C  C378  1  0.52210000  0.64940000  0.23800000  1.0 -0.2092909476
C  C379  1  0.52210000  0.85060000  0.73800000  1.0 -0.2092909476
C  C380  1  0.47790000  0.35060000  0.76200000  1.0 -0.2092909476
C  C381  1  0.48070000  0.12270000  0.22640000  1.0 0.1914187361
C  C382  1  0.51930000  0.62270000  0.27360000  1.0 0.1914187361
C  C383  1  0.51930000  0.87730000  0.77360000  1.0 0.1914187361
C  C384  1  0.48070000  0.37730000  0.72640000  1.0 0.1914187361
C  C385  1  0.46790000  0.11610000  0.17910000  1.0 0.0204694393
C  C386  1  0.53210000  0.61610000  0.32090000  1.0 0.0204694393
C  C387  1  0.53210000  0.88390000  0.82090000  1.0 0.0204694393
C  C388  1  0.46790000  0.38390000  0.67910000  1.0 0.0204694393
C  C389  1  0.47670000  0.08240000  0.16190000  1.0 -0.068983732
C  C390  1  0.52330000  0.58240000  0.33810000  1.0 -0.068983732
C  C391  1  0.52330000  0.91760000  0.83810000  1.0 -0.068983732
C  C392  1  0.47670000  0.41760000  0.66190000  1.0 -0.068983732
C  C393  1  0.49840000  0.05530000  0.19200000  1.0 0.0032959763
C  C394  1  0.50160000  0.55530000  0.30800000  1.0 -0.0012043333
C  C395  1  0.50160000  0.94470000  0.80800000  1.0 0.0032959763
C  C396  1  0.49840000  0.44470000  0.69200000  1.0 0.0032959763
C  C397  1  0.51050000  0.06190000  0.23840000  1.0 0.1355841794
C  C398  1  0.48950000  0.56190000  0.26160000  1.0 0.1355841794
C  C399  1  0.48950000  0.93810000  0.76160000  1.0 0.1355841794
C  C400  1  0.51050000  0.43810000  0.73840000  1.0 0.1355841794
C  C401  1  0.68790000  0.24250000  0.33650000  1.0 0.2678882779
C  C402  1  0.31210000  0.74250000  0.16350000  1.0 0.2678882779
C  C403  1  0.31210000  0.75750000  0.66350000  1.0 0.2678882779
C  C404  1  0.68790000  0.25750000  0.83650000  1.0 0.2678882779
C  C405  1  0.61950000  0.23370000  0.31930000  1.0 -0.0093522876
C  C406  1  0.38050000  0.73370000  0.18070000  1.0 -0.0093522876
C  C407  1  0.38050000  0.76630000  0.68070000  1.0 -0.0093522876
C  C408  1  0.61950000  0.26630000  0.81930000  1.0 -0.0093522876
C  C409  1  0.59770000  0.23180000  0.27290000  1.0 -0.0510505837
C  C410  1  0.40230000  0.73180000  0.22710000  1.0 -0.0510505837
C  C411  1  0.40230000  0.76820000  0.72710000  1.0 -0.0510505837
C  C412  1  0.59770000  0.26820000  0.77290000  1.0 -0.0510505837
C  C413  1  0.94650000  0.28550000  0.24830000  1.0 -0.2499624542
C  C414  1  0.05350000  0.78550000  0.25170000  1.0 -0.2386504648
C  C415  1  0.05350000  0.71450000  0.75170000  1.0 -0.2499624542
C  C416  1  0.94650000  0.21450000  0.74830000  1.0 -0.2499624542
C  C417  1  0.70620000  0.24750000  0.38380000  1.0 -0.45202513
C  C418  1  0.29380000  0.74750000  0.11620000  1.0 -0.4423006635
C  C419  1  0.29380000  0.75250000  0.61620000  1.0 -0.4423006635
C  C420  1  0.70620000  0.25250000  0.88380000  1.0 -0.4423006635
C  C421  1  0.95060000  0.22430000  0.35750000  1.0 0.2486393714
C  C422  1  0.04940000  0.72430000  0.14250000  1.0 0.2486393714
C  C423  1  0.04940000  0.77570000  0.64250000  1.0 0.2486393714
C  C424  1  0.95060000  0.27570000  0.85750000  1.0 0.2486393714
C  C425  1  0.00870000  0.21500000  0.39520000  1.0 -0.0590835857
C  C426  1  0.99130000  0.71500000  0.10480000  1.0 -0.0590835857
C  C427  1  0.99130000  0.78500000  0.60480000  1.0 -0.0590835857
C  C428  1  0.00870000  0.28500000  0.89520000  1.0 -0.0590835857
C  C429  1  0.02110000  0.23490000  0.42740000  1.0 -0.039134498
C  C430  1  0.97890000  0.73490000  0.07260000  1.0 -0.039134498
C  C431  1  0.97890000  0.76510000  0.57260000  1.0 -0.039134498
C  C432  1  0.02110000  0.26510000  0.92740000  1.0 -0.039134498
C  C433  1  0.98230000  0.26370000  0.43530000  1.0 0.0095759279
C  C434  1  0.01770000  0.76370000  0.06470000  1.0 0.0095759279
C  C435  1  0.01770000  0.73630000  0.56470000  1.0 0.0095759279
C  C436  1  0.98230000  0.23630000  0.93530000  1.0 0.0095759279
C  C437  1  0.93100000  0.27150000  0.40080000  1.0 0.1567413696
C  C438  1  0.06900000  0.77150000  0.09920000  1.0 0.1567413696
C  C439  1  0.06900000  0.72850000  0.59920000  1.0 0.1567413696
C  C440  1  0.93100000  0.22850000  0.90080000  1.0 0.1567413696
C  C441  1  0.89000000  0.30090000  0.40510000  1.0 0.0592843695
C  C442  1  0.11000000  0.80090000  0.09490000  1.0 0.0592843695
C  C443  1  0.11000000  0.69910000  0.59490000  1.0 0.0592843695
C  C444  1  0.89000000  0.19910000  0.90510000  1.0 0.0592843695
C  C445  1  0.90020000  0.32260000  0.44390000  1.0 0.0708616549
C  C446  1  0.09980000  0.82260000  0.05610000  1.0 0.0708616549
C  C447  1  0.09980000  0.67740000  0.55610000  1.0 0.0708616549
C  C448  1  0.90020000  0.17740000  0.94390000  1.0 0.0708616549
C  C449  1  0.95150000  0.31480000  0.47840000  1.0 -0.039134498
C  C450  1  0.04850000  0.81480000  0.02160000  1.0 -0.039134498
C  C451  1  0.04850000  0.68520000  0.52160000  1.0 -0.039134498
C  C452  1  0.95150000  0.18520000  0.97840000  1.0 -0.039134498
C  C453  1  0.99250000  0.28530000  0.47410000  1.0 -0.0193768511
C  C454  1  0.00750000  0.78530000  0.02590000  1.0 -0.0193768511
C  C455  1  0.00750000  0.71470000  0.52590000  1.0 -0.0193768511
C  C456  1  0.99250000  0.21470000  0.97410000  1.0 -0.0193768511
C  C457  1  0.84820000  0.35320000  0.44540000  1.0 0.0498046748
C  C458  1  0.15180000  0.85320000  0.05460000  1.0 0.0498046748
C  C459  1  0.15180000  0.64680000  0.55460000  1.0 0.0498046748
C  C460  1  0.84820000  0.14680000  0.94540000  1.0 0.0498046748
C  C461  1  0.80060000  0.35680000  0.41300000  1.0 -0.0909079461
C  C462  1  0.19940000  0.85680000  0.08700000  1.0 -0.0909079461
C  C463  1  0.19940000  0.64320000  0.58700000  1.0 -0.0909079461
C  C464  1  0.80060000  0.14320000  0.91300000  1.0 -0.0909079461
C  C465  1  0.79210000  0.33480000  0.36660000  1.0 0.2622956895
C  C466  1  0.20790000  0.83480000  0.13340000  1.0 0.2622956895
C  C467  1  0.20790000  0.66520000  0.63340000  1.0 0.2622956895
C  C468  1  0.79210000  0.16520000  0.86660000  1.0 0.2622956895
C  C469  1  0.54210000  0.99770000  0.23960000  1.0 0.0095759279
C  C470  1  0.45790000  0.49770000  0.26040000  1.0 0.0095759279
C  C471  1  0.45790000  0.00230000  0.76040000  1.0 0.0095759279
C  C472  1  0.54210000  0.50230000  0.73960000  1.0 0.0095759279
C  C473  1  0.57140000  0.01240000  0.38610000  1.0 -0.3565220049
C  C474  1  0.42860000  0.51240000  0.11390000  1.0 -0.3565220049
C  C475  1  0.42860000  0.98760000  0.61390000  1.0 -0.3500412196
C  C476  1  0.57140000  0.48760000  0.88610000  1.0 -0.3565220049
C  C477  1  0.76900000  0.08000000  0.34600000  1.0 0.077105095
C  C478  1  0.23100000  0.58000000  0.15400000  1.0 0.077105095
C  C479  1  0.23100000  0.92000000  0.65400000  1.0 0.077105095
C  C480  1  0.76900000  0.42000000  0.84600000  1.0 0.077105095
C  C481  1  0.69900000  0.09000000  0.34700000  1.0 -0.0093522876
C  C482  1  0.30100000  0.59000000  0.15300000  1.0 -0.0093522876
C  C483  1  0.30100000  0.91000000  0.65300000  1.0 -0.0093522876
C  C484  1  0.69900000  0.41000000  0.84700000  1.0 -0.0093522876
C  C485  1  0.65500000  0.08300000  0.30700000  1.0 -0.1197141407
C  C486  1  0.34500000  0.58300000  0.19300000  1.0 -0.1197141407
C  C487  1  0.34500000  0.91700000  0.69300000  1.0 -0.1197141407
C  C488  1  0.65500000  0.41700000  0.80700000  1.0 -0.1197141407
C  C489  1  0.68200000  0.07500000  0.26500000  1.0 -0.0909079461
C  C490  1  0.31800000  0.57500000  0.23500000  1.0 -0.0909079461
C  C491  1  0.31800000  0.92500000  0.73500000  1.0 -0.0909079461
C  C492  1  0.68200000  0.42500000  0.76500000  1.0 -0.0909079461
C  C493  1  0.75100000  0.06900000  0.26300000  1.0 0.2205640936
C  C494  1  0.24900000  0.56900000  0.23700000  1.0 0.2205640936
C  C495  1  0.24900000  0.93100000  0.73700000  1.0 0.2205640936
C  C496  1  0.75100000  0.43100000  0.76300000  1.0 0.2205640936
C  C497  1  0.79500000  0.07300000  0.30400000  1.0 -0.099821665
C  C498  1  0.20500000  0.57300000  0.19600000  1.0 -0.099821665
C  C499  1  0.20500000  0.92700000  0.69600000  1.0 -0.1062528465
C  C500  1  0.79500000  0.42700000  0.80400000  1.0 -0.099821665
C  C501  1  0.85700000  0.42300000  0.16200000  1.0 0.0396367931
C  C502  1  0.14300000  0.92300000  0.33800000  1.0 0.0297777034
C  C503  1  0.14300000  0.57700000  0.83800000  1.0 0.0396367931
C  C504  1  0.85700000  0.07700000  0.66200000  1.0 0.0396367931
C  C505  1  0.87000000  0.44300000  0.12300000  1.0 -0.0093522876
C  C506  1  0.13000000  0.94300000  0.37700000  1.0 -0.0093522876
C  C507  1  0.13000000  0.55700000  0.87700000  1.0 -0.0093522876
C  C508  1  0.87000000  0.05700000  0.62300000  1.0 -0.0093522876
C  C509  1  0.94000000  0.44800000  0.11200000  1.0 0.0498046748
C  C510  1  0.06000000  0.94800000  0.38800000  1.0 0.0498046748
C  C511  1  0.06000000  0.55200000  0.88800000  1.0 0.0498046748
C  C512  1  0.94000000  0.05200000  0.61200000  1.0 0.0498046748
C  C513  1  0.99100000  0.43500000  0.14100000  1.0 -0.039134498
C  C514  1  0.00900000  0.93500000  0.35900000  1.0 -0.039134498
C  C515  1  0.00900000  0.56500000  0.85900000  1.0 -0.039134498
C  C516  1  0.99100000  0.06500000  0.64100000  1.0 -0.039134498
C  C517  1  0.97800000  0.41600000  0.18000000  1.0 0.0204694393
C  C518  1  0.02200000  0.91600000  0.32000000  1.0 0.0204694393
C  C519  1  0.02200000  0.58400000  0.82000000  1.0 0.0204694393
C  C520  1  0.97800000  0.08400000  0.68000000  1.0 0.0204694393
C  C521  1  0.91100000  0.41000000  0.19100000  1.0 -0.068983732
C  C522  1  0.08900000  0.91000000  0.30900000  1.0 -0.068983732
C  C523  1  0.08900000  0.59000000  0.80900000  1.0 -0.068983732
C  C524  1  0.91100000  0.09000000  0.69100000  1.0 -0.068983732
C  C525  1  0.98800000  0.47800000  0.43400000  1.0 0.2678882779
C  C526  1  0.01200000  0.97800000  0.06600000  1.0 0.2678882779
C  C527  1  0.01200000  0.52200000  0.56600000  1.0 0.2678882779
C  C528  1  0.98800000  0.02200000  0.93400000  1.0 0.2678882779
C  C529  1  0.96400000  0.49600000  0.39400000  1.0 -0.099821665
C  C530  1  0.03600000  0.99600000  0.10600000  1.0 -0.099821665
C  C531  1  0.03600000  0.50400000  0.60600000  1.0 -0.099821665
C  C532  1  0.96400000  0.00400000  0.89400000  1.0 -0.099821665
C  C533  1  0.89800000  0.48900000  0.37500000  1.0 -0.039134498
C  C534  1  0.10200000  0.98900000  0.12500000  1.0 -0.039134498
C  C535  1  0.10200000  0.51100000  0.62500000  1.0 -0.039134498
C  C536  1  0.89800000  0.01100000  0.87500000  1.0 -0.039134498
C  C537  1  0.85700000  0.46600000  0.39500000  1.0 -0.0193768511
C  C538  1  0.14300000  0.96600000  0.10500000  1.0 -0.0193768511
C  C539  1  0.14300000  0.53400000  0.60500000  1.0 -0.0193768511
C  C540  1  0.85700000  0.03400000  0.89500000  1.0 -0.0093522876
C  C541  1  0.88100000  0.44800000  0.43500000  1.0 0.0297777034
C  C542  1  0.11900000  0.94800000  0.06500000  1.0 0.0297777034
C  C543  1  0.11900000  0.55200000  0.56500000  1.0 0.0297777034
C  C544  1  0.88100000  0.05200000  0.93500000  1.0 0.0297777034
C  C545  1  0.94700000  0.45400000  0.45500000  1.0 -0.0510505837
C  C546  1  0.05300000  0.95400000  0.04500000  1.0 -0.0510505837
C  C547  1  0.05300000  0.54600000  0.54500000  1.0 -0.0510505837
C  C548  1  0.94700000  0.04600000  0.95500000  1.0 -0.0510505837
C  C549  1  0.32000000  0.07600000  0.22800000  1.0 0.1542696507
C  C550  1  0.68000000  0.57600000  0.27200000  1.0 0.1542696507
C  C551  1  0.68000000  0.92400000  0.77200000  1.0 0.1542696507
C  C552  1  0.32000000  0.42400000  0.72800000  1.0 0.1542696507
C  C553  1  0.27800000  0.10200000  0.24800000  1.0 -0.0590835857
C  C554  1  0.72200000  0.60200000  0.25200000  1.0 -0.0590835857
C  C555  1  0.72200000  0.89800000  0.75200000  1.0 -0.0510505837
C  C556  1  0.27800000  0.39800000  0.74800000  1.0 -0.0590835857
C  C557  1  0.28900000  0.10900000  0.29500000  1.0 0.0297777034
C  C558  1  0.71100000  0.60900000  0.20500000  1.0 0.0297777034
C  C559  1  0.71100000  0.89100000  0.70500000  1.0 0.0297777034
C  C560  1  0.28900000  0.39100000  0.79500000  1.0 0.0297777034
C  C561  1  0.33800000  0.09000000  0.32200000  1.0 0.0204694393
C  C562  1  0.66200000  0.59000000  0.17800000  1.0 0.0204694393
C  C563  1  0.66200000  0.91000000  0.67800000  1.0 0.0204694393
C  C564  1  0.33800000  0.41000000  0.82200000  1.0 0.0204694393
C  C565  1  0.37600000  0.06400000  0.30200000  1.0 -0.0590835857
C  C566  1  0.62400000  0.56400000  0.19800000  1.0 -0.0590835857
C  C567  1  0.62400000  0.93600000  0.69800000  1.0 -0.0590835857
C  C568  1  0.37600000  0.43600000  0.80200000  1.0 -0.0590835857
C  C569  1  0.36000000  0.05700000  0.25500000  1.0 -0.1379197028
C  C570  1  0.64000000  0.55700000  0.24500000  1.0 -0.1379197028
C  C571  1  0.64000000  0.94300000  0.74500000  1.0 -0.1379197028
C  C572  1  0.36000000  0.44300000  0.75500000  1.0 -0.1379197028
C  C573  1  0.93800000  0.20300000  0.31500000  1.0 -0.0093522876
C  C574  1  0.06200000  0.70300000  0.18500000  1.0 -0.0093522876
C  C575  1  0.06200000  0.79700000  0.68500000  1.0 -0.0093522876
C  C576  1  0.93800000  0.29700000  0.81500000  1.0 -0.0093522876
C  C577  1  0.87100000  0.19200000  0.30400000  1.0 0.0095759279
C  C578  1  0.12900000  0.69200000  0.19600000  1.0 0.0095759279
C  C579  1  0.12900000  0.80800000  0.69600000  1.0 0.0095759279
C  C580  1  0.87100000  0.30800000  0.80400000  1.0 0.0095759279
C  C581  1  0.85300000  0.17500000  0.26300000  1.0 -0.1518571059
C  C582  1  0.14700000  0.67500000  0.23700000  1.0 -0.1518571059
C  C583  1  0.14700000  0.82500000  0.73700000  1.0 -0.1518571059
C  C584  1  0.85300000  0.32500000  0.76300000  1.0 -0.1518571059
C  C585  1  0.90200000  0.16800000  0.23200000  1.0 0.3345983365
C  C586  1  0.09800000  0.66800000  0.26800000  1.0 0.3345983365
C  C587  1  0.09800000  0.83200000  0.76800000  1.0 0.3345983365
C  C588  1  0.90200000  0.33200000  0.73200000  1.0 0.3345983365
C  C589  1  0.97000000  0.17800000  0.24300000  1.0 -0.0763143561
C  C590  1  0.03000000  0.67800000  0.25700000  1.0 -0.0763143561
C  C591  1  0.03000000  0.82200000  0.75700000  1.0 -0.0763143561
C  C592  1  0.97000000  0.32200000  0.74300000  1.0 -0.0763143561
C  C593  1  0.98800000  0.19600000  0.28400000  1.0 0.0297777034
C  C594  1  0.01200000  0.69600000  0.21600000  1.0 0.0297777034
C  C595  1  0.01200000  0.80400000  0.71600000  1.0 0.0297777034
C  C596  1  0.98800000  0.30400000  0.78400000  1.0 0.0396367931
C  C597  1  0.74400000  0.34200000  0.33000000  1.0 -0.030259445
C  C598  1  0.25600000  0.84200000  0.17000000  1.0 -0.030259445
C  C599  1  0.25600000  0.65800000  0.67000000  1.0 -0.030259445
C  C600  1  0.74400000  0.15800000  0.83000000  1.0 -0.030259445
C  C601  1  0.76800000  0.34000000  0.28600000  1.0 -0.0590835857
C  C602  1  0.23200000  0.84000000  0.21400000  1.0 -0.068983732
C  C603  1  0.23200000  0.66000000  0.71400000  1.0 -0.068983732
C  C604  1  0.76800000  0.16000000  0.78600000  1.0 -0.068983732
C  C605  1  0.72300000  0.34000000  0.24600000  1.0 -0.0193768511
C  C606  1  0.27700000  0.84000000  0.25400000  1.0 -0.0193768511
C  C607  1  0.27700000  0.66000000  0.75400000  1.0 -0.0193768511
C  C608  1  0.72300000  0.16000000  0.74600000  1.0 -0.0193768511
C  C609  1  0.65400000  0.34200000  0.25000000  1.0 0.0204694393
C  C610  1  0.34600000  0.84200000  0.25000000  1.0 0.0204694393
C  C611  1  0.34600000  0.65800000  0.75000000  1.0 0.0204694393
C  C612  1  0.65400000  0.15800000  0.75000000  1.0 0.0204694393
C  C613  1  0.62900000  0.34500000  0.29400000  1.0 0.0297777034
C  C614  1  0.37100000  0.84500000  0.20600000  1.0 0.0297777034
C  C615  1  0.37100000  0.65500000  0.70600000  1.0 0.0297777034
C  C616  1  0.62900000  0.15500000  0.79400000  1.0 0.0297777034
C  C617  1  0.67400000  0.34400000  0.33400000  1.0 0.0396367931
C  C618  1  0.32600000  0.84400000  0.16600000  1.0 0.0396367931
C  C619  1  0.32600000  0.65600000  0.66600000  1.0 0.0396367931
C  C620  1  0.67400000  0.15600000  0.83400000  1.0 0.0396367931
C  C621  1  0.74400000  0.04900000  0.12300000  1.0 -0.3565220049
C  C622  1  0.25600000  0.54900000  0.37700000  1.0 -0.3500412196
C  C623  1  0.25600000  0.95100000  0.87700000  1.0 -0.3500412196
C  C624  1  0.74400000  0.45100000  0.62300000  1.0 -0.3500412196
C  C625  1  0.72000000  0.07600000  0.16100000  1.0 0.4722642341
C  C626  1  0.28000000  0.57600000  0.33900000  1.0 0.4722642341
C  C627  1  0.28000000  0.92400000  0.83900000  1.0 0.4722642341
C  C628  1  0.72000000  0.42400000  0.66100000  1.0 0.4722642341
C  C629  1  0.81600000  0.52100000  0.21200000  1.0 -0.068983732
C  C630  1  0.18400000  0.02100000  0.28800000  1.0 -0.068983732
C  C631  1  0.18400000  0.47900000  0.78800000  1.0 -0.068983732
C  C632  1  0.81600000  0.97900000  0.71200000  1.0 -0.068983732
C  C633  1  0.32000000  0.04700000  0.17000000  1.0 0.0708616549
C  C634  1  0.68000000  0.54700000  0.33000000  1.0 0.0708616549
C  C635  1  0.68000000  0.95300000  0.83000000  1.0 0.0708616549
C  C636  1  0.32000000  0.45300000  0.67000000  1.0 0.0708616549
N  N1  1  0.83460000  0.26440000  0.25240000  1.0 -0.2092909476
N  N2  1  0.16540000  0.76440000  0.24760000  1.0 -0.219051988
N  N3  1  0.16540000  0.73560000  0.74760000  1.0 -0.219051988
N  N4  1  0.83460000  0.23560000  0.75240000  1.0 -0.2092909476
N  N5  1  0.92240000  0.49210000  0.25180000  1.0 -0.2499624542
N  N6  1  0.07760000  0.99210000  0.24820000  1.0 -0.2499624542
N  N7  1  0.07760000  0.50790000  0.74820000  1.0 -0.2499624542
N  N8  1  0.92240000  0.00790000  0.75180000  1.0 -0.2499624542
N  N9  1  0.96800000  0.43780000  0.29710000  1.0 -0.2386504648
N  N10  1  0.03200000  0.93780000  0.20290000  1.0 -0.2386504648
N  N11  1  0.03200000  0.56220000  0.70290000  1.0 -0.2386504648
N  N12  1  0.96800000  0.06220000  0.79710000  1.0 -0.2386504648
N  N13  1  0.78530000  0.45080000  0.32920000  1.0 -0.2386504648
N  N14  1  0.21470000  0.95080000  0.17080000  1.0 -0.2386504648
N  N15  1  0.21470000  0.54920000  0.67080000  1.0 -0.2386504648
N  N16  1  0.78530000  0.04920000  0.82920000  1.0 -0.2386504648
N  N17  1  0.77070000  0.43570000  0.23840000  1.0 -0.1518571059
N  N18  1  0.22930000  0.93570000  0.26160000  1.0 -0.1518571059
N  N19  1  0.22930000  0.56430000  0.76160000  1.0 -0.1518571059
N  N20  1  0.77070000  0.06430000  0.73840000  1.0 -0.1518571059
N  N21  1  0.44080000  0.09660000  0.37560000  1.0 -0.2590632288
N  N22  1  0.55920000  0.59660000  0.12440000  1.0 -0.2590632288
N  N23  1  0.55920000  0.90340000  0.62440000  1.0 -0.2590632288
N  N24  1  0.44080000  0.40340000  0.87560000  1.0 -0.2590632288
N  N25  1  0.53490000  0.02880000  0.31200000  1.0 -0.2325224838
N  N26  1  0.46510000  0.52880000  0.18800000  1.0 -0.2325224838
N  N27  1  0.46510000  0.97120000  0.68800000  1.0 -0.2325224838
N  N28  1  0.53490000  0.47120000  0.81200000  1.0 -0.2325224838
N  N29  1  0.49520000  0.09000000  0.26470000  1.0 -0.2590632288
N  N30  1  0.50480000  0.59000000  0.23530000  1.0 -0.2590632288
N  N31  1  0.50480000  0.91000000  0.73530000  1.0 -0.2590632288
N  N32  1  0.49520000  0.41000000  0.76470000  1.0 -0.2590632288
N  N33  1  0.58380000  0.10460000  0.37440000  1.0 -0.2499624542
N  N34  1  0.41620000  0.60460000  0.12560000  1.0 -0.2499624542
N  N35  1  0.41620000  0.89540000  0.62560000  1.0 -0.2499624542
N  N36  1  0.58380000  0.39540000  0.87440000  1.0 -0.2499624542
N  N37  1  0.73400000  0.24930000  0.30900000  1.0 -0.2590632288
N  N38  1  0.26600000  0.74930000  0.19100000  1.0 -0.2590632288
N  N39  1  0.26600000  0.75070000  0.69100000  1.0 -0.2590632288
N  N40  1  0.73400000  0.25070000  0.80900000  1.0 -0.2590632288
N  N41  1  0.91350000  0.25130000  0.36670000  1.0 -0.2499624542
N  N42  1  0.08650000  0.75130000  0.13330000  1.0 -0.2499624542
N  N43  1  0.08650000  0.74870000  0.63330000  1.0 -0.2499624542
N  N44  1  0.91350000  0.24870000  0.86670000  1.0 -0.2499624542
N  N45  1  0.83550000  0.31280000  0.37140000  1.0 -0.219051988
N  N46  1  0.16450000  0.81280000  0.12860000  1.0 -0.219051988
N  N47  1  0.16450000  0.68720000  0.62860000  1.0 -0.219051988
N  N48  1  0.83550000  0.18720000  0.87140000  1.0 -0.219051988
O  O1  1  0.40150000  0.20410000  0.47000000  1.0 -0.396592073
O  O2  1  0.59850000  0.70410000  0.03000000  1.0 -0.396592073
O  O3  1  0.59850000  0.79590000  0.53000000  1.0 -0.396592073
O  O4  1  0.40150000  0.29590000  0.97000000  1.0 -0.396592073
O  O5  1  0.63860000  0.83720000  0.44340000  1.0 -0.4077864363
O  O6  1  0.36140000  0.33720000  0.05660000  1.0 -0.4077864363
O  O7  1  0.36140000  0.16280000  0.55660000  1.0 -0.4077864363
O  O8  1  0.63860000  0.66280000  0.94340000  1.0 -0.4077864363
O  O9  1  0.38000000  0.25260000  0.06480000  1.0 -0.4782454035
O  O10  1  0.62000000  0.75260000  0.43520000  1.0 -0.4782454035
O  O11  1  0.62000000  0.74740000  0.93520000  1.0 -0.4782454035
O  O12  1  0.38000000  0.24740000  0.56480000  1.0 -0.4782454035
O  O13  1  0.19510000  0.25980000  0.40970000  1.0 -0.45202513
O  O14  1  0.80490000  0.75980000  0.09030000  1.0 -0.45202513
O  O15  1  0.80490000  0.74020000  0.59030000  1.0 -0.45202513
O  O16  1  0.19510000  0.24020000  0.90970000  1.0 -0.45202513
O  O17  1  0.11850000  0.31420000  0.05220000  1.0 -0.45202513
O  O18  1  0.88150000  0.81420000  0.44780000  1.0 -0.45202513
O  O19  1  0.88150000  0.68580000  0.94780000  1.0 -0.45202513
O  O20  1  0.11850000  0.18580000  0.55220000  1.0 -0.45202513
O  O21  1  0.83600000  0.65220000  0.04000000  1.0 -0.4077864363
O  O22  1  0.16400000  0.15220000  0.46000000  1.0 -0.4077864363
O  O23  1  0.16400000  0.34780000  0.96000000  1.0 -0.4077864363
O  O24  1  0.83600000  0.84780000  0.54000000  1.0 -0.4077864363
O  O25  1  0.27830000  0.22510000  0.05790000  1.0 -0.396592073
O  O26  1  0.72170000  0.72510000  0.44210000  1.0 -0.396592073
O  O27  1  0.72170000  0.77490000  0.94210000  1.0 -0.396592073
O  O28  1  0.27830000  0.27490000  0.55790000  1.0 -0.396592073
O  O29  1  0.18470000  0.28340000  0.47610000  1.0 -0.4199622533
O  O30  1  0.81530000  0.78340000  0.02390000  1.0 -0.4199622533
O  O31  1  0.81530000  0.71660000  0.52390000  1.0 -0.4199622533
O  O32  1  0.18470000  0.21660000  0.97610000  1.0 -0.4199622533
O  O33  1  0.80750000  0.68090000  0.09890000  1.0 -0.4268230608
O  O34  1  0.19250000  0.18090000  0.40110000  1.0 -0.4268230608
O  O35  1  0.19250000  0.31910000  0.90110000  1.0 -0.4268230608
O  O36  1  0.80750000  0.81910000  0.59890000  1.0 -0.4268230608
O  O37  1  0.74330000  0.85520000  0.44400000  1.0 -0.5490242428
O  O38  1  0.25670000  0.35520000  0.05600000  1.0 -0.5490242428
O  O39  1  0.25670000  0.14480000  0.55600000  1.0 -0.5490242428
O  O40  1  0.74330000  0.64480000  0.94400000  1.0 -0.5490242428
O  O41  1  0.33400000  0.21370000  0.41170000  1.0 -0.4782454035
O  O42  1  0.66600000  0.71370000  0.08830000  1.0 -0.4782454035
O  O43  1  0.66600000  0.78630000  0.58830000  1.0 -0.4782454035
O  O44  1  0.33400000  0.28630000  0.91170000  1.0 -0.4782454035
O  O45  1  0.12440000  0.25650000  0.04850000  1.0 -0.45202513
O  O46  1  0.87560000  0.75650000  0.45150000  1.0 -0.45202513
O  O47  1  0.87560000  0.74350000  0.95150000  1.0 -0.45202513
O  O48  1  0.12440000  0.24350000  0.54850000  1.0 -0.45202513
O  O49  1  0.24960000  0.21400000  0.50040000  1.0 -0.4596500433
O  O50  1  0.75040000  0.71400000  0.99960000  1.0 -0.4596500433
O  O51  1  0.75040000  0.78600000  0.49960000  1.0 -0.4596500433
O  O52  1  0.24960000  0.28600000  0.00040000  1.0 -0.4596500433
O  O53  1  0.27100000  0.06900000  0.18600000  1.0 -0.099821665
O  O54  1  0.72900000  0.56900000  0.31400000  1.0 -0.099821665
O  O55  1  0.72900000  0.93100000  0.81400000  1.0 -0.099821665
O  O56  1  0.27100000  0.43100000  0.68600000  1.0 -0.099821665
O  O57  1  0.90000000  0.16100000  0.18900000  1.0 -0.3500412196
O  O58  1  0.10000000  0.66100000  0.31100000  1.0 -0.3500412196
O  O59  1  0.10000000  0.83900000  0.81100000  1.0 -0.3445072136
O  O60  1  0.90000000  0.33900000  0.68900000  1.0 -0.3500412196
O  O61  1  0.04900000  0.46900000  0.45900000  1.0 -0.2386504648
O  O62  1  0.95100000  0.96900000  0.04100000  1.0 -0.2386504648
O  O63  1  0.95100000  0.53100000  0.54100000  1.0 -0.2386504648
O  O64  1  0.04900000  0.03100000  0.95900000  1.0 -0.2386504648
O  O65  1  0.75000000  0.06200000  0.20800000  1.0 -0.1599501575
O  O66  1  0.25000000  0.56200000  0.29200000  1.0 -0.1599501575
O  O67  1  0.25000000  0.93800000  0.79200000  1.0 -0.1599501575
O  O68  1  0.75000000  0.43800000  0.70800000  1.0 -0.1599501575
O  O69  1  0.30100000  0.26320000  0.49300000  1.0 -0.4596500433
O  O70  1  0.69900000  0.76320000  0.00700000  1.0 -0.4596500433
O  O71  1  0.69900000  0.73680000  0.50700000  1.0 -0.4596500433
O  O72  1  0.30100000  0.23680000  0.99300000  1.0 -0.4596500433
O  O73  1  0.16400000  0.21230000  0.48110000  1.0 -0.4782454035
O  O74  1  0.83600000  0.71230000  0.01890000  1.0 -0.4782454035
O  O75  1  0.83600000  0.78770000  0.51890000  1.0 -0.4782454035
O  O76  1  0.16400000  0.28770000  0.98110000  1.0 -0.4782454035
O  O77  1  0.26100000  0.21500000  0.57650000  1.0 -0.5490242428
O  O78  1  0.73900000  0.71500000  0.92350000  1.0 -0.5490242428
O  O79  1  0.73900000  0.78500000  0.42350000  1.0 -0.5490242428
O  O80  1  0.26100000  0.28500000  0.07650000  1.0 -0.5490242428
