# DDEC6 charges by PACMAN v1.1 (https://github.com/mtap-research/PACMAN-charge/)
data_LAXJAX_FSR_pacman
_symmetry_space_group_name_H-M   'P 1'
_cell_length_a   45.29580000
_cell_length_b   45.29580000
_cell_length_c   45.29580000
_cell_angle_alpha   60.00000000
_cell_angle_beta   60.00000000
_cell_angle_gamma   60.00000000
_symmetry_Int_Tables_number   1
_chemical_formula_structural   CoH16C26(SN5)2
_chemical_formula_sum   'Co48 H768 C1248 S96 N480'
_cell_volume   65714.13648958
_cell_formula_units_Z   48
loop_
 _symmetry_equiv_pos_site_id
 _symmetry_equiv_pos_as_xyz
  1  'x, y, z'
loop_
 _atom_site_type_symbol
 _atom_site_label
 _atom_site_symmetry_multiplicity
 _atom_site_fract_x
 _atom_site_fract_y
 _atom_site_fract_z
 _atom_site_occupancy
 _atom_site_charge
Co  Co1  1  0.62500000  0.12500000  0.88548000  1.0 0.6679725571
Co  Co2  1  0.12500000  0.62500000  0.36452000  1.0 0.6679725571
Co  Co3  1  0.88548000  0.36452000  0.62500000  1.0 0.6679725571
Co  Co4  1  0.36452000  0.88548000  0.12500000  1.0 0.6679725571
Co  Co5  1  0.88548000  0.62500000  0.12500000  1.0 0.6679725571
Co  Co6  1  0.36452000  0.12500000  0.62500000  1.0 0.6679725571
Co  Co7  1  0.62500000  0.88548000  0.36452000  1.0 0.6679725571
Co  Co8  1  0.12500000  0.36452000  0.88548000  1.0 0.6679725571
Co  Co9  1  0.12500000  0.88548000  0.62500000  1.0 0.6679725571
Co  Co10  1  0.62500000  0.36452000  0.12500000  1.0 0.6679725571
Co  Co11  1  0.36452000  0.62500000  0.88548000  1.0 0.6679725571
Co  Co12  1  0.88548000  0.12500000  0.36452000  1.0 0.6679725571
Co  Co13  1  0.12500000  0.62500000  0.86452000  1.0 0.6679725571
Co  Co14  1  0.62500000  0.12500000  0.38548000  1.0 0.6679725571
Co  Co15  1  0.86452000  0.38548000  0.12500000  1.0 0.6679725571
Co  Co16  1  0.38548000  0.86452000  0.62500000  1.0 0.6679725571
Co  Co17  1  0.86452000  0.12500000  0.62500000  1.0 0.6679725571
Co  Co18  1  0.38548000  0.62500000  0.12500000  1.0 0.6679725571
Co  Co19  1  0.12500000  0.86452000  0.38548000  1.0 0.6679725571
Co  Co20  1  0.62500000  0.38548000  0.86452000  1.0 0.6679725571
Co  Co21  1  0.62500000  0.86452000  0.12500000  1.0 0.6679725571
Co  Co22  1  0.12500000  0.38548000  0.62500000  1.0 0.6679725571
Co  Co23  1  0.38548000  0.12500000  0.86452000  1.0 0.6679725571
Co  Co24  1  0.86452000  0.62500000  0.38548000  1.0 0.6679725571
Co  Co25  1  0.37720000  0.12280000  0.12280000  1.0 0.654037009
Co  Co26  1  0.12280000  0.37720000  0.37720000  1.0 0.654037009
Co  Co27  1  0.12280000  0.37720000  0.12280000  1.0 0.654037009
Co  Co28  1  0.37720000  0.12280000  0.37720000  1.0 0.654037009
Co  Co29  1  0.12280000  0.12280000  0.37720000  1.0 0.654037009
Co  Co30  1  0.37720000  0.37720000  0.12280000  1.0 0.6573404692
Co  Co31  1  0.87280000  0.12720000  0.87280000  1.0 0.6573404692
Co  Co32  1  0.12720000  0.87280000  0.12720000  1.0 0.654037009
Co  Co33  1  0.12720000  0.87280000  0.87280000  1.0 0.654037009
Co  Co34  1  0.87280000  0.12720000  0.12720000  1.0 0.654037009
Co  Co35  1  0.12720000  0.12720000  0.87280000  1.0 0.654037009
Co  Co36  1  0.87280000  0.87280000  0.12720000  1.0 0.654037009
Co  Co37  1  0.37280000  0.62720000  0.62720000  1.0 0.654037009
Co  Co38  1  0.62720000  0.37280000  0.37280000  1.0 0.6573404692
Co  Co39  1  0.62720000  0.37280000  0.62720000  1.0 0.654037009
Co  Co40  1  0.37280000  0.62720000  0.37280000  1.0 0.654037009
Co  Co41  1  0.62720000  0.62720000  0.37280000  1.0 0.6573404692
Co  Co42  1  0.37280000  0.37280000  0.62720000  1.0 0.654037009
Co  Co43  1  0.87720000  0.62280000  0.87720000  1.0 0.6573404692
Co  Co44  1  0.62280000  0.87720000  0.62280000  1.0 0.6573404692
Co  Co45  1  0.62280000  0.87720000  0.87720000  1.0 0.6573404692
Co  Co46  1  0.87720000  0.62280000  0.62280000  1.0 0.6573404692
Co  Co47  1  0.62280000  0.62280000  0.87720000  1.0 0.654037009
Co  Co48  1  0.87720000  0.87720000  0.62280000  1.0 0.6573404692
H  H1  1  0.56300000  0.18820000  0.92060000  1.0 0.1014359616
H  H2  1  0.18820000  0.56300000  0.32820000  1.0 0.1014359616
H  H3  1  0.92060000  0.32820000  0.56300000  1.0 0.1014359616
H  H4  1  0.32820000  0.92060000  0.18820000  1.0 0.1014359616
H  H5  1  0.92060000  0.56300000  0.18820000  1.0 0.1014359616
H  H6  1  0.32820000  0.18820000  0.56300000  1.0 0.1014359616
H  H7  1  0.56300000  0.92060000  0.32820000  1.0 0.1014359616
H  H8  1  0.18820000  0.32820000  0.92060000  1.0 0.1014359616
H  H9  1  0.18820000  0.92060000  0.56300000  1.0 0.1014359616
H  H10  1  0.56300000  0.32820000  0.18820000  1.0 0.1014359616
H  H11  1  0.32820000  0.56300000  0.92060000  1.0 0.1014359616
H  H12  1  0.92060000  0.18820000  0.32820000  1.0 0.1014359616
H  H13  1  0.68700000  0.06180000  0.92180000  1.0 0.1014359616
H  H14  1  0.06180000  0.68700000  0.32940000  1.0 0.1014359616
H  H15  1  0.32940000  0.92180000  0.06180000  1.0 0.1014359616
H  H16  1  0.92180000  0.32940000  0.68700000  1.0 0.1014359616
H  H17  1  0.32940000  0.68700000  0.92180000  1.0 0.1014359616
H  H18  1  0.92180000  0.06180000  0.32940000  1.0 0.1014359616
H  H19  1  0.68700000  0.32940000  0.06180000  1.0 0.1014359616
H  H20  1  0.06180000  0.92180000  0.68700000  1.0 0.1014359616
H  H21  1  0.06180000  0.32940000  0.92180000  1.0 0.1014359616
H  H22  1  0.68700000  0.92180000  0.32940000  1.0 0.1014359616
H  H23  1  0.92180000  0.68700000  0.06180000  1.0 0.1014359616
H  H24  1  0.32940000  0.06180000  0.68700000  1.0 0.1014359616
H  H25  1  0.18700000  0.56180000  0.82940000  1.0 0.1014359616
H  H26  1  0.56180000  0.18700000  0.42180000  1.0 0.1014359616
H  H27  1  0.82940000  0.42180000  0.18700000  1.0 0.1014359616
H  H28  1  0.42180000  0.82940000  0.56180000  1.0 0.1014359616
H  H29  1  0.82940000  0.18700000  0.56180000  1.0 0.1014359616
H  H30  1  0.42180000  0.56180000  0.18700000  1.0 0.1014359616
H  H31  1  0.18700000  0.82940000  0.42180000  1.0 0.1014359616
H  H32  1  0.56180000  0.42180000  0.82940000  1.0 0.1014359616
H  H33  1  0.56180000  0.82940000  0.18700000  1.0 0.1014359616
H  H34  1  0.18700000  0.42180000  0.56180000  1.0 0.1014359616
H  H35  1  0.42180000  0.18700000  0.82940000  1.0 0.1014359616
H  H36  1  0.82940000  0.56180000  0.42180000  1.0 0.1014359616
H  H37  1  0.06300000  0.68820000  0.82820000  1.0 0.1014359616
H  H38  1  0.68820000  0.06300000  0.42060000  1.0 0.1014359616
H  H39  1  0.42060000  0.82820000  0.68820000  1.0 0.1014359616
H  H40  1  0.82820000  0.42060000  0.06300000  1.0 0.1014359616
H  H41  1  0.42060000  0.06300000  0.82820000  1.0 0.1014359616
H  H42  1  0.82820000  0.68820000  0.42060000  1.0 0.1014359616
H  H43  1  0.06300000  0.42060000  0.68820000  1.0 0.1014359616
H  H44  1  0.68820000  0.82820000  0.06300000  1.0 0.1014359616
H  H45  1  0.68820000  0.42060000  0.82820000  1.0 0.1014359616
H  H46  1  0.06300000  0.82820000  0.42060000  1.0 0.1014359616
H  H47  1  0.82820000  0.06300000  0.68820000  1.0 0.1014359616
H  H48  1  0.42060000  0.68820000  0.06300000  1.0 0.1014359616
H  H49  1  0.52070000  0.19330000  0.97590000  1.0 0.1366185987
H  H50  1  0.19330000  0.52070000  0.31010000  1.0 0.1366185987
H  H51  1  0.97590000  0.31010000  0.52070000  1.0 0.1366185987
H  H52  1  0.31010000  0.97590000  0.19330000  1.0 0.1366185987
H  H53  1  0.97590000  0.52070000  0.19330000  1.0 0.1366185987
H  H54  1  0.31010000  0.19330000  0.52070000  1.0 0.1366185987
H  H55  1  0.52070000  0.97590000  0.31010000  1.0 0.1366185987
H  H56  1  0.19330000  0.31010000  0.97590000  1.0 0.1366185987
H  H57  1  0.19330000  0.97590000  0.52070000  1.0 0.1366185987
H  H58  1  0.52070000  0.31010000  0.19330000  1.0 0.1366185987
H  H59  1  0.31010000  0.52070000  0.97590000  1.0 0.1366185987
H  H60  1  0.97590000  0.19330000  0.31010000  1.0 0.1366185987
H  H61  1  0.72930000  0.05670000  0.93990000  1.0 0.1366185987
H  H62  1  0.05670000  0.72930000  0.27410000  1.0 0.1366185987
H  H63  1  0.27410000  0.93990000  0.05670000  1.0 0.1366185987
H  H64  1  0.93990000  0.27410000  0.72930000  1.0 0.1366185987
H  H65  1  0.27410000  0.72930000  0.93990000  1.0 0.1366185987
H  H66  1  0.93990000  0.05670000  0.27410000  1.0 0.1366185987
H  H67  1  0.72930000  0.27410000  0.05670000  1.0 0.1366185987
H  H68  1  0.05670000  0.93990000  0.72930000  1.0 0.1366185987
H  H69  1  0.05670000  0.27410000  0.93990000  1.0 0.1366185987
H  H70  1  0.72930000  0.93990000  0.27410000  1.0 0.1366185987
H  H71  1  0.93990000  0.72930000  0.05670000  1.0 0.1366185987
H  H72  1  0.27410000  0.05670000  0.72930000  1.0 0.1366185987
H  H73  1  0.22930000  0.55670000  0.77410000  1.0 0.1366185987
H  H74  1  0.55670000  0.22930000  0.43990000  1.0 0.1366185987
H  H75  1  0.77410000  0.43990000  0.22930000  1.0 0.1366185987
H  H76  1  0.43990000  0.77410000  0.55670000  1.0 0.1366185987
H  H77  1  0.77410000  0.22930000  0.55670000  1.0 0.1366185987
H  H78  1  0.43990000  0.55670000  0.22930000  1.0 0.1366185987
H  H79  1  0.22930000  0.77410000  0.43990000  1.0 0.1366185987
H  H80  1  0.55670000  0.43990000  0.77410000  1.0 0.1366185987
H  H81  1  0.55670000  0.77410000  0.22930000  1.0 0.1366185987
H  H82  1  0.22930000  0.43990000  0.55670000  1.0 0.1366185987
H  H83  1  0.43990000  0.22930000  0.77410000  1.0 0.1366185987
H  H84  1  0.77410000  0.55670000  0.43990000  1.0 0.1366185987
H  H85  1  0.02070000  0.69330000  0.81010000  1.0 0.1366185987
H  H86  1  0.69330000  0.02070000  0.47590000  1.0 0.1366185987
H  H87  1  0.47590000  0.81010000  0.69330000  1.0 0.1366185987
H  H88  1  0.81010000  0.47590000  0.02070000  1.0 0.1366185987
H  H89  1  0.47590000  0.02070000  0.81010000  1.0 0.1366185987
H  H90  1  0.81010000  0.69330000  0.47590000  1.0 0.1366185987
H  H91  1  0.02070000  0.47590000  0.69330000  1.0 0.1366185987
H  H92  1  0.69330000  0.81010000  0.02070000  1.0 0.1366185987
H  H93  1  0.69330000  0.47590000  0.81010000  1.0 0.1366185987
H  H94  1  0.02070000  0.81010000  0.47590000  1.0 0.1366185987
H  H95  1  0.81010000  0.02070000  0.69330000  1.0 0.1366185987
H  H96  1  0.47590000  0.69330000  0.02070000  1.0 0.1366185987
H  H97  1  0.51300000  0.14100000  0.02540000  1.0 0.1200945259
H  H98  1  0.14100000  0.51300000  0.32060000  1.0 0.1200945259
H  H99  1  0.02540000  0.32060000  0.51300000  1.0 0.1200945259
H  H100  1  0.32060000  0.02540000  0.14100000  1.0 0.1200945259
H  H101  1  0.02540000  0.51300000  0.14100000  1.0 0.1200945259
H  H102  1  0.32060000  0.14100000  0.51300000  1.0 0.1200945259
H  H103  1  0.51300000  0.02540000  0.32060000  1.0 0.1200945259
H  H104  1  0.14100000  0.32060000  0.02540000  1.0 0.1200945259
H  H105  1  0.14100000  0.02540000  0.51300000  1.0 0.1200945259
H  H106  1  0.51300000  0.32060000  0.14100000  1.0 0.1200945259
H  H107  1  0.32060000  0.51300000  0.02540000  1.0 0.1200945259
H  H108  1  0.02540000  0.14100000  0.32060000  1.0 0.1200945259
H  H109  1  0.73700000  0.10900000  0.92940000  1.0 0.1200945259
H  H110  1  0.10900000  0.73700000  0.22460000  1.0 0.1200945259
H  H111  1  0.22460000  0.92940000  0.10900000  1.0 0.1200945259
H  H112  1  0.92940000  0.22460000  0.73700000  1.0 0.1200945259
H  H113  1  0.22460000  0.73700000  0.92940000  1.0 0.1200945259
H  H114  1  0.92940000  0.10900000  0.22460000  1.0 0.1200945259
H  H115  1  0.73700000  0.22460000  0.10900000  1.0 0.1200945259
H  H116  1  0.10900000  0.92940000  0.73700000  1.0 0.1200945259
H  H117  1  0.10900000  0.22460000  0.92940000  1.0 0.1200945259
H  H118  1  0.73700000  0.92940000  0.22460000  1.0 0.1200945259
H  H119  1  0.92940000  0.73700000  0.10900000  1.0 0.1200945259
H  H120  1  0.22460000  0.10900000  0.73700000  1.0 0.1200945259
H  H121  1  0.23700000  0.60900000  0.72460000  1.0 0.1200945259
H  H122  1  0.60900000  0.23700000  0.42940000  1.0 0.1200945259
H  H123  1  0.72460000  0.42940000  0.23700000  1.0 0.1200945259
H  H124  1  0.42940000  0.72460000  0.60900000  1.0 0.1200945259
H  H125  1  0.72460000  0.23700000  0.60900000  1.0 0.1200945259
H  H126  1  0.42940000  0.60900000  0.23700000  1.0 0.1200945259
H  H127  1  0.23700000  0.72460000  0.42940000  1.0 0.1200945259
H  H128  1  0.60900000  0.42940000  0.72460000  1.0 0.1200945259
H  H129  1  0.60900000  0.72460000  0.23700000  1.0 0.1200945259
H  H130  1  0.23700000  0.42940000  0.60900000  1.0 0.1200945259
H  H131  1  0.42940000  0.23700000  0.72460000  1.0 0.1200945259
H  H132  1  0.72460000  0.60900000  0.42940000  1.0 0.1200945259
H  H133  1  0.01300000  0.64100000  0.82060000  1.0 0.1200945259
H  H134  1  0.64100000  0.01300000  0.52540000  1.0 0.1200945259
H  H135  1  0.52540000  0.82060000  0.64100000  1.0 0.1200945259
H  H136  1  0.82060000  0.52540000  0.01300000  1.0 0.1200945259
H  H137  1  0.52540000  0.01300000  0.82060000  1.0 0.1200945259
H  H138  1  0.82060000  0.64100000  0.52540000  1.0 0.1200945259
H  H139  1  0.01300000  0.52540000  0.64100000  1.0 0.1200945259
H  H140  1  0.64100000  0.82060000  0.01300000  1.0 0.1200945259
H  H141  1  0.64100000  0.52540000  0.82060000  1.0 0.1200945259
H  H142  1  0.01300000  0.82060000  0.52540000  1.0 0.1200945259
H  H143  1  0.82060000  0.01300000  0.64100000  1.0 0.1200945259
H  H144  1  0.52540000  0.64100000  0.01300000  1.0 0.1200945259
H  H145  1  0.59950000  0.08250000  0.96390000  1.0 0.1072344503
H  H146  1  0.08250000  0.59950000  0.35410000  1.0 0.1072344503
H  H147  1  0.96390000  0.35410000  0.59950000  1.0 0.1072344503
H  H148  1  0.35410000  0.96390000  0.08250000  1.0 0.1072344503
H  H149  1  0.96390000  0.59950000  0.08250000  1.0 0.1072344503
H  H150  1  0.35410000  0.08250000  0.59950000  1.0 0.1072344503
H  H151  1  0.59950000  0.96390000  0.35410000  1.0 0.1072344503
H  H152  1  0.08250000  0.35410000  0.96390000  1.0 0.1072344503
H  H153  1  0.08250000  0.96390000  0.59950000  1.0 0.1072344503
H  H154  1  0.59950000  0.35410000  0.08250000  1.0 0.1072344503
H  H155  1  0.35410000  0.59950000  0.96390000  1.0 0.1072344503
H  H156  1  0.96390000  0.08250000  0.35410000  1.0 0.1072344503
H  H157  1  0.65050000  0.16750000  0.89590000  1.0 0.1072344503
H  H158  1  0.16750000  0.65050000  0.28610000  1.0 0.1072344503
H  H159  1  0.28610000  0.89590000  0.16750000  1.0 0.1072344503
H  H160  1  0.89590000  0.28610000  0.65050000  1.0 0.1072344503
H  H161  1  0.28610000  0.65050000  0.89590000  1.0 0.1072344503
H  H162  1  0.89590000  0.16750000  0.28610000  1.0 0.1072344503
H  H163  1  0.65050000  0.28610000  0.16750000  1.0 0.1072344503
H  H164  1  0.16750000  0.89590000  0.65050000  1.0 0.1072344503
H  H165  1  0.16750000  0.28610000  0.89590000  1.0 0.1072344503
H  H166  1  0.65050000  0.89590000  0.28610000  1.0 0.1072344503
H  H167  1  0.89590000  0.65050000  0.16750000  1.0 0.1072344503
H  H168  1  0.28610000  0.16750000  0.65050000  1.0 0.1072344503
H  H169  1  0.15050000  0.66750000  0.78610000  1.0 0.1072344503
H  H170  1  0.66750000  0.15050000  0.39590000  1.0 0.1072344503
H  H171  1  0.78610000  0.39590000  0.15050000  1.0 0.1072344503
H  H172  1  0.39590000  0.78610000  0.66750000  1.0 0.1072344503
H  H173  1  0.78610000  0.15050000  0.66750000  1.0 0.1072344503
H  H174  1  0.39590000  0.66750000  0.15050000  1.0 0.1072344503
H  H175  1  0.15050000  0.78610000  0.39590000  1.0 0.1072344503
H  H176  1  0.66750000  0.39590000  0.78610000  1.0 0.1072344503
H  H177  1  0.66750000  0.78610000  0.15050000  1.0 0.1072344503
H  H178  1  0.15050000  0.39590000  0.66750000  1.0 0.1072344503
H  H179  1  0.39590000  0.15050000  0.78610000  1.0 0.1072344503
H  H180  1  0.78610000  0.66750000  0.39590000  1.0 0.1072344503
H  H181  1  0.09950000  0.58250000  0.85410000  1.0 0.1072344503
H  H182  1  0.58250000  0.09950000  0.46390000  1.0 0.1072344503
H  H183  1  0.46390000  0.85410000  0.58250000  1.0 0.1072344503
H  H184  1  0.85410000  0.46390000  0.09950000  1.0 0.1072344503
H  H185  1  0.46390000  0.09950000  0.85410000  1.0 0.1072344503
H  H186  1  0.85410000  0.58250000  0.46390000  1.0 0.1072344503
H  H187  1  0.09950000  0.46390000  0.58250000  1.0 0.1072344503
H  H188  1  0.58250000  0.85410000  0.09950000  1.0 0.1072344503
H  H189  1  0.58250000  0.46390000  0.85410000  1.0 0.1072344503
H  H190  1  0.09950000  0.85410000  0.46390000  1.0 0.1072344503
H  H191  1  0.85410000  0.09950000  0.58250000  1.0 0.1072344503
H  H192  1  0.46390000  0.58250000  0.09950000  1.0 0.1072344503
H  H193  1  0.68560000  0.89260000  0.05420000  1.0 0.1014359616
H  H194  1  0.89260000  0.68560000  0.36760000  1.0 0.1014359616
H  H195  1  0.05420000  0.36760000  0.68560000  1.0 0.1014359616
H  H196  1  0.36760000  0.05420000  0.89260000  1.0 0.1014359616
H  H197  1  0.05420000  0.68560000  0.89260000  1.0 0.1014359616
H  H198  1  0.36760000  0.89260000  0.68560000  1.0 0.1014359616
H  H199  1  0.68560000  0.05420000  0.36760000  1.0 0.1014359616
H  H200  1  0.89260000  0.36760000  0.05420000  1.0 0.1014359616
H  H201  1  0.89260000  0.05420000  0.68560000  1.0 0.1014359616
H  H202  1  0.68560000  0.36760000  0.89260000  1.0 0.1014359616
H  H203  1  0.36760000  0.68560000  0.05420000  1.0 0.1014359616
H  H204  1  0.05420000  0.89260000  0.36760000  1.0 0.1014359616
H  H205  1  0.56440000  0.35740000  0.88240000  1.0 0.1014359616
H  H206  1  0.35740000  0.56440000  0.19580000  1.0 0.1014359616
H  H207  1  0.19580000  0.88240000  0.35740000  1.0 0.1014359616
H  H208  1  0.88240000  0.19580000  0.56440000  1.0 0.1014359616
H  H209  1  0.19580000  0.56440000  0.88240000  1.0 0.1014359616
H  H210  1  0.88240000  0.35740000  0.19580000  1.0 0.1014359616
H  H211  1  0.56440000  0.19580000  0.35740000  1.0 0.1014359616
H  H212  1  0.35740000  0.88240000  0.56440000  1.0 0.1014359616
H  H213  1  0.35740000  0.19580000  0.88240000  1.0 0.1014359616
H  H214  1  0.56440000  0.88240000  0.19580000  1.0 0.1014359616
H  H215  1  0.88240000  0.56440000  0.35740000  1.0 0.1014359616
H  H216  1  0.19580000  0.35740000  0.56440000  1.0 0.1014359616
H  H217  1  0.06440000  0.85740000  0.69580000  1.0 0.1014359616
H  H218  1  0.85740000  0.06440000  0.38240000  1.0 0.1014359616
H  H219  1  0.69580000  0.38240000  0.06440000  1.0 0.1014359616
H  H220  1  0.38240000  0.69580000  0.85740000  1.0 0.1014359616
H  H221  1  0.69580000  0.06440000  0.85740000  1.0 0.1014359616
H  H222  1  0.38240000  0.85740000  0.06440000  1.0 0.1014359616
H  H223  1  0.06440000  0.69580000  0.38240000  1.0 0.1014359616
H  H224  1  0.85740000  0.38240000  0.69580000  1.0 0.1014359616
H  H225  1  0.85740000  0.69580000  0.06440000  1.0 0.1014359616
H  H226  1  0.06440000  0.38240000  0.85740000  1.0 0.1014359616
H  H227  1  0.38240000  0.06440000  0.69580000  1.0 0.1014359616
H  H228  1  0.69580000  0.85740000  0.38240000  1.0 0.1014359616
H  H229  1  0.18560000  0.39260000  0.86760000  1.0 0.1014359616
H  H230  1  0.39260000  0.18560000  0.55420000  1.0 0.1014359616
H  H231  1  0.55420000  0.86760000  0.39260000  1.0 0.1014359616
H  H232  1  0.86760000  0.55420000  0.18560000  1.0 0.1014359616
H  H233  1  0.55420000  0.18560000  0.86760000  1.0 0.1014359616
H  H234  1  0.86760000  0.39260000  0.55420000  1.0 0.1014359616
H  H235  1  0.18560000  0.55420000  0.39260000  1.0 0.1014359616
H  H236  1  0.39260000  0.86760000  0.18560000  1.0 0.1014359616
H  H237  1  0.39260000  0.55420000  0.86760000  1.0 0.1014359616
H  H238  1  0.18560000  0.86760000  0.55420000  1.0 0.1014359616
H  H239  1  0.86760000  0.18560000  0.39260000  1.0 0.1014359616
H  H240  1  0.55420000  0.39260000  0.18560000  1.0 0.1014359616
H  H241  1  0.69270000  0.94410000  0.00510000  1.0 0.1366185987
H  H242  1  0.94410000  0.69270000  0.35810000  1.0 0.1366185987
H  H243  1  0.00510000  0.35810000  0.69270000  1.0 0.1366185987
H  H244  1  0.35810000  0.00510000  0.94410000  1.0 0.1366185987
H  H245  1  0.00510000  0.69270000  0.94410000  1.0 0.1366185987
H  H246  1  0.35810000  0.94410000  0.69270000  1.0 0.1366185987
H  H247  1  0.69270000  0.00510000  0.35810000  1.0 0.1366185987
H  H248  1  0.94410000  0.35810000  0.00510000  1.0 0.1366185987
H  H249  1  0.94410000  0.00510000  0.69270000  1.0 0.1366185987
H  H250  1  0.69270000  0.35810000  0.94410000  1.0 0.1366185987
H  H251  1  0.35810000  0.69270000  0.00510000  1.0 0.1366185987
H  H252  1  0.00510000  0.94410000  0.35810000  1.0 0.1366185987
H  H253  1  0.55730000  0.30590000  0.89190000  1.0 0.1366185987
H  H254  1  0.30590000  0.55730000  0.24490000  1.0 0.1366185987
H  H255  1  0.24490000  0.89190000  0.30590000  1.0 0.1366185987
H  H256  1  0.89190000  0.24490000  0.55730000  1.0 0.1366185987
H  H257  1  0.24490000  0.55730000  0.89190000  1.0 0.1366185987
H  H258  1  0.89190000  0.30590000  0.24490000  1.0 0.1366185987
H  H259  1  0.55730000  0.24490000  0.30590000  1.0 0.1366185987
H  H260  1  0.30590000  0.89190000  0.55730000  1.0 0.1366185987
H  H261  1  0.30590000  0.24490000  0.89190000  1.0 0.1366185987
H  H262  1  0.55730000  0.89190000  0.24490000  1.0 0.1366185987
H  H263  1  0.89190000  0.55730000  0.30590000  1.0 0.1366185987
H  H264  1  0.24490000  0.30590000  0.55730000  1.0 0.1366185987
H  H265  1  0.05730000  0.80590000  0.74490000  1.0 0.1366185987
H  H266  1  0.80590000  0.05730000  0.39190000  1.0 0.1366185987
H  H267  1  0.74490000  0.39190000  0.05730000  1.0 0.1366185987
H  H268  1  0.39190000  0.74490000  0.80590000  1.0 0.1366185987
H  H269  1  0.74490000  0.05730000  0.80590000  1.0 0.1366185987
H  H270  1  0.39190000  0.80590000  0.05730000  1.0 0.1366185987
H  H271  1  0.05730000  0.74490000  0.39190000  1.0 0.1366185987
H  H272  1  0.80590000  0.39190000  0.74490000  1.0 0.1366185987
H  H273  1  0.80590000  0.74490000  0.05730000  1.0 0.1366185987
H  H274  1  0.05730000  0.39190000  0.80590000  1.0 0.1366185987
H  H275  1  0.39190000  0.05730000  0.74490000  1.0 0.1366185987
H  H276  1  0.74490000  0.80590000  0.39190000  1.0 0.1366185987
H  H277  1  0.19270000  0.44410000  0.85810000  1.0 0.1366185987
H  H278  1  0.44410000  0.19270000  0.50510000  1.0 0.1366185987
H  H279  1  0.50510000  0.85810000  0.44410000  1.0 0.1366185987
H  H280  1  0.85810000  0.50510000  0.19270000  1.0 0.1366185987
H  H281  1  0.50510000  0.19270000  0.85810000  1.0 0.1366185987
H  H282  1  0.85810000  0.44410000  0.50510000  1.0 0.1366185987
H  H283  1  0.19270000  0.50510000  0.44410000  1.0 0.1366185987
H  H284  1  0.44410000  0.85810000  0.19270000  1.0 0.1366185987
H  H285  1  0.44410000  0.50510000  0.85810000  1.0 0.1366185987
H  H286  1  0.19270000  0.85810000  0.50510000  1.0 0.1366185987
H  H287  1  0.85810000  0.19270000  0.44410000  1.0 0.1366185987
H  H288  1  0.50510000  0.44410000  0.19270000  1.0 0.1366185987
H  H289  1  0.64480000  0.99960000  0.00440000  1.0 0.1200945259
H  H290  1  0.99960000  0.64480000  0.35120000  1.0 0.1200945259
H  H291  1  0.00440000  0.35120000  0.64480000  1.0 0.1200945259
H  H292  1  0.35120000  0.00440000  0.99960000  1.0 0.1200945259
H  H293  1  0.00440000  0.64480000  0.99960000  1.0 0.1200945259
H  H294  1  0.35120000  0.99960000  0.64480000  1.0 0.1200945259
H  H295  1  0.64480000  0.00440000  0.35120000  1.0 0.1200945259
H  H296  1  0.99960000  0.35120000  0.00440000  1.0 0.1200945259
H  H297  1  0.99960000  0.00440000  0.64480000  1.0 0.1200945259
H  H298  1  0.64480000  0.35120000  0.99960000  1.0 0.1200945259
H  H299  1  0.35120000  0.64480000  0.00440000  1.0 0.1200945259
H  H300  1  0.00440000  0.99960000  0.35120000  1.0 0.1200945259
H  H301  1  0.60520000  0.25040000  0.89880000  1.0 0.1200945259
H  H302  1  0.25040000  0.60520000  0.24560000  1.0 0.1200945259
H  H303  1  0.24560000  0.89880000  0.25040000  1.0 0.1200945259
H  H304  1  0.89880000  0.24560000  0.60520000  1.0 0.1200945259
H  H305  1  0.24560000  0.60520000  0.89880000  1.0 0.1200945259
H  H306  1  0.89880000  0.25040000  0.24560000  1.0 0.1200945259
H  H307  1  0.60520000  0.24560000  0.25040000  1.0 0.1200945259
H  H308  1  0.25040000  0.89880000  0.60520000  1.0 0.1200945259
H  H309  1  0.25040000  0.24560000  0.89880000  1.0 0.1200945259
H  H310  1  0.60520000  0.89880000  0.24560000  1.0 0.1200945259
H  H311  1  0.89880000  0.60520000  0.25040000  1.0 0.1200945259
H  H312  1  0.24560000  0.25040000  0.60520000  1.0 0.1200945259
H  H313  1  0.10520000  0.75040000  0.74560000  1.0 0.1200945259
H  H314  1  0.75040000  0.10520000  0.39880000  1.0 0.1200945259
H  H315  1  0.74560000  0.39880000  0.10520000  1.0 0.1200945259
H  H316  1  0.39880000  0.74560000  0.75040000  1.0 0.1200945259
H  H317  1  0.74560000  0.10520000  0.75040000  1.0 0.1200945259
H  H318  1  0.39880000  0.75040000  0.10520000  1.0 0.1200945259
H  H319  1  0.10520000  0.74560000  0.39880000  1.0 0.1200945259
H  H320  1  0.75040000  0.39880000  0.74560000  1.0 0.1200945259
H  H321  1  0.75040000  0.74560000  0.10520000  1.0 0.1200945259
H  H322  1  0.10520000  0.39880000  0.75040000  1.0 0.1200945259
H  H323  1  0.39880000  0.10520000  0.74560000  1.0 0.1200945259
H  H324  1  0.74560000  0.75040000  0.39880000  1.0 0.1200945259
H  H325  1  0.14480000  0.49960000  0.85120000  1.0 0.1200945259
H  H326  1  0.49960000  0.14480000  0.50440000  1.0 0.1200945259
H  H327  1  0.50440000  0.85120000  0.49960000  1.0 0.1200945259
H  H328  1  0.85120000  0.50440000  0.14480000  1.0 0.1200945259
H  H329  1  0.50440000  0.14480000  0.85120000  1.0 0.1200945259
H  H330  1  0.85120000  0.49960000  0.50440000  1.0 0.1200945259
H  H331  1  0.14480000  0.50440000  0.49960000  1.0 0.1200945259
H  H332  1  0.49960000  0.85120000  0.14480000  1.0 0.1200945259
H  H333  1  0.49960000  0.50440000  0.85120000  1.0 0.1200945259
H  H334  1  0.14480000  0.85120000  0.50440000  1.0 0.1200945259
H  H335  1  0.85120000  0.14480000  0.49960000  1.0 0.1200945259
H  H336  1  0.50440000  0.49960000  0.14480000  1.0 0.1200945259
H  H337  1  0.58570000  0.94670000  0.10050000  1.0 0.1072344503
H  H338  1  0.94670000  0.58570000  0.36710000  1.0 0.1072344503
H  H339  1  0.10050000  0.36710000  0.58570000  1.0 0.1072344503
H  H340  1  0.36710000  0.10050000  0.94670000  1.0 0.1072344503
H  H341  1  0.10050000  0.58570000  0.94670000  1.0 0.1072344503
H  H342  1  0.36710000  0.94670000  0.58570000  1.0 0.1072344503
H  H343  1  0.58570000  0.10050000  0.36710000  1.0 0.1072344503
H  H344  1  0.94670000  0.36710000  0.10050000  1.0 0.1072344503
H  H345  1  0.94670000  0.10050000  0.58570000  1.0 0.1072344503
H  H346  1  0.58570000  0.36710000  0.94670000  1.0 0.1072344503
H  H347  1  0.36710000  0.58570000  0.10050000  1.0 0.1072344503
H  H348  1  0.10050000  0.94670000  0.36710000  1.0 0.1072344503
H  H349  1  0.66430000  0.30330000  0.88290000  1.0 0.1072344503
H  H350  1  0.30330000  0.66430000  0.14950000  1.0 0.1072344503
H  H351  1  0.14950000  0.88290000  0.30330000  1.0 0.1072344503
H  H352  1  0.88290000  0.14950000  0.66430000  1.0 0.1072344503
H  H353  1  0.14950000  0.66430000  0.88290000  1.0 0.1072344503
H  H354  1  0.88290000  0.30330000  0.14950000  1.0 0.1072344503
H  H355  1  0.66430000  0.14950000  0.30330000  1.0 0.1072344503
H  H356  1  0.30330000  0.88290000  0.66430000  1.0 0.1072344503
H  H357  1  0.30330000  0.14950000  0.88290000  1.0 0.1072344503
H  H358  1  0.66430000  0.88290000  0.14950000  1.0 0.1072344503
H  H359  1  0.88290000  0.66430000  0.30330000  1.0 0.1072344503
H  H360  1  0.14950000  0.30330000  0.66430000  1.0 0.1072344503
H  H361  1  0.16430000  0.80330000  0.64950000  1.0 0.1072344503
H  H362  1  0.80330000  0.16430000  0.38290000  1.0 0.1072344503
H  H363  1  0.64950000  0.38290000  0.16430000  1.0 0.1072344503
H  H364  1  0.38290000  0.64950000  0.80330000  1.0 0.1072344503
H  H365  1  0.64950000  0.16430000  0.80330000  1.0 0.1072344503
H  H366  1  0.38290000  0.80330000  0.16430000  1.0 0.1072344503
H  H367  1  0.16430000  0.64950000  0.38290000  1.0 0.1072344503
H  H368  1  0.80330000  0.38290000  0.64950000  1.0 0.1072344503
H  H369  1  0.80330000  0.64950000  0.16430000  1.0 0.1072344503
H  H370  1  0.16430000  0.38290000  0.80330000  1.0 0.1072344503
H  H371  1  0.38290000  0.16430000  0.64950000  1.0 0.1072344503
H  H372  1  0.64950000  0.80330000  0.38290000  1.0 0.1072344503
H  H373  1  0.08570000  0.44670000  0.86710000  1.0 0.1072344503
H  H374  1  0.44670000  0.08570000  0.60050000  1.0 0.1072344503
H  H375  1  0.60050000  0.86710000  0.44670000  1.0 0.1072344503
H  H376  1  0.86710000  0.60050000  0.08570000  1.0 0.1072344503
H  H377  1  0.60050000  0.08570000  0.86710000  1.0 0.1072344503
H  H378  1  0.86710000  0.44670000  0.60050000  1.0 0.1072344503
H  H379  1  0.08570000  0.60050000  0.44670000  1.0 0.1072344503
H  H380  1  0.44670000  0.86710000  0.08570000  1.0 0.1072344503
H  H381  1  0.44670000  0.60050000  0.86710000  1.0 0.1072344503
H  H382  1  0.08570000  0.86710000  0.60050000  1.0 0.1072344503
H  H383  1  0.86710000  0.08570000  0.44670000  1.0 0.1072344503
H  H384  1  0.60050000  0.44670000  0.08570000  1.0 0.1072344503
H  H385  1  0.45710000  0.09150000  0.08470000  1.0 0.1014359616
H  H386  1  0.09150000  0.45710000  0.36670000  1.0 0.1014359616
H  H387  1  0.08470000  0.36670000  0.45710000  1.0 0.1014359616
H  H388  1  0.36670000  0.08470000  0.09150000  1.0 0.1014359616
H  H389  1  0.08470000  0.45710000  0.09150000  1.0 0.1014359616
H  H390  1  0.36670000  0.09150000  0.45710000  1.0 0.1014359616
H  H391  1  0.45710000  0.08470000  0.36670000  1.0 0.1014359616
H  H392  1  0.09150000  0.36670000  0.08470000  1.0 0.1014359616
H  H393  1  0.09150000  0.08470000  0.45710000  1.0 0.1014359616
H  H394  1  0.45710000  0.36670000  0.09150000  1.0 0.1014359616
H  H395  1  0.36670000  0.45710000  0.08470000  1.0 0.1014359616
H  H396  1  0.08470000  0.09150000  0.36670000  1.0 0.1014359616
H  H397  1  0.79290000  0.15850000  0.88330000  1.0 0.1014359616
H  H398  1  0.15850000  0.79290000  0.16530000  1.0 0.1014359616
H  H399  1  0.16530000  0.88330000  0.15850000  1.0 0.1014359616
H  H400  1  0.88330000  0.16530000  0.79290000  1.0 0.1014359616
H  H401  1  0.16530000  0.79290000  0.88330000  1.0 0.1014359616
H  H402  1  0.88330000  0.15850000  0.16530000  1.0 0.1014359616
H  H403  1  0.79290000  0.16530000  0.15850000  1.0 0.1014359616
H  H404  1  0.15850000  0.88330000  0.79290000  1.0 0.1014359616
H  H405  1  0.15850000  0.16530000  0.88330000  1.0 0.1014359616
H  H406  1  0.79290000  0.88330000  0.16530000  1.0 0.1014359616
H  H407  1  0.88330000  0.79290000  0.15850000  1.0 0.1014359616
H  H408  1  0.16530000  0.15850000  0.79290000  1.0 0.1014359616
H  H409  1  0.29290000  0.65850000  0.66530000  1.0 0.1014359616
H  H410  1  0.65850000  0.29290000  0.38330000  1.0 0.1014359616
H  H411  1  0.66530000  0.38330000  0.29290000  1.0 0.1014359616
H  H412  1  0.38330000  0.66530000  0.65850000  1.0 0.1014359616
H  H413  1  0.66530000  0.29290000  0.65850000  1.0 0.1014359616
H  H414  1  0.38330000  0.65850000  0.29290000  1.0 0.1014359616
H  H415  1  0.29290000  0.66530000  0.38330000  1.0 0.1014359616
H  H416  1  0.65850000  0.38330000  0.66530000  1.0 0.1014359616
H  H417  1  0.65850000  0.66530000  0.29290000  1.0 0.1014359616
H  H418  1  0.29290000  0.38330000  0.65850000  1.0 0.1014359616
H  H419  1  0.38330000  0.29290000  0.66530000  1.0 0.1014359616
H  H420  1  0.66530000  0.65850000  0.38330000  1.0 0.1014359616
H  H421  1  0.95710000  0.59150000  0.86670000  1.0 0.1014359616
H  H422  1  0.59150000  0.95710000  0.58470000  1.0 0.1014359616
H  H423  1  0.58470000  0.86670000  0.59150000  1.0 0.1014359616
H  H424  1  0.86670000  0.58470000  0.95710000  1.0 0.1014359616
H  H425  1  0.58470000  0.95710000  0.86670000  1.0 0.1014359616
H  H426  1  0.86670000  0.59150000  0.58470000  1.0 0.1014359616
H  H427  1  0.95710000  0.58470000  0.59150000  1.0 0.1014359616
H  H428  1  0.59150000  0.86670000  0.95710000  1.0 0.1014359616
H  H429  1  0.59150000  0.58470000  0.86670000  1.0 0.1014359616
H  H430  1  0.95710000  0.86670000  0.58470000  1.0 0.1014359616
H  H431  1  0.86670000  0.95710000  0.59150000  1.0 0.1014359616
H  H432  1  0.58470000  0.59150000  0.95710000  1.0 0.1014359616
H  H433  1  0.39300000  0.04040000  0.17080000  1.0 0.1072344503
H  H434  1  0.04040000  0.39300000  0.39580000  1.0 0.1072344503
H  H435  1  0.17080000  0.39580000  0.39300000  1.0 0.1072344503
H  H436  1  0.39580000  0.17080000  0.04040000  1.0 0.1072344503
H  H437  1  0.17080000  0.39300000  0.04040000  1.0 0.1072344503
H  H438  1  0.39580000  0.04040000  0.39300000  1.0 0.1072344503
H  H439  1  0.39300000  0.17080000  0.39580000  1.0 0.1072344503
H  H440  1  0.04040000  0.39580000  0.17080000  1.0 0.1072344503
H  H441  1  0.04040000  0.17080000  0.39300000  1.0 0.1072344503
H  H442  1  0.39300000  0.39580000  0.04040000  1.0 0.1072344503
H  H443  1  0.39580000  0.39300000  0.17080000  1.0 0.1072344503
H  H444  1  0.17080000  0.04040000  0.39580000  1.0 0.1072344503
H  H445  1  0.85700000  0.20960000  0.85420000  1.0 0.1072344503
H  H446  1  0.20960000  0.85700000  0.07920000  1.0 0.1072344503
H  H447  1  0.07920000  0.85420000  0.20960000  1.0 0.1072344503
H  H448  1  0.85420000  0.07920000  0.85700000  1.0 0.1072344503
H  H449  1  0.07920000  0.85700000  0.85420000  1.0 0.1072344503
H  H450  1  0.85420000  0.20960000  0.07920000  1.0 0.1072344503
H  H451  1  0.85700000  0.07920000  0.20960000  1.0 0.1072344503
H  H452  1  0.20960000  0.85420000  0.85700000  1.0 0.1072344503
H  H453  1  0.20960000  0.07920000  0.85420000  1.0 0.1072344503
H  H454  1  0.85700000  0.85420000  0.07920000  1.0 0.1072344503
H  H455  1  0.85420000  0.85700000  0.20960000  1.0 0.1072344503
H  H456  1  0.07920000  0.20960000  0.85700000  1.0 0.1072344503
H  H457  1  0.35700000  0.70960000  0.57920000  1.0 0.1072344503
H  H458  1  0.70960000  0.35700000  0.35420000  1.0 0.1072344503
H  H459  1  0.57920000  0.35420000  0.35700000  1.0 0.1072344503
H  H460  1  0.35420000  0.57920000  0.70960000  1.0 0.1072344503
H  H461  1  0.57920000  0.35700000  0.70960000  1.0 0.1072344503
H  H462  1  0.35420000  0.70960000  0.35700000  1.0 0.1072344503
H  H463  1  0.35700000  0.57920000  0.35420000  1.0 0.1072344503
H  H464  1  0.70960000  0.35420000  0.57920000  1.0 0.1072344503
H  H465  1  0.70960000  0.57920000  0.35700000  1.0 0.1072344503
H  H466  1  0.35700000  0.35420000  0.70960000  1.0 0.1072344503
H  H467  1  0.35420000  0.35700000  0.57920000  1.0 0.1072344503
H  H468  1  0.57920000  0.70960000  0.35420000  1.0 0.1072344503
H  H469  1  0.89300000  0.54040000  0.89580000  1.0 0.1072344503
H  H470  1  0.54040000  0.89300000  0.67080000  1.0 0.1072344503
H  H471  1  0.67080000  0.89580000  0.54040000  1.0 0.1072344503
H  H472  1  0.89580000  0.67080000  0.89300000  1.0 0.1072344503
H  H473  1  0.67080000  0.89300000  0.89580000  1.0 0.1072344503
H  H474  1  0.89580000  0.54040000  0.67080000  1.0 0.1072344503
H  H475  1  0.89300000  0.67080000  0.54040000  1.0 0.1072344503
H  H476  1  0.54040000  0.89580000  0.89300000  1.0 0.1072344503
H  H477  1  0.54040000  0.67080000  0.89580000  1.0 0.1072344503
H  H478  1  0.89300000  0.89580000  0.67080000  1.0 0.1072344503
H  H479  1  0.89580000  0.89300000  0.54040000  1.0 0.1072344503
H  H480  1  0.67080000  0.54040000  0.89300000  1.0 0.1072344503
H  H481  1  0.44080000  0.98780000  0.17900000  1.0 0.1366185987
H  H482  1  0.98780000  0.44080000  0.39240000  1.0 0.1366185987
H  H483  1  0.17900000  0.39240000  0.44080000  1.0 0.1366185987
H  H484  1  0.39240000  0.17900000  0.98780000  1.0 0.1366185987
H  H485  1  0.17900000  0.44080000  0.98780000  1.0 0.1366185987
H  H486  1  0.39240000  0.98780000  0.44080000  1.0 0.1366185987
H  H487  1  0.44080000  0.17900000  0.39240000  1.0 0.1366185987
H  H488  1  0.98780000  0.39240000  0.17900000  1.0 0.1366185987
H  H489  1  0.98780000  0.17900000  0.44080000  1.0 0.1366185987
H  H490  1  0.44080000  0.39240000  0.98780000  1.0 0.1366185987
H  H491  1  0.39240000  0.44080000  0.17900000  1.0 0.1366185987
H  H492  1  0.17900000  0.98780000  0.39240000  1.0 0.1366185987
H  H493  1  0.80920000  0.26220000  0.85760000  1.0 0.1366185987
H  H494  1  0.26220000  0.80920000  0.07100000  1.0 0.1366185987
H  H495  1  0.07100000  0.85760000  0.26220000  1.0 0.1366185987
H  H496  1  0.85760000  0.07100000  0.80920000  1.0 0.1366185987
H  H497  1  0.07100000  0.80920000  0.85760000  1.0 0.1366185987
H  H498  1  0.85760000  0.26220000  0.07100000  1.0 0.1366185987
H  H499  1  0.80920000  0.07100000  0.26220000  1.0 0.1366185987
H  H500  1  0.26220000  0.85760000  0.80920000  1.0 0.1366185987
H  H501  1  0.26220000  0.07100000  0.85760000  1.0 0.1366185987
H  H502  1  0.80920000  0.85760000  0.07100000  1.0 0.1366185987
H  H503  1  0.85760000  0.80920000  0.26220000  1.0 0.1366185987
H  H504  1  0.07100000  0.26220000  0.80920000  1.0 0.1366185987
H  H505  1  0.30920000  0.76220000  0.57100000  1.0 0.1366185987
H  H506  1  0.76220000  0.30920000  0.35760000  1.0 0.1366185987
H  H507  1  0.57100000  0.35760000  0.30920000  1.0 0.1366185987
H  H508  1  0.35760000  0.57100000  0.76220000  1.0 0.1366185987
H  H509  1  0.57100000  0.30920000  0.76220000  1.0 0.1366185987
H  H510  1  0.35760000  0.76220000  0.30920000  1.0 0.1366185987
H  H511  1  0.30920000  0.57100000  0.35760000  1.0 0.1366185987
H  H512  1  0.76220000  0.35760000  0.57100000  1.0 0.1366185987
H  H513  1  0.76220000  0.57100000  0.30920000  1.0 0.1366185987
H  H514  1  0.30920000  0.35760000  0.76220000  1.0 0.1366185987
H  H515  1  0.35760000  0.30920000  0.57100000  1.0 0.1366185987
H  H516  1  0.57100000  0.76220000  0.35760000  1.0 0.1366185987
H  H517  1  0.94080000  0.48780000  0.89240000  1.0 0.1366185987
H  H518  1  0.48780000  0.94080000  0.67900000  1.0 0.1366185987
H  H519  1  0.67900000  0.89240000  0.48780000  1.0 0.1366185987
H  H520  1  0.89240000  0.67900000  0.94080000  1.0 0.1366185987
H  H521  1  0.67900000  0.94080000  0.89240000  1.0 0.1366185987
H  H522  1  0.89240000  0.48780000  0.67900000  1.0 0.1366185987
H  H523  1  0.94080000  0.67900000  0.48780000  1.0 0.1366185987
H  H524  1  0.48780000  0.89240000  0.94080000  1.0 0.1366185987
H  H525  1  0.48780000  0.67900000  0.89240000  1.0 0.1366185987
H  H526  1  0.94080000  0.89240000  0.67900000  1.0 0.1366185987
H  H527  1  0.89240000  0.94080000  0.48780000  1.0 0.1366185987
H  H528  1  0.67900000  0.48780000  0.94080000  1.0 0.1366185987
H  H529  1  0.49940000  0.98460000  0.13660000  1.0 0.1200945259
H  H530  1  0.98460000  0.49940000  0.37940000  1.0 0.1200945259
H  H531  1  0.13660000  0.37940000  0.49940000  1.0 0.1200945259
H  H532  1  0.37940000  0.13660000  0.98460000  1.0 0.1200945259
H  H533  1  0.13660000  0.49940000  0.98460000  1.0 0.1200945259
H  H534  1  0.37940000  0.98460000  0.49940000  1.0 0.1200945259
H  H535  1  0.49940000  0.13660000  0.37940000  1.0 0.1200945259
H  H536  1  0.98460000  0.37940000  0.13660000  1.0 0.1200945259
H  H537  1  0.98460000  0.13660000  0.49940000  1.0 0.1200945259
H  H538  1  0.49940000  0.37940000  0.98460000  1.0 0.1200945259
H  H539  1  0.37940000  0.49940000  0.13660000  1.0 0.1200945259
H  H540  1  0.13660000  0.98460000  0.37940000  1.0 0.1200945259
H  H541  1  0.75060000  0.26540000  0.87060000  1.0 0.1200945259
H  H542  1  0.26540000  0.75060000  0.11340000  1.0 0.1200945259
H  H543  1  0.11340000  0.87060000  0.26540000  1.0 0.1200945259
H  H544  1  0.87060000  0.11340000  0.75060000  1.0 0.1200945259
H  H545  1  0.11340000  0.75060000  0.87060000  1.0 0.1200945259
H  H546  1  0.87060000  0.26540000  0.11340000  1.0 0.1200945259
H  H547  1  0.75060000  0.11340000  0.26540000  1.0 0.1200945259
H  H548  1  0.26540000  0.87060000  0.75060000  1.0 0.1200945259
H  H549  1  0.26540000  0.11340000  0.87060000  1.0 0.1200945259
H  H550  1  0.75060000  0.87060000  0.11340000  1.0 0.1200945259
H  H551  1  0.87060000  0.75060000  0.26540000  1.0 0.1200945259
H  H552  1  0.11340000  0.26540000  0.75060000  1.0 0.1200945259
H  H553  1  0.25060000  0.76540000  0.61340000  1.0 0.1200945259
H  H554  1  0.76540000  0.25060000  0.37060000  1.0 0.1200945259
H  H555  1  0.61340000  0.37060000  0.25060000  1.0 0.1200945259
H  H556  1  0.37060000  0.61340000  0.76540000  1.0 0.1200945259
H  H557  1  0.61340000  0.25060000  0.76540000  1.0 0.1200945259
H  H558  1  0.37060000  0.76540000  0.25060000  1.0 0.1200945259
H  H559  1  0.25060000  0.61340000  0.37060000  1.0 0.1200945259
H  H560  1  0.76540000  0.37060000  0.61340000  1.0 0.1200945259
H  H561  1  0.76540000  0.61340000  0.25060000  1.0 0.1200945259
H  H562  1  0.25060000  0.37060000  0.76540000  1.0 0.1200945259
H  H563  1  0.37060000  0.25060000  0.61340000  1.0 0.1200945259
H  H564  1  0.61340000  0.76540000  0.37060000  1.0 0.1200945259
H  H565  1  0.99940000  0.48460000  0.87940000  1.0 0.1200945259
H  H566  1  0.48460000  0.99940000  0.63660000  1.0 0.1200945259
H  H567  1  0.63660000  0.87940000  0.48460000  1.0 0.1200945259
H  H568  1  0.87940000  0.63660000  0.99940000  1.0 0.1200945259
H  H569  1  0.63660000  0.99940000  0.87940000  1.0 0.1200945259
H  H570  1  0.87940000  0.48460000  0.63660000  1.0 0.1200945259
H  H571  1  0.99940000  0.63660000  0.48460000  1.0 0.1200945259
H  H572  1  0.48460000  0.87940000  0.99940000  1.0 0.1200945259
H  H573  1  0.48460000  0.63660000  0.87940000  1.0 0.1200945259
H  H574  1  0.99940000  0.87940000  0.63660000  1.0 0.1200945259
H  H575  1  0.87940000  0.99940000  0.48460000  1.0 0.1200945259
H  H576  1  0.63660000  0.48460000  0.99940000  1.0 0.1200945259
H  H577  1  0.43290000  0.11350000  0.14970000  1.0 0.1014359616
H  H578  1  0.11350000  0.43290000  0.30390000  1.0 0.1014359616
H  H579  1  0.14970000  0.30390000  0.43290000  1.0 0.1014359616
H  H580  1  0.30390000  0.14970000  0.11350000  1.0 0.1014359616
H  H581  1  0.14970000  0.43290000  0.11350000  1.0 0.1014359616
H  H582  1  0.30390000  0.11350000  0.43290000  1.0 0.1014359616
H  H583  1  0.43290000  0.14970000  0.30390000  1.0 0.1014359616
H  H584  1  0.11350000  0.30390000  0.14970000  1.0 0.1014359616
H  H585  1  0.11350000  0.14970000  0.43290000  1.0 0.1014359616
H  H586  1  0.43290000  0.30390000  0.11350000  1.0 0.1014359616
H  H587  1  0.30390000  0.43290000  0.14970000  1.0 0.1014359616
H  H588  1  0.14970000  0.11350000  0.30390000  1.0 0.1014359616
H  H589  1  0.81710000  0.13650000  0.94610000  1.0 0.1014359616
H  H590  1  0.13650000  0.81710000  0.10030000  1.0 0.1014359616
H  H591  1  0.10030000  0.94610000  0.13650000  1.0 0.1014359616
H  H592  1  0.94610000  0.10030000  0.81710000  1.0 0.1014359616
H  H593  1  0.10030000  0.81710000  0.94610000  1.0 0.1014359616
H  H594  1  0.94610000  0.13650000  0.10030000  1.0 0.1014359616
H  H595  1  0.81710000  0.10030000  0.13650000  1.0 0.1014359616
H  H596  1  0.13650000  0.94610000  0.81710000  1.0 0.1014359616
H  H597  1  0.13650000  0.10030000  0.94610000  1.0 0.1014359616
H  H598  1  0.81710000  0.94610000  0.10030000  1.0 0.1014359616
H  H599  1  0.94610000  0.81710000  0.13650000  1.0 0.1014359616
H  H600  1  0.10030000  0.13650000  0.81710000  1.0 0.1014359616
H  H601  1  0.31710000  0.63650000  0.60030000  1.0 0.1014359616
H  H602  1  0.63650000  0.31710000  0.44610000  1.0 0.1014359616
H  H603  1  0.60030000  0.44610000  0.31710000  1.0 0.1014359616
H  H604  1  0.44610000  0.60030000  0.63650000  1.0 0.1014359616
H  H605  1  0.60030000  0.31710000  0.63650000  1.0 0.1014359616
H  H606  1  0.44610000  0.63650000  0.31710000  1.0 0.1014359616
H  H607  1  0.31710000  0.60030000  0.44610000  1.0 0.1014359616
H  H608  1  0.63650000  0.44610000  0.60030000  1.0 0.1014359616
H  H609  1  0.63650000  0.60030000  0.31710000  1.0 0.1014359616
H  H610  1  0.31710000  0.44610000  0.63650000  1.0 0.1014359616
H  H611  1  0.44610000  0.31710000  0.60030000  1.0 0.1014359616
H  H612  1  0.60030000  0.63650000  0.44610000  1.0 0.1014359616
H  H613  1  0.93290000  0.61350000  0.80390000  1.0 0.1014359616
H  H614  1  0.61350000  0.93290000  0.64970000  1.0 0.1014359616
H  H615  1  0.64970000  0.80390000  0.61350000  1.0 0.1014359616
H  H616  1  0.80390000  0.64970000  0.93290000  1.0 0.1014359616
H  H617  1  0.64970000  0.93290000  0.80390000  1.0 0.1014359616
H  H618  1  0.80390000  0.61350000  0.64970000  1.0 0.1014359616
H  H619  1  0.93290000  0.64970000  0.61350000  1.0 0.1014359616
H  H620  1  0.61350000  0.80390000  0.93290000  1.0 0.1014359616
H  H621  1  0.61350000  0.64970000  0.80390000  1.0 0.1014359616
H  H622  1  0.93290000  0.80390000  0.64970000  1.0 0.1014359616
H  H623  1  0.80390000  0.93290000  0.61350000  1.0 0.1014359616
H  H624  1  0.64970000  0.61350000  0.93290000  1.0 0.1014359616
H  H625  1  0.44190000  0.10030000  0.20090000  1.0 0.1366185987
H  H626  1  0.10030000  0.44190000  0.25690000  1.0 0.1366185987
H  H627  1  0.20090000  0.25690000  0.44190000  1.0 0.1366185987
H  H628  1  0.25690000  0.20090000  0.10030000  1.0 0.1366185987
H  H629  1  0.20090000  0.44190000  0.10030000  1.0 0.1366185987
H  H630  1  0.25690000  0.10030000  0.44190000  1.0 0.1366185987
H  H631  1  0.44190000  0.20090000  0.25690000  1.0 0.1366185987
H  H632  1  0.10030000  0.25690000  0.20090000  1.0 0.1366185987
H  H633  1  0.10030000  0.20090000  0.44190000  1.0 0.1366185987
H  H634  1  0.44190000  0.25690000  0.10030000  1.0 0.1366185987
H  H635  1  0.25690000  0.44190000  0.20090000  1.0 0.1366185987
H  H636  1  0.20090000  0.10030000  0.25690000  1.0 0.1366185987
H  H637  1  0.80810000  0.14970000  0.99310000  1.0 0.1366185987
H  H638  1  0.14970000  0.80810000  0.04910000  1.0 0.1366185987
H  H639  1  0.04910000  0.99310000  0.14970000  1.0 0.1366185987
H  H640  1  0.99310000  0.04910000  0.80810000  1.0 0.1366185987
H  H641  1  0.04910000  0.80810000  0.99310000  1.0 0.1366185987
H  H642  1  0.99310000  0.14970000  0.04910000  1.0 0.1366185987
H  H643  1  0.80810000  0.04910000  0.14970000  1.0 0.1366185987
H  H644  1  0.14970000  0.99310000  0.80810000  1.0 0.1366185987
H  H645  1  0.14970000  0.04910000  0.99310000  1.0 0.1366185987
H  H646  1  0.80810000  0.99310000  0.04910000  1.0 0.1366185987
H  H647  1  0.99310000  0.80810000  0.14970000  1.0 0.1366185987
H  H648  1  0.04910000  0.14970000  0.80810000  1.0 0.1366185987
H  H649  1  0.30810000  0.64970000  0.54910000  1.0 0.1366185987
H  H650  1  0.64970000  0.30810000  0.49310000  1.0 0.1366185987
H  H651  1  0.54910000  0.49310000  0.30810000  1.0 0.1366185987
H  H652  1  0.49310000  0.54910000  0.64970000  1.0 0.1366185987
H  H653  1  0.54910000  0.30810000  0.64970000  1.0 0.1366185987
H  H654  1  0.49310000  0.64970000  0.30810000  1.0 0.1366185987
H  H655  1  0.30810000  0.54910000  0.49310000  1.0 0.1366185987
H  H656  1  0.64970000  0.49310000  0.54910000  1.0 0.1366185987
H  H657  1  0.64970000  0.54910000  0.30810000  1.0 0.1366185987
H  H658  1  0.30810000  0.49310000  0.64970000  1.0 0.1366185987
H  H659  1  0.49310000  0.30810000  0.54910000  1.0 0.1366185987
H  H660  1  0.54910000  0.64970000  0.49310000  1.0 0.1366185987
H  H661  1  0.94190000  0.60030000  0.75690000  1.0 0.1366185987
H  H662  1  0.60030000  0.94190000  0.70090000  1.0 0.1366185987
H  H663  1  0.70090000  0.75690000  0.60030000  1.0 0.1366185987
H  H664  1  0.75690000  0.70090000  0.94190000  1.0 0.1366185987
H  H665  1  0.70090000  0.94190000  0.75690000  1.0 0.1366185987
H  H666  1  0.75690000  0.60030000  0.70090000  1.0 0.1366185987
H  H667  1  0.94190000  0.70090000  0.60030000  1.0 0.1366185987
H  H668  1  0.60030000  0.75690000  0.94190000  1.0 0.1366185987
H  H669  1  0.60030000  0.70090000  0.75690000  1.0 0.1366185987
H  H670  1  0.94190000  0.75690000  0.70090000  1.0 0.1366185987
H  H671  1  0.75690000  0.94190000  0.60030000  1.0 0.1366185987
H  H672  1  0.70090000  0.60030000  0.94190000  1.0 0.1366185987
H  H673  1  0.39330000  0.09750000  0.25570000  1.0 0.1200945259
H  H674  1  0.09750000  0.39330000  0.25350000  1.0 0.1200945259
H  H675  1  0.25570000  0.25350000  0.39330000  1.0 0.1200945259
H  H676  1  0.25350000  0.25570000  0.09750000  1.0 0.1200945259
H  H677  1  0.25570000  0.39330000  0.09750000  1.0 0.1200945259
H  H678  1  0.25350000  0.09750000  0.39330000  1.0 0.1200945259
H  H679  1  0.39330000  0.25570000  0.25350000  1.0 0.1200945259
H  H680  1  0.09750000  0.25350000  0.25570000  1.0 0.1200945259
H  H681  1  0.09750000  0.25570000  0.39330000  1.0 0.1200945259
H  H682  1  0.39330000  0.25350000  0.09750000  1.0 0.1200945259
H  H683  1  0.25350000  0.39330000  0.25570000  1.0 0.1200945259
H  H684  1  0.25570000  0.09750000  0.25350000  1.0 0.1200945259
H  H685  1  0.85670000  0.15250000  0.99650000  1.0 0.1200945259
H  H686  1  0.15250000  0.85670000  0.99430000  1.0 0.1200945259
H  H687  1  0.99430000  0.99650000  0.15250000  1.0 0.1200945259
H  H688  1  0.99650000  0.99430000  0.85670000  1.0 0.1200945259
H  H689  1  0.99430000  0.85670000  0.99650000  1.0 0.1200945259
H  H690  1  0.99650000  0.15250000  0.99430000  1.0 0.1200945259
H  H691  1  0.85670000  0.99430000  0.15250000  1.0 0.1200945259
H  H692  1  0.15250000  0.99650000  0.85670000  1.0 0.1200945259
H  H693  1  0.15250000  0.99430000  0.99650000  1.0 0.1200945259
H  H694  1  0.85670000  0.99650000  0.99430000  1.0 0.1200945259
H  H695  1  0.99650000  0.85670000  0.15250000  1.0 0.1200945259
H  H696  1  0.99430000  0.15250000  0.85670000  1.0 0.1200945259
H  H697  1  0.35670000  0.65250000  0.49430000  1.0 0.1200945259
H  H698  1  0.65250000  0.35670000  0.49650000  1.0 0.1200945259
H  H699  1  0.49430000  0.49650000  0.35670000  1.0 0.1200945259
H  H700  1  0.49650000  0.49430000  0.65250000  1.0 0.1200945259
H  H701  1  0.49430000  0.35670000  0.65250000  1.0 0.1200945259
H  H702  1  0.49650000  0.65250000  0.35670000  1.0 0.1200945259
H  H703  1  0.35670000  0.49430000  0.49650000  1.0 0.1200945259
H  H704  1  0.65250000  0.49650000  0.49430000  1.0 0.1200945259
H  H705  1  0.65250000  0.49430000  0.35670000  1.0 0.1200945259
H  H706  1  0.35670000  0.49650000  0.65250000  1.0 0.1200945259
H  H707  1  0.49650000  0.35670000  0.49430000  1.0 0.1200945259
H  H708  1  0.49430000  0.65250000  0.49650000  1.0 0.1200945259
H  H709  1  0.89330000  0.59750000  0.75350000  1.0 0.1200945259
H  H710  1  0.59750000  0.89330000  0.75570000  1.0 0.1200945259
H  H711  1  0.75570000  0.75350000  0.59750000  1.0 0.1200945259
H  H712  1  0.75350000  0.75570000  0.89330000  1.0 0.1200945259
H  H713  1  0.75570000  0.89330000  0.75350000  1.0 0.1200945259
H  H714  1  0.75350000  0.59750000  0.75570000  1.0 0.1200945259
H  H715  1  0.89330000  0.75570000  0.59750000  1.0 0.1200945259
H  H716  1  0.59750000  0.75350000  0.89330000  1.0 0.1200945259
H  H717  1  0.59750000  0.75570000  0.75350000  1.0 0.1200945259
H  H718  1  0.89330000  0.75350000  0.75570000  1.0 0.1200945259
H  H719  1  0.75350000  0.89330000  0.59750000  1.0 0.1200945259
H  H720  1  0.75570000  0.59750000  0.89330000  1.0 0.1200945259
H  H721  1  0.33060000  0.12060000  0.20280000  1.0 0.1072344503
H  H722  1  0.12060000  0.33060000  0.34600000  1.0 0.1072344503
H  H723  1  0.20280000  0.34600000  0.33060000  1.0 0.1072344503
H  H724  1  0.34600000  0.20280000  0.12060000  1.0 0.1072344503
H  H725  1  0.20280000  0.33060000  0.12060000  1.0 0.1072344503
H  H726  1  0.34600000  0.12060000  0.33060000  1.0 0.1072344503
H  H727  1  0.33060000  0.20280000  0.34600000  1.0 0.1072344503
H  H728  1  0.12060000  0.34600000  0.20280000  1.0 0.1072344503
H  H729  1  0.12060000  0.20280000  0.33060000  1.0 0.1072344503
H  H730  1  0.33060000  0.34600000  0.12060000  1.0 0.1072344503
H  H731  1  0.34600000  0.33060000  0.20280000  1.0 0.1072344503
H  H732  1  0.20280000  0.12060000  0.34600000  1.0 0.1072344503
H  H733  1  0.91940000  0.12940000  0.90400000  1.0 0.1072344503
H  H734  1  0.12940000  0.91940000  0.04720000  1.0 0.1072344503
H  H735  1  0.04720000  0.90400000  0.12940000  1.0 0.1072344503
H  H736  1  0.90400000  0.04720000  0.91940000  1.0 0.1072344503
H  H737  1  0.04720000  0.91940000  0.90400000  1.0 0.1072344503
H  H738  1  0.90400000  0.12940000  0.04720000  1.0 0.1072344503
H  H739  1  0.91940000  0.04720000  0.12940000  1.0 0.1072344503
H  H740  1  0.12940000  0.90400000  0.91940000  1.0 0.1072344503
H  H741  1  0.12940000  0.04720000  0.90400000  1.0 0.1072344503
H  H742  1  0.91940000  0.90400000  0.04720000  1.0 0.1072344503
H  H743  1  0.90400000  0.91940000  0.12940000  1.0 0.1072344503
H  H744  1  0.04720000  0.12940000  0.91940000  1.0 0.1072344503
H  H745  1  0.41940000  0.62940000  0.54720000  1.0 0.1072344503
H  H746  1  0.62940000  0.41940000  0.40400000  1.0 0.1072344503
H  H747  1  0.54720000  0.40400000  0.41940000  1.0 0.1072344503
H  H748  1  0.40400000  0.54720000  0.62940000  1.0 0.1072344503
H  H749  1  0.54720000  0.41940000  0.62940000  1.0 0.1072344503
H  H750  1  0.40400000  0.62940000  0.41940000  1.0 0.1072344503
H  H751  1  0.41940000  0.54720000  0.40400000  1.0 0.1072344503
H  H752  1  0.62940000  0.40400000  0.54720000  1.0 0.1072344503
H  H753  1  0.62940000  0.54720000  0.41940000  1.0 0.1072344503
H  H754  1  0.41940000  0.40400000  0.62940000  1.0 0.1072344503
H  H755  1  0.40400000  0.41940000  0.54720000  1.0 0.1072344503
H  H756  1  0.54720000  0.62940000  0.40400000  1.0 0.1072344503
H  H757  1  0.83060000  0.62060000  0.84600000  1.0 0.1072344503
H  H758  1  0.62060000  0.83060000  0.70280000  1.0 0.1072344503
H  H759  1  0.70280000  0.84600000  0.62060000  1.0 0.1072344503
H  H760  1  0.84600000  0.70280000  0.83060000  1.0 0.1072344503
H  H761  1  0.70280000  0.83060000  0.84600000  1.0 0.1072344503
H  H762  1  0.84600000  0.62060000  0.70280000  1.0 0.1072344503
H  H763  1  0.83060000  0.70280000  0.62060000  1.0 0.1072344503
H  H764  1  0.62060000  0.84600000  0.83060000  1.0 0.1072344503
H  H765  1  0.62060000  0.70280000  0.84600000  1.0 0.1072344503
H  H766  1  0.83060000  0.84600000  0.70280000  1.0 0.1072344503
H  H767  1  0.84600000  0.83060000  0.62060000  1.0 0.1072344503
H  H768  1  0.70280000  0.62060000  0.83060000  1.0 0.1072344503
C  C1  1  0.60126000  0.21082000  0.85278000  1.0 0.2425303668
C  C2  1  0.21082000  0.60126000  0.33514000  1.0 0.2425303668
C  C3  1  0.85278000  0.33514000  0.60126000  1.0 0.2425303668
C  C4  1  0.33514000  0.85278000  0.21082000  1.0 0.2425303668
C  C5  1  0.85278000  0.60126000  0.21082000  1.0 0.2425303668
C  C6  1  0.33514000  0.21082000  0.60126000  1.0 0.2425303668
C  C7  1  0.60126000  0.85278000  0.33514000  1.0 0.2425303668
C  C8  1  0.21082000  0.33514000  0.85278000  1.0 0.2425303668
C  C9  1  0.21082000  0.85278000  0.60126000  1.0 0.2425303668
C  C10  1  0.60126000  0.33514000  0.21082000  1.0 0.2425303668
C  C11  1  0.33514000  0.60126000  0.85278000  1.0 0.2425303668
C  C12  1  0.85278000  0.21082000  0.33514000  1.0 0.2425303668
C  C13  1  0.64874000  0.03918000  0.91486000  1.0 0.2425303668
C  C14  1  0.03918000  0.64874000  0.39722000  1.0 0.2425303668
C  C15  1  0.39722000  0.91486000  0.03918000  1.0 0.2425303668
C  C16  1  0.91486000  0.39722000  0.64874000  1.0 0.2425303668
C  C17  1  0.39722000  0.64874000  0.91486000  1.0 0.2425303668
C  C18  1  0.91486000  0.03918000  0.39722000  1.0 0.2425303668
C  C19  1  0.64874000  0.39722000  0.03918000  1.0 0.2425303668
C  C20  1  0.03918000  0.91486000  0.64874000  1.0 0.2425303668
C  C21  1  0.03918000  0.39722000  0.91486000  1.0 0.2425303668
C  C22  1  0.64874000  0.91486000  0.39722000  1.0 0.2425303668
C  C23  1  0.91486000  0.64874000  0.03918000  1.0 0.2425303668
C  C24  1  0.39722000  0.03918000  0.64874000  1.0 0.2425303668
C  C25  1  0.14874000  0.53918000  0.89722000  1.0 0.2425303668
C  C26  1  0.53918000  0.14874000  0.41486000  1.0 0.2425303668
C  C27  1  0.89722000  0.41486000  0.14874000  1.0 0.2425303668
C  C28  1  0.41486000  0.89722000  0.53918000  1.0 0.2425303668
C  C29  1  0.89722000  0.14874000  0.53918000  1.0 0.2425303668
C  C30  1  0.41486000  0.53918000  0.14874000  1.0 0.2425303668
C  C31  1  0.14874000  0.89722000  0.41486000  1.0 0.2425303668
C  C32  1  0.53918000  0.41486000  0.89722000  1.0 0.2425303668
C  C33  1  0.53918000  0.89722000  0.14874000  1.0 0.2425303668
C  C34  1  0.14874000  0.41486000  0.53918000  1.0 0.2425303668
C  C35  1  0.41486000  0.14874000  0.89722000  1.0 0.2425303668
C  C36  1  0.89722000  0.53918000  0.41486000  1.0 0.2425303668
C  C37  1  0.10126000  0.71082000  0.83514000  1.0 0.2425303668
C  C38  1  0.71082000  0.10126000  0.35278000  1.0 0.2425303668
C  C39  1  0.35278000  0.83514000  0.71082000  1.0 0.2425303668
C  C40  1  0.83514000  0.35278000  0.10126000  1.0 0.2425303668
C  C41  1  0.35278000  0.10126000  0.83514000  1.0 0.2425303668
C  C42  1  0.83514000  0.71082000  0.35278000  1.0 0.2425303668
C  C43  1  0.10126000  0.35278000  0.71082000  1.0 0.2425303668
C  C44  1  0.71082000  0.83514000  0.10126000  1.0 0.2425303668
C  C45  1  0.71082000  0.35278000  0.83514000  1.0 0.2425303668
C  C46  1  0.10126000  0.83514000  0.35278000  1.0 0.2425303668
C  C47  1  0.83514000  0.10126000  0.71082000  1.0 0.2425303668
C  C48  1  0.35278000  0.71082000  0.10126000  1.0 0.2425303668
C  C49  1  0.56151000  0.16689000  0.94097000  1.0 0.0676315755
C  C50  1  0.16689000  0.56151000  0.33063000  1.0 0.0676315755
C  C51  1  0.94097000  0.33063000  0.56151000  1.0 0.0676315755
C  C52  1  0.33063000  0.94097000  0.16689000  1.0 0.0676315755
C  C53  1  0.94097000  0.56151000  0.16689000  1.0 0.0676315755
C  C54  1  0.33063000  0.16689000  0.56151000  1.0 0.0676315755
C  C55  1  0.56151000  0.94097000  0.33063000  1.0 0.0676315755
C  C56  1  0.16689000  0.33063000  0.94097000  1.0 0.0676315755
C  C57  1  0.16689000  0.94097000  0.56151000  1.0 0.0676315755
C  C58  1  0.56151000  0.33063000  0.16689000  1.0 0.0676315755
C  C59  1  0.33063000  0.56151000  0.94097000  1.0 0.0676315755
C  C60  1  0.94097000  0.16689000  0.33063000  1.0 0.0676315755
C  C61  1  0.68849000  0.08311000  0.91937000  1.0 0.0676315755
C  C62  1  0.08311000  0.68849000  0.30903000  1.0 0.0676315755
C  C63  1  0.30903000  0.91937000  0.08311000  1.0 0.0676315755
C  C64  1  0.91937000  0.30903000  0.68849000  1.0 0.0676315755
C  C65  1  0.30903000  0.68849000  0.91937000  1.0 0.0676315755
C  C66  1  0.91937000  0.08311000  0.30903000  1.0 0.0676315755
C  C67  1  0.68849000  0.30903000  0.08311000  1.0 0.0676315755
C  C68  1  0.08311000  0.91937000  0.68849000  1.0 0.0676315755
C  C69  1  0.08311000  0.30903000  0.91937000  1.0 0.0676315755
C  C70  1  0.68849000  0.91937000  0.30903000  1.0 0.0676315755
C  C71  1  0.91937000  0.68849000  0.08311000  1.0 0.0676315755
C  C72  1  0.30903000  0.08311000  0.68849000  1.0 0.0676315755
C  C73  1  0.18849000  0.58311000  0.80903000  1.0 0.0676315755
C  C74  1  0.58311000  0.18849000  0.41937000  1.0 0.0676315755
C  C75  1  0.80903000  0.41937000  0.18849000  1.0 0.0676315755
C  C76  1  0.41937000  0.80903000  0.58311000  1.0 0.0676315755
C  C77  1  0.80903000  0.18849000  0.58311000  1.0 0.0676315755
C  C78  1  0.41937000  0.58311000  0.18849000  1.0 0.0676315755
C  C79  1  0.18849000  0.80903000  0.41937000  1.0 0.0676315755
C  C80  1  0.58311000  0.41937000  0.80903000  1.0 0.0676315755
C  C81  1  0.58311000  0.80903000  0.18849000  1.0 0.0676315755
C  C82  1  0.18849000  0.41937000  0.58311000  1.0 0.0676315755
C  C83  1  0.41937000  0.18849000  0.80903000  1.0 0.0676315755
C  C84  1  0.80903000  0.58311000  0.41937000  1.0 0.0676315755
C  C85  1  0.06151000  0.66689000  0.83063000  1.0 0.0676315755
C  C86  1  0.66689000  0.06151000  0.44097000  1.0 0.0676315755
C  C87  1  0.44097000  0.83063000  0.66689000  1.0 0.0676315755
C  C88  1  0.83063000  0.44097000  0.06151000  1.0 0.0676315755
C  C89  1  0.44097000  0.06151000  0.83063000  1.0 0.0676315755
C  C90  1  0.83063000  0.66689000  0.44097000  1.0 0.0676315755
C  C91  1  0.06151000  0.44097000  0.66689000  1.0 0.0676315755
C  C92  1  0.66689000  0.83063000  0.06151000  1.0 0.0676315755
C  C93  1  0.66689000  0.44097000  0.83063000  1.0 0.0676315755
C  C94  1  0.06151000  0.83063000  0.44097000  1.0 0.0676315755
C  C95  1  0.83063000  0.06151000  0.66689000  1.0 0.0676315755
C  C96  1  0.44097000  0.66689000  0.06151000  1.0 0.0676315755
C  C97  1  0.53571000  0.17015000  0.97369000  1.0 -0.1295879601
C  C98  1  0.17015000  0.53571000  0.32045000  1.0 -0.1295879601
C  C99  1  0.97369000  0.32045000  0.53571000  1.0 -0.1295879601
C  C100  1  0.32045000  0.97369000  0.17015000  1.0 -0.1295879601
C  C101  1  0.97369000  0.53571000  0.17015000  1.0 -0.1295879601
C  C102  1  0.32045000  0.17015000  0.53571000  1.0 -0.1295879601
C  C103  1  0.53571000  0.97369000  0.32045000  1.0 -0.1295879601
C  C104  1  0.17015000  0.32045000  0.97369000  1.0 -0.1295879601
C  C105  1  0.17015000  0.97369000  0.53571000  1.0 -0.1295879601
C  C106  1  0.53571000  0.32045000  0.17015000  1.0 -0.1295879601
C  C107  1  0.32045000  0.53571000  0.97369000  1.0 -0.1295879601
C  C108  1  0.97369000  0.17015000  0.32045000  1.0 -0.1295879601
C  C109  1  0.71429000  0.07985000  0.92955000  1.0 -0.1295879601
C  C110  1  0.07985000  0.71429000  0.27631000  1.0 -0.1295879601
C  C111  1  0.27631000  0.92955000  0.07985000  1.0 -0.1295879601
C  C112  1  0.92955000  0.27631000  0.71429000  1.0 -0.1295879601
C  C113  1  0.27631000  0.71429000  0.92955000  1.0 -0.1295879601
C  C114  1  0.92955000  0.07985000  0.27631000  1.0 -0.1295879601
C  C115  1  0.71429000  0.27631000  0.07985000  1.0 -0.1295879601
C  C116  1  0.07985000  0.92955000  0.71429000  1.0 -0.1295879601
C  C117  1  0.07985000  0.27631000  0.92955000  1.0 -0.1295879601
C  C118  1  0.71429000  0.92955000  0.27631000  1.0 -0.1295879601
C  C119  1  0.92955000  0.71429000  0.07985000  1.0 -0.1295879601
C  C120  1  0.27631000  0.07985000  0.71429000  1.0 -0.1295879601
C  C121  1  0.21429000  0.57985000  0.77631000  1.0 -0.1295879601
C  C122  1  0.57985000  0.21429000  0.42955000  1.0 -0.1295879601
C  C123  1  0.77631000  0.42955000  0.21429000  1.0 -0.1295879601
C  C124  1  0.42955000  0.77631000  0.57985000  1.0 -0.1295879601
C  C125  1  0.77631000  0.21429000  0.57985000  1.0 -0.1295879601
C  C126  1  0.42955000  0.57985000  0.21429000  1.0 -0.1295879601
C  C127  1  0.21429000  0.77631000  0.42955000  1.0 -0.1295879601
C  C128  1  0.57985000  0.42955000  0.77631000  1.0 -0.1295879601
C  C129  1  0.57985000  0.77631000  0.21429000  1.0 -0.1295879601
C  C130  1  0.21429000  0.42955000  0.57985000  1.0 -0.1295879601
C  C131  1  0.42955000  0.21429000  0.77631000  1.0 -0.1295879601
C  C132  1  0.77631000  0.57985000  0.42955000  1.0 -0.1295879601
C  C133  1  0.03571000  0.67015000  0.82045000  1.0 -0.1295879601
C  C134  1  0.67015000  0.03571000  0.47369000  1.0 -0.1295879601
C  C135  1  0.47369000  0.82045000  0.67015000  1.0 -0.1295879601
C  C136  1  0.82045000  0.47369000  0.03571000  1.0 -0.1295879601
C  C137  1  0.47369000  0.03571000  0.82045000  1.0 -0.1295879601
C  C138  1  0.82045000  0.67015000  0.47369000  1.0 -0.1295879601
C  C139  1  0.03571000  0.47369000  0.67015000  1.0 -0.1295879601
C  C140  1  0.67015000  0.82045000  0.03571000  1.0 -0.1295879601
C  C141  1  0.67015000  0.47369000  0.82045000  1.0 -0.1295879601
C  C142  1  0.03571000  0.82045000  0.47369000  1.0 -0.1295879601
C  C143  1  0.82045000  0.03571000  0.67015000  1.0 -0.1295879601
C  C144  1  0.47369000  0.67015000  0.03571000  1.0 -0.1295879601
C  C145  1  0.53188000  0.13938000  0.00320000  1.0 -0.0567742855
C  C146  1  0.13938000  0.53188000  0.32554000  1.0 -0.0567742855
C  C147  1  0.00320000  0.32554000  0.53188000  1.0 -0.0567742855
C  C148  1  0.32554000  0.00320000  0.13938000  1.0 -0.0567742855
C  C149  1  0.00320000  0.53188000  0.13938000  1.0 -0.0567742855
C  C150  1  0.32554000  0.13938000  0.53188000  1.0 -0.0567742855
C  C151  1  0.53188000  0.00320000  0.32554000  1.0 -0.0567742855
C  C152  1  0.13938000  0.32554000  0.00320000  1.0 -0.0567742855
C  C153  1  0.13938000  0.00320000  0.53188000  1.0 -0.0567742855
C  C154  1  0.53188000  0.32554000  0.13938000  1.0 -0.0567742855
C  C155  1  0.32554000  0.53188000  0.00320000  1.0 -0.0567742855
C  C156  1  0.00320000  0.13938000  0.32554000  1.0 -0.0567742855
C  C157  1  0.71812000  0.11062000  0.92446000  1.0 -0.0567742855
C  C158  1  0.11062000  0.71812000  0.24680000  1.0 -0.0567742855
C  C159  1  0.24680000  0.92446000  0.11062000  1.0 -0.0567742855
C  C160  1  0.92446000  0.24680000  0.71812000  1.0 -0.0567742855
C  C161  1  0.24680000  0.71812000  0.92446000  1.0 -0.0567742855
C  C162  1  0.92446000  0.11062000  0.24680000  1.0 -0.0567742855
C  C163  1  0.71812000  0.24680000  0.11062000  1.0 -0.0567742855
C  C164  1  0.11062000  0.92446000  0.71812000  1.0 -0.0567742855
C  C165  1  0.11062000  0.24680000  0.92446000  1.0 -0.0567742855
C  C166  1  0.71812000  0.92446000  0.24680000  1.0 -0.0567742855
C  C167  1  0.92446000  0.71812000  0.11062000  1.0 -0.0567742855
C  C168  1  0.24680000  0.11062000  0.71812000  1.0 -0.0567742855
C  C169  1  0.21812000  0.61062000  0.74680000  1.0 -0.0567742855
C  C170  1  0.61062000  0.21812000  0.42446000  1.0 -0.0567742855
C  C171  1  0.74680000  0.42446000  0.21812000  1.0 -0.0567742855
C  C172  1  0.42446000  0.74680000  0.61062000  1.0 -0.0567742855
C  C173  1  0.74680000  0.21812000  0.61062000  1.0 -0.0567742855
C  C174  1  0.42446000  0.61062000  0.21812000  1.0 -0.0567742855
C  C175  1  0.21812000  0.74680000  0.42446000  1.0 -0.0567742855
C  C176  1  0.61062000  0.42446000  0.74680000  1.0 -0.0567742855
C  C177  1  0.61062000  0.74680000  0.21812000  1.0 -0.0567742855
C  C178  1  0.21812000  0.42446000  0.61062000  1.0 -0.0567742855
C  C179  1  0.42446000  0.21812000  0.74680000  1.0 -0.0567742855
C  C180  1  0.74680000  0.61062000  0.42446000  1.0 -0.0567742855
C  C181  1  0.03188000  0.63938000  0.82554000  1.0 -0.0567742855
C  C182  1  0.63938000  0.03188000  0.50320000  1.0 -0.0567742855
C  C183  1  0.50320000  0.82554000  0.63938000  1.0 -0.0567742855
C  C184  1  0.82554000  0.50320000  0.03188000  1.0 -0.0567742855
C  C185  1  0.50320000  0.03188000  0.82554000  1.0 -0.0567742855
C  C186  1  0.82554000  0.63938000  0.50320000  1.0 -0.0567742855
C  C187  1  0.03188000  0.50320000  0.63938000  1.0 -0.0567742855
C  C188  1  0.63938000  0.82554000  0.03188000  1.0 -0.0567742855
C  C189  1  0.63938000  0.50320000  0.82554000  1.0 -0.0567742855
C  C190  1  0.03188000  0.82554000  0.50320000  1.0 -0.0567742855
C  C191  1  0.82554000  0.03188000  0.63938000  1.0 -0.0567742855
C  C192  1  0.50320000  0.63938000  0.03188000  1.0 -0.0567742855
C  C193  1  0.55624000  0.10634000  0.99950000  1.0 -0.0273151112
C  C194  1  0.10634000  0.55624000  0.33792000  1.0 -0.0273151112
C  C195  1  0.99950000  0.33792000  0.55624000  1.0 -0.0273151112
C  C196  1  0.33792000  0.99950000  0.10634000  1.0 -0.0273151112
C  C197  1  0.99950000  0.55624000  0.10634000  1.0 -0.0273151112
C  C198  1  0.33792000  0.10634000  0.55624000  1.0 -0.0273151112
C  C199  1  0.55624000  0.99950000  0.33792000  1.0 -0.0273151112
C  C200  1  0.10634000  0.33792000  0.99950000  1.0 -0.0273151112
C  C201  1  0.10634000  0.99950000  0.55624000  1.0 -0.0273151112
C  C202  1  0.55624000  0.33792000  0.10634000  1.0 -0.0273151112
C  C203  1  0.33792000  0.55624000  0.99950000  1.0 -0.0273151112
C  C204  1  0.99950000  0.10634000  0.33792000  1.0 -0.0273151112
C  C205  1  0.69376000  0.14366000  0.91208000  1.0 -0.0273151112
C  C206  1  0.14366000  0.69376000  0.25050000  1.0 -0.0273151112
C  C207  1  0.25050000  0.91208000  0.14366000  1.0 -0.0273151112
C  C208  1  0.91208000  0.25050000  0.69376000  1.0 -0.0273151112
C  C209  1  0.25050000  0.69376000  0.91208000  1.0 -0.0273151112
C  C210  1  0.91208000  0.14366000  0.25050000  1.0 -0.0273151112
C  C211  1  0.69376000  0.25050000  0.14366000  1.0 -0.0273151112
C  C212  1  0.14366000  0.91208000  0.69376000  1.0 -0.0273151112
C  C213  1  0.14366000  0.25050000  0.91208000  1.0 -0.0273151112
C  C214  1  0.69376000  0.91208000  0.25050000  1.0 -0.0273151112
C  C215  1  0.91208000  0.69376000  0.14366000  1.0 -0.0273151112
C  C216  1  0.25050000  0.14366000  0.69376000  1.0 -0.0273151112
C  C217  1  0.19376000  0.64366000  0.75050000  1.0 -0.0273151112
C  C218  1  0.64366000  0.19376000  0.41208000  1.0 -0.0273151112
C  C219  1  0.75050000  0.41208000  0.19376000  1.0 -0.0273151112
C  C220  1  0.41208000  0.75050000  0.64366000  1.0 -0.0273151112
C  C221  1  0.75050000  0.19376000  0.64366000  1.0 -0.0273151112
C  C222  1  0.41208000  0.64366000  0.19376000  1.0 -0.0273151112
C  C223  1  0.19376000  0.75050000  0.41208000  1.0 -0.0273151112
C  C224  1  0.64366000  0.41208000  0.75050000  1.0 -0.0273151112
C  C225  1  0.64366000  0.75050000  0.19376000  1.0 -0.0273151112
C  C226  1  0.19376000  0.41208000  0.64366000  1.0 -0.0273151112
C  C227  1  0.41208000  0.19376000  0.75050000  1.0 -0.0273151112
C  C228  1  0.75050000  0.64366000  0.41208000  1.0 -0.0273151112
C  C229  1  0.05624000  0.60634000  0.83792000  1.0 -0.0273151112
C  C230  1  0.60634000  0.05624000  0.49950000  1.0 -0.0273151112
C  C231  1  0.49950000  0.83792000  0.60634000  1.0 -0.0273151112
C  C232  1  0.83792000  0.49950000  0.05624000  1.0 -0.0273151112
C  C233  1  0.49950000  0.05624000  0.83792000  1.0 -0.0273151112
C  C234  1  0.83792000  0.60634000  0.49950000  1.0 -0.0273151112
C  C235  1  0.05624000  0.49950000  0.60634000  1.0 -0.0273151112
C  C236  1  0.60634000  0.83792000  0.05624000  1.0 -0.0273151112
C  C237  1  0.60634000  0.49950000  0.83792000  1.0 -0.0273151112
C  C238  1  0.05624000  0.83792000  0.49950000  1.0 -0.0273151112
C  C239  1  0.83792000  0.05624000  0.60634000  1.0 -0.0273151112
C  C240  1  0.49950000  0.60634000  0.05624000  1.0 -0.0273151112
C  C241  1  0.58235000  0.10533000  0.96605000  1.0 0.058435693
C  C242  1  0.10533000  0.58235000  0.34627000  1.0 0.058435693
C  C243  1  0.96605000  0.34627000  0.58235000  1.0 0.058435693
C  C244  1  0.34627000  0.96605000  0.10533000  1.0 0.058435693
C  C245  1  0.96605000  0.58235000  0.10533000  1.0 0.058435693
C  C246  1  0.34627000  0.10533000  0.58235000  1.0 0.058435693
C  C247  1  0.58235000  0.96605000  0.34627000  1.0 0.058435693
C  C248  1  0.10533000  0.34627000  0.96605000  1.0 0.058435693
C  C249  1  0.10533000  0.96605000  0.58235000  1.0 0.058435693
C  C250  1  0.58235000  0.34627000  0.10533000  1.0 0.058435693
C  C251  1  0.34627000  0.58235000  0.96605000  1.0 0.058435693
C  C252  1  0.96605000  0.10533000  0.34627000  1.0 0.058435693
C  C253  1  0.66765000  0.14467000  0.90373000  1.0 0.058435693
C  C254  1  0.14467000  0.66765000  0.28395000  1.0 0.058435693
C  C255  1  0.28395000  0.90373000  0.14467000  1.0 0.058435693
C  C256  1  0.90373000  0.28395000  0.66765000  1.0 0.058435693
C  C257  1  0.28395000  0.66765000  0.90373000  1.0 0.058435693
C  C258  1  0.90373000  0.14467000  0.28395000  1.0 0.058435693
C  C259  1  0.66765000  0.28395000  0.14467000  1.0 0.058435693
C  C260  1  0.14467000  0.90373000  0.66765000  1.0 0.058435693
C  C261  1  0.14467000  0.28395000  0.90373000  1.0 0.058435693
C  C262  1  0.66765000  0.90373000  0.28395000  1.0 0.058435693
C  C263  1  0.90373000  0.66765000  0.14467000  1.0 0.058435693
C  C264  1  0.28395000  0.14467000  0.66765000  1.0 0.058435693
C  C265  1  0.16765000  0.64467000  0.78395000  1.0 0.058435693
C  C266  1  0.64467000  0.16765000  0.40373000  1.0 0.058435693
C  C267  1  0.78395000  0.40373000  0.16765000  1.0 0.058435693
C  C268  1  0.40373000  0.78395000  0.64467000  1.0 0.058435693
C  C269  1  0.78395000  0.16765000  0.64467000  1.0 0.058435693
C  C270  1  0.40373000  0.64467000  0.16765000  1.0 0.058435693
C  C271  1  0.16765000  0.78395000  0.40373000  1.0 0.058435693
C  C272  1  0.64467000  0.40373000  0.78395000  1.0 0.058435693
C  C273  1  0.64467000  0.78395000  0.16765000  1.0 0.058435693
C  C274  1  0.16765000  0.40373000  0.64467000  1.0 0.058435693
C  C275  1  0.40373000  0.16765000  0.78395000  1.0 0.058435693
C  C276  1  0.78395000  0.64467000  0.40373000  1.0 0.058435693
C  C277  1  0.08235000  0.60533000  0.84627000  1.0 0.058435693
C  C278  1  0.60533000  0.08235000  0.46605000  1.0 0.058435693
C  C279  1  0.46605000  0.84627000  0.60533000  1.0 0.058435693
C  C280  1  0.84627000  0.46605000  0.08235000  1.0 0.058435693
C  C281  1  0.46605000  0.08235000  0.84627000  1.0 0.058435693
C  C282  1  0.84627000  0.60533000  0.46605000  1.0 0.058435693
C  C283  1  0.08235000  0.46605000  0.60533000  1.0 0.058435693
C  C284  1  0.60533000  0.84627000  0.08235000  1.0 0.058435693
C  C285  1  0.60533000  0.46605000  0.84627000  1.0 0.058435693
C  C286  1  0.08235000  0.84627000  0.46605000  1.0 0.058435693
C  C287  1  0.84627000  0.08235000  0.60533000  1.0 0.058435693
C  C288  1  0.46605000  0.60533000  0.08235000  1.0 0.058435693
C  C289  1  0.66582000  0.91460000  0.05384000  1.0 0.0811204213
C  C290  1  0.91460000  0.66582000  0.36574000  1.0 0.0811204213
C  C291  1  0.05384000  0.36574000  0.66582000  1.0 0.0811204213
C  C292  1  0.36574000  0.05384000  0.91460000  1.0 0.0811204213
C  C293  1  0.05384000  0.66582000  0.91460000  1.0 0.0811204213
C  C294  1  0.36574000  0.91460000  0.66582000  1.0 0.0811204213
C  C295  1  0.66582000  0.05384000  0.36574000  1.0 0.0811204213
C  C296  1  0.91460000  0.36574000  0.05384000  1.0 0.0811204213
C  C297  1  0.91460000  0.05384000  0.66582000  1.0 0.0811204213
C  C298  1  0.66582000  0.36574000  0.91460000  1.0 0.0811204213
C  C299  1  0.36574000  0.66582000  0.05384000  1.0 0.0811204213
C  C300  1  0.05384000  0.91460000  0.36574000  1.0 0.0811204213
C  C301  1  0.58418000  0.33540000  0.88426000  1.0 0.0811204213
C  C302  1  0.33540000  0.58418000  0.19616000  1.0 0.0811204213
C  C303  1  0.19616000  0.88426000  0.33540000  1.0 0.0811204213
C  C304  1  0.88426000  0.19616000  0.58418000  1.0 0.0811204213
C  C305  1  0.19616000  0.58418000  0.88426000  1.0 0.0811204213
C  C306  1  0.88426000  0.33540000  0.19616000  1.0 0.0811204213
C  C307  1  0.58418000  0.19616000  0.33540000  1.0 0.0811204213
C  C308  1  0.33540000  0.88426000  0.58418000  1.0 0.0811204213
C  C309  1  0.33540000  0.19616000  0.88426000  1.0 0.0811204213
C  C310  1  0.58418000  0.88426000  0.19616000  1.0 0.0811204213
C  C311  1  0.88426000  0.58418000  0.33540000  1.0 0.0811204213
C  C312  1  0.19616000  0.33540000  0.58418000  1.0 0.0811204213
C  C313  1  0.08418000  0.83540000  0.69616000  1.0 0.0811204213
C  C314  1  0.83540000  0.08418000  0.38426000  1.0 0.0811204213
C  C315  1  0.69616000  0.38426000  0.08418000  1.0 0.0811204213
C  C316  1  0.38426000  0.69616000  0.83540000  1.0 0.0811204213
C  C317  1  0.69616000  0.08418000  0.83540000  1.0 0.0811204213
C  C318  1  0.38426000  0.83540000  0.08418000  1.0 0.0811204213
C  C319  1  0.08418000  0.69616000  0.38426000  1.0 0.0811204213
C  C320  1  0.83540000  0.38426000  0.69616000  1.0 0.0811204213
C  C321  1  0.83540000  0.69616000  0.08418000  1.0 0.0811204213
C  C322  1  0.08418000  0.38426000  0.83540000  1.0 0.0811204213
C  C323  1  0.38426000  0.08418000  0.69616000  1.0 0.0811204213
C  C324  1  0.69616000  0.83540000  0.38426000  1.0 0.0811204213
C  C325  1  0.16582000  0.41460000  0.86574000  1.0 0.0811204213
C  C326  1  0.41460000  0.16582000  0.55384000  1.0 0.0811204213
C  C327  1  0.55384000  0.86574000  0.41460000  1.0 0.0811204213
C  C328  1  0.86574000  0.55384000  0.16582000  1.0 0.0811204213
C  C329  1  0.55384000  0.16582000  0.86574000  1.0 0.0811204213
C  C330  1  0.86574000  0.41460000  0.55384000  1.0 0.0811204213
C  C331  1  0.16582000  0.55384000  0.41460000  1.0 0.0811204213
C  C332  1  0.41460000  0.86574000  0.16582000  1.0 0.0811204213
C  C333  1  0.41460000  0.55384000  0.86574000  1.0 0.0811204213
C  C334  1  0.16582000  0.86574000  0.55384000  1.0 0.0811204213
C  C335  1  0.86574000  0.16582000  0.41460000  1.0 0.0811204213
C  C336  1  0.55384000  0.41460000  0.16582000  1.0 0.0811204213
C  C337  1  0.67048000  0.94524000  0.02456000  1.0 -0.1295879601
C  C338  1  0.94524000  0.67048000  0.35972000  1.0 -0.1295879601
C  C339  1  0.02456000  0.35972000  0.67048000  1.0 -0.1295879601
C  C340  1  0.35972000  0.02456000  0.94524000  1.0 -0.1295879601
C  C341  1  0.02456000  0.67048000  0.94524000  1.0 -0.1295879601
C  C342  1  0.35972000  0.94524000  0.67048000  1.0 -0.1295879601
C  C343  1  0.67048000  0.02456000  0.35972000  1.0 -0.1295879601
C  C344  1  0.94524000  0.35972000  0.02456000  1.0 -0.1295879601
C  C345  1  0.94524000  0.02456000  0.67048000  1.0 -0.1295879601
C  C346  1  0.67048000  0.35972000  0.94524000  1.0 -0.1295879601
C  C347  1  0.35972000  0.67048000  0.02456000  1.0 -0.1295879601
C  C348  1  0.02456000  0.94524000  0.35972000  1.0 -0.1295879601
C  C349  1  0.57952000  0.30476000  0.89028000  1.0 -0.1295879601
C  C350  1  0.30476000  0.57952000  0.22544000  1.0 -0.1295879601
C  C351  1  0.22544000  0.89028000  0.30476000  1.0 -0.1295879601
C  C352  1  0.89028000  0.22544000  0.57952000  1.0 -0.1295879601
C  C353  1  0.22544000  0.57952000  0.89028000  1.0 -0.1295879601
C  C354  1  0.89028000  0.30476000  0.22544000  1.0 -0.1295879601
C  C355  1  0.57952000  0.22544000  0.30476000  1.0 -0.1295879601
C  C356  1  0.30476000  0.89028000  0.57952000  1.0 -0.1295879601
C  C357  1  0.30476000  0.22544000  0.89028000  1.0 -0.1295879601
C  C358  1  0.57952000  0.89028000  0.22544000  1.0 -0.1295879601
C  C359  1  0.89028000  0.57952000  0.30476000  1.0 -0.1295879601
C  C360  1  0.22544000  0.30476000  0.57952000  1.0 -0.1295879601
C  C361  1  0.07952000  0.80476000  0.72544000  1.0 -0.1295879601
C  C362  1  0.80476000  0.07952000  0.39028000  1.0 -0.1295879601
C  C363  1  0.72544000  0.39028000  0.07952000  1.0 -0.1295879601
C  C364  1  0.39028000  0.72544000  0.80476000  1.0 -0.1295879601
C  C365  1  0.72544000  0.07952000  0.80476000  1.0 -0.1295879601
C  C366  1  0.39028000  0.80476000  0.07952000  1.0 -0.1295879601
C  C367  1  0.07952000  0.72544000  0.39028000  1.0 -0.1295879601
C  C368  1  0.80476000  0.39028000  0.72544000  1.0 -0.1295879601
C  C369  1  0.80476000  0.72544000  0.07952000  1.0 -0.1295879601
C  C370  1  0.07952000  0.39028000  0.80476000  1.0 -0.1295879601
C  C371  1  0.39028000  0.07952000  0.72544000  1.0 -0.1295879601
C  C372  1  0.72544000  0.80476000  0.39028000  1.0 -0.1295879601
C  C373  1  0.17048000  0.44524000  0.85972000  1.0 -0.1295879601
C  C374  1  0.44524000  0.17048000  0.52456000  1.0 -0.1295879601
C  C375  1  0.52456000  0.85972000  0.44524000  1.0 -0.1295879601
C  C376  1  0.85972000  0.52456000  0.17048000  1.0 -0.1295879601
C  C377  1  0.52456000  0.17048000  0.85972000  1.0 -0.1295879601
C  C378  1  0.85972000  0.44524000  0.52456000  1.0 -0.1295879601
C  C379  1  0.17048000  0.52456000  0.44524000  1.0 -0.1295879601
C  C380  1  0.44524000  0.85972000  0.17048000  1.0 -0.1295879601
C  C381  1  0.44524000  0.52456000  0.85972000  1.0 -0.1295879601
C  C382  1  0.17048000  0.85972000  0.52456000  1.0 -0.1295879601
C  C383  1  0.85972000  0.17048000  0.44524000  1.0 -0.1295879601
C  C384  1  0.52456000  0.44524000  0.17048000  1.0 -0.1295879601
C  C385  1  0.64212000  0.97794000  0.02394000  1.0 -0.0567742855
C  C386  1  0.97794000  0.64212000  0.35600000  1.0 -0.0546532746
C  C387  1  0.02394000  0.35600000  0.64212000  1.0 -0.0567742855
C  C388  1  0.35600000  0.02394000  0.97794000  1.0 -0.0546532746
C  C389  1  0.02394000  0.64212000  0.97794000  1.0 -0.0567742855
C  C390  1  0.35600000  0.97794000  0.64212000  1.0 -0.0567742855
C  C391  1  0.64212000  0.02394000  0.35600000  1.0 -0.0546532746
C  C392  1  0.97794000  0.35600000  0.02394000  1.0 -0.0546532746
C  C393  1  0.97794000  0.02394000  0.64212000  1.0 -0.0546532746
C  C394  1  0.64212000  0.35600000  0.97794000  1.0 -0.0567742855
C  C395  1  0.35600000  0.64212000  0.02394000  1.0 -0.0546532746
C  C396  1  0.02394000  0.97794000  0.35600000  1.0 -0.0546532746
C  C397  1  0.60788000  0.27206000  0.89400000  1.0 -0.0546532746
C  C398  1  0.27206000  0.60788000  0.22606000  1.0 -0.0567742855
C  C399  1  0.22606000  0.89400000  0.27206000  1.0 -0.0546532746
C  C400  1  0.89400000  0.22606000  0.60788000  1.0 -0.0567742855
C  C401  1  0.22606000  0.60788000  0.89400000  1.0 -0.0567742855
C  C402  1  0.89400000  0.27206000  0.22606000  1.0 -0.0567742855
C  C403  1  0.60788000  0.22606000  0.27206000  1.0 -0.0546532746
C  C404  1  0.27206000  0.89400000  0.60788000  1.0 -0.0567742855
C  C405  1  0.27206000  0.22606000  0.89400000  1.0 -0.0546532746
C  C406  1  0.60788000  0.89400000  0.22606000  1.0 -0.0546532746
C  C407  1  0.89400000  0.60788000  0.27206000  1.0 -0.0546532746
C  C408  1  0.22606000  0.27206000  0.60788000  1.0 -0.0546532746
C  C409  1  0.10788000  0.77206000  0.72606000  1.0 -0.0546532746
C  C410  1  0.77206000  0.10788000  0.39400000  1.0 -0.0567742855
C  C411  1  0.72606000  0.39400000  0.10788000  1.0 -0.0546532746
C  C412  1  0.39400000  0.72606000  0.77206000  1.0 -0.0567742855
C  C413  1  0.72606000  0.10788000  0.77206000  1.0 -0.0546532746
C  C414  1  0.39400000  0.77206000  0.10788000  1.0 -0.0546532746
C  C415  1  0.10788000  0.72606000  0.39400000  1.0 -0.0567742855
C  C416  1  0.77206000  0.39400000  0.72606000  1.0 -0.0546532746
C  C417  1  0.77206000  0.72606000  0.10788000  1.0 -0.0567742855
C  C418  1  0.10788000  0.39400000  0.77206000  1.0 -0.0567742855
C  C419  1  0.39400000  0.10788000  0.72606000  1.0 -0.0546532746
C  C420  1  0.72606000  0.77206000  0.39400000  1.0 -0.0546532746
C  C421  1  0.14212000  0.47794000  0.85600000  1.0 -0.0546532746
C  C422  1  0.47794000  0.14212000  0.52394000  1.0 -0.0546532746
C  C423  1  0.52394000  0.85600000  0.47794000  1.0 -0.0567742855
C  C424  1  0.85600000  0.52394000  0.14212000  1.0 -0.0546532746
C  C425  1  0.52394000  0.14212000  0.85600000  1.0 -0.0567742855
C  C426  1  0.85600000  0.47794000  0.52394000  1.0 -0.0567742855
C  C427  1  0.14212000  0.52394000  0.47794000  1.0 -0.0567742855
C  C428  1  0.47794000  0.85600000  0.14212000  1.0 -0.0546532746
C  C429  1  0.47794000  0.52394000  0.85600000  1.0 -0.0546532746
C  C430  1  0.14212000  0.85600000  0.52394000  1.0 -0.0546532746
C  C431  1  0.85600000  0.14212000  0.47794000  1.0 -0.0546532746
C  C432  1  0.52394000  0.47794000  0.14212000  1.0 -0.0546532746
C  C433  1  0.60981000  0.97811000  0.05261000  1.0 -0.0273151112
C  C434  1  0.97811000  0.60981000  0.35947000  1.0 -0.0273151112
C  C435  1  0.05261000  0.35947000  0.60981000  1.0 -0.0273151112
C  C436  1  0.35947000  0.05261000  0.97811000  1.0 -0.0273151112
C  C437  1  0.05261000  0.60981000  0.97811000  1.0 -0.0273151112
C  C438  1  0.35947000  0.97811000  0.60981000  1.0 -0.0273151112
C  C439  1  0.60981000  0.05261000  0.35947000  1.0 -0.0273151112
C  C440  1  0.97811000  0.35947000  0.05261000  1.0 -0.0273151112
C  C441  1  0.97811000  0.05261000  0.60981000  1.0 -0.0273151112
C  C442  1  0.60981000  0.35947000  0.97811000  1.0 -0.0273151112
C  C443  1  0.35947000  0.60981000  0.05261000  1.0 -0.0273151112
C  C444  1  0.05261000  0.97811000  0.35947000  1.0 -0.0273151112
C  C445  1  0.64019000  0.27189000  0.89053000  1.0 -0.0273151112
C  C446  1  0.27189000  0.64019000  0.19739000  1.0 -0.0273151112
C  C447  1  0.19739000  0.89053000  0.27189000  1.0 -0.0273151112
C  C448  1  0.89053000  0.19739000  0.64019000  1.0 -0.0273151112
C  C449  1  0.19739000  0.64019000  0.89053000  1.0 -0.0273151112
C  C450  1  0.89053000  0.27189000  0.19739000  1.0 -0.0273151112
C  C451  1  0.64019000  0.19739000  0.27189000  1.0 -0.0273151112
C  C452  1  0.27189000  0.89053000  0.64019000  1.0 -0.0273151112
C  C453  1  0.27189000  0.19739000  0.89053000  1.0 -0.0273151112
C  C454  1  0.64019000  0.89053000  0.19739000  1.0 -0.0273151112
C  C455  1  0.89053000  0.64019000  0.27189000  1.0 -0.0273151112
C  C456  1  0.19739000  0.27189000  0.64019000  1.0 -0.0273151112
C  C457  1  0.14019000  0.77189000  0.69739000  1.0 -0.0273151112
C  C458  1  0.77189000  0.14019000  0.39053000  1.0 -0.0273151112
C  C459  1  0.69739000  0.39053000  0.14019000  1.0 -0.0273151112
C  C460  1  0.39053000  0.69739000  0.77189000  1.0 -0.0273151112
C  C461  1  0.69739000  0.14019000  0.77189000  1.0 -0.0273151112
C  C462  1  0.39053000  0.77189000  0.14019000  1.0 -0.0273151112
C  C463  1  0.14019000  0.69739000  0.39053000  1.0 -0.0273151112
C  C464  1  0.77189000  0.39053000  0.69739000  1.0 -0.0273151112
C  C465  1  0.77189000  0.69739000  0.14019000  1.0 -0.0273151112
C  C466  1  0.14019000  0.39053000  0.77189000  1.0 -0.0273151112
C  C467  1  0.39053000  0.14019000  0.69739000  1.0 -0.0273151112
C  C468  1  0.69739000  0.77189000  0.39053000  1.0 -0.0273151112
C  C469  1  0.10981000  0.47811000  0.85947000  1.0 -0.0273151112
C  C470  1  0.47811000  0.10981000  0.55261000  1.0 -0.0273151112
C  C471  1  0.55261000  0.85947000  0.47811000  1.0 -0.0273151112
C  C472  1  0.85947000  0.55261000  0.10981000  1.0 -0.0273151112
C  C473  1  0.55261000  0.10981000  0.85947000  1.0 -0.0273151112
C  C474  1  0.85947000  0.47811000  0.55261000  1.0 -0.0273151112
C  C475  1  0.10981000  0.55261000  0.47811000  1.0 -0.0273151112
C  C476  1  0.47811000  0.85947000  0.10981000  1.0 -0.0273151112
C  C477  1  0.47811000  0.55261000  0.85947000  1.0 -0.0273151112
C  C478  1  0.10981000  0.85947000  0.55261000  1.0 -0.0273151112
C  C479  1  0.85947000  0.10981000  0.47811000  1.0 -0.0273151112
C  C480  1  0.55261000  0.47811000  0.10981000  1.0 -0.0273151112
C  C481  1  0.60764000  0.94624000  0.08068000  1.0 0.0544334871
C  C482  1  0.94624000  0.60764000  0.36544000  1.0 0.058435693
C  C483  1  0.08068000  0.36544000  0.60764000  1.0 0.0544334871
C  C484  1  0.36544000  0.08068000  0.94624000  1.0 0.0544334871
C  C485  1  0.08068000  0.60764000  0.94624000  1.0 0.0544334871
C  C486  1  0.36544000  0.94624000  0.60764000  1.0 0.0544334871
C  C487  1  0.60764000  0.08068000  0.36544000  1.0 0.0544334871
C  C488  1  0.94624000  0.36544000  0.08068000  1.0 0.058435693
C  C489  1  0.94624000  0.08068000  0.60764000  1.0 0.058435693
C  C490  1  0.60764000  0.36544000  0.94624000  1.0 0.0544334871
C  C491  1  0.36544000  0.60764000  0.08068000  1.0 0.0544334871
C  C492  1  0.08068000  0.94624000  0.36544000  1.0 0.0544334871
C  C493  1  0.64236000  0.30376000  0.88456000  1.0 0.058435693
C  C494  1  0.30376000  0.64236000  0.16932000  1.0 0.0544334871
C  C495  1  0.16932000  0.88456000  0.30376000  1.0 0.0544334871
C  C496  1  0.88456000  0.16932000  0.64236000  1.0 0.0544334871
C  C497  1  0.16932000  0.64236000  0.88456000  1.0 0.0544334871
C  C498  1  0.88456000  0.30376000  0.16932000  1.0 0.058435693
C  C499  1  0.64236000  0.16932000  0.30376000  1.0 0.058435693
C  C500  1  0.30376000  0.88456000  0.64236000  1.0 0.0544334871
C  C501  1  0.30376000  0.16932000  0.88456000  1.0 0.0544334871
C  C502  1  0.64236000  0.88456000  0.16932000  1.0 0.0544334871
C  C503  1  0.88456000  0.64236000  0.30376000  1.0 0.058435693
C  C504  1  0.16932000  0.30376000  0.64236000  1.0 0.058435693
C  C505  1  0.14236000  0.80376000  0.66932000  1.0 0.0544334871
C  C506  1  0.80376000  0.14236000  0.38456000  1.0 0.0544334871
C  C507  1  0.66932000  0.38456000  0.14236000  1.0 0.058435693
C  C508  1  0.38456000  0.66932000  0.80376000  1.0 0.058435693
C  C509  1  0.66932000  0.14236000  0.80376000  1.0 0.058435693
C  C510  1  0.38456000  0.80376000  0.14236000  1.0 0.0544334871
C  C511  1  0.14236000  0.66932000  0.38456000  1.0 0.0544334871
C  C512  1  0.80376000  0.38456000  0.66932000  1.0 0.058435693
C  C513  1  0.80376000  0.66932000  0.14236000  1.0 0.0544334871
C  C514  1  0.14236000  0.38456000  0.80376000  1.0 0.0544334871
C  C515  1  0.38456000  0.14236000  0.66932000  1.0 0.058435693
C  C516  1  0.66932000  0.80376000  0.38456000  1.0 0.0544334871
C  C517  1  0.10764000  0.44624000  0.86544000  1.0 0.058435693
C  C518  1  0.44624000  0.10764000  0.58068000  1.0 0.0544334871
C  C519  1  0.58068000  0.86544000  0.44624000  1.0 0.0544334871
C  C520  1  0.86544000  0.58068000  0.10764000  1.0 0.058435693
C  C521  1  0.58068000  0.10764000  0.86544000  1.0 0.0544334871
C  C522  1  0.86544000  0.44624000  0.58068000  1.0 0.058435693
C  C523  1  0.10764000  0.58068000  0.44624000  1.0 0.0544334871
C  C524  1  0.44624000  0.86544000  0.10764000  1.0 0.058435693
C  C525  1  0.44624000  0.58068000  0.86544000  1.0 0.0544334871
C  C526  1  0.10764000  0.86544000  0.58068000  1.0 0.0544334871
C  C527  1  0.86544000  0.10764000  0.44624000  1.0 0.058435693
C  C528  1  0.58068000  0.44624000  0.10764000  1.0 0.058435693
C  C529  1  0.57836000  0.01174000  0.05322000  1.0 0.3782295377
C  C530  1  0.01174000  0.57836000  0.35668000  1.0 0.3782295377
C  C531  1  0.05322000  0.35668000  0.57836000  1.0 0.3782295377
C  C532  1  0.35668000  0.05322000  0.01174000  1.0 0.3782295377
C  C533  1  0.05322000  0.57836000  0.01174000  1.0 0.3782295377
C  C534  1  0.35668000  0.01174000  0.57836000  1.0 0.3782295377
C  C535  1  0.57836000  0.05322000  0.35668000  1.0 0.3782295377
C  C536  1  0.01174000  0.35668000  0.05322000  1.0 0.3782295377
C  C537  1  0.01174000  0.05322000  0.57836000  1.0 0.3782295377
C  C538  1  0.57836000  0.35668000  0.01174000  1.0 0.3782295377
C  C539  1  0.35668000  0.57836000  0.05322000  1.0 0.3782295377
C  C540  1  0.05322000  0.01174000  0.35668000  1.0 0.3782295377
C  C541  1  0.67164000  0.23826000  0.89332000  1.0 0.3782295377
C  C542  1  0.23826000  0.67164000  0.19678000  1.0 0.3782295377
C  C543  1  0.19678000  0.89332000  0.23826000  1.0 0.3782295377
C  C544  1  0.89332000  0.19678000  0.67164000  1.0 0.3782295377
C  C545  1  0.19678000  0.67164000  0.89332000  1.0 0.3782295377
C  C546  1  0.89332000  0.23826000  0.19678000  1.0 0.3782295377
C  C547  1  0.67164000  0.19678000  0.23826000  1.0 0.3782295377
C  C548  1  0.23826000  0.89332000  0.67164000  1.0 0.3782295377
C  C549  1  0.23826000  0.19678000  0.89332000  1.0 0.3782295377
C  C550  1  0.67164000  0.89332000  0.19678000  1.0 0.3782295377
C  C551  1  0.89332000  0.67164000  0.23826000  1.0 0.3782295377
C  C552  1  0.19678000  0.23826000  0.67164000  1.0 0.3782295377
C  C553  1  0.17164000  0.73826000  0.69678000  1.0 0.3782295377
C  C554  1  0.73826000  0.17164000  0.39332000  1.0 0.3782295377
C  C555  1  0.69678000  0.39332000  0.17164000  1.0 0.3782295377
C  C556  1  0.39332000  0.69678000  0.73826000  1.0 0.3782295377
C  C557  1  0.69678000  0.17164000  0.73826000  1.0 0.3782295377
C  C558  1  0.39332000  0.73826000  0.17164000  1.0 0.3782295377
C  C559  1  0.17164000  0.69678000  0.39332000  1.0 0.3782295377
C  C560  1  0.73826000  0.39332000  0.69678000  1.0 0.3782295377
C  C561  1  0.73826000  0.69678000  0.17164000  1.0 0.3782295377
C  C562  1  0.17164000  0.39332000  0.73826000  1.0 0.3782295377
C  C563  1  0.39332000  0.17164000  0.69678000  1.0 0.3782295377
C  C564  1  0.69678000  0.73826000  0.39332000  1.0 0.3782295377
C  C565  1  0.07836000  0.51174000  0.85668000  1.0 0.3782295377
C  C566  1  0.51174000  0.07836000  0.55322000  1.0 0.3782295377
C  C567  1  0.55322000  0.85668000  0.51174000  1.0 0.3782295377
C  C568  1  0.85668000  0.55322000  0.07836000  1.0 0.3782295377
C  C569  1  0.55322000  0.07836000  0.85668000  1.0 0.3782295377
C  C570  1  0.85668000  0.51174000  0.55322000  1.0 0.3782295377
C  C571  1  0.07836000  0.55322000  0.51174000  1.0 0.3782295377
C  C572  1  0.51174000  0.85668000  0.07836000  1.0 0.3782295377
C  C573  1  0.51174000  0.55322000  0.85668000  1.0 0.3782295377
C  C574  1  0.07836000  0.85668000  0.55322000  1.0 0.3782295377
C  C575  1  0.85668000  0.07836000  0.51174000  1.0 0.3782295377
C  C576  1  0.55322000  0.51174000  0.07836000  1.0 0.3782295377
C  C577  1  0.55344000  0.07186000  0.02896000  1.0 0.373317352
C  C578  1  0.07186000  0.55344000  0.34574000  1.0 0.373317352
C  C579  1  0.02896000  0.34574000  0.55344000  1.0 0.373317352
C  C580  1  0.34574000  0.02896000  0.07186000  1.0 0.373317352
C  C581  1  0.02896000  0.55344000  0.07186000  1.0 0.373317352
C  C582  1  0.34574000  0.07186000  0.55344000  1.0 0.373317352
C  C583  1  0.55344000  0.02896000  0.34574000  1.0 0.373317352
C  C584  1  0.07186000  0.34574000  0.02896000  1.0 0.373317352
C  C585  1  0.07186000  0.02896000  0.55344000  1.0 0.373317352
C  C586  1  0.55344000  0.34574000  0.07186000  1.0 0.373317352
C  C587  1  0.34574000  0.55344000  0.02896000  1.0 0.373317352
C  C588  1  0.02896000  0.07186000  0.34574000  1.0 0.373317352
C  C589  1  0.69656000  0.17814000  0.90426000  1.0 0.373317352
C  C590  1  0.17814000  0.69656000  0.22104000  1.0 0.373317352
C  C591  1  0.22104000  0.90426000  0.17814000  1.0 0.373317352
C  C592  1  0.90426000  0.22104000  0.69656000  1.0 0.373317352
C  C593  1  0.22104000  0.69656000  0.90426000  1.0 0.373317352
C  C594  1  0.90426000  0.17814000  0.22104000  1.0 0.373317352
C  C595  1  0.69656000  0.22104000  0.17814000  1.0 0.373317352
C  C596  1  0.17814000  0.90426000  0.69656000  1.0 0.373317352
C  C597  1  0.17814000  0.22104000  0.90426000  1.0 0.373317352
C  C598  1  0.69656000  0.90426000  0.22104000  1.0 0.373317352
C  C599  1  0.90426000  0.69656000  0.17814000  1.0 0.373317352
C  C600  1  0.22104000  0.17814000  0.69656000  1.0 0.373317352
C  C601  1  0.19656000  0.67814000  0.72104000  1.0 0.373317352
C  C602  1  0.67814000  0.19656000  0.40426000  1.0 0.373317352
C  C603  1  0.72104000  0.40426000  0.19656000  1.0 0.373317352
C  C604  1  0.40426000  0.72104000  0.67814000  1.0 0.373317352
C  C605  1  0.72104000  0.19656000  0.67814000  1.0 0.373317352
C  C606  1  0.40426000  0.67814000  0.19656000  1.0 0.373317352
C  C607  1  0.19656000  0.72104000  0.40426000  1.0 0.373317352
C  C608  1  0.67814000  0.40426000  0.72104000  1.0 0.373317352
C  C609  1  0.67814000  0.72104000  0.19656000  1.0 0.373317352
C  C610  1  0.19656000  0.40426000  0.67814000  1.0 0.373317352
C  C611  1  0.40426000  0.19656000  0.72104000  1.0 0.373317352
C  C612  1  0.72104000  0.67814000  0.40426000  1.0 0.373317352
C  C613  1  0.05344000  0.57186000  0.84574000  1.0 0.373317352
C  C614  1  0.57186000  0.05344000  0.52896000  1.0 0.373317352
C  C615  1  0.52896000  0.84574000  0.57186000  1.0 0.373317352
C  C616  1  0.84574000  0.52896000  0.05344000  1.0 0.373317352
C  C617  1  0.52896000  0.05344000  0.84574000  1.0 0.373317352
C  C618  1  0.84574000  0.57186000  0.52896000  1.0 0.373317352
C  C619  1  0.05344000  0.52896000  0.57186000  1.0 0.373317352
C  C620  1  0.57186000  0.84574000  0.05344000  1.0 0.373317352
C  C621  1  0.57186000  0.52896000  0.84574000  1.0 0.373317352
C  C622  1  0.05344000  0.84574000  0.52896000  1.0 0.373317352
C  C623  1  0.84574000  0.05344000  0.57186000  1.0 0.373317352
C  C624  1  0.52896000  0.57186000  0.05344000  1.0 0.373317352
C  C625  1  0.52009000  0.04035000  0.07921000  1.0 0.3595160383
C  C626  1  0.04035000  0.52009000  0.36035000  1.0 0.3595160383
C  C627  1  0.07921000  0.36035000  0.52009000  1.0 0.3595160383
C  C628  1  0.36035000  0.07921000  0.04035000  1.0 0.3595160383
C  C629  1  0.07921000  0.52009000  0.04035000  1.0 0.3595160383
C  C630  1  0.36035000  0.04035000  0.52009000  1.0 0.3595160383
C  C631  1  0.52009000  0.07921000  0.36035000  1.0 0.3595160383
C  C632  1  0.04035000  0.36035000  0.07921000  1.0 0.3595160383
C  C633  1  0.04035000  0.07921000  0.52009000  1.0 0.3595160383
C  C634  1  0.52009000  0.36035000  0.04035000  1.0 0.3595160383
C  C635  1  0.36035000  0.52009000  0.07921000  1.0 0.3595160383
C  C636  1  0.07921000  0.04035000  0.36035000  1.0 0.3595160383
C  C637  1  0.72991000  0.20965000  0.88965000  1.0 0.3595160383
C  C638  1  0.20965000  0.72991000  0.17079000  1.0 0.3595160383
C  C639  1  0.17079000  0.88965000  0.20965000  1.0 0.3595160383
C  C640  1  0.88965000  0.17079000  0.72991000  1.0 0.3595160383
C  C641  1  0.17079000  0.72991000  0.88965000  1.0 0.3595160383
C  C642  1  0.88965000  0.20965000  0.17079000  1.0 0.3595160383
C  C643  1  0.72991000  0.17079000  0.20965000  1.0 0.3595160383
C  C644  1  0.20965000  0.88965000  0.72991000  1.0 0.3595160383
C  C645  1  0.20965000  0.17079000  0.88965000  1.0 0.3595160383
C  C646  1  0.72991000  0.88965000  0.17079000  1.0 0.3595160383
C  C647  1  0.88965000  0.72991000  0.20965000  1.0 0.3595160383
C  C648  1  0.17079000  0.20965000  0.72991000  1.0 0.3595160383
C  C649  1  0.22991000  0.70965000  0.67079000  1.0 0.3595160383
C  C650  1  0.70965000  0.22991000  0.38965000  1.0 0.3595160383
C  C651  1  0.67079000  0.38965000  0.22991000  1.0 0.3595160383
C  C652  1  0.38965000  0.67079000  0.70965000  1.0 0.3595160383
C  C653  1  0.67079000  0.22991000  0.70965000  1.0 0.3595160383
C  C654  1  0.38965000  0.70965000  0.22991000  1.0 0.3595160383
C  C655  1  0.22991000  0.67079000  0.38965000  1.0 0.3595160383
C  C656  1  0.70965000  0.38965000  0.67079000  1.0 0.3595160383
C  C657  1  0.70965000  0.67079000  0.22991000  1.0 0.3595160383
C  C658  1  0.22991000  0.38965000  0.70965000  1.0 0.3595160383
C  C659  1  0.38965000  0.22991000  0.67079000  1.0 0.3595160383
C  C660  1  0.67079000  0.70965000  0.38965000  1.0 0.3595160383
C  C661  1  0.02009000  0.54035000  0.86035000  1.0 0.3595160383
C  C662  1  0.54035000  0.02009000  0.57921000  1.0 0.3595160383
C  C663  1  0.57921000  0.86035000  0.54035000  1.0 0.3595160383
C  C664  1  0.86035000  0.57921000  0.02009000  1.0 0.3595160383
C  C665  1  0.57921000  0.02009000  0.86035000  1.0 0.3595160383
C  C666  1  0.86035000  0.54035000  0.57921000  1.0 0.3595160383
C  C667  1  0.02009000  0.57921000  0.54035000  1.0 0.3595160383
C  C668  1  0.54035000  0.86035000  0.02009000  1.0 0.3595160383
C  C669  1  0.54035000  0.57921000  0.86035000  1.0 0.3595160383
C  C670  1  0.02009000  0.86035000  0.57921000  1.0 0.3595160383
C  C671  1  0.86035000  0.02009000  0.54035000  1.0 0.3595160383
C  C672  1  0.57921000  0.54035000  0.02009000  1.0 0.3595160383
C  C673  1  0.48426000  0.03906000  0.10638000  1.0 -0.0221395981
C  C674  1  0.03906000  0.48426000  0.37030000  1.0 -0.0221395981
C  C675  1  0.10638000  0.37030000  0.48426000  1.0 -0.0221395981
C  C676  1  0.37030000  0.10638000  0.03906000  1.0 -0.0221395981
C  C677  1  0.10638000  0.48426000  0.03906000  1.0 -0.0221395981
C  C678  1  0.37030000  0.03906000  0.48426000  1.0 -0.0221395981
C  C679  1  0.48426000  0.10638000  0.37030000  1.0 -0.0221395981
C  C680  1  0.03906000  0.37030000  0.10638000  1.0 -0.0221395981
C  C681  1  0.03906000  0.10638000  0.48426000  1.0 -0.0221395981
C  C682  1  0.48426000  0.37030000  0.03906000  1.0 -0.0221395981
C  C683  1  0.37030000  0.48426000  0.10638000  1.0 -0.0221395981
C  C684  1  0.10638000  0.03906000  0.37030000  1.0 -0.0221395981
C  C685  1  0.76574000  0.21094000  0.87970000  1.0 -0.0221395981
C  C686  1  0.21094000  0.76574000  0.14362000  1.0 -0.0221395981
C  C687  1  0.14362000  0.87970000  0.21094000  1.0 -0.0221395981
C  C688  1  0.87970000  0.14362000  0.76574000  1.0 -0.0221395981
C  C689  1  0.14362000  0.76574000  0.87970000  1.0 -0.0221395981
C  C690  1  0.87970000  0.21094000  0.14362000  1.0 -0.0221395981
C  C691  1  0.76574000  0.14362000  0.21094000  1.0 -0.0221395981
C  C692  1  0.21094000  0.87970000  0.76574000  1.0 -0.0221395981
C  C693  1  0.21094000  0.14362000  0.87970000  1.0 -0.0221395981
C  C694  1  0.76574000  0.87970000  0.14362000  1.0 -0.0221395981
C  C695  1  0.87970000  0.76574000  0.21094000  1.0 -0.0221395981
C  C696  1  0.14362000  0.21094000  0.76574000  1.0 -0.0221395981
C  C697  1  0.26574000  0.71094000  0.64362000  1.0 -0.0221395981
C  C698  1  0.71094000  0.26574000  0.37970000  1.0 -0.0221395981
C  C699  1  0.64362000  0.37970000  0.26574000  1.0 -0.0221395981
C  C700  1  0.37970000  0.64362000  0.71094000  1.0 -0.0221395981
C  C701  1  0.64362000  0.26574000  0.71094000  1.0 -0.0221395981
C  C702  1  0.37970000  0.71094000  0.26574000  1.0 -0.0221395981
C  C703  1  0.26574000  0.64362000  0.37970000  1.0 -0.0221395981
C  C704  1  0.71094000  0.37970000  0.64362000  1.0 -0.0221395981
C  C705  1  0.71094000  0.64362000  0.26574000  1.0 -0.0221395981
C  C706  1  0.26574000  0.37970000  0.71094000  1.0 -0.0221395981
C  C707  1  0.37970000  0.26574000  0.64362000  1.0 -0.0221395981
C  C708  1  0.64362000  0.71094000  0.37970000  1.0 -0.0221395981
C  C709  1  0.98426000  0.53906000  0.87030000  1.0 -0.0221395981
C  C710  1  0.53906000  0.98426000  0.60638000  1.0 -0.0221395981
C  C711  1  0.60638000  0.87030000  0.53906000  1.0 -0.0221395981
C  C712  1  0.87030000  0.60638000  0.98426000  1.0 -0.0221395981
C  C713  1  0.60638000  0.98426000  0.87030000  1.0 -0.0221395981
C  C714  1  0.87030000  0.53906000  0.60638000  1.0 -0.0221395981
C  C715  1  0.98426000  0.60638000  0.53906000  1.0 -0.0221395981
C  C716  1  0.53906000  0.87030000  0.98426000  1.0 -0.0221395981
C  C717  1  0.53906000  0.60638000  0.87030000  1.0 -0.0221395981
C  C718  1  0.98426000  0.87030000  0.60638000  1.0 -0.0221395981
C  C719  1  0.87030000  0.98426000  0.53906000  1.0 -0.0221395981
C  C720  1  0.60638000  0.53906000  0.98426000  1.0 -0.0221395981
C  C721  1  0.45402000  0.06990000  0.10404000  1.0 0.058435693
C  C722  1  0.06990000  0.45402000  0.37204000  1.0 0.058435693
C  C723  1  0.10404000  0.37204000  0.45402000  1.0 0.058435693
C  C724  1  0.37204000  0.10404000  0.06990000  1.0 0.058435693
C  C725  1  0.10404000  0.45402000  0.06990000  1.0 0.058435693
C  C726  1  0.37204000  0.06990000  0.45402000  1.0 0.058435693
C  C727  1  0.45402000  0.10404000  0.37204000  1.0 0.058435693
C  C728  1  0.06990000  0.37204000  0.10404000  1.0 0.058435693
C  C729  1  0.06990000  0.10404000  0.45402000  1.0 0.058435693
C  C730  1  0.45402000  0.37204000  0.06990000  1.0 0.058435693
C  C731  1  0.37204000  0.45402000  0.10404000  1.0 0.058435693
C  C732  1  0.10404000  0.06990000  0.37204000  1.0 0.058435693
C  C733  1  0.79598000  0.18010000  0.87796000  1.0 0.058435693
C  C734  1  0.18010000  0.79598000  0.14596000  1.0 0.0544334871
C  C735  1  0.14596000  0.87796000  0.18010000  1.0 0.058435693
C  C736  1  0.87796000  0.14596000  0.79598000  1.0 0.058435693
C  C737  1  0.14596000  0.79598000  0.87796000  1.0 0.058435693
C  C738  1  0.87796000  0.18010000  0.14596000  1.0 0.058435693
C  C739  1  0.79598000  0.14596000  0.18010000  1.0 0.058435693
C  C740  1  0.18010000  0.87796000  0.79598000  1.0 0.058435693
C  C741  1  0.18010000  0.14596000  0.87796000  1.0 0.058435693
C  C742  1  0.79598000  0.87796000  0.14596000  1.0 0.058435693
C  C743  1  0.87796000  0.79598000  0.18010000  1.0 0.058435693
C  C744  1  0.14596000  0.18010000  0.79598000  1.0 0.058435693
C  C745  1  0.29598000  0.68010000  0.64596000  1.0 0.058435693
C  C746  1  0.68010000  0.29598000  0.37796000  1.0 0.058435693
C  C747  1  0.64596000  0.37796000  0.29598000  1.0 0.058435693
C  C748  1  0.37796000  0.64596000  0.68010000  1.0 0.058435693
C  C749  1  0.64596000  0.29598000  0.68010000  1.0 0.058435693
C  C750  1  0.37796000  0.68010000  0.29598000  1.0 0.058435693
C  C751  1  0.29598000  0.64596000  0.37796000  1.0 0.058435693
C  C752  1  0.68010000  0.37796000  0.64596000  1.0 0.058435693
C  C753  1  0.68010000  0.64596000  0.29598000  1.0 0.058435693
C  C754  1  0.29598000  0.37796000  0.68010000  1.0 0.058435693
C  C755  1  0.37796000  0.29598000  0.64596000  1.0 0.058435693
C  C756  1  0.64596000  0.68010000  0.37796000  1.0 0.058435693
C  C757  1  0.95402000  0.56990000  0.87204000  1.0 0.058435693
C  C758  1  0.56990000  0.95402000  0.60404000  1.0 0.058435693
C  C759  1  0.60404000  0.87204000  0.56990000  1.0 0.058435693
C  C760  1  0.87204000  0.60404000  0.95402000  1.0 0.058435693
C  C761  1  0.60404000  0.95402000  0.87204000  1.0 0.058435693
C  C762  1  0.87204000  0.56990000  0.60404000  1.0 0.058435693
C  C763  1  0.95402000  0.60404000  0.56990000  1.0 0.058435693
C  C764  1  0.56990000  0.87204000  0.95402000  1.0 0.058435693
C  C765  1  0.56990000  0.60404000  0.87204000  1.0 0.058435693
C  C766  1  0.95402000  0.87204000  0.60404000  1.0 0.058435693
C  C767  1  0.87204000  0.95402000  0.56990000  1.0 0.058435693
C  C768  1  0.60404000  0.56990000  0.95402000  1.0 0.058435693
C  C769  1  0.41670000  0.04014000  0.15430000  1.0 0.0676315755
C  C770  1  0.04014000  0.41670000  0.38886000  1.0 0.058435693
C  C771  1  0.15430000  0.38886000  0.41670000  1.0 0.0676315755
C  C772  1  0.38886000  0.15430000  0.04014000  1.0 0.0676315755
C  C773  1  0.15430000  0.41670000  0.04014000  1.0 0.058435693
C  C774  1  0.38886000  0.04014000  0.41670000  1.0 0.0676315755
C  C775  1  0.41670000  0.15430000  0.38886000  1.0 0.0676315755
C  C776  1  0.04014000  0.38886000  0.15430000  1.0 0.0676315755
C  C777  1  0.04014000  0.15430000  0.41670000  1.0 0.0676315755
C  C778  1  0.41670000  0.38886000  0.04014000  1.0 0.0676315755
C  C779  1  0.38886000  0.41670000  0.15430000  1.0 0.0676315755
C  C780  1  0.15430000  0.04014000  0.38886000  1.0 0.0676315755
C  C781  1  0.83330000  0.20986000  0.86114000  1.0 0.0676315755
C  C782  1  0.20986000  0.83330000  0.09570000  1.0 0.058435693
C  C783  1  0.09570000  0.86114000  0.20986000  1.0 0.058435693
C  C784  1  0.86114000  0.09570000  0.83330000  1.0 0.0676315755
C  C785  1  0.09570000  0.83330000  0.86114000  1.0 0.058435693
C  C786  1  0.86114000  0.20986000  0.09570000  1.0 0.0676315755
C  C787  1  0.83330000  0.09570000  0.20986000  1.0 0.0676315755
C  C788  1  0.20986000  0.86114000  0.83330000  1.0 0.058435693
C  C789  1  0.20986000  0.09570000  0.86114000  1.0 0.0676315755
C  C790  1  0.83330000  0.86114000  0.09570000  1.0 0.0676315755
C  C791  1  0.86114000  0.83330000  0.20986000  1.0 0.058435693
C  C792  1  0.09570000  0.20986000  0.83330000  1.0 0.0676315755
C  C793  1  0.33333333  0.70986000  0.59570000  1.0 0.0676315755
C  C794  1  0.70986000  0.33333333  0.36114000  1.0 0.0676315755
C  C795  1  0.59570000  0.36114000  0.33333333  1.0 0.0676315755
C  C796  1  0.36114000  0.59570000  0.70986000  1.0 0.0676315755
C  C797  1  0.59570000  0.33333333  0.70986000  1.0 0.0676315755
C  C798  1  0.36114000  0.70986000  0.33333333  1.0 0.058435693
C  C799  1  0.33333333  0.59570000  0.36114000  1.0 0.0676315755
C  C800  1  0.70986000  0.36114000  0.59570000  1.0 0.0676315755
C  C801  1  0.70986000  0.59570000  0.33333333  1.0 0.0676315755
C  C802  1  0.33333333  0.36114000  0.70986000  1.0 0.0676315755
C  C803  1  0.36114000  0.33333333  0.59570000  1.0 0.0676315755
C  C804  1  0.59570000  0.70986000  0.36114000  1.0 0.0676315755
C  C805  1  0.91670000  0.54014000  0.88886000  1.0 0.0676315755
C  C806  1  0.54014000  0.91670000  0.65430000  1.0 0.0676315755
C  C807  1  0.65430000  0.88886000  0.54014000  1.0 0.058435693
C  C808  1  0.88886000  0.65430000  0.91670000  1.0 0.0676315755
C  C809  1  0.65430000  0.91670000  0.88886000  1.0 0.0676315755
C  C810  1  0.88886000  0.54014000  0.65430000  1.0 0.0676315755
C  C811  1  0.91670000  0.65430000  0.54014000  1.0 0.058435693
C  C812  1  0.54014000  0.88886000  0.91670000  1.0 0.0676315755
C  C813  1  0.54014000  0.65430000  0.88886000  1.0 0.0676315755
C  C814  1  0.91670000  0.88886000  0.65430000  1.0 0.0676315755
C  C815  1  0.88886000  0.91670000  0.54014000  1.0 0.0676315755
C  C816  1  0.65430000  0.54014000  0.91670000  1.0 0.0676315755
C  C817  1  0.44493000  0.00865000  0.15889000  1.0 -0.1295879601
C  C818  1  0.00865000  0.44493000  0.38753000  1.0 -0.1295879601
C  C819  1  0.15889000  0.38753000  0.44493000  1.0 -0.1295879601
C  C820  1  0.38753000  0.15889000  0.00865000  1.0 -0.1295879601
C  C821  1  0.15889000  0.44493000  0.00865000  1.0 -0.1295879601
C  C822  1  0.38753000  0.00865000  0.44493000  1.0 -0.1295879601
C  C823  1  0.44493000  0.15889000  0.38753000  1.0 -0.1295879601
C  C824  1  0.00865000  0.38753000  0.15889000  1.0 -0.1295879601
C  C825  1  0.00865000  0.15889000  0.44493000  1.0 -0.1295879601
C  C826  1  0.44493000  0.38753000  0.00865000  1.0 -0.1295879601
C  C827  1  0.38753000  0.44493000  0.15889000  1.0 -0.1295879601
C  C828  1  0.15889000  0.00865000  0.38753000  1.0 -0.1295879601
C  C829  1  0.80507000  0.24135000  0.86247000  1.0 -0.1295879601
C  C830  1  0.24135000  0.80507000  0.09111000  1.0 -0.1295879601
C  C831  1  0.09111000  0.86247000  0.24135000  1.0 -0.1295879601
C  C832  1  0.86247000  0.09111000  0.80507000  1.0 -0.1295879601
C  C833  1  0.09111000  0.80507000  0.86247000  1.0 -0.1295879601
C  C834  1  0.86247000  0.24135000  0.09111000  1.0 -0.1295879601
C  C835  1  0.80507000  0.09111000  0.24135000  1.0 -0.1295879601
C  C836  1  0.24135000  0.86247000  0.80507000  1.0 -0.1295879601
C  C837  1  0.24135000  0.09111000  0.86247000  1.0 -0.1295879601
C  C838  1  0.80507000  0.86247000  0.09111000  1.0 -0.1295879601
C  C839  1  0.86247000  0.80507000  0.24135000  1.0 -0.1295879601
C  C840  1  0.09111000  0.24135000  0.80507000  1.0 -0.1295879601
C  C841  1  0.30507000  0.74135000  0.59111000  1.0 -0.1295879601
C  C842  1  0.74135000  0.30507000  0.36247000  1.0 -0.1295879601
C  C843  1  0.59111000  0.36247000  0.30507000  1.0 -0.1295879601
C  C844  1  0.36247000  0.59111000  0.74135000  1.0 -0.1295879601
C  C845  1  0.59111000  0.30507000  0.74135000  1.0 -0.1295879601
C  C846  1  0.36247000  0.74135000  0.30507000  1.0 -0.1295879601
C  C847  1  0.30507000  0.59111000  0.36247000  1.0 -0.1295879601
C  C848  1  0.74135000  0.36247000  0.59111000  1.0 -0.1295879601
C  C849  1  0.74135000  0.59111000  0.30507000  1.0 -0.1295879601
C  C850  1  0.30507000  0.36247000  0.74135000  1.0 -0.1295879601
C  C851  1  0.36247000  0.30507000  0.59111000  1.0 -0.1295879601
C  C852  1  0.59111000  0.74135000  0.36247000  1.0 -0.1295879601
C  C853  1  0.94493000  0.50865000  0.88753000  1.0 -0.1295879601
C  C854  1  0.50865000  0.94493000  0.65889000  1.0 -0.1295879601
C  C855  1  0.65889000  0.88753000  0.50865000  1.0 -0.1295879601
C  C856  1  0.88753000  0.65889000  0.94493000  1.0 -0.1295879601
C  C857  1  0.65889000  0.94493000  0.88753000  1.0 -0.1295879601
C  C858  1  0.88753000  0.50865000  0.65889000  1.0 -0.1295879601
C  C859  1  0.94493000  0.65889000  0.50865000  1.0 -0.1295879601
C  C860  1  0.50865000  0.88753000  0.94493000  1.0 -0.1295879601
C  C861  1  0.50865000  0.65889000  0.88753000  1.0 -0.1295879601
C  C862  1  0.94493000  0.88753000  0.65889000  1.0 -0.1295879601
C  C863  1  0.88753000  0.94493000  0.50865000  1.0 -0.1295879601
C  C864  1  0.65889000  0.50865000  0.94493000  1.0 -0.1295879601
C  C865  1  0.47966000  0.00676000  0.13446000  1.0 -0.0567742855
C  C866  1  0.00676000  0.47966000  0.37912000  1.0 -0.0567742855
C  C867  1  0.13446000  0.37912000  0.47966000  1.0 -0.0567742855
C  C868  1  0.37912000  0.13446000  0.00676000  1.0 -0.0567742855
C  C869  1  0.13446000  0.47966000  0.00676000  1.0 -0.0567742855
C  C870  1  0.37912000  0.00676000  0.47966000  1.0 -0.0567742855
C  C871  1  0.47966000  0.13446000  0.37912000  1.0 -0.0567742855
C  C872  1  0.00676000  0.37912000  0.13446000  1.0 -0.0567742855
C  C873  1  0.00676000  0.13446000  0.47966000  1.0 -0.0567742855
C  C874  1  0.47966000  0.37912000  0.00676000  1.0 -0.0567742855
C  C875  1  0.37912000  0.47966000  0.13446000  1.0 -0.0567742855
C  C876  1  0.13446000  0.00676000  0.37912000  1.0 -0.0567742855
C  C877  1  0.77034000  0.24324000  0.87088000  1.0 -0.0567742855
C  C878  1  0.24324000  0.77034000  0.11554000  1.0 -0.0567742855
C  C879  1  0.11554000  0.87088000  0.24324000  1.0 -0.0567742855
C  C880  1  0.87088000  0.11554000  0.77034000  1.0 -0.0567742855
C  C881  1  0.11554000  0.77034000  0.87088000  1.0 -0.0567742855
C  C882  1  0.87088000  0.24324000  0.11554000  1.0 -0.0567742855
C  C883  1  0.77034000  0.11554000  0.24324000  1.0 -0.0567742855
C  C884  1  0.24324000  0.87088000  0.77034000  1.0 -0.0567742855
C  C885  1  0.24324000  0.11554000  0.87088000  1.0 -0.0567742855
C  C886  1  0.77034000  0.87088000  0.11554000  1.0 -0.0567742855
C  C887  1  0.87088000  0.77034000  0.24324000  1.0 -0.0567742855
C  C888  1  0.11554000  0.24324000  0.77034000  1.0 -0.0567742855
C  C889  1  0.27034000  0.74324000  0.61554000  1.0 -0.0567742855
C  C890  1  0.74324000  0.27034000  0.37088000  1.0 -0.0567742855
C  C891  1  0.61554000  0.37088000  0.27034000  1.0 -0.0567742855
C  C892  1  0.37088000  0.61554000  0.74324000  1.0 -0.0567742855
C  C893  1  0.61554000  0.27034000  0.74324000  1.0 -0.0567742855
C  C894  1  0.37088000  0.74324000  0.27034000  1.0 -0.0567742855
C  C895  1  0.27034000  0.61554000  0.37088000  1.0 -0.0567742855
C  C896  1  0.74324000  0.37088000  0.61554000  1.0 -0.0567742855
C  C897  1  0.74324000  0.61554000  0.27034000  1.0 -0.0567742855
C  C898  1  0.27034000  0.37088000  0.74324000  1.0 -0.0567742855
C  C899  1  0.37088000  0.27034000  0.61554000  1.0 -0.0567742855
C  C900  1  0.61554000  0.74324000  0.37088000  1.0 -0.0567742855
C  C901  1  0.97966000  0.50676000  0.87912000  1.0 -0.0567742855
C  C902  1  0.50676000  0.97966000  0.63446000  1.0 -0.0567742855
C  C903  1  0.63446000  0.87912000  0.50676000  1.0 -0.0567742855
C  C904  1  0.87912000  0.63446000  0.97966000  1.0 -0.0567742855
C  C905  1  0.63446000  0.97966000  0.87912000  1.0 -0.0567742855
C  C906  1  0.87912000  0.50676000  0.63446000  1.0 -0.0567742855
C  C907  1  0.97966000  0.63446000  0.50676000  1.0 -0.0567742855
C  C908  1  0.50676000  0.87912000  0.97966000  1.0 -0.0567742855
C  C909  1  0.50676000  0.63446000  0.87912000  1.0 -0.0567742855
C  C910  1  0.97966000  0.87912000  0.63446000  1.0 -0.0567742855
C  C911  1  0.87912000  0.97966000  0.50676000  1.0 -0.0567742855
C  C912  1  0.63446000  0.50676000  0.97966000  1.0 -0.0567742855
C  C913  1  0.42784000  0.17178000  0.07958000  1.0 0.2425303668
C  C914  1  0.17178000  0.42784000  0.32080000  1.0 0.2425303668
C  C915  1  0.07958000  0.32080000  0.42784000  1.0 0.2425303668
C  C916  1  0.32080000  0.07958000  0.17178000  1.0 0.2425303668
C  C917  1  0.07958000  0.42784000  0.17178000  1.0 0.2425303668
C  C918  1  0.32080000  0.17178000  0.42784000  1.0 0.2425303668
C  C919  1  0.42784000  0.07958000  0.32080000  1.0 0.2425303668
C  C920  1  0.17178000  0.32080000  0.07958000  1.0 0.2425303668
C  C921  1  0.17178000  0.07958000  0.42784000  1.0 0.2425303668
C  C922  1  0.42784000  0.32080000  0.17178000  1.0 0.2425303668
C  C923  1  0.32080000  0.42784000  0.07958000  1.0 0.2425303668
C  C924  1  0.07958000  0.17178000  0.32080000  1.0 0.2425303668
C  C925  1  0.82216000  0.07822000  0.92920000  1.0 0.2425303668
C  C926  1  0.07822000  0.82216000  0.17042000  1.0 0.2425303668
C  C927  1  0.17042000  0.92920000  0.07822000  1.0 0.2425303668
C  C928  1  0.92920000  0.17042000  0.82216000  1.0 0.2425303668
C  C929  1  0.17042000  0.82216000  0.92920000  1.0 0.2425303668
C  C930  1  0.92920000  0.07822000  0.17042000  1.0 0.2425303668
C  C931  1  0.82216000  0.17042000  0.07822000  1.0 0.2425303668
C  C932  1  0.07822000  0.92920000  0.82216000  1.0 0.2425303668
C  C933  1  0.07822000  0.17042000  0.92920000  1.0 0.2425303668
C  C934  1  0.82216000  0.92920000  0.17042000  1.0 0.2425303668
C  C935  1  0.92920000  0.82216000  0.07822000  1.0 0.2425303668
C  C936  1  0.17042000  0.07822000  0.82216000  1.0 0.2425303668
C  C937  1  0.32216000  0.57822000  0.67042000  1.0 0.2425303668
C  C938  1  0.57822000  0.32216000  0.42920000  1.0 0.2425303668
C  C939  1  0.67042000  0.42920000  0.32216000  1.0 0.2425303668
C  C940  1  0.42920000  0.67042000  0.57822000  1.0 0.2425303668
C  C941  1  0.67042000  0.32216000  0.57822000  1.0 0.2425303668
C  C942  1  0.42920000  0.57822000  0.32216000  1.0 0.2425303668
C  C943  1  0.32216000  0.67042000  0.42920000  1.0 0.2425303668
C  C944  1  0.57822000  0.42920000  0.67042000  1.0 0.2425303668
C  C945  1  0.57822000  0.67042000  0.32216000  1.0 0.2425303668
C  C946  1  0.32216000  0.42920000  0.57822000  1.0 0.2425303668
C  C947  1  0.42920000  0.32216000  0.67042000  1.0 0.2425303668
C  C948  1  0.67042000  0.57822000  0.42920000  1.0 0.2425303668
C  C949  1  0.92784000  0.67178000  0.82080000  1.0 0.2425303668
C  C950  1  0.67178000  0.92784000  0.57958000  1.0 0.2425303668
C  C951  1  0.57958000  0.82080000  0.67178000  1.0 0.2425303668
C  C952  1  0.82080000  0.57958000  0.92784000  1.0 0.2425303668
C  C953  1  0.57958000  0.92784000  0.82080000  1.0 0.2425303668
C  C954  1  0.82080000  0.67178000  0.57958000  1.0 0.2425303668
C  C955  1  0.92784000  0.57958000  0.67178000  1.0 0.2425303668
C  C956  1  0.67178000  0.82080000  0.92784000  1.0 0.2425303668
C  C957  1  0.67178000  0.57958000  0.82080000  1.0 0.2425303668
C  C958  1  0.92784000  0.82080000  0.57958000  1.0 0.2425303668
C  C959  1  0.82080000  0.92784000  0.67178000  1.0 0.2425303668
C  C960  1  0.57958000  0.67178000  0.92784000  1.0 0.2425303668
C  C961  1  0.41314000  0.11212000  0.17178000  1.0 0.0676315755
C  C962  1  0.11212000  0.41314000  0.30296000  1.0 0.0676315755
C  C963  1  0.17178000  0.30296000  0.41314000  1.0 0.0676315755
C  C964  1  0.30296000  0.17178000  0.11212000  1.0 0.0676315755
C  C965  1  0.17178000  0.41314000  0.11212000  1.0 0.0676315755
C  C966  1  0.30296000  0.11212000  0.41314000  1.0 0.0676315755
C  C967  1  0.41314000  0.17178000  0.30296000  1.0 0.0676315755
C  C968  1  0.11212000  0.30296000  0.17178000  1.0 0.0676315755
C  C969  1  0.11212000  0.17178000  0.41314000  1.0 0.0676315755
C  C970  1  0.41314000  0.30296000  0.11212000  1.0 0.0676315755
C  C971  1  0.30296000  0.41314000  0.17178000  1.0 0.0676315755
C  C972  1  0.17178000  0.11212000  0.30296000  1.0 0.0676315755
C  C973  1  0.83686000  0.13788000  0.94704000  1.0 0.0676315755
C  C974  1  0.13788000  0.83686000  0.07822000  1.0 0.0676315755
C  C975  1  0.07822000  0.94704000  0.13788000  1.0 0.0676315755
C  C976  1  0.94704000  0.07822000  0.83686000  1.0 0.0676315755
C  C977  1  0.07822000  0.83686000  0.94704000  1.0 0.0676315755
C  C978  1  0.94704000  0.13788000  0.07822000  1.0 0.0676315755
C  C979  1  0.83686000  0.07822000  0.13788000  1.0 0.0676315755
C  C980  1  0.13788000  0.94704000  0.83686000  1.0 0.0676315755
C  C981  1  0.13788000  0.07822000  0.94704000  1.0 0.0676315755
C  C982  1  0.83686000  0.94704000  0.07822000  1.0 0.0676315755
C  C983  1  0.94704000  0.83686000  0.13788000  1.0 0.0676315755
C  C984  1  0.07822000  0.13788000  0.83686000  1.0 0.0676315755
C  C985  1  0.33686000  0.63788000  0.57822000  1.0 0.0676315755
C  C986  1  0.63788000  0.33686000  0.44704000  1.0 0.0676315755
C  C987  1  0.57822000  0.44704000  0.33686000  1.0 0.0676315755
C  C988  1  0.44704000  0.57822000  0.63788000  1.0 0.0676315755
C  C989  1  0.57822000  0.33686000  0.63788000  1.0 0.0676315755
C  C990  1  0.44704000  0.63788000  0.33686000  1.0 0.0676315755
C  C991  1  0.33686000  0.57822000  0.44704000  1.0 0.0676315755
C  C992  1  0.63788000  0.44704000  0.57822000  1.0 0.0676315755
C  C993  1  0.63788000  0.57822000  0.33686000  1.0 0.0676315755
C  C994  1  0.33686000  0.44704000  0.63788000  1.0 0.0676315755
C  C995  1  0.44704000  0.33686000  0.57822000  1.0 0.0676315755
C  C996  1  0.57822000  0.63788000  0.44704000  1.0 0.0676315755
C  C997  1  0.91314000  0.61212000  0.80296000  1.0 0.0676315755
C  C998  1  0.61212000  0.91314000  0.67178000  1.0 0.0676315755
C  C999  1  0.67178000  0.80296000  0.61212000  1.0 0.0676315755
C  C1000  1  0.80296000  0.67178000  0.91314000  1.0 0.0676315755
C  C1001  1  0.67178000  0.91314000  0.80296000  1.0 0.0676315755
C  C1002  1  0.80296000  0.61212000  0.67178000  1.0 0.0676315755
C  C1003  1  0.91314000  0.67178000  0.61212000  1.0 0.0676315755
C  C1004  1  0.61212000  0.80296000  0.91314000  1.0 0.0676315755
C  C1005  1  0.61212000  0.67178000  0.80296000  1.0 0.0676315755
C  C1006  1  0.91314000  0.80296000  0.67178000  1.0 0.0676315755
C  C1007  1  0.80296000  0.91314000  0.61212000  1.0 0.0676315755
C  C1008  1  0.67178000  0.61212000  0.91314000  1.0 0.0676315755
C  C1009  1  0.41867000  0.10455000  0.20183000  1.0 -0.1295879601
C  C1010  1  0.10455000  0.41867000  0.27495000  1.0 -0.1295879601
C  C1011  1  0.20183000  0.27495000  0.41867000  1.0 -0.1295879601
C  C1012  1  0.27495000  0.20183000  0.10455000  1.0 -0.1295879601
C  C1013  1  0.20183000  0.41867000  0.10455000  1.0 -0.1295879601
C  C1014  1  0.27495000  0.10455000  0.41867000  1.0 -0.1295879601
C  C1015  1  0.41867000  0.20183000  0.27495000  1.0 -0.1295879601
C  C1016  1  0.10455000  0.27495000  0.20183000  1.0 -0.1295879601
C  C1017  1  0.10455000  0.20183000  0.41867000  1.0 -0.1295879601
C  C1018  1  0.41867000  0.27495000  0.10455000  1.0 -0.1295879601
C  C1019  1  0.27495000  0.41867000  0.20183000  1.0 -0.1295879601
C  C1020  1  0.20183000  0.10455000  0.27495000  1.0 -0.1295879601
C  C1021  1  0.83133000  0.14545000  0.97505000  1.0 -0.1295879601
C  C1022  1  0.14545000  0.83133000  0.04817000  1.0 -0.1295879601
C  C1023  1  0.04817000  0.97505000  0.14545000  1.0 -0.1295879601
C  C1024  1  0.97505000  0.04817000  0.83133000  1.0 -0.1295879601
C  C1025  1  0.04817000  0.83133000  0.97505000  1.0 -0.1295879601
C  C1026  1  0.97505000  0.14545000  0.04817000  1.0 -0.1295879601
C  C1027  1  0.83133000  0.04817000  0.14545000  1.0 -0.1295879601
C  C1028  1  0.14545000  0.97505000  0.83133000  1.0 -0.1295879601
C  C1029  1  0.14545000  0.04817000  0.97505000  1.0 -0.1295879601
C  C1030  1  0.83133000  0.97505000  0.04817000  1.0 -0.1295879601
C  C1031  1  0.97505000  0.83133000  0.14545000  1.0 -0.1295879601
C  C1032  1  0.04817000  0.14545000  0.83133000  1.0 -0.1295879601
C  C1033  1  0.33133000  0.64545000  0.54817000  1.0 -0.1295879601
C  C1034  1  0.64545000  0.33133000  0.47505000  1.0 -0.1295879601
C  C1035  1  0.54817000  0.47505000  0.33133000  1.0 -0.1295879601
C  C1036  1  0.47505000  0.54817000  0.64545000  1.0 -0.1295879601
C  C1037  1  0.54817000  0.33133000  0.64545000  1.0 -0.1295879601
C  C1038  1  0.47505000  0.64545000  0.33133000  1.0 -0.1295879601
C  C1039  1  0.33133000  0.54817000  0.47505000  1.0 -0.1295879601
C  C1040  1  0.64545000  0.47505000  0.54817000  1.0 -0.1295879601
C  C1041  1  0.64545000  0.54817000  0.33133000  1.0 -0.1295879601
C  C1042  1  0.33133000  0.47505000  0.64545000  1.0 -0.1295879601
C  C1043  1  0.47505000  0.33133000  0.54817000  1.0 -0.1295879601
C  C1044  1  0.54817000  0.64545000  0.47505000  1.0 -0.1295879601
C  C1045  1  0.91867000  0.60455000  0.77495000  1.0 -0.1295879601
C  C1046  1  0.60455000  0.91867000  0.70183000  1.0 -0.1295879601
C  C1047  1  0.70183000  0.77495000  0.60455000  1.0 -0.1295879601
C  C1048  1  0.77495000  0.70183000  0.91867000  1.0 -0.1295879601
C  C1049  1  0.70183000  0.91867000  0.77495000  1.0 -0.1295879601
C  C1050  1  0.77495000  0.60455000  0.70183000  1.0 -0.1295879601
C  C1051  1  0.91867000  0.70183000  0.60455000  1.0 -0.1295879601
C  C1052  1  0.60455000  0.77495000  0.91867000  1.0 -0.1295879601
C  C1053  1  0.60455000  0.70183000  0.77495000  1.0 -0.1295879601
C  C1054  1  0.91867000  0.77495000  0.70183000  1.0 -0.1295879601
C  C1055  1  0.77495000  0.91867000  0.60455000  1.0 -0.1295879601
C  C1056  1  0.70183000  0.60455000  0.91867000  1.0 -0.1295879601
C  C1057  1  0.38992000  0.10308000  0.23418000  1.0 -0.0567742855
C  C1058  1  0.10308000  0.38992000  0.27282000  1.0 -0.0567742855
C  C1059  1  0.23418000  0.27282000  0.38992000  1.0 -0.0567742855
C  C1060  1  0.27282000  0.23418000  0.10308000  1.0 -0.0546532746
C  C1061  1  0.23418000  0.38992000  0.10308000  1.0 -0.0567742855
C  C1062  1  0.27282000  0.10308000  0.38992000  1.0 -0.0567742855
C  C1063  1  0.38992000  0.23418000  0.27282000  1.0 -0.0546532746
C  C1064  1  0.10308000  0.27282000  0.23418000  1.0 -0.0567742855
C  C1065  1  0.10308000  0.23418000  0.38992000  1.0 -0.0567742855
C  C1066  1  0.38992000  0.27282000  0.10308000  1.0 -0.0567742855
C  C1067  1  0.27282000  0.38992000  0.23418000  1.0 -0.0567742855
C  C1068  1  0.23418000  0.10308000  0.27282000  1.0 -0.0567742855
C  C1069  1  0.86008000  0.14692000  0.97718000  1.0 -0.0567742855
C  C1070  1  0.14692000  0.86008000  0.01582000  1.0 -0.0567742855
C  C1071  1  0.01582000  0.97718000  0.14692000  1.0 -0.0567742855
C  C1072  1  0.97718000  0.01582000  0.86008000  1.0 -0.0567742855
C  C1073  1  0.01582000  0.86008000  0.97718000  1.0 -0.0567742855
C  C1074  1  0.97718000  0.14692000  0.01582000  1.0 -0.0567742855
C  C1075  1  0.86008000  0.01582000  0.14692000  1.0 -0.0567742855
C  C1076  1  0.14692000  0.97718000  0.86008000  1.0 -0.0567742855
C  C1077  1  0.14692000  0.01582000  0.97718000  1.0 -0.0567742855
C  C1078  1  0.86008000  0.97718000  0.01582000  1.0 -0.0567742855
C  C1079  1  0.97718000  0.86008000  0.14692000  1.0 -0.0567742855
C  C1080  1  0.01582000  0.14692000  0.86008000  1.0 -0.0567742855
C  C1081  1  0.36008000  0.64692000  0.51582000  1.0 -0.0567742855
C  C1082  1  0.64692000  0.36008000  0.47718000  1.0 -0.0567742855
C  C1083  1  0.51582000  0.47718000  0.36008000  1.0 -0.0567742855
C  C1084  1  0.47718000  0.51582000  0.64692000  1.0 -0.0567742855
C  C1085  1  0.51582000  0.36008000  0.64692000  1.0 -0.0567742855
C  C1086  1  0.47718000  0.64692000  0.36008000  1.0 -0.0567742855
C  C1087  1  0.36008000  0.51582000  0.47718000  1.0 -0.0567742855
C  C1088  1  0.64692000  0.47718000  0.51582000  1.0 -0.0567742855
C  C1089  1  0.64692000  0.51582000  0.36008000  1.0 -0.0567742855
C  C1090  1  0.36008000  0.47718000  0.64692000  1.0 -0.0567742855
C  C1091  1  0.47718000  0.36008000  0.51582000  1.0 -0.0567742855
C  C1092  1  0.51582000  0.64692000  0.47718000  1.0 -0.0567742855
C  C1093  1  0.88992000  0.60308000  0.77282000  1.0 -0.0567742855
C  C1094  1  0.60308000  0.88992000  0.73418000  1.0 -0.0567742855
C  C1095  1  0.73418000  0.77282000  0.60308000  1.0 -0.0567742855
C  C1096  1  0.77282000  0.73418000  0.88992000  1.0 -0.0567742855
C  C1097  1  0.73418000  0.88992000  0.77282000  1.0 -0.0567742855
C  C1098  1  0.77282000  0.60308000  0.73418000  1.0 -0.0567742855
C  C1099  1  0.88992000  0.73418000  0.60308000  1.0 -0.0567742855
C  C1100  1  0.60308000  0.77282000  0.88992000  1.0 -0.0567742855
C  C1101  1  0.60308000  0.73418000  0.77282000  1.0 -0.0567742855
C  C1102  1  0.88992000  0.77282000  0.73418000  1.0 -0.0567742855
C  C1103  1  0.77282000  0.88992000  0.60308000  1.0 -0.0567742855
C  C1104  1  0.73418000  0.60308000  0.88992000  1.0 -0.0546532746
C  C1105  1  0.35645000  0.10981000  0.23455000  1.0 -0.0221395981
C  C1106  1  0.10981000  0.35645000  0.29919000  1.0 -0.0221395981
C  C1107  1  0.23455000  0.29919000  0.35645000  1.0 -0.0221395981
C  C1108  1  0.29919000  0.23455000  0.10981000  1.0 -0.0221395981
C  C1109  1  0.23455000  0.35645000  0.10981000  1.0 -0.0221395981
C  C1110  1  0.29919000  0.10981000  0.35645000  1.0 -0.0221395981
C  C1111  1  0.35645000  0.23455000  0.29919000  1.0 -0.0221395981
C  C1112  1  0.10981000  0.29919000  0.23455000  1.0 -0.0221395981
C  C1113  1  0.10981000  0.23455000  0.35645000  1.0 -0.0221395981
C  C1114  1  0.35645000  0.29919000  0.10981000  1.0 -0.0221395981
C  C1115  1  0.29919000  0.35645000  0.23455000  1.0 -0.0221395981
C  C1116  1  0.23455000  0.10981000  0.29919000  1.0 -0.0221395981
C  C1117  1  0.89355000  0.14019000  0.95081000  1.0 -0.0221395981
C  C1118  1  0.14019000  0.89355000  0.01545000  1.0 -0.0221395981
C  C1119  1  0.01545000  0.95081000  0.14019000  1.0 -0.0221395981
C  C1120  1  0.95081000  0.01545000  0.89355000  1.0 -0.0221395981
C  C1121  1  0.01545000  0.89355000  0.95081000  1.0 -0.0221395981
C  C1122  1  0.95081000  0.14019000  0.01545000  1.0 -0.0221395981
C  C1123  1  0.89355000  0.01545000  0.14019000  1.0 -0.0221395981
C  C1124  1  0.14019000  0.95081000  0.89355000  1.0 -0.0221395981
C  C1125  1  0.14019000  0.01545000  0.95081000  1.0 -0.0221395981
C  C1126  1  0.89355000  0.95081000  0.01545000  1.0 -0.0221395981
C  C1127  1  0.95081000  0.89355000  0.14019000  1.0 -0.0221395981
C  C1128  1  0.01545000  0.14019000  0.89355000  1.0 -0.0221395981
C  C1129  1  0.39355000  0.64019000  0.51545000  1.0 -0.0221395981
C  C1130  1  0.64019000  0.39355000  0.45081000  1.0 -0.0221395981
C  C1131  1  0.51545000  0.45081000  0.39355000  1.0 -0.0221395981
C  C1132  1  0.45081000  0.51545000  0.64019000  1.0 -0.0221395981
C  C1133  1  0.51545000  0.39355000  0.64019000  1.0 -0.0221395981
C  C1134  1  0.45081000  0.64019000  0.39355000  1.0 -0.0221395981
C  C1135  1  0.39355000  0.51545000  0.45081000  1.0 -0.0221395981
C  C1136  1  0.64019000  0.45081000  0.51545000  1.0 -0.0221395981
C  C1137  1  0.64019000  0.51545000  0.39355000  1.0 -0.0221395981
C  C1138  1  0.39355000  0.45081000  0.64019000  1.0 -0.0221395981
C  C1139  1  0.45081000  0.39355000  0.51545000  1.0 -0.0221395981
C  C1140  1  0.51545000  0.64019000  0.45081000  1.0 -0.0221395981
C  C1141  1  0.85645000  0.60981000  0.79919000  1.0 -0.0221395981
C  C1142  1  0.60981000  0.85645000  0.73455000  1.0 -0.0221395981
C  C1143  1  0.73455000  0.79919000  0.60981000  1.0 -0.0221395981
C  C1144  1  0.79919000  0.73455000  0.85645000  1.0 -0.0221395981
C  C1145  1  0.73455000  0.85645000  0.79919000  1.0 -0.0221395981
C  C1146  1  0.79919000  0.60981000  0.73455000  1.0 -0.0221395981
C  C1147  1  0.85645000  0.73455000  0.60981000  1.0 -0.0221395981
C  C1148  1  0.60981000  0.79919000  0.85645000  1.0 -0.0221395981
C  C1149  1  0.60981000  0.73455000  0.79919000  1.0 -0.0221395981
C  C1150  1  0.85645000  0.79919000  0.73455000  1.0 -0.0221395981
C  C1151  1  0.79919000  0.85645000  0.60981000  1.0 -0.0221395981
C  C1152  1  0.73455000  0.60981000  0.85645000  1.0 -0.0221395981
C  C1153  1  0.35333000  0.11661000  0.20253000  1.0 0.058435693
C  C1154  1  0.11661000  0.35333000  0.32753000  1.0 0.058435693
C  C1155  1  0.20253000  0.32753000  0.35333000  1.0 0.058435693
C  C1156  1  0.32753000  0.20253000  0.11661000  1.0 0.058435693
C  C1157  1  0.20253000  0.35333000  0.11661000  1.0 0.058435693
C  C1158  1  0.32753000  0.11661000  0.35333000  1.0 0.058435693
C  C1159  1  0.35333000  0.20253000  0.32753000  1.0 0.058435693
C  C1160  1  0.11661000  0.32753000  0.20253000  1.0 0.058435693
C  C1161  1  0.11661000  0.20253000  0.35333000  1.0 0.058435693
C  C1162  1  0.35333000  0.32753000  0.11661000  1.0 0.058435693
C  C1163  1  0.32753000  0.35333000  0.20253000  1.0 0.058435693
C  C1164  1  0.20253000  0.11661000  0.32753000  1.0 0.058435693
C  C1165  1  0.89667000  0.13339000  0.92247000  1.0 0.058435693
C  C1166  1  0.13339000  0.89667000  0.04747000  1.0 0.058435693
C  C1167  1  0.04747000  0.92247000  0.13339000  1.0 0.058435693
C  C1168  1  0.92247000  0.04747000  0.89667000  1.0 0.058435693
C  C1169  1  0.04747000  0.89667000  0.92247000  1.0 0.058435693
C  C1170  1  0.92247000  0.13339000  0.04747000  1.0 0.058435693
C  C1171  1  0.89667000  0.04747000  0.13339000  1.0 0.058435693
C  C1172  1  0.13339000  0.92247000  0.89667000  1.0 0.058435693
C  C1173  1  0.13339000  0.04747000  0.92247000  1.0 0.058435693
C  C1174  1  0.89667000  0.92247000  0.04747000  1.0 0.058435693
C  C1175  1  0.92247000  0.89667000  0.13339000  1.0 0.058435693
C  C1176  1  0.04747000  0.13339000  0.89667000  1.0 0.058435693
C  C1177  1  0.39667000  0.63339000  0.54747000  1.0 0.058435693
C  C1178  1  0.63339000  0.39667000  0.42247000  1.0 0.058435693
C  C1179  1  0.54747000  0.42247000  0.39667000  1.0 0.058435693
C  C1180  1  0.42247000  0.54747000  0.63339000  1.0 0.058435693
C  C1181  1  0.54747000  0.39667000  0.63339000  1.0 0.058435693
C  C1182  1  0.42247000  0.63339000  0.39667000  1.0 0.058435693
C  C1183  1  0.39667000  0.54747000  0.42247000  1.0 0.058435693
C  C1184  1  0.63339000  0.42247000  0.54747000  1.0 0.058435693
C  C1185  1  0.63339000  0.54747000  0.39667000  1.0 0.058435693
C  C1186  1  0.39667000  0.42247000  0.63339000  1.0 0.058435693
C  C1187  1  0.42247000  0.39667000  0.54747000  1.0 0.058435693
C  C1188  1  0.54747000  0.63339000  0.42247000  1.0 0.058435693
C  C1189  1  0.85333000  0.61661000  0.82753000  1.0 0.058435693
C  C1190  1  0.61661000  0.85333000  0.70253000  1.0 0.058435693
C  C1191  1  0.70253000  0.82753000  0.61661000  1.0 0.058435693
C  C1192  1  0.82753000  0.70253000  0.85333000  1.0 0.058435693
C  C1193  1  0.70253000  0.85333000  0.82753000  1.0 0.058435693
C  C1194  1  0.82753000  0.61661000  0.70253000  1.0 0.058435693
C  C1195  1  0.85333000  0.70253000  0.61661000  1.0 0.058435693
C  C1196  1  0.61661000  0.82753000  0.85333000  1.0 0.058435693
C  C1197  1  0.61661000  0.70253000  0.82753000  1.0 0.058435693
C  C1198  1  0.85333000  0.82753000  0.70253000  1.0 0.058435693
C  C1199  1  0.82753000  0.85333000  0.61661000  1.0 0.058435693
C  C1200  1  0.70253000  0.61661000  0.85333000  1.0 0.058435693
C  C1201  1  0.32490000  0.10856000  0.26810000  1.0 0.3595160383
C  C1202  1  0.10856000  0.32490000  0.29844000  1.0 0.3595160383
C  C1203  1  0.26810000  0.29844000  0.32490000  1.0 0.3595160383
C  C1204  1  0.29844000  0.26810000  0.10856000  1.0 0.3595160383
C  C1205  1  0.26810000  0.32490000  0.10856000  1.0 0.3595160383
C  C1206  1  0.29844000  0.10856000  0.32490000  1.0 0.3595160383
C  C1207  1  0.32490000  0.26810000  0.29844000  1.0 0.3595160383
C  C1208  1  0.10856000  0.29844000  0.26810000  1.0 0.3595160383
C  C1209  1  0.10856000  0.26810000  0.32490000  1.0 0.3595160383
C  C1210  1  0.32490000  0.29844000  0.10856000  1.0 0.3595160383
C  C1211  1  0.29844000  0.32490000  0.26810000  1.0 0.3595160383
C  C1212  1  0.26810000  0.10856000  0.29844000  1.0 0.3595160383
C  C1213  1  0.92510000  0.14144000  0.95156000  1.0 0.3595160383
C  C1214  1  0.14144000  0.92510000  0.98190000  1.0 0.3595160383
C  C1215  1  0.98190000  0.95156000  0.14144000  1.0 0.3595160383
C  C1216  1  0.95156000  0.98190000  0.92510000  1.0 0.3595160383
C  C1217  1  0.98190000  0.92510000  0.95156000  1.0 0.3595160383
C  C1218  1  0.95156000  0.14144000  0.98190000  1.0 0.3595160383
C  C1219  1  0.92510000  0.98190000  0.14144000  1.0 0.3595160383
C  C1220  1  0.14144000  0.95156000  0.92510000  1.0 0.3595160383
C  C1221  1  0.14144000  0.98190000  0.95156000  1.0 0.3595160383
C  C1222  1  0.92510000  0.95156000  0.98190000  1.0 0.3595160383
C  C1223  1  0.95156000  0.92510000  0.14144000  1.0 0.3595160383
C  C1224  1  0.98190000  0.14144000  0.92510000  1.0 0.3595160383
C  C1225  1  0.42510000  0.64144000  0.48190000  1.0 0.3595160383
C  C1226  1  0.64144000  0.42510000  0.45156000  1.0 0.3595160383
C  C1227  1  0.48190000  0.45156000  0.42510000  1.0 0.3595160383
C  C1228  1  0.45156000  0.48190000  0.64144000  1.0 0.3595160383
C  C1229  1  0.48190000  0.42510000  0.64144000  1.0 0.3595160383
C  C1230  1  0.45156000  0.64144000  0.42510000  1.0 0.3595160383
C  C1231  1  0.42510000  0.48190000  0.45156000  1.0 0.3595160383
C  C1232  1  0.64144000  0.45156000  0.48190000  1.0 0.3595160383
C  C1233  1  0.64144000  0.48190000  0.42510000  1.0 0.3595160383
C  C1234  1  0.42510000  0.45156000  0.64144000  1.0 0.3595160383
C  C1235  1  0.45156000  0.42510000  0.48190000  1.0 0.3595160383
C  C1236  1  0.48190000  0.64144000  0.45156000  1.0 0.3595160383
C  C1237  1  0.82490000  0.60856000  0.79844000  1.0 0.3595160383
C  C1238  1  0.60856000  0.82490000  0.76810000  1.0 0.3595160383
C  C1239  1  0.76810000  0.79844000  0.60856000  1.0 0.3595160383
C  C1240  1  0.79844000  0.76810000  0.82490000  1.0 0.3595160383
C  C1241  1  0.76810000  0.82490000  0.79844000  1.0 0.3595160383
C  C1242  1  0.79844000  0.60856000  0.76810000  1.0 0.3595160383
C  C1243  1  0.82490000  0.76810000  0.60856000  1.0 0.3595160383
C  C1244  1  0.60856000  0.79844000  0.82490000  1.0 0.3595160383
C  C1245  1  0.60856000  0.76810000  0.79844000  1.0 0.3595160383
C  C1246  1  0.82490000  0.79844000  0.76810000  1.0 0.3595160383
C  C1247  1  0.79844000  0.82490000  0.60856000  1.0 0.3595160383
C  C1248  1  0.76810000  0.60856000  0.82490000  1.0 0.3595160383
S  S1  1  0.57710000  0.25376000  0.84300000  1.0 -0.3995476015
S  S2  1  0.25376000  0.57710000  0.32614000  1.0 -0.3995476015
S  S3  1  0.84300000  0.32614000  0.57710000  1.0 -0.3995476015
S  S4  1  0.32614000  0.84300000  0.25376000  1.0 -0.3995476015
S  S5  1  0.84300000  0.57710000  0.25376000  1.0 -0.3995476015
S  S6  1  0.32614000  0.25376000  0.57710000  1.0 -0.3995476015
S  S7  1  0.57710000  0.84300000  0.32614000  1.0 -0.3995476015
S  S8  1  0.25376000  0.32614000  0.84300000  1.0 -0.3941516886
S  S9  1  0.25376000  0.84300000  0.57710000  1.0 -0.3995476015
S  S10  1  0.57710000  0.32614000  0.25376000  1.0 -0.3995476015
S  S11  1  0.32614000  0.57710000  0.84300000  1.0 -0.3941516886
S  S12  1  0.84300000  0.25376000  0.32614000  1.0 -0.3995476015
S  S13  1  0.67290000  0.99624000  0.92386000  1.0 -0.3995476015
S  S14  1  0.99624000  0.67290000  0.40700000  1.0 -0.3941516886
S  S15  1  0.40700000  0.92386000  0.99624000  1.0 -0.3995476015
S  S16  1  0.92386000  0.40700000  0.67290000  1.0 -0.3995476015
S  S17  1  0.40700000  0.67290000  0.92386000  1.0 -0.3995476015
S  S18  1  0.92386000  0.99624000  0.40700000  1.0 -0.3941516886
S  S19  1  0.67290000  0.40700000  0.99624000  1.0 -0.3995476015
S  S20  1  0.99624000  0.92386000  0.67290000  1.0 -0.3941516886
S  S21  1  0.99624000  0.40700000  0.92386000  1.0 -0.3941516886
S  S22  1  0.67290000  0.92386000  0.40700000  1.0 -0.3995476015
S  S23  1  0.92386000  0.67290000  0.99624000  1.0 -0.3995476015
S  S24  1  0.40700000  0.99624000  0.67290000  1.0 -0.3941516886
S  S25  1  0.17290000  0.49624000  0.90700000  1.0 -0.3941516886
S  S26  1  0.49624000  0.17290000  0.42386000  1.0 -0.3995476015
S  S27  1  0.90700000  0.42386000  0.17290000  1.0 -0.3995476015
S  S28  1  0.42386000  0.90700000  0.49624000  1.0 -0.3995476015
S  S29  1  0.90700000  0.17290000  0.49624000  1.0 -0.3995476015
S  S30  1  0.42386000  0.49624000  0.17290000  1.0 -0.3995476015
S  S31  1  0.17290000  0.90700000  0.42386000  1.0 -0.3995476015
S  S32  1  0.49624000  0.42386000  0.90700000  1.0 -0.3941516886
S  S33  1  0.49624000  0.90700000  0.17290000  1.0 -0.3995476015
S  S34  1  0.17290000  0.42386000  0.49624000  1.0 -0.3941516886
S  S35  1  0.42386000  0.17290000  0.90700000  1.0 -0.3941516886
S  S36  1  0.90700000  0.49624000  0.42386000  1.0 -0.3995476015
S  S37  1  0.07710000  0.75376000  0.82614000  1.0 -0.3941516886
S  S38  1  0.75376000  0.07710000  0.34300000  1.0 -0.3941516886
S  S39  1  0.34300000  0.82614000  0.75376000  1.0 -0.3941516886
S  S40  1  0.82614000  0.34300000  0.07710000  1.0 -0.3995476015
S  S41  1  0.34300000  0.07710000  0.82614000  1.0 -0.3995476015
S  S42  1  0.82614000  0.75376000  0.34300000  1.0 -0.3941516886
S  S43  1  0.07710000  0.34300000  0.75376000  1.0 -0.3995476015
S  S44  1  0.75376000  0.82614000  0.07710000  1.0 -0.3995476015
S  S45  1  0.75376000  0.34300000  0.82614000  1.0 -0.3941516886
S  S46  1  0.07710000  0.82614000  0.34300000  1.0 -0.3941516886
S  S47  1  0.82614000  0.07710000  0.75376000  1.0 -0.3995476015
S  S48  1  0.34300000  0.75376000  0.07710000  1.0 -0.3995476015
S  S49  1  0.45145000  0.19865000  0.05883000  1.0 -0.4160575241
S  S50  1  0.19865000  0.45145000  0.29107000  1.0 -0.4077488337
S  S51  1  0.05883000  0.29107000  0.45145000  1.0 -0.4077488337
S  S52  1  0.29107000  0.05883000  0.19865000  1.0 -0.4077488337
S  S53  1  0.05883000  0.45145000  0.19865000  1.0 -0.4077488337
S  S54  1  0.29107000  0.19865000  0.45145000  1.0 -0.4077488337
S  S55  1  0.45145000  0.05883000  0.29107000  1.0 -0.4077488337
S  S56  1  0.19865000  0.29107000  0.05883000  1.0 -0.4077488337
S  S57  1  0.19865000  0.05883000  0.45145000  1.0 -0.4077488337
S  S58  1  0.45145000  0.29107000  0.19865000  1.0 -0.4077488337
S  S59  1  0.29107000  0.45145000  0.05883000  1.0 -0.4160575241
S  S60  1  0.05883000  0.19865000  0.29107000  1.0 -0.4077488337
S  S61  1  0.79855000  0.05135000  0.95893000  1.0 -0.4077488337
S  S62  1  0.05135000  0.79855000  0.19117000  1.0 -0.4077488337
S  S63  1  0.19117000  0.95893000  0.05135000  1.0 -0.4077488337
S  S64  1  0.95893000  0.19117000  0.79855000  1.0 -0.4077488337
S  S65  1  0.19117000  0.79855000  0.95893000  1.0 -0.4077488337
S  S66  1  0.95893000  0.05135000  0.19117000  1.0 -0.4077488337
S  S67  1  0.79855000  0.19117000  0.05135000  1.0 -0.4160575241
S  S68  1  0.05135000  0.95893000  0.79855000  1.0 -0.4077488337
S  S69  1  0.05135000  0.19117000  0.95893000  1.0 -0.4077488337
S  S70  1  0.79855000  0.95893000  0.19117000  1.0 -0.4077488337
S  S71  1  0.95893000  0.79855000  0.05135000  1.0 -0.4160575241
S  S72  1  0.19117000  0.05135000  0.79855000  1.0 -0.4160575241
S  S73  1  0.29855000  0.55135000  0.69117000  1.0 -0.4077488337
S  S74  1  0.55135000  0.29855000  0.45893000  1.0 -0.4160575241
S  S75  1  0.69117000  0.45893000  0.29855000  1.0 -0.4160575241
S  S76  1  0.45893000  0.69117000  0.55135000  1.0 -0.4077488337
S  S77  1  0.69117000  0.29855000  0.55135000  1.0 -0.4160575241
S  S78  1  0.45893000  0.55135000  0.29855000  1.0 -0.4077488337
S  S79  1  0.29855000  0.69117000  0.45893000  1.0 -0.4077488337
S  S80  1  0.55135000  0.45893000  0.69117000  1.0 -0.4077488337
S  S81  1  0.55135000  0.69117000  0.29855000  1.0 -0.4077488337
S  S82  1  0.29855000  0.45893000  0.55135000  1.0 -0.4077488337
S  S83  1  0.45893000  0.29855000  0.69117000  1.0 -0.4160575241
S  S84  1  0.69117000  0.55135000  0.45893000  1.0 -0.4077488337
S  S85  1  0.95145000  0.69865000  0.79107000  1.0 -0.4160575241
S  S86  1  0.69865000  0.95145000  0.55883000  1.0 -0.4077488337
S  S87  1  0.55883000  0.79107000  0.69865000  1.0 -0.4077488337
S  S88  1  0.79107000  0.55883000  0.95145000  1.0 -0.4160575241
S  S89  1  0.55883000  0.95145000  0.79107000  1.0 -0.4160575241
S  S90  1  0.79107000  0.69865000  0.55883000  1.0 -0.4077488337
S  S91  1  0.95145000  0.55883000  0.69865000  1.0 -0.4077488337
S  S92  1  0.69865000  0.79107000  0.95145000  1.0 -0.4077488337
S  S93  1  0.69865000  0.55883000  0.79107000  1.0 -0.4160575241
S  S94  1  0.95145000  0.79107000  0.55883000  1.0 -0.4077488337
S  S95  1  0.79107000  0.95145000  0.69865000  1.0 -0.4077488337
S  S96  1  0.55883000  0.69865000  0.95145000  1.0 -0.4160575241
N  N1  1  0.61650000  0.18024000  0.86092000  1.0 -0.4599375562
N  N2  1  0.18024000  0.61650000  0.34234000  1.0 -0.4599375562
N  N3  1  0.86092000  0.34234000  0.61650000  1.0 -0.4599375562
N  N4  1  0.34234000  0.86092000  0.18024000  1.0 -0.4599375562
N  N5  1  0.86092000  0.61650000  0.18024000  1.0 -0.4599375562
N  N6  1  0.34234000  0.18024000  0.61650000  1.0 -0.4599375562
N  N7  1  0.61650000  0.86092000  0.34234000  1.0 -0.4599375562
N  N8  1  0.18024000  0.34234000  0.86092000  1.0 -0.4599375562
N  N9  1  0.18024000  0.86092000  0.61650000  1.0 -0.4599375562
N  N10  1  0.61650000  0.34234000  0.18024000  1.0 -0.4599375562
N  N11  1  0.34234000  0.61650000  0.86092000  1.0 -0.4599375562
N  N12  1  0.86092000  0.18024000  0.34234000  1.0 -0.4599375562
N  N13  1  0.63350000  0.06976000  0.90766000  1.0 -0.4599375562
N  N14  1  0.06976000  0.63350000  0.38908000  1.0 -0.4599375562
N  N15  1  0.38908000  0.90766000  0.06976000  1.0 -0.4599375562
N  N16  1  0.90766000  0.38908000  0.63350000  1.0 -0.4599375562
N  N17  1  0.38908000  0.63350000  0.90766000  1.0 -0.4599375562
N  N18  1  0.90766000  0.06976000  0.38908000  1.0 -0.4599375562
N  N19  1  0.63350000  0.38908000  0.06976000  1.0 -0.4599375562
N  N20  1  0.06976000  0.90766000  0.63350000  1.0 -0.4599375562
N  N21  1  0.06976000  0.38908000  0.90766000  1.0 -0.4599375562
N  N22  1  0.63350000  0.90766000  0.38908000  1.0 -0.4599375562
N  N23  1  0.90766000  0.63350000  0.06976000  1.0 -0.4599375562
N  N24  1  0.38908000  0.06976000  0.63350000  1.0 -0.4599375562
N  N25  1  0.13350000  0.56976000  0.88908000  1.0 -0.4599375562
N  N26  1  0.56976000  0.13350000  0.40766000  1.0 -0.4599375562
N  N27  1  0.88908000  0.40766000  0.13350000  1.0 -0.4599375562
N  N28  1  0.40766000  0.88908000  0.56976000  1.0 -0.4599375562
N  N29  1  0.88908000  0.13350000  0.56976000  1.0 -0.4599375562
N  N30  1  0.40766000  0.56976000  0.13350000  1.0 -0.4599375562
N  N31  1  0.13350000  0.88908000  0.40766000  1.0 -0.4599375562
N  N32  1  0.56976000  0.40766000  0.88908000  1.0 -0.4599375562
N  N33  1  0.56976000  0.88908000  0.13350000  1.0 -0.4599375562
N  N34  1  0.13350000  0.40766000  0.56976000  1.0 -0.4599375562
N  N35  1  0.40766000  0.13350000  0.88908000  1.0 -0.4599375562
N  N36  1  0.88908000  0.56976000  0.40766000  1.0 -0.4599375562
N  N37  1  0.11650000  0.68024000  0.84234000  1.0 -0.4599375562
N  N38  1  0.68024000  0.11650000  0.36092000  1.0 -0.4599375562
N  N39  1  0.36092000  0.84234000  0.68024000  1.0 -0.4599375562
N  N40  1  0.84234000  0.36092000  0.11650000  1.0 -0.4599375562
N  N41  1  0.36092000  0.11650000  0.84234000  1.0 -0.4599375562
N  N42  1  0.84234000  0.68024000  0.36092000  1.0 -0.4599375562
N  N43  1  0.11650000  0.36092000  0.68024000  1.0 -0.4599375562
N  N44  1  0.68024000  0.84234000  0.11650000  1.0 -0.4599375562
N  N45  1  0.68024000  0.36092000  0.84234000  1.0 -0.4599375562
N  N46  1  0.11650000  0.84234000  0.36092000  1.0 -0.4599375562
N  N47  1  0.84234000  0.11650000  0.68024000  1.0 -0.4599375562
N  N48  1  0.36092000  0.68024000  0.11650000  1.0 -0.4599375562
N  N49  1  0.58486000  0.13464000  0.93652000  1.0 -0.2076389332
N  N50  1  0.13464000  0.58486000  0.34398000  1.0 -0.2076389332
N  N51  1  0.93652000  0.34398000  0.58486000  1.0 -0.2076389332
N  N52  1  0.34398000  0.93652000  0.13464000  1.0 -0.2076389332
N  N53  1  0.93652000  0.58486000  0.13464000  1.0 -0.2076389332
N  N54  1  0.34398000  0.13464000  0.58486000  1.0 -0.2076389332
N  N55  1  0.58486000  0.93652000  0.34398000  1.0 -0.2076389332
N  N56  1  0.13464000  0.34398000  0.93652000  1.0 -0.2076389332
N  N57  1  0.13464000  0.93652000  0.58486000  1.0 -0.2076389332
N  N58  1  0.58486000  0.34398000  0.13464000  1.0 -0.2076389332
N  N59  1  0.34398000  0.58486000  0.93652000  1.0 -0.2076389332
N  N60  1  0.93652000  0.13464000  0.34398000  1.0 -0.2076389332
N  N61  1  0.66514000  0.11536000  0.90602000  1.0 -0.2076389332
N  N62  1  0.11536000  0.66514000  0.31348000  1.0 -0.2076389332
N  N63  1  0.31348000  0.90602000  0.11536000  1.0 -0.2076389332
N  N64  1  0.90602000  0.31348000  0.66514000  1.0 -0.2076389332
N  N65  1  0.31348000  0.66514000  0.90602000  1.0 -0.2076389332
N  N66  1  0.90602000  0.11536000  0.31348000  1.0 -0.2076389332
N  N67  1  0.66514000  0.31348000  0.11536000  1.0 -0.2076389332
N  N68  1  0.11536000  0.90602000  0.66514000  1.0 -0.2076389332
N  N69  1  0.11536000  0.31348000  0.90602000  1.0 -0.2076389332
N  N70  1  0.66514000  0.90602000  0.31348000  1.0 -0.2076389332
N  N71  1  0.90602000  0.66514000  0.11536000  1.0 -0.2076389332
N  N72  1  0.31348000  0.11536000  0.66514000  1.0 -0.2076389332
N  N73  1  0.16514000  0.61536000  0.81348000  1.0 -0.2076389332
N  N74  1  0.61536000  0.16514000  0.40602000  1.0 -0.2076389332
N  N75  1  0.81348000  0.40602000  0.16514000  1.0 -0.2076389332
N  N76  1  0.40602000  0.81348000  0.61536000  1.0 -0.2076389332
N  N77  1  0.81348000  0.16514000  0.61536000  1.0 -0.2076389332
N  N78  1  0.40602000  0.61536000  0.16514000  1.0 -0.2076389332
N  N79  1  0.16514000  0.81348000  0.40602000  1.0 -0.2076389332
N  N80  1  0.61536000  0.40602000  0.81348000  1.0 -0.2076389332
N  N81  1  0.61536000  0.81348000  0.16514000  1.0 -0.2076389332
N  N82  1  0.16514000  0.40602000  0.61536000  1.0 -0.2076389332
N  N83  1  0.40602000  0.16514000  0.81348000  1.0 -0.2076389332
N  N84  1  0.81348000  0.61536000  0.40602000  1.0 -0.2076389332
N  N85  1  0.08486000  0.63464000  0.84398000  1.0 -0.2076389332
N  N86  1  0.63464000  0.08486000  0.43652000  1.0 -0.2076389332
N  N87  1  0.43652000  0.84398000  0.63464000  1.0 -0.2076389332
N  N88  1  0.84398000  0.43652000  0.08486000  1.0 -0.2076389332
N  N89  1  0.43652000  0.08486000  0.84398000  1.0 -0.2076389332
N  N90  1  0.84398000  0.63464000  0.43652000  1.0 -0.2076389332
N  N91  1  0.08486000  0.43652000  0.63464000  1.0 -0.2076389332
N  N92  1  0.63464000  0.84398000  0.08486000  1.0 -0.2076389332
N  N93  1  0.63464000  0.43652000  0.84398000  1.0 -0.2076389332
N  N94  1  0.08486000  0.84398000  0.43652000  1.0 -0.2076389332
N  N95  1  0.84398000  0.08486000  0.63464000  1.0 -0.2076389332
N  N96  1  0.43652000  0.63464000  0.08486000  1.0 -0.2076389332
N  N97  1  0.63495000  0.91421000  0.08163000  1.0 -0.2076389332
N  N98  1  0.91421000  0.63495000  0.36921000  1.0 -0.2076389332
N  N99  1  0.08163000  0.36921000  0.63495000  1.0 -0.2076389332
N  N100  1  0.36921000  0.08163000  0.91421000  1.0 -0.2076389332
N  N101  1  0.08163000  0.63495000  0.91421000  1.0 -0.2076389332
N  N102  1  0.36921000  0.91421000  0.63495000  1.0 -0.2076389332
N  N103  1  0.63495000  0.08163000  0.36921000  1.0 -0.2076389332
N  N104  1  0.91421000  0.36921000  0.08163000  1.0 -0.2076389332
N  N105  1  0.91421000  0.08163000  0.63495000  1.0 -0.2076389332
N  N106  1  0.63495000  0.36921000  0.91421000  1.0 -0.2076389332
N  N107  1  0.36921000  0.63495000  0.08163000  1.0 -0.2076389332
N  N108  1  0.08163000  0.91421000  0.36921000  1.0 -0.2076389332
N  N109  1  0.61505000  0.33579000  0.88079000  1.0 -0.2076389332
N  N110  1  0.33579000  0.61505000  0.16837000  1.0 -0.2076389332
N  N111  1  0.16837000  0.88079000  0.33579000  1.0 -0.2076389332
N  N112  1  0.88079000  0.16837000  0.61505000  1.0 -0.2076389332
N  N113  1  0.16837000  0.61505000  0.88079000  1.0 -0.2076389332
N  N114  1  0.88079000  0.33579000  0.16837000  1.0 -0.2076389332
N  N115  1  0.61505000  0.16837000  0.33579000  1.0 -0.2076389332
N  N116  1  0.33579000  0.88079000  0.61505000  1.0 -0.2076389332
N  N117  1  0.33579000  0.16837000  0.88079000  1.0 -0.2076389332
N  N118  1  0.61505000  0.88079000  0.16837000  1.0 -0.2076389332
N  N119  1  0.88079000  0.61505000  0.33579000  1.0 -0.2076389332
N  N120  1  0.16837000  0.33579000  0.61505000  1.0 -0.2076389332
N  N121  1  0.11505000  0.83579000  0.66837000  1.0 -0.2076389332
N  N122  1  0.83579000  0.11505000  0.38079000  1.0 -0.2076389332
N  N123  1  0.66837000  0.38079000  0.11505000  1.0 -0.2076389332
N  N124  1  0.38079000  0.66837000  0.83579000  1.0 -0.2076389332
N  N125  1  0.66837000  0.11505000  0.83579000  1.0 -0.2076389332
N  N126  1  0.38079000  0.83579000  0.11505000  1.0 -0.2076389332
N  N127  1  0.11505000  0.66837000  0.38079000  1.0 -0.2076389332
N  N128  1  0.83579000  0.38079000  0.66837000  1.0 -0.2076389332
N  N129  1  0.83579000  0.66837000  0.11505000  1.0 -0.2076389332
N  N130  1  0.11505000  0.38079000  0.83579000  1.0 -0.2076389332
N  N131  1  0.38079000  0.11505000  0.66837000  1.0 -0.2076389332
N  N132  1  0.66837000  0.83579000  0.38079000  1.0 -0.2076389332
N  N133  1  0.13495000  0.41421000  0.86921000  1.0 -0.2076389332
N  N134  1  0.41421000  0.13495000  0.58163000  1.0 -0.2076389332
N  N135  1  0.58163000  0.86921000  0.41421000  1.0 -0.2076389332
N  N136  1  0.86921000  0.58163000  0.13495000  1.0 -0.2076389332
N  N137  1  0.58163000  0.13495000  0.86921000  1.0 -0.2076389332
N  N138  1  0.86921000  0.41421000  0.58163000  1.0 -0.2076389332
N  N139  1  0.13495000  0.58163000  0.41421000  1.0 -0.2076389332
N  N140  1  0.41421000  0.86921000  0.13495000  1.0 -0.2076389332
N  N141  1  0.41421000  0.58163000  0.86921000  1.0 -0.2076389332
N  N142  1  0.13495000  0.86921000  0.58163000  1.0 -0.2076389332
N  N143  1  0.86921000  0.13495000  0.41421000  1.0 -0.2076389332
N  N144  1  0.58163000  0.41421000  0.13495000  1.0 -0.2076389332
N  N145  1  0.58297000  0.04221000  0.02651000  1.0 -0.3995476015
N  N146  1  0.04221000  0.58297000  0.34831000  1.0 -0.4077488337
N  N147  1  0.02651000  0.34831000  0.58297000  1.0 -0.3995476015
N  N148  1  0.34831000  0.02651000  0.04221000  1.0 -0.4077488337
N  N149  1  0.02651000  0.58297000  0.04221000  1.0 -0.3995476015
N  N150  1  0.34831000  0.04221000  0.58297000  1.0 -0.3995476015
N  N151  1  0.58297000  0.02651000  0.34831000  1.0 -0.3995476015
N  N152  1  0.04221000  0.34831000  0.02651000  1.0 -0.4077488337
N  N153  1  0.04221000  0.02651000  0.58297000  1.0 -0.3995476015
N  N154  1  0.58297000  0.34831000  0.04221000  1.0 -0.4077488337
N  N155  1  0.34831000  0.58297000  0.02651000  1.0 -0.4077488337
N  N156  1  0.02651000  0.04221000  0.34831000  1.0 -0.3995476015
N  N157  1  0.66703000  0.20779000  0.90169000  1.0 -0.3995476015
N  N158  1  0.20779000  0.66703000  0.22349000  1.0 -0.4077488337
N  N159  1  0.22349000  0.90169000  0.20779000  1.0 -0.4077488337
N  N160  1  0.90169000  0.22349000  0.66703000  1.0 -0.3995476015
N  N161  1  0.22349000  0.66703000  0.90169000  1.0 -0.3995476015
N  N162  1  0.90169000  0.20779000  0.22349000  1.0 -0.4077488337
N  N163  1  0.66703000  0.22349000  0.20779000  1.0 -0.4077488337
N  N164  1  0.20779000  0.90169000  0.66703000  1.0 -0.3995476015
N  N165  1  0.20779000  0.22349000  0.90169000  1.0 -0.3995476015
N  N166  1  0.66703000  0.90169000  0.22349000  1.0 -0.4077488337
N  N167  1  0.90169000  0.66703000  0.20779000  1.0 -0.4077488337
N  N168  1  0.22349000  0.20779000  0.66703000  1.0 -0.3995476015
N  N169  1  0.16703000  0.70779000  0.72349000  1.0 -0.3995476015
N  N170  1  0.70779000  0.16703000  0.40169000  1.0 -0.3995476015
N  N171  1  0.72349000  0.40169000  0.16703000  1.0 -0.4077488337
N  N172  1  0.40169000  0.72349000  0.70779000  1.0 -0.4077488337
N  N173  1  0.72349000  0.16703000  0.70779000  1.0 -0.3995476015
N  N174  1  0.40169000  0.70779000  0.16703000  1.0 -0.3995476015
N  N175  1  0.16703000  0.72349000  0.40169000  1.0 -0.4077488337
N  N176  1  0.70779000  0.40169000  0.72349000  1.0 -0.3995476015
N  N177  1  0.70779000  0.72349000  0.16703000  1.0 -0.4077488337
N  N178  1  0.16703000  0.40169000  0.70779000  1.0 -0.3995476015
N  N179  1  0.40169000  0.16703000  0.72349000  1.0 -0.3995476015
N  N180  1  0.72349000  0.70779000  0.40169000  1.0 -0.4077488337
N  N181  1  0.08297000  0.54221000  0.84831000  1.0 -0.4077488337
N  N182  1  0.54221000  0.08297000  0.52651000  1.0 -0.3995476015
N  N183  1  0.52651000  0.84831000  0.54221000  1.0 -0.3995476015
N  N184  1  0.84831000  0.52651000  0.08297000  1.0 -0.3995476015
N  N185  1  0.52651000  0.08297000  0.84831000  1.0 -0.3995476015
N  N186  1  0.84831000  0.54221000  0.52651000  1.0 -0.4077488337
N  N187  1  0.08297000  0.52651000  0.54221000  1.0 -0.3995476015
N  N188  1  0.54221000  0.84831000  0.08297000  1.0 -0.4077488337
N  N189  1  0.54221000  0.52651000  0.84831000  1.0 -0.4077488337
N  N190  1  0.08297000  0.84831000  0.52651000  1.0 -0.4077488337
N  N191  1  0.84831000  0.08297000  0.54221000  1.0 -0.3995476015
N  N192  1  0.52651000  0.54221000  0.08297000  1.0 -0.4077488337
N  N193  1  0.54757000  0.00883000  0.08033000  1.0 -0.4077488337
N  N194  1  0.00883000  0.54757000  0.36327000  1.0 -0.4077488337
N  N195  1  0.08033000  0.36327000  0.54757000  1.0 -0.4077488337
N  N196  1  0.36327000  0.08033000  0.00883000  1.0 -0.4077488337
N  N197  1  0.08033000  0.54757000  0.00883000  1.0 -0.3995476015
N  N198  1  0.36327000  0.00883000  0.54757000  1.0 -0.3995476015
N  N199  1  0.54757000  0.08033000  0.36327000  1.0 -0.3995476015
N  N200  1  0.00883000  0.36327000  0.08033000  1.0 -0.4077488337
N  N201  1  0.00883000  0.08033000  0.54757000  1.0 -0.4077488337
N  N202  1  0.54757000  0.36327000  0.00883000  1.0 -0.4077488337
N  N203  1  0.36327000  0.54757000  0.08033000  1.0 -0.4077488337
N  N204  1  0.08033000  0.00883000  0.36327000  1.0 -0.4077488337
N  N205  1  0.70243000  0.24117000  0.88673000  1.0 -0.3995476015
N  N206  1  0.24117000  0.70243000  0.16967000  1.0 -0.4077488337
N  N207  1  0.16967000  0.88673000  0.24117000  1.0 -0.4077488337
N  N208  1  0.88673000  0.16967000  0.70243000  1.0 -0.4077488337
N  N209  1  0.16967000  0.70243000  0.88673000  1.0 -0.4077488337
N  N210  1  0.88673000  0.24117000  0.16967000  1.0 -0.4077488337
N  N211  1  0.70243000  0.16967000  0.24117000  1.0 -0.4077488337
N  N212  1  0.24117000  0.88673000  0.70243000  1.0 -0.3995476015
N  N213  1  0.24117000  0.16967000  0.88673000  1.0 -0.3995476015
N  N214  1  0.70243000  0.88673000  0.16967000  1.0 -0.3995476015
N  N215  1  0.88673000  0.70243000  0.24117000  1.0 -0.4077488337
N  N216  1  0.16967000  0.24117000  0.70243000  1.0 -0.4077488337
N  N217  1  0.20243000  0.74117000  0.66967000  1.0 -0.3995476015
N  N218  1  0.74117000  0.20243000  0.38673000  1.0 -0.4077488337
N  N219  1  0.66967000  0.38673000  0.20243000  1.0 -0.4077488337
N  N220  1  0.38673000  0.66967000  0.74117000  1.0 -0.4077488337
N  N221  1  0.66967000  0.20243000  0.74117000  1.0 -0.4077488337
N  N222  1  0.38673000  0.74117000  0.20243000  1.0 -0.4077488337
N  N223  1  0.20243000  0.66967000  0.38673000  1.0 -0.4077488337
N  N224  1  0.74117000  0.38673000  0.66967000  1.0 -0.3995476015
N  N225  1  0.74117000  0.66967000  0.20243000  1.0 -0.4077488337
N  N226  1  0.20243000  0.38673000  0.74117000  1.0 -0.3995476015
N  N227  1  0.38673000  0.20243000  0.66967000  1.0 -0.3995476015
N  N228  1  0.66967000  0.74117000  0.38673000  1.0 -0.4077488337
N  N229  1  0.04757000  0.50883000  0.86327000  1.0 -0.4077488337
N  N230  1  0.50883000  0.04757000  0.58033000  1.0 -0.4077488337
N  N231  1  0.58033000  0.86327000  0.50883000  1.0 -0.3995476015
N  N232  1  0.86327000  0.58033000  0.04757000  1.0 -0.4077488337
N  N233  1  0.58033000  0.04757000  0.86327000  1.0 -0.3995476015
N  N234  1  0.86327000  0.50883000  0.58033000  1.0 -0.4077488337
N  N235  1  0.04757000  0.58033000  0.50883000  1.0 -0.3995476015
N  N236  1  0.50883000  0.86327000  0.04757000  1.0 -0.4077488337
N  N237  1  0.50883000  0.58033000  0.86327000  1.0 -0.4077488337
N  N238  1  0.04757000  0.86327000  0.58033000  1.0 -0.4077488337
N  N239  1  0.86327000  0.04757000  0.50883000  1.0 -0.4077488337
N  N240  1  0.58033000  0.50883000  0.04757000  1.0 -0.4077488337
N  N241  1  0.52206000  0.07254000  0.05456000  1.0 -0.3995476015
N  N242  1  0.07254000  0.52206000  0.35084000  1.0 -0.3995476015
N  N243  1  0.05456000  0.35084000  0.52206000  1.0 -0.3995476015
N  N244  1  0.35084000  0.05456000  0.07254000  1.0 -0.3995476015
N  N245  1  0.05456000  0.52206000  0.07254000  1.0 -0.3995476015
N  N246  1  0.35084000  0.07254000  0.52206000  1.0 -0.3995476015
N  N247  1  0.52206000  0.05456000  0.35084000  1.0 -0.3995476015
N  N248  1  0.07254000  0.35084000  0.05456000  1.0 -0.3995476015
N  N249  1  0.07254000  0.05456000  0.52206000  1.0 -0.3995476015
N  N250  1  0.52206000  0.35084000  0.07254000  1.0 -0.3995476015
N  N251  1  0.35084000  0.52206000  0.05456000  1.0 -0.3995476015
N  N252  1  0.05456000  0.07254000  0.35084000  1.0 -0.3995476015
N  N253  1  0.72794000  0.17746000  0.89916000  1.0 -0.3995476015
N  N254  1  0.17746000  0.72794000  0.19544000  1.0 -0.3995476015
N  N255  1  0.19544000  0.89916000  0.17746000  1.0 -0.3995476015
N  N256  1  0.89916000  0.19544000  0.72794000  1.0 -0.3995476015
N  N257  1  0.19544000  0.72794000  0.89916000  1.0 -0.3995476015
N  N258  1  0.89916000  0.17746000  0.19544000  1.0 -0.3995476015
N  N259  1  0.72794000  0.19544000  0.17746000  1.0 -0.3995476015
N  N260  1  0.17746000  0.89916000  0.72794000  1.0 -0.3995476015
N  N261  1  0.17746000  0.19544000  0.89916000  1.0 -0.3995476015
N  N262  1  0.72794000  0.89916000  0.19544000  1.0 -0.3995476015
N  N263  1  0.89916000  0.72794000  0.17746000  1.0 -0.3995476015
N  N264  1  0.19544000  0.17746000  0.72794000  1.0 -0.3995476015
N  N265  1  0.22794000  0.67746000  0.69544000  1.0 -0.3995476015
N  N266  1  0.67746000  0.22794000  0.39916000  1.0 -0.3995476015
N  N267  1  0.69544000  0.39916000  0.22794000  1.0 -0.3995476015
N  N268  1  0.39916000  0.69544000  0.67746000  1.0 -0.3995476015
N  N269  1  0.69544000  0.22794000  0.67746000  1.0 -0.3995476015
N  N270  1  0.39916000  0.67746000  0.22794000  1.0 -0.3995476015
N  N271  1  0.22794000  0.69544000  0.39916000  1.0 -0.3995476015
N  N272  1  0.67746000  0.39916000  0.69544000  1.0 -0.3995476015
N  N273  1  0.67746000  0.69544000  0.22794000  1.0 -0.3995476015
N  N274  1  0.22794000  0.39916000  0.67746000  1.0 -0.3995476015
N  N275  1  0.39916000  0.22794000  0.69544000  1.0 -0.3995476015
N  N276  1  0.69544000  0.67746000  0.39916000  1.0 -0.3995476015
N  N277  1  0.02206000  0.57254000  0.85084000  1.0 -0.3995476015
N  N278  1  0.57254000  0.02206000  0.55456000  1.0 -0.3995476015
N  N279  1  0.55456000  0.85084000  0.57254000  1.0 -0.3995476015
N  N280  1  0.85084000  0.55456000  0.02206000  1.0 -0.3995476015
N  N281  1  0.55456000  0.02206000  0.85084000  1.0 -0.3995476015
N  N282  1  0.85084000  0.57254000  0.55456000  1.0 -0.3995476015
N  N283  1  0.02206000  0.55456000  0.57254000  1.0 -0.3995476015
N  N284  1  0.57254000  0.85084000  0.02206000  1.0 -0.3995476015
N  N285  1  0.57254000  0.55456000  0.85084000  1.0 -0.3995476015
N  N286  1  0.02206000  0.85084000  0.55456000  1.0 -0.3995476015
N  N287  1  0.85084000  0.02206000  0.57254000  1.0 -0.3995476015
N  N288  1  0.55456000  0.57254000  0.02206000  1.0 -0.3995476015
N  N289  1  0.42109000  0.07089000  0.12731000  1.0 -0.2013167379
N  N290  1  0.07089000  0.42109000  0.38071000  1.0 -0.2013167379
N  N291  1  0.12731000  0.38071000  0.42109000  1.0 -0.2013167379
N  N292  1  0.38071000  0.12731000  0.07089000  1.0 -0.2013167379
N  N293  1  0.12731000  0.42109000  0.07089000  1.0 -0.2013167379
N  N294  1  0.38071000  0.07089000  0.42109000  1.0 -0.2013167379
N  N295  1  0.42109000  0.12731000  0.38071000  1.0 -0.2013167379
N  N296  1  0.07089000  0.38071000  0.12731000  1.0 -0.2013167379
N  N297  1  0.07089000  0.12731000  0.42109000  1.0 -0.2013167379
N  N298  1  0.42109000  0.38071000  0.07089000  1.0 -0.2013167379
N  N299  1  0.38071000  0.42109000  0.12731000  1.0 -0.2013167379
N  N300  1  0.12731000  0.07089000  0.38071000  1.0 -0.2013167379
N  N301  1  0.82891000  0.17911000  0.86929000  1.0 -0.2013167379
N  N302  1  0.17911000  0.82891000  0.12269000  1.0 -0.2013167379
N  N303  1  0.12269000  0.86929000  0.17911000  1.0 -0.2013167379
N  N304  1  0.86929000  0.12269000  0.82891000  1.0 -0.2013167379
N  N305  1  0.12269000  0.82891000  0.86929000  1.0 -0.2013167379
N  N306  1  0.86929000  0.17911000  0.12269000  1.0 -0.2013167379
N  N307  1  0.82891000  0.12269000  0.17911000  1.0 -0.2013167379
N  N308  1  0.17911000  0.86929000  0.82891000  1.0 -0.2013167379
N  N309  1  0.17911000  0.12269000  0.86929000  1.0 -0.2013167379
N  N310  1  0.82891000  0.86929000  0.12269000  1.0 -0.2013167379
N  N311  1  0.86929000  0.82891000  0.17911000  1.0 -0.2013167379
N  N312  1  0.12269000  0.17911000  0.82891000  1.0 -0.2013167379
N  N313  1  0.32891000  0.67911000  0.62269000  1.0 -0.2013167379
N  N314  1  0.67911000  0.32891000  0.36929000  1.0 -0.2013167379
N  N315  1  0.62269000  0.36929000  0.32891000  1.0 -0.2013167379
N  N316  1  0.36929000  0.62269000  0.67911000  1.0 -0.2013167379
N  N317  1  0.62269000  0.32891000  0.67911000  1.0 -0.2013167379
N  N318  1  0.36929000  0.67911000  0.32891000  1.0 -0.2013167379
N  N319  1  0.32891000  0.62269000  0.36929000  1.0 -0.2013167379
N  N320  1  0.67911000  0.36929000  0.62269000  1.0 -0.2013167379
N  N321  1  0.67911000  0.62269000  0.32891000  1.0 -0.2013167379
N  N322  1  0.32891000  0.36929000  0.67911000  1.0 -0.2013167379
N  N323  1  0.36929000  0.32891000  0.62269000  1.0 -0.2013167379
N  N324  1  0.62269000  0.67911000  0.36929000  1.0 -0.2013167379
N  N325  1  0.92109000  0.57089000  0.88071000  1.0 -0.2013167379
N  N326  1  0.57089000  0.92109000  0.62731000  1.0 -0.2013167379
N  N327  1  0.62731000  0.88071000  0.57089000  1.0 -0.2013167379
N  N328  1  0.88071000  0.62731000  0.92109000  1.0 -0.2013167379
N  N329  1  0.62731000  0.92109000  0.88071000  1.0 -0.2013167379
N  N330  1  0.88071000  0.57089000  0.62731000  1.0 -0.2013167379
N  N331  1  0.92109000  0.62731000  0.57089000  1.0 -0.2013167379
N  N332  1  0.57089000  0.88071000  0.92109000  1.0 -0.2013167379
N  N333  1  0.57089000  0.62731000  0.88071000  1.0 -0.2013167379
N  N334  1  0.92109000  0.88071000  0.62731000  1.0 -0.2013167379
N  N335  1  0.88071000  0.92109000  0.57089000  1.0 -0.2013167379
N  N336  1  0.62731000  0.57089000  0.92109000  1.0 -0.2013167379
N  N337  1  0.41127000  0.15357000  0.09403000  1.0 -0.4599375562
N  N338  1  0.15357000  0.41127000  0.34113000  1.0 -0.4599375562
N  N339  1  0.09403000  0.34113000  0.41127000  1.0 -0.4599375562
N  N340  1  0.34113000  0.09403000  0.15357000  1.0 -0.4599375562
N  N341  1  0.09403000  0.41127000  0.15357000  1.0 -0.4599375562
N  N342  1  0.34113000  0.15357000  0.41127000  1.0 -0.4599375562
N  N343  1  0.41127000  0.09403000  0.34113000  1.0 -0.4599375562
N  N344  1  0.15357000  0.34113000  0.09403000  1.0 -0.4599375562
N  N345  1  0.15357000  0.09403000  0.41127000  1.0 -0.4599375562
N  N346  1  0.41127000  0.34113000  0.15357000  1.0 -0.4599375562
N  N347  1  0.34113000  0.41127000  0.09403000  1.0 -0.4599375562
N  N348  1  0.09403000  0.15357000  0.34113000  1.0 -0.4599375562
N  N349  1  0.83873000  0.09643000  0.90887000  1.0 -0.4599375562
N  N350  1  0.09643000  0.83873000  0.15597000  1.0 -0.4599375562
N  N351  1  0.15597000  0.90887000  0.09643000  1.0 -0.4599375562
N  N352  1  0.90887000  0.15597000  0.83873000  1.0 -0.4599375562
N  N353  1  0.15597000  0.83873000  0.90887000  1.0 -0.4599375562
N  N354  1  0.90887000  0.09643000  0.15597000  1.0 -0.4599375562
N  N355  1  0.83873000  0.15597000  0.09643000  1.0 -0.4599375562
N  N356  1  0.09643000  0.90887000  0.83873000  1.0 -0.4599375562
N  N357  1  0.09643000  0.15597000  0.90887000  1.0 -0.4599375562
N  N358  1  0.83873000  0.90887000  0.15597000  1.0 -0.4599375562
N  N359  1  0.90887000  0.83873000  0.09643000  1.0 -0.4599375562
N  N360  1  0.15597000  0.09643000  0.83873000  1.0 -0.4599375562
N  N361  1  0.33873000  0.59643000  0.65597000  1.0 -0.4599375562
N  N362  1  0.59643000  0.33873000  0.40887000  1.0 -0.4599375562
N  N363  1  0.65597000  0.40887000  0.33873000  1.0 -0.4599375562
N  N364  1  0.40887000  0.65597000  0.59643000  1.0 -0.4599375562
N  N365  1  0.65597000  0.33873000  0.59643000  1.0 -0.4599375562
N  N366  1  0.40887000  0.59643000  0.33873000  1.0 -0.4599375562
N  N367  1  0.33873000  0.65597000  0.40887000  1.0 -0.4599375562
N  N368  1  0.59643000  0.40887000  0.65597000  1.0 -0.4599375562
N  N369  1  0.59643000  0.65597000  0.33873000  1.0 -0.4599375562
N  N370  1  0.33873000  0.40887000  0.59643000  1.0 -0.4599375562
N  N371  1  0.40887000  0.33873000  0.65597000  1.0 -0.4599375562
N  N372  1  0.65597000  0.59643000  0.40887000  1.0 -0.4599375562
N  N373  1  0.91127000  0.65357000  0.84113000  1.0 -0.4599375562
N  N374  1  0.65357000  0.91127000  0.59403000  1.0 -0.4599375562
N  N375  1  0.59403000  0.84113000  0.65357000  1.0 -0.4599375562
N  N376  1  0.84113000  0.59403000  0.91127000  1.0 -0.4599375562
N  N377  1  0.59403000  0.91127000  0.84113000  1.0 -0.4599375562
N  N378  1  0.84113000  0.65357000  0.59403000  1.0 -0.4599375562
N  N379  1  0.91127000  0.59403000  0.65357000  1.0 -0.4599375562
N  N380  1  0.65357000  0.84113000  0.91127000  1.0 -0.4599375562
N  N381  1  0.65357000  0.59403000  0.84113000  1.0 -0.4599375562
N  N382  1  0.91127000  0.84113000  0.59403000  1.0 -0.4599375562
N  N383  1  0.84113000  0.91127000  0.65357000  1.0 -0.4599375562
N  N384  1  0.59403000  0.65357000  0.91127000  1.0 -0.4599375562
N  N385  1  0.38121000  0.11781000  0.17133000  1.0 -0.2013167379
N  N386  1  0.11781000  0.38121000  0.32965000  1.0 -0.2013167379
N  N387  1  0.17133000  0.32965000  0.38121000  1.0 -0.2013167379
N  N388  1  0.32965000  0.17133000  0.11781000  1.0 -0.2013167379
N  N389  1  0.17133000  0.38121000  0.11781000  1.0 -0.2013167379
N  N390  1  0.32965000  0.11781000  0.38121000  1.0 -0.2013167379
N  N391  1  0.38121000  0.17133000  0.32965000  1.0 -0.2013167379
N  N392  1  0.11781000  0.32965000  0.17133000  1.0 -0.2013167379
N  N393  1  0.11781000  0.17133000  0.38121000  1.0 -0.2013167379
N  N394  1  0.38121000  0.32965000  0.11781000  1.0 -0.2013167379
N  N395  1  0.32965000  0.38121000  0.17133000  1.0 -0.2013167379
N  N396  1  0.17133000  0.11781000  0.32965000  1.0 -0.2013167379
N  N397  1  0.86879000  0.13219000  0.92035000  1.0 -0.2013167379
N  N398  1  0.13219000  0.86879000  0.07867000  1.0 -0.2013167379
N  N399  1  0.07867000  0.92035000  0.13219000  1.0 -0.2013167379
N  N400  1  0.92035000  0.07867000  0.86879000  1.0 -0.2013167379
N  N401  1  0.07867000  0.86879000  0.92035000  1.0 -0.2013167379
N  N402  1  0.92035000  0.13219000  0.07867000  1.0 -0.2013167379
N  N403  1  0.86879000  0.07867000  0.13219000  1.0 -0.2013167379
N  N404  1  0.13219000  0.92035000  0.86879000  1.0 -0.2013167379
N  N405  1  0.13219000  0.07867000  0.92035000  1.0 -0.2013167379
N  N406  1  0.86879000  0.92035000  0.07867000  1.0 -0.2013167379
N  N407  1  0.92035000  0.86879000  0.13219000  1.0 -0.2013167379
N  N408  1  0.07867000  0.13219000  0.86879000  1.0 -0.2013167379
N  N409  1  0.36879000  0.63219000  0.57867000  1.0 -0.2013167379
N  N410  1  0.63219000  0.36879000  0.42035000  1.0 -0.2013167379
N  N411  1  0.57867000  0.42035000  0.36879000  1.0 -0.2013167379
N  N412  1  0.42035000  0.57867000  0.63219000  1.0 -0.2013167379
N  N413  1  0.57867000  0.36879000  0.63219000  1.0 -0.2013167379
N  N414  1  0.42035000  0.63219000  0.36879000  1.0 -0.2013167379
N  N415  1  0.36879000  0.57867000  0.42035000  1.0 -0.2013167379
N  N416  1  0.63219000  0.42035000  0.57867000  1.0 -0.2013167379
N  N417  1  0.63219000  0.57867000  0.36879000  1.0 -0.2013167379
N  N418  1  0.36879000  0.42035000  0.63219000  1.0 -0.2013167379
N  N419  1  0.42035000  0.36879000  0.57867000  1.0 -0.2013167379
N  N420  1  0.57867000  0.63219000  0.42035000  1.0 -0.2013167379
N  N421  1  0.88121000  0.61781000  0.82965000  1.0 -0.2013167379
N  N422  1  0.61781000  0.88121000  0.67133000  1.0 -0.2013167379
N  N423  1  0.67133000  0.82965000  0.61781000  1.0 -0.2013167379
N  N424  1  0.82965000  0.67133000  0.88121000  1.0 -0.2013167379
N  N425  1  0.67133000  0.88121000  0.82965000  1.0 -0.2013167379
N  N426  1  0.82965000  0.61781000  0.67133000  1.0 -0.2013167379
N  N427  1  0.88121000  0.67133000  0.61781000  1.0 -0.2013167379
N  N428  1  0.61781000  0.82965000  0.88121000  1.0 -0.2013167379
N  N429  1  0.61781000  0.67133000  0.82965000  1.0 -0.2013167379
N  N430  1  0.88121000  0.82965000  0.67133000  1.0 -0.2013167379
N  N431  1  0.82965000  0.88121000  0.61781000  1.0 -0.2013167379
N  N432  1  0.67133000  0.61781000  0.88121000  1.0 -0.2013167379
N  N433  1  0.29574000  0.10926000  0.26740000  1.0 -0.3941516886
N  N434  1  0.10926000  0.29574000  0.32760000  1.0 -0.3995476015
N  N435  1  0.26740000  0.32760000  0.29574000  1.0 -0.3941516886
N  N436  1  0.32760000  0.26740000  0.10926000  1.0 -0.3995476015
N  N437  1  0.26740000  0.29574000  0.10926000  1.0 -0.3995476015
N  N438  1  0.32760000  0.10926000  0.29574000  1.0 -0.3941516886
N  N439  1  0.29574000  0.26740000  0.32760000  1.0 -0.3941516886
N  N440  1  0.10926000  0.32760000  0.26740000  1.0 -0.3995476015
N  N441  1  0.10926000  0.26740000  0.29574000  1.0 -0.3995476015
N  N442  1  0.29574000  0.32760000  0.10926000  1.0 -0.3941516886
N  N443  1  0.32760000  0.29574000  0.26740000  1.0 -0.3941516886
N  N444  1  0.26740000  0.10926000  0.32760000  1.0 -0.3941516886
N  N445  1  0.95426000  0.14074000  0.92240000  1.0 -0.3941516886
N  N446  1  0.14074000  0.95426000  0.98260000  1.0 -0.3941516886
N  N447  1  0.98260000  0.92240000  0.14074000  1.0 -0.3995476015
N  N448  1  0.92240000  0.98260000  0.95426000  1.0 -0.3941516886
N  N449  1  0.98260000  0.95426000  0.92240000  1.0 -0.3941516886
N  N450  1  0.92240000  0.14074000  0.98260000  1.0 -0.3941516886
N  N451  1  0.95426000  0.98260000  0.14074000  1.0 -0.3941516886
N  N452  1  0.14074000  0.92240000  0.95426000  1.0 -0.3941516886
N  N453  1  0.14074000  0.98260000  0.92240000  1.0 -0.3941516886
N  N454  1  0.95426000  0.92240000  0.98260000  1.0 -0.3941516886
N  N455  1  0.92240000  0.95426000  0.14074000  1.0 -0.3995476015
N  N456  1  0.98260000  0.14074000  0.95426000  1.0 -0.3941516886
N  N457  1  0.45426000  0.64074000  0.48260000  1.0 -0.3941516886
N  N458  1  0.64074000  0.45426000  0.42240000  1.0 -0.3941516886
N  N459  1  0.48260000  0.42240000  0.45426000  1.0 -0.3941516886
N  N460  1  0.42240000  0.48260000  0.64074000  1.0 -0.3941516886
N  N461  1  0.48260000  0.45426000  0.64074000  1.0 -0.3941516886
N  N462  1  0.42240000  0.64074000  0.45426000  1.0 -0.3941516886
N  N463  1  0.45426000  0.48260000  0.42240000  1.0 -0.3941516886
N  N464  1  0.64074000  0.42240000  0.48260000  1.0 -0.3941516886
N  N465  1  0.64074000  0.48260000  0.45426000  1.0 -0.3941516886
N  N466  1  0.45426000  0.42240000  0.64074000  1.0 -0.3941516886
N  N467  1  0.42240000  0.45426000  0.48260000  1.0 -0.3941516886
N  N468  1  0.48260000  0.64074000  0.42240000  1.0 -0.3941516886
N  N469  1  0.79574000  0.60926000  0.82760000  1.0 -0.3941516886
N  N470  1  0.60926000  0.79574000  0.76740000  1.0 -0.3941516886
N  N471  1  0.76740000  0.82760000  0.60926000  1.0 -0.3941516886
N  N472  1  0.82760000  0.76740000  0.79574000  1.0 -0.3941516886
N  N473  1  0.76740000  0.79574000  0.82760000  1.0 -0.3995476015
N  N474  1  0.82760000  0.60926000  0.76740000  1.0 -0.3995476015
N  N475  1  0.79574000  0.76740000  0.60926000  1.0 -0.3941516886
N  N476  1  0.60926000  0.82760000  0.79574000  1.0 -0.3941516886
N  N477  1  0.60926000  0.76740000  0.82760000  1.0 -0.3941516886
N  N478  1  0.79574000  0.82760000  0.76740000  1.0 -0.3941516886
N  N479  1  0.82760000  0.79574000  0.60926000  1.0 -0.3995476015
N  N480  1  0.76740000  0.60926000  0.79574000  1.0 -0.3995476015
