# DDEC6 charges by PACMAN v1.1 (https://github.com/mtap-research/PACMAN-charge/)
data_LAZGOK_ASR_pacman
_symmetry_space_group_name_H-M   'P 1'
_cell_length_a   11.58300000
_cell_length_b   11.66500000
_cell_length_c   14.15900000
_cell_angle_alpha   93.93200000
_cell_angle_beta   111.98000000
_cell_angle_gamma   110.01800000
_symmetry_Int_Tables_number   1
_chemical_formula_structural   Cu5H24C30(NO2)12
_chemical_formula_sum   'Cu5 H24 C30 N12 O24'
_cell_volume   1623.83909103
_cell_formula_units_Z   1
loop_
 _symmetry_equiv_pos_site_id
 _symmetry_equiv_pos_as_xyz
  1  'x, y, z'
loop_
 _atom_site_type_symbol
 _atom_site_label
 _atom_site_symmetry_multiplicity
 _atom_site_fract_x
 _atom_site_fract_y
 _atom_site_fract_z
 _atom_site_occupancy
 _atom_site_charge
Cu  Cu1  1  0.39120000  0.35341000  0.35517000  1.0 0.9285399831
Cu  Cu2  1  0.36843000  0.91268000  0.52451000  1.0 0.7207522012
Cu  Cu3  1  0.60880000  0.64659000  0.64483000  1.0 0.9285399831
Cu  Cu4  1  0.63157000  0.08732000  0.47549000  1.0 0.7207522012
Cu  Cu5  1  0.50000000  0.00000000  0.00000000  1.0 0.9727438308
H  H1  1  0.11040000  0.96540000  0.32660000  1.0 0.1599248366
H  H2  1  0.14620000  0.10740000  0.37610000  1.0 0.1491992962
H  H3  1  0.27890000  0.18080000  0.55870000  1.0 0.1599248366
H  H4  1  0.17410000  0.10080000  0.60070000  1.0 0.1432008362
H  H5  1  0.69490000  0.60000000  0.16510000  1.0 0.1432008362
H  H6  1  0.79140000  0.74120000  0.22820000  1.0 0.1432008362
H  H7  1  0.70700000  0.43490000  0.24510000  1.0 0.1599248366
H  H8  1  0.80610000  0.46060000  0.36560000  1.0 0.1491992962
H  H9  1  0.96650000  0.53590000  0.62140000  1.0 0.1491992962
H  H10  1  0.00230000  0.58520000  0.74110000  1.0 0.1491992962
H  H11  1  0.08730000  0.89440000  0.74270000  1.0 0.1491992962
H  H12  1  0.06270000  0.79050000  0.80880000  1.0 0.1491992962
H  H13  1  0.88960000  0.03460000  0.67340000  1.0 0.1599248366
H  H14  1  0.85380000  0.89260000  0.62390000  1.0 0.1491992962
H  H15  1  0.72110000  0.81920000  0.44130000  1.0 0.1599248366
H  H16  1  0.82590000  0.89920000  0.39930000  1.0 0.1432008362
H  H17  1  0.30510000  0.40000000  0.83490000  1.0 0.1432008362
H  H18  1  0.20860000  0.25880000  0.77180000  1.0 0.1432008362
H  H19  1  0.29300000  0.56510000  0.75490000  1.0 0.1599248366
H  H20  1  0.19390000  0.53940000  0.63440000  1.0 0.1491992962
H  H21  1  0.03350000  0.46410000  0.37860000  1.0 0.1491992962
H  H22  1  0.99770000  0.41480000  0.25890000  1.0 0.1491992962
H  H23  1  0.91270000  0.10560000  0.25730000  1.0 0.1491992962
H  H24  1  0.93730000  0.20950000  0.19120000  1.0 0.1491992962
C  C1  1  0.32130000  0.07910000  0.38370000  1.0 0.6430313504
C  C2  1  0.17670000  0.03770000  0.38560000  1.0 -0.2518822932
C  C3  1  0.24430000  0.09960000  0.57720000  1.0 -0.2518822932
C  C4  1  0.35830000  0.09260000  0.66790000  1.0 0.6115353919
C  C5  1  0.08850000  0.88910000  0.48180000  1.0 0.4574145294
C  C6  1  0.92950000  0.69730000  0.39970000  1.0 0.4957406736
C  C7  1  0.78980000  0.65660000  0.21170000  1.0 -0.2570749902
C  C8  1  0.87340000  0.66220000  0.15510000  1.0 0.5594747878
C  C9  1  0.74690000  0.49270000  0.31400000  1.0 -0.2323823877
C  C10  1  0.63490000  0.48800000  0.34300000  1.0 0.6115353919
C  C11  1  0.02390000  0.75140000  0.57300000  1.0 0.4937310434
C  C12  1  0.96040000  0.59690000  0.66950000  1.0 -0.2363318288
C  C13  1  0.81290000  0.56840000  0.64090000  1.0 0.6115353919
C  C14  1  0.10490000  0.81980000  0.76100000  1.0 -0.2323823877
C  C15  1  0.25580000  0.85910000  0.81900000  1.0 0.6308315612
C  C16  1  0.67870000  0.92090000  0.61630000  1.0 0.6430313504
C  C17  1  0.82330000  0.96230000  0.61440000  1.0 -0.2518822932
C  C18  1  0.75570000  0.90040000  0.42280000  1.0 -0.2518822932
C  C19  1  0.64170000  0.90740000  0.33210000  1.0 0.6115353919
C  C20  1  0.91150000  0.11090000  0.51820000  1.0 0.4574145294
C  C21  1  0.07050000  0.30270000  0.60030000  1.0 0.4957406736
C  C22  1  0.21020000  0.34340000  0.78830000  1.0 -0.2570749902
C  C23  1  0.12660000  0.33780000  0.84490000  1.0 0.5594747878
C  C24  1  0.25310000  0.50730000  0.68600000  1.0 -0.2323823877
C  C25  1  0.36510000  0.51200000  0.65700000  1.0 0.6115353919
C  C26  1  0.97610000  0.24860000  0.42700000  1.0 0.4937310434
C  C27  1  0.03960000  0.40310000  0.33050000  1.0 -0.2363318288
C  C28  1  0.18710000  0.43160000  0.35910000  1.0 0.6115353919
C  C29  1  0.89510000  0.18020000  0.23900000  1.0 -0.2323823877
C  C30  1  0.74420000  0.14090000  0.18100000  1.0 0.6308315612
N  N1  1  0.17930000  0.00320000  0.48400000  1.0 -0.094709807
N  N2  1  0.00150000  0.80930000  0.38880000  1.0 -0.4686393224
N  N3  1  0.83060000  0.61390000  0.30850000  1.0 -0.0468330615
N  N4  1  0.93820000  0.65960000  0.48830000  1.0 -0.4825916075
N  N5  1  0.03720000  0.72140000  0.66530000  1.0 -0.0387761434
N  N6  1  0.09690000  0.87020000  0.57440000  1.0 -0.4825916075
N  N7  1  0.82070000  0.99680000  0.51600000  1.0 -0.0950343617
N  N8  1  0.99850000  0.19070000  0.61120000  1.0 -0.4686393224
N  N9  1  0.16940000  0.38610000  0.69150000  1.0 -0.0468330615
N  N10  1  0.06180000  0.34040000  0.51170000  1.0 -0.4825916075
N  N11  1  0.96280000  0.27860000  0.33470000  1.0 -0.0387761434
N  N12  1  0.90310000  0.12980000  0.42560000  1.0 -0.4825916075
O  O1  1  0.33460000  0.14020000  0.31650000  1.0 -0.5015390598
O  O2  1  0.40450000  0.04190000  0.44400000  1.0 -0.5197698855
O  O3  1  0.42220000  0.02960000  0.65200000  1.0 -0.4896369829
O  O4  1  0.39010000  0.15420000  0.75390000  1.0 -0.430416488
O  O5  1  0.97950000  0.62400000  0.19580000  1.0 -0.4896369829
O  O6  1  0.81840000  0.70090000  0.06110000  1.0 -0.453419783
O  O7  1  0.61140000  0.58450000  0.35350000  1.0 -0.511612215
O  O8  1  0.56650000  0.38400000  0.35420000  1.0 -0.511612215
O  O9  1  0.77970000  0.66180000  0.64590000  1.0 -0.5748743796
O  O10  1  0.73110000  0.45650000  0.62010000  1.0 -0.4896369829
O  O11  1  0.31910000  0.81470000  0.78420000  1.0 -0.4896369829
O  O12  1  0.30900000  0.93980000  0.90420000  1.0 -0.5197698855
O  O13  1  0.66540000  0.85980000  0.68350000  1.0 -0.5015390598
O  O14  1  0.59550000  0.95810000  0.55600000  1.0 -0.5197698855
O  O15  1  0.57780000  0.97040000  0.34800000  1.0 -0.4896369829
O  O16  1  0.60990000  0.84580000  0.24610000  1.0 -0.430416488
O  O17  1  0.02050000  0.37600000  0.80420000  1.0 -0.4896369829
O  O18  1  0.18160000  0.29910000  0.93890000  1.0 -0.453419783
O  O19  1  0.38860000  0.41550000  0.64650000  1.0 -0.511612215
O  O20  1  0.43350000  0.61600000  0.64580000  1.0 -0.511612215
O  O21  1  0.22030000  0.33820000  0.35410000  1.0 -0.576450088
O  O22  1  0.26890000  0.54350000  0.37990000  1.0 -0.4825916075
O  O23  1  0.68090000  0.18530000  0.21580000  1.0 -0.4896369829
O  O24  1  0.69100000  0.06020000  0.09580000  1.0 -0.5197698855
