# DDEC6 charges by PACMAN v1.1 (https://github.com/mtap-research/PACMAN-charge/)
data_LAZHUR_FSR_pacman
_symmetry_space_group_name_H-M   'P 1'
_cell_length_a   10.40630000
_cell_length_b   9.31370000
_cell_length_c   23.88900000
_cell_angle_alpha   90.00000000
_cell_angle_beta   91.60300000
_cell_angle_gamma   90.00000000
_symmetry_Int_Tables_number   1
_chemical_formula_structural   Co2H32C41(N2O7)2
_chemical_formula_sum   'Co4 H64 C82 N8 O28'
_cell_volume   2314.44339499
_cell_formula_units_Z   2
loop_
 _symmetry_equiv_pos_site_id
 _symmetry_equiv_pos_as_xyz
  1  'x, y, z'
loop_
 _atom_site_type_symbol
 _atom_site_label
 _atom_site_symmetry_multiplicity
 _atom_site_fract_x
 _atom_site_fract_y
 _atom_site_fract_z
 _atom_site_occupancy
 _atom_site_charge
Co  Co1  1  0.00000000  0.14072000  0.75000000  1.0 0.7674437615
Co  Co2  1  0.00000000  0.85928000  0.25000000  1.0 0.7674437615
Co  Co3  1  0.50000000  0.50000000  0.50000000  1.0 0.8835272941
Co  Co4  1  0.50000000  0.50000000  0.00000000  1.0 0.8835272941
H  H1  1  0.81210000  0.86940000  0.62790000  1.0 0.1184329192
H  H2  1  0.18790000  0.86940000  0.87210000  1.0 0.1184329192
H  H3  1  0.18790000  0.13060000  0.37210000  1.0 0.1184329192
H  H4  1  0.81210000  0.13060000  0.12790000  1.0 0.1184329192
H  H5  1  0.40090000  0.29210000  0.30120000  1.0 0.1114356151
H  H6  1  0.59910000  0.29210000  0.19880000  1.0 0.1114356151
H  H7  1  0.59910000  0.70790000  0.69880000  1.0 0.1114356151
H  H8  1  0.40090000  0.70790000  0.80120000  1.0 0.1114356151
H  H9  1  0.30860000  0.18810000  0.26720000  1.0 0.1184329192
H  H10  1  0.69140000  0.18810000  0.23280000  1.0 0.1184329192
H  H11  1  0.69140000  0.81190000  0.73280000  1.0 0.1184329192
H  H12  1  0.30860000  0.81190000  0.76720000  1.0 0.1184329192
H  H13  1  0.63570000  0.92480000  0.38230000  1.0 0.1441890153
H  H14  1  0.36430000  0.92480000  0.11770000  1.0 0.1441890153
H  H15  1  0.36430000  0.07520000  0.61770000  1.0 0.1441890153
H  H16  1  0.63570000  0.07520000  0.88230000  1.0 0.1441890153
H  H17  1  0.90850000  0.51590000  0.54420000  1.0 0.1184329192
H  H18  1  0.09150000  0.51590000  0.95580000  1.0 0.1184329192
H  H19  1  0.09150000  0.48410000  0.45580000  1.0 0.1184329192
H  H20  1  0.90850000  0.48410000  0.04420000  1.0 0.1184329192
H  H21  1  0.64920000  0.74650000  0.44690000  1.0 0.1114356151
H  H22  1  0.35080000  0.74650000  0.05310000  1.0 0.1114356151
H  H23  1  0.35080000  0.25350000  0.55310000  1.0 0.1114356151
H  H24  1  0.64920000  0.25350000  0.94690000  1.0 0.1114356151
H  H25  1  0.17710000  0.73390000  0.63190000  1.0 0.1184329192
H  H26  1  0.82290000  0.73390000  0.86810000  1.0 0.1184329192
H  H27  1  0.82290000  0.26610000  0.36810000  1.0 0.1184329192
H  H28  1  0.17710000  0.26610000  0.13190000  1.0 0.1184329192
H  H29  1  0.34240000  0.56840000  0.16080000  1.0 0.152725528
H  H30  1  0.65760000  0.56840000  0.33920000  1.0 0.152725528
H  H31  1  0.65760000  0.43160000  0.83920000  1.0 0.152725528
H  H32  1  0.34240000  0.43160000  0.66080000  1.0 0.152725528
H  H33  1  0.26760000  0.81890000  0.35530000  1.0 0.152725528
H  H34  1  0.73240000  0.81890000  0.14470000  1.0 0.152725528
H  H35  1  0.73240000  0.18110000  0.64470000  1.0 0.152725528
H  H36  1  0.26760000  0.18110000  0.85530000  1.0 0.152725528
H  H37  1  0.21810000  0.40910000  0.30480000  1.0 0.152725528
H  H38  1  0.78190000  0.40910000  0.19520000  1.0 0.152725528
H  H39  1  0.78190000  0.59090000  0.69520000  1.0 0.152725528
H  H40  1  0.21810000  0.59090000  0.80480000  1.0 0.152725528
H  H41  1  0.11860000  0.53930000  0.57640000  1.0 0.1114356151
H  H42  1  0.88140000  0.53930000  0.92360000  1.0 0.1114356151
H  H43  1  0.88140000  0.46070000  0.42360000  1.0 0.1114356151
H  H44  1  0.11860000  0.46070000  0.07640000  1.0 0.1114356151
H  H45  1  0.29500000  0.63990000  0.41910000  1.0 0.1027190223
H  H46  1  0.70500000  0.63990000  0.08090000  1.0 0.1027190223
H  H47  1  0.70500000  0.36010000  0.58090000  1.0 0.1027190223
H  H48  1  0.29500000  0.36010000  0.91910000  1.0 0.1027190223
H  H49  1  0.09040000  0.60600000  0.31180000  1.0 0.1114356151
H  H50  1  0.90960000  0.60600000  0.18820000  1.0 0.1114356151
H  H51  1  0.90960000  0.39400000  0.68820000  1.0 0.1114356151
H  H52  1  0.09040000  0.39400000  0.81180000  1.0 0.1114356151
H  H53  1  0.21470000  0.76400000  0.17390000  1.0 0.1114356151
H  H54  1  0.78530000  0.76400000  0.32610000  1.0 0.1114356151
H  H55  1  0.78530000  0.23600000  0.82610000  1.0 0.1114356151
H  H56  1  0.21470000  0.23600000  0.67390000  1.0 0.1114356151
H  H57  1  0.57010000  0.12360000  0.33070000  1.0 0.1184329192
H  H58  1  0.42990000  0.12360000  0.16930000  1.0 0.1184329192
H  H59  1  0.42990000  0.87640000  0.66930000  1.0 0.1184329192
H  H60  1  0.57010000  0.87640000  0.83070000  1.0 0.1184329192
H  H61  1  0.60990000  0.99910000  0.29020000  1.0 0.1114356151
H  H62  1  0.39010000  0.99910000  0.20980000  1.0 0.1114356151
H  H63  1  0.39010000  0.00090000  0.70980000  1.0 0.1114356151
H  H64  1  0.60990000  0.00090000  0.79020000  1.0 0.1114356151
C  C1  1  0.87410000  0.80380000  0.61720000  1.0 -0.1218495664
C  C2  1  0.12590000  0.80380000  0.88280000  1.0 -0.1218495664
C  C3  1  0.12590000  0.19620000  0.38280000  1.0 -0.1218495664
C  C4  1  0.87410000  0.19620000  0.11720000  1.0 -0.1218495664
C  C5  1  0.38550000  0.24650000  0.26518000  1.0 -0.0902997402
C  C6  1  0.61450000  0.24650000  0.23482000  1.0 -0.0902997402
C  C7  1  0.61450000  0.75350000  0.73482000  1.0 -0.0902997402
C  C8  1  0.38550000  0.75350000  0.76518000  1.0 -0.0902997402
C  C9  1  0.56500000  0.86620000  0.38829000  1.0 -0.2847963718
C  C10  1  0.43500000  0.86620000  0.11171000  1.0 -0.2847963718
C  C11  1  0.43500000  0.13380000  0.61171000  1.0 -0.2847963718
C  C12  1  0.56500000  0.13380000  0.88829000  1.0 -0.2847963718
C  C13  1  0.93130000  0.59200000  0.56765000  1.0 -0.1080470418
C  C14  1  0.06870000  0.59200000  0.93235000  1.0 -0.1080470418
C  C15  1  0.06870000  0.40800000  0.43235000  1.0 -0.1080470418
C  C16  1  0.93130000  0.40800000  0.06765000  1.0 -0.1080470418
C  C17  1  0.00120000  0.82230000  0.63519000  1.0 -0.0278219541
C  C18  1  0.99880000  0.82230000  0.86481000  1.0 -0.0278219541
C  C19  1  0.99880000  0.17770000  0.36481000  1.0 -0.0278219541
C  C20  1  0.00120000  0.17770000  0.13519000  1.0 -0.0278219541
C  C21  1  0.83910000  0.68850000  0.58340000  1.0 -0.0435277313
C  C22  1  0.16090000  0.68850000  0.91660000  1.0 -0.0435277313
C  C23  1  0.16090000  0.31150000  0.41660000  1.0 -0.0435277313
C  C24  1  0.83910000  0.31150000  0.08340000  1.0 -0.0435277313
C  C25  1  0.03900000  0.94630000  0.67094000  1.0 0.5359602424
C  C26  1  0.96100000  0.94630000  0.82906000  1.0 0.5359602424
C  C27  1  0.96100000  0.05370000  0.32906000  1.0 0.5359602424
C  C28  1  0.03900000  0.05370000  0.17094000  1.0 0.5359602424
C  C29  1  0.45100000  0.88610000  0.35798000  1.0 0.2937739644
C  C30  1  0.54900000  0.88610000  0.14202000  1.0 0.2937739644
C  C31  1  0.54900000  0.11390000  0.64202000  1.0 0.2937739644
C  C32  1  0.45100000  0.11390000  0.85798000  1.0 0.2937739644
C  C33  1  0.29410000  0.46490000  0.23152000  1.0 0.3064325604
C  C34  1  0.70590000  0.46490000  0.26848000  1.0 0.3064325604
C  C35  1  0.70590000  0.53510000  0.76848000  1.0 0.3064325604
C  C36  1  0.29410000  0.53510000  0.73152000  1.0 0.3064325604
C  C37  1  0.57160000  0.75870000  0.42718000  1.0 0.080078156
C  C38  1  0.42840000  0.75870000  0.07282000  1.0 0.080078156
C  C39  1  0.42840000  0.24130000  0.57282000  1.0 0.080078156
C  C40  1  0.57160000  0.24130000  0.92718000  1.0 0.080078156
C  C41  1  0.69980000  0.66920000  0.56585000  1.0 0.5325564
C  C42  1  0.30020000  0.66920000  0.93415000  1.0 0.5325564
C  C43  1  0.30020000  0.33080000  0.43415000  1.0 0.5325564
C  C44  1  0.69980000  0.33080000  0.06585000  1.0 0.5325564
C  C45  1  0.09200000  0.72290000  0.61973000  1.0 -0.1014829498
C  C46  1  0.90800000  0.72290000  0.88027000  1.0 -0.1014829498
C  C47  1  0.90800000  0.27710000  0.38027000  1.0 -0.1014829498
C  C48  1  0.09200000  0.27710000  0.11973000  1.0 -0.1014829498
C  C49  1  0.29200000  0.57410000  0.19224000  1.0 -0.2678239957
C  C50  1  0.70800000  0.57410000  0.30776000  1.0 -0.2678239957
C  C51  1  0.70800000  0.42590000  0.80776000  1.0 -0.2678239957
C  C52  1  0.29200000  0.42590000  0.69224000  1.0 -0.2678239957
C  C53  1  0.34810000  0.80330000  0.37210000  1.0 -0.2678239957
C  C54  1  0.65190000  0.80330000  0.12790000  1.0 -0.2678239957
C  C55  1  0.65190000  0.19670000  0.62790000  1.0 -0.2678239957
C  C56  1  0.34810000  0.19670000  0.87210000  1.0 -0.2678239957
C  C57  1  0.50000000  0.15420000  0.25000000  1.0 0.0864682051
C  C58  1  0.50000000  0.84580000  0.75000000  1.0 0.0864682051
C  C59  1  0.21820000  0.47930000  0.27711000  1.0 -0.2579094616
C  C60  1  0.78180000  0.47930000  0.22289000  1.0 -0.2579094616
C  C61  1  0.78180000  0.52070000  0.72289000  1.0 -0.2579094616
C  C62  1  0.21820000  0.52070000  0.77711000  1.0 -0.2579094616
C  C63  1  0.05730000  0.60680000  0.58626000  1.0 -0.1080470418
C  C64  1  0.94270000  0.60680000  0.91374000  1.0 -0.1080470418
C  C65  1  0.94270000  0.39320000  0.41374000  1.0 -0.1080470418
C  C66  1  0.05730000  0.39320000  0.08626000  1.0 -0.1080470418
C  C67  1  0.36540000  0.69740000  0.41120000  1.0 0.080078156
C  C68  1  0.63460000  0.69740000  0.08880000  1.0 0.080078156
C  C69  1  0.63460000  0.30260000  0.58880000  1.0 0.080078156
C  C70  1  0.36540000  0.30260000  0.91120000  1.0 0.080078156
C  C71  1  0.14300000  0.59840000  0.28113000  1.0 0.0677508044
C  C72  1  0.85700000  0.59840000  0.21887000  1.0 0.0677508044
C  C73  1  0.85700000  0.40160000  0.71887000  1.0 0.0677508044
C  C74  1  0.14300000  0.40160000  0.78113000  1.0 0.0677508044
C  C75  1  0.21450000  0.69100000  0.20041000  1.0 0.1027190223
C  C76  1  0.78550000  0.69100000  0.29959000  1.0 0.1027190223
C  C77  1  0.78550000  0.30900000  0.79959000  1.0 0.1027190223
C  C78  1  0.21450000  0.30900000  0.70041000  1.0 0.1027190223
C  C79  1  0.54030000  0.06270000  0.30009000  1.0 -0.0902997402
C  C80  1  0.45970000  0.06270000  0.19991000  1.0 -0.0902997402
C  C81  1  0.45970000  0.93730000  0.69991000  1.0 -0.0902997402
C  C82  1  0.54030000  0.93730000  0.80009000  1.0 -0.0902997402
N  N1  1  0.14000000  0.70590000  0.24343000  1.0 -0.2678239957
N  N2  1  0.86000000  0.70590000  0.25657000  1.0 -0.2678239957
N  N3  1  0.86000000  0.29410000  0.75657000  1.0 -0.2678239957
N  N4  1  0.14000000  0.29410000  0.74343000  1.0 -0.2678239957
N  N5  1  0.47580000  0.67030000  0.43907000  1.0 -0.2678239957
N  N6  1  0.52420000  0.67030000  0.06093000  1.0 -0.2678239957
N  N7  1  0.52420000  0.32970000  0.56093000  1.0 -0.2678239957
N  N8  1  0.47580000  0.32970000  0.93907000  1.0 -0.2678239957
O  O1  1  0.61830000  0.73580000  0.59217000  1.0 -0.4785388556
O  O2  1  0.38170000  0.73580000  0.90783000  1.0 -0.4785388556
O  O3  1  0.38170000  0.26420000  0.40783000  1.0 -0.4785388556
O  O4  1  0.61830000  0.26420000  0.09217000  1.0 -0.4785388556
O  O5  1  0.67590000  0.58080000  0.52710000  1.0 -0.5644553152
O  O6  1  0.32410000  0.58080000  0.97290000  1.0 -0.5644553152
O  O7  1  0.32410000  0.41920000  0.47290000  1.0 -0.5644553152
O  O8  1  0.67590000  0.41920000  0.02710000  1.0 -0.5644553152
O  O9  1  0.95230000  0.03670000  0.68210000  1.0 -0.5192525682
O  O10  1  0.04770000  0.03670000  0.81790000  1.0 -0.5192525682
O  O11  1  0.04770000  0.96330000  0.31790000  1.0 -0.5192525682
O  O12  1  0.95230000  0.96330000  0.18210000  1.0 -0.5192525682
O  O13  1  0.14890000  0.95820000  0.68996000  1.0 -0.5332209018
O  O14  1  0.85110000  0.95820000  0.81004000  1.0 -0.5332209018
O  O15  1  0.85110000  0.04180000  0.31004000  1.0 -0.5332209018
O  O16  1  0.14890000  0.04180000  0.18996000  1.0 -0.5332209018
O  O17  1  0.43210000  0.98100000  0.31657000  1.0 -0.1427352247
O  O18  1  0.56790000  0.98100000  0.18343000  1.0 -0.134965643
O  O19  1  0.56790000  0.01900000  0.68343000  1.0 -0.134965643
O  O20  1  0.43210000  0.01900000  0.81657000  1.0 -0.134965643
O  O21  1  0.37030000  0.35320000  0.22187000  1.0 -0.1427352247
O  O22  1  0.62970000  0.35320000  0.27813000  1.0 -0.1427352247
O  O23  1  0.62970000  0.64680000  0.77813000  1.0 -0.1427352247
O  O24  1  0.37030000  0.64680000  0.72187000  1.0 -0.1427352247
O  O25  1  0.39970000  0.62810000  0.55986000  1.0 -0.1550186125
O  O26  1  0.60030000  0.62810000  0.94014000  1.0 -0.1550186125
O  O27  1  0.60030000  0.37190000  0.44014000  1.0 -0.1518681047
O  O28  1  0.39970000  0.37190000  0.05986000  1.0 -0.1518681047
