# DDEC6 charges by PACMAN v1.1 (https://github.com/mtap-research/PACMAN-charge/)
data_LAZLEF_FSR_pacman
_symmetry_space_group_name_H-M   'P 1'
_cell_length_a   10.10930000
_cell_length_b   13.05700000
_cell_length_c   24.35900000
_cell_angle_alpha   85.54200000
_cell_angle_beta   85.31400000
_cell_angle_gamma   80.74900000
_symmetry_Int_Tables_number   1
_chemical_formula_structural   CdH12C18SN3O4
_chemical_formula_sum   'Cd6 H72 C108 S6 N18 O24'
_cell_volume   3156.06390617
_cell_formula_units_Z   6
loop_
 _symmetry_equiv_pos_site_id
 _symmetry_equiv_pos_as_xyz
  1  'x, y, z'
loop_
 _atom_site_type_symbol
 _atom_site_label
 _atom_site_symmetry_multiplicity
 _atom_site_fract_x
 _atom_site_fract_y
 _atom_site_fract_z
 _atom_site_occupancy
 _atom_site_charge
Cd  Cd1  1  0.63634000  0.45541000  0.41690000  1.0 1.0074425419
Cd  Cd2  1  0.36366000  0.54459000  0.58310000  1.0 1.0074425419
Cd  Cd3  1  0.92657000  0.59255000  0.42223000  1.0 1.0658727368
Cd  Cd4  1  0.07343000  0.40745000  0.57777000  1.0 1.0658727368
Cd  Cd5  1  0.14842000  0.32131000  0.39271000  1.0 0.9407132347
Cd  Cd6  1  0.85158000  0.67869000  0.60729000  1.0 0.9407132347
H  H1  1  0.85830000  0.97380000  0.19900000  1.0 0.1311310212
H  H2  1  0.14170000  0.02620000  0.80100000  1.0 0.1311310212
H  H3  1  0.79170000  0.96070000  0.10990000  1.0 0.1311310212
H  H4  1  0.20830000  0.03930000  0.89010000  1.0 0.1311310212
H  H5  1  0.41810000  0.07930000  0.15860000  1.0 0.1202080478
H  H6  1  0.58190000  0.92070000  0.84140000  1.0 0.1202080478
H  H7  1  0.48230000  0.08210000  0.24680000  1.0 0.1202080478
H  H8  1  0.51770000  0.91790000  0.75320000  1.0 0.1202080478
H  H9  1  0.57590000  0.22970000  0.42690000  1.0 0.1202080478
H  H10  1  0.42410000  0.77030000  0.57310000  1.0 0.1202080478
H  H11  1  0.61280000  0.07260000  0.38820000  1.0 0.1404582022
H  H12  1  0.38720000  0.92740000  0.61180000  1.0 0.1404582022
H  H13  1  0.73660000  0.21890000  0.24640000  1.0 0.1504130126
H  H14  1  0.26340000  0.78110000  0.75360000  1.0 0.1504130126
H  H15  1  0.69460000  0.37150000  0.29030000  1.0 0.1078123061
H  H16  1  0.30540000  0.62850000  0.70970000  1.0 0.1078123061
H  H17  1  0.79710000  0.68870000  0.31220000  1.0 0.0979192628
H  H18  1  0.20290000  0.31130000  0.68780000  1.0 0.0979192628
H  H19  1  0.71220000  0.83820000  0.26380000  1.0 0.1404582022
H  H20  1  0.28780000  0.16180000  0.73620000  1.0 0.1404582022
H  H21  1  0.84640000  0.99490000  0.37800000  1.0 0.1311310212
H  H22  1  0.15360000  0.00510000  0.62200000  1.0 0.1311310212
H  H23  1  0.91500000  0.84040000  0.42420000  1.0 0.1202080478
H  H24  1  0.08500000  0.15960000  0.57580000  1.0 0.1202080478
H  H25  1  0.13360000  0.89900000  0.13360000  1.0 0.1202080478
H  H26  1  0.86640000  0.10100000  0.86640000  1.0 0.1202080478
H  H27  1  0.23710000  0.95000000  0.20630000  1.0 0.1311310212
H  H28  1  0.76290000  0.05000000  0.79370000  1.0 0.1311310212
H  H29  1  0.13970000  0.70330000  0.29990000  1.0 0.1311310212
H  H30  1  0.86030000  0.29670000  0.70010000  1.0 0.1311310212
H  H31  1  0.03680000  0.65110000  0.22780000  1.0 0.1311310212
H  H32  1  0.96320000  0.34890000  0.77220000  1.0 0.1311310212
H  H33  1  0.58290000  0.63550000  0.00800000  1.0 0.1202080478
H  H34  1  0.41710000  0.36450000  0.99200000  1.0 0.1202080478
H  H35  1  0.47400000  0.57960000  0.93610000  1.0 0.1311310212
H  H36  1  0.52600000  0.42040000  0.06390000  1.0 0.1311310212
H  H37  1  0.83180000  0.51120000  0.85320000  1.0 0.1404582022
H  H38  1  0.16820000  0.48880000  0.14680000  1.0 0.1404582022
H  H39  1  0.93690000  0.56510000  0.92500000  1.0 0.1311310212
H  H40  1  0.06310000  0.43490000  0.07500000  1.0 0.1311310212
H  H41  1  0.60330000  0.59660000  0.30600000  1.0 0.0979192628
H  H42  1  0.39670000  0.40340000  0.69400000  1.0 0.0979192628
H  H43  1  0.47700000  0.74170000  0.26520000  1.0 0.1404582022
H  H44  1  0.52300000  0.25830000  0.73480000  1.0 0.1404582022
H  H45  1  0.25800000  0.77760000  0.40800000  1.0 0.1504130126
H  H46  1  0.74200000  0.22240000  0.59200000  1.0 0.1504130126
H  H47  1  0.38690000  0.63120000  0.44450000  1.0 0.1202080478
H  H48  1  0.61310000  0.36880000  0.55550000  1.0 0.1202080478
H  H49  1  0.34660000  0.10280000  0.40630000  1.0 0.1078123061
H  H50  1  0.65340000  0.89720000  0.59370000  1.0 0.1078123061
H  H51  1  0.39310000  0.94120000  0.37410000  1.0 0.1404582022
H  H52  1  0.60690000  0.05880000  0.62590000  1.0 0.1404582022
H  H53  1  0.06390000  0.00960000  0.29000000  1.0 0.1311310212
H  H54  1  0.93610000  0.99040000  0.71000000  1.0 0.1311310212
H  H55  1  0.02400000  0.16970000  0.32650000  1.0 0.1202080478
H  H56  1  0.97600000  0.83030000  0.67350000  1.0 0.1202080478
H  H57  1  0.71350000  0.76740000  0.72590000  1.0 0.0979192628
H  H58  1  0.28650000  0.23260000  0.27410000  1.0 0.0979192628
H  H59  1  0.64000000  0.70560000  0.81130000  1.0 0.1404582022
H  H60  1  0.36000000  0.29440000  0.18870000  1.0 0.1404582022
H  H61  1  0.60490000  0.44160000  0.74520000  1.0 0.1202080478
H  H62  1  0.39510000  0.55840000  0.25480000  1.0 0.1202080478
H  H63  1  0.67820000  0.51100000  0.66260000  1.0 0.1078123061
H  H64  1  0.32180000  0.48900000  0.33740000  1.0 0.1078123061
H  H65  1  0.51720000  0.19800000  0.88810000  1.0 0.0979192628
H  H66  1  0.48280000  0.80200000  0.11190000  1.0 0.0979192628
H  H67  1  0.63100000  0.33430000  0.89270000  1.0 0.1404582022
H  H68  1  0.36900000  0.66570000  0.10730000  1.0 0.1404582022
H  H69  1  0.35100000  0.50530000  0.80200000  1.0 0.1504130126
H  H70  1  0.64900000  0.49470000  0.19800000  1.0 0.1504130126
H  H71  1  0.24420000  0.36200000  0.80440000  1.0 0.1078123061
H  H72  1  0.75580000  0.63800000  0.19560000  1.0 0.1078123061
C  C1  1  0.55550000  0.01260000  0.07140000  1.0 -0.0809187773
C  C2  1  0.44450000  0.98740000  0.92860000  1.0 -0.0809187773
C  C3  1  0.52130000  0.00510000  0.02710000  1.0 -0.0185188572
C  C4  1  0.47870000  0.99490000  0.97290000  1.0 -0.0149190076
C  C5  1  0.67600000  0.02900000  0.23210000  1.0 0.1504130126
C  C6  1  0.32400000  0.97100000  0.76790000  1.0 0.1504130126
C  C7  1  0.76870000  0.99360000  0.19140000  1.0 -0.1775108844
C  C8  1  0.23130000  0.00640000  0.80860000  1.0 -0.1775108844
C  C9  1  0.72870000  0.98680000  0.13740000  1.0 -0.119558694
C  C10  1  0.27130000  0.01320000  0.86260000  1.0 -0.1132330791
C  C11  1  0.59760000  0.01860000  0.12580000  1.0 0.1202080478
C  C12  1  0.40240000  0.98140000  0.87420000  1.0 0.1202080478
C  C13  1  0.50690000  0.05580000  0.16630000  1.0 -0.1309575185
C  C14  1  0.49310000  0.94420000  0.83370000  1.0 -0.1309575185
C  C15  1  0.54650000  0.05880000  0.21920000  1.0 -0.1860945145
C  C16  1  0.45350000  0.94120000  0.78080000  1.0 -0.1860945145
C  C17  1  0.60920000  0.22700000  0.39020000  1.0 0.1078123061
C  C18  1  0.39080000  0.77300000  0.60980000  1.0 0.1078123061
C  C19  1  0.63170000  0.13190000  0.36730000  1.0 -0.2566127102
C  C20  1  0.36830000  0.86810000  0.63270000  1.0 -0.2566127102
C  C21  1  0.68340000  0.12550000  0.31240000  1.0 0.2140525361
C  C22  1  0.31660000  0.87450000  0.68760000  1.0 0.2140525361
C  C23  1  0.70500000  0.21850000  0.28330000  1.0 -0.2391533742
C  C24  1  0.29500000  0.78150000  0.71670000  1.0 -0.2391533742
C  C25  1  0.67890000  0.31030000  0.31010000  1.0 0.0979192628
C  C26  1  0.32110000  0.68970000  0.68990000  1.0 0.0979192628
C  C27  1  0.80350000  0.75180000  0.32630000  1.0 0.0897416887
C  C28  1  0.19650000  0.24820000  0.67370000  1.0 0.0897416887
C  C29  1  0.75280000  0.84160000  0.29630000  1.0 -0.2497848652
C  C30  1  0.24720000  0.15840000  0.70370000  1.0 -0.2497848652
C  C31  1  0.76320000  0.93720000  0.31560000  1.0 0.2275203844
C  C32  1  0.23680000  0.06280000  0.68440000  1.0 0.2275203844
C  C33  1  0.83100000  0.93360000  0.36430000  1.0 -0.2497848652
C  C34  1  0.16900000  0.06640000  0.63570000  1.0 -0.2497848652
C  C35  1  0.87400000  0.84020000  0.39140000  1.0 0.0979192628
C  C36  1  0.12600000  0.15980000  0.60860000  1.0 0.0979192628
C  C37  1  0.01410000  0.73570000  0.12790000  1.0 -0.0809187773
C  C38  1  0.98590000  0.26430000  0.87210000  1.0 -0.0809187773
C  C39  1  0.95810000  0.70560000  0.09300000  1.0 -0.0328663876
C  C40  1  0.04190000  0.29440000  0.90700000  1.0 -0.0328663876
C  C41  1  0.89380000  0.66900000  0.05280000  1.0 -0.0328663876
C  C42  1  0.10620000  0.33100000  0.94720000  1.0 -0.0328663876
C  C43  1  0.83680000  0.63830000  0.01780000  1.0 -0.0809187773
C  C44  1  0.16320000  0.36170000  0.98220000  1.0 -0.0809187773
C  C45  1  0.07720000  0.76740000  0.17310000  1.0 0.1078123061
C  C46  1  0.92280000  0.23260000  0.82690000  1.0 0.1078123061
C  C47  1  0.13610000  0.85920000  0.16700000  1.0 -0.1309575185
C  C48  1  0.86390000  0.14080000  0.83300000  1.0 -0.1309575185
C  C49  1  0.19730000  0.89020000  0.21040000  1.0 -0.1970015238
C  C50  1  0.80270000  0.10980000  0.78960000  1.0 -0.1970015238
C  C51  1  0.19850000  0.83090000  0.26000000  1.0 0.1662470033
C  C52  1  0.80150000  0.16910000  0.74000000  1.0 0.1662470033
C  C53  1  0.13870000  0.74210000  0.26630000  1.0 -0.1701419001
C  C54  1  0.86130000  0.25790000  0.73370000  1.0 -0.1701419001
C  C55  1  0.07750000  0.71050000  0.22300000  1.0 -0.119558694
C  C56  1  0.92250000  0.28950000  0.77700000  1.0 -0.119558694
C  C57  1  0.77140000  0.60240000  0.97460000  1.0 0.1202080478
C  C58  1  0.22860000  0.39760000  0.02540000  1.0 0.1202080478
C  C59  1  0.63350000  0.60950000  0.97700000  1.0 -0.1309575185
C  C60  1  0.36650000  0.39050000  0.02300000  1.0 -0.1309575185
C  C61  1  0.56660000  0.57820000  0.93340000  1.0 -0.1775108844
C  C62  1  0.43340000  0.42180000  0.06660000  1.0 -0.1775108844
C  C63  1  0.64410000  0.54590000  0.88730000  1.0 0.1648396184
C  C64  1  0.35590000  0.45410000  0.11270000  1.0 0.1648396184
C  C65  1  0.78110000  0.53720000  0.88410000  1.0 -0.1701419001
C  C66  1  0.21890000  0.46280000  0.11590000  1.0 -0.1701419001
C  C67  1  0.84410000  0.56800000  0.92780000  1.0 -0.1132330791
C  C68  1  0.15590000  0.43200000  0.07220000  1.0 -0.1132330791
C  C69  1  0.53210000  0.63300000  0.32670000  1.0 0.0786179253
C  C70  1  0.46790000  0.36700000  0.67330000  1.0 0.0786179253
C  C71  1  0.45630000  0.72010000  0.30170000  1.0 -0.2391533742
C  C72  1  0.54370000  0.27990000  0.69830000  1.0 -0.2391533742
C  C73  1  0.35140000  0.77310000  0.33180000  1.0 0.1930590649
C  C74  1  0.64860000  0.22690000  0.66820000  1.0 0.1930590649
C  C75  1  0.32660000  0.74100000  0.38620000  1.0 -0.2068360369
C  C76  1  0.67340000  0.25900000  0.61380000  1.0 -0.2068360369
C  C77  1  0.40540000  0.65360000  0.40790000  1.0 0.1202080478
C  C78  1  0.59460000  0.34640000  0.59210000  1.0 0.1202080478
C  C79  1  0.28830000  0.08370000  0.38270000  1.0 0.0786179253
C  C80  1  0.71170000  0.91630000  0.61730000  1.0 0.0786179253
C  C81  1  0.31780000  0.98640000  0.36300000  1.0 -0.2391533742
C  C82  1  0.68220000  0.01360000  0.63700000  1.0 -0.2391533742
C  C83  1  0.23650000  0.95550000  0.32700000  1.0 0.2275203844
C  C84  1  0.76350000  0.04450000  0.67300000  1.0 0.2275203844
C  C85  1  0.12340000  0.02680000  0.31370000  1.0 -0.2566127102
C  C86  1  0.87660000  0.97320000  0.68630000  1.0 -0.2566127102
C  C87  1  0.09990000  0.12330000  0.33580000  1.0 0.0897416887
C  C88  1  0.90010000  0.87670000  0.66420000  1.0 0.0897416887
C  C89  1  0.69280000  0.70020000  0.72990000  1.0 0.0731701893
C  C90  1  0.30720000  0.29980000  0.27010000  1.0 0.0731701893
C  C91  1  0.64880000  0.66380000  0.78150000  1.0 -0.2391533742
C  C92  1  0.35120000  0.33620000  0.21850000  1.0 -0.2391533742
C  C93  1  0.61770000  0.56400000  0.78860000  1.0 0.2140525361
C  C94  1  0.38230000  0.43600000  0.21140000  1.0 0.2140525361
C  C95  1  0.62800000  0.50800000  0.74260000  1.0 -0.2391533742
C  C96  1  0.37200000  0.49200000  0.25740000  1.0 -0.2391533742
C  C97  1  0.67230000  0.55070000  0.69300000  1.0 0.1078123061
C  C98  1  0.32770000  0.44930000  0.30700000  1.0 0.1078123061
C  C99  1  0.48220000  0.26170000  0.87110000  1.0 0.0897416887
C  C100  1  0.51780000  0.73830000  0.12890000  1.0 0.0897416887
C  C101  1  0.55370000  0.34260000  0.87350000  1.0 -0.2323625803
C  C102  1  0.44630000  0.65740000  0.12650000  1.0 -0.2323625803
C  C103  1  0.50590000  0.43650000  0.84630000  1.0 0.1992440452
C  C104  1  0.49410000  0.56350000  0.15370000  1.0 0.1992440452
C  C105  1  0.38740000  0.44330000  0.82030000  1.0 -0.2323625803
C  C106  1  0.61260000  0.55670000  0.17970000  1.0 -0.2323625803
C  C107  1  0.32350000  0.35630000  0.82200000  1.0 0.0897416887
C  C108  1  0.67650000  0.64370000  0.17800000  1.0 0.0897416887
S  S1  1  0.93370000  0.47006000  0.32090000  1.0 1.3759049853
S  S2  1  0.06630000  0.52994000  0.67910000  1.0 1.3759049853
S  S3  1  0.91422000  0.33434000  0.48207000  1.0 1.4008397539
S  S4  1  0.08578000  0.66566000  0.51793000  1.0 1.4008397539
S  S5  1  0.66436000  0.62207000  0.51987000  1.0 1.3910982092
S  S6  1  0.33564000  0.37793000  0.48013000  1.0 1.3910982092
N  N1  1  0.71330000  0.03010000  0.28720000  1.0 -0.1701419001
N  N2  1  0.28670000  0.96990000  0.71280000  1.0 -0.1701419001
N  N3  1  0.63240000  0.31510000  0.36280000  1.0 -0.2497848652
N  N4  1  0.36760000  0.68490000  0.63720000  1.0 -0.2497848652
N  N5  1  0.86070000  0.74830000  0.37360000  1.0 -0.2566127102
N  N6  1  0.13930000  0.25170000  0.62640000  1.0 -0.2566127102
N  N7  1  0.26470000  0.85850000  0.30540000  1.0 -0.1775108844
N  N8  1  0.73530000  0.14150000  0.69460000  1.0 -0.1775108844
N  N9  1  0.50680000  0.59990000  0.37880000  1.0 -0.2497848652
N  N10  1  0.49320000  0.40010000  0.62120000  1.0 -0.2497848652
N  N11  1  0.18130000  0.15250000  0.36990000  1.0 -0.2323625803
N  N12  1  0.81870000  0.84750000  0.63010000  1.0 -0.2323625803
N  N13  1  0.58040000  0.52250000  0.84140000  1.0 -0.1592933754
N  N14  1  0.41960000  0.47750000  0.15860000  1.0 -0.1592933754
N  N15  1  0.70770000  0.64480000  0.68470000  1.0 -0.2497848652
N  N16  1  0.29230000  0.35520000  0.31530000  1.0 -0.2497848652
N  N17  1  0.37000000  0.26600000  0.84730000  1.0 -0.2497848652
N  N18  1  0.63000000  0.73400000  0.15270000  1.0 -0.2497848652
O  O1  1  0.80540000  0.50340000  0.35402000  1.0 -0.7094269912
O  O2  1  0.19460000  0.49660000  0.64598000  1.0 -0.7094269912
O  O3  1  0.03480000  0.52670000  0.34129000  1.0 -0.6789062242
O  O4  1  0.96520000  0.47330000  0.65871000  1.0 -0.6789062242
O  O5  1  0.97730000  0.35810000  0.33110000  1.0 -0.6560886423
O  O6  1  0.02270000  0.64190000  0.66890000  1.0 -0.6560886423
O  O7  1  0.91380000  0.49640000  0.26310000  1.0 -0.6289378028
O  O8  1  0.08620000  0.50360000  0.73690000  1.0 -0.6289378028
O  O9  1  0.77330000  0.34360000  0.47076000  1.0 -0.641917181
O  O10  1  0.22670000  0.65640000  0.52924000  1.0 -0.641917181
O  O11  1  0.97960000  0.42040000  0.45410000  1.0 -0.7016085009
O  O12  1  0.02040000  0.57960000  0.54590000  1.0 -0.7016085009
O  O13  1  0.99020000  0.23890000  0.46210000  1.0 -0.6289378028
O  O14  1  0.00980000  0.76110000  0.53790000  1.0 -0.6289378028
O  O15  1  0.92350000  0.33460000  0.54193000  1.0 -0.6490495275
O  O16  1  0.07650000  0.66540000  0.45807000  1.0 -0.6490495275
O  O17  1  0.72610000  0.58030000  0.46729000  1.0 -0.6789062242
O  O18  1  0.27390000  0.41970000  0.53271000  1.0 -0.6789062242
O  O19  1  0.73590000  0.56540000  0.56650000  1.0 -0.641917181
O  O20  1  0.26410000  0.43460000  0.43350000  1.0 -0.641917181
O  O21  1  0.67940000  0.72800000  0.52200000  1.0 -0.641917181
O  O22  1  0.32060000  0.27200000  0.47800000  1.0 -0.641917181
O  O23  1  0.52810000  0.60290000  0.52570000  1.0 -0.6490495275
O  O24  1  0.47190000  0.39710000  0.47430000  1.0 -0.6490495275
