# DDEC6 charges by PACMAN v1.1 (https://github.com/mtap-research/PACMAN-charge/)
data_LECGAD_FSR_pacman
_symmetry_space_group_name_H-M   'P 1'
_cell_length_a   7.82920000
_cell_length_b   9.36210000
_cell_length_c   15.14670000
_cell_angle_alpha   94.70300000
_cell_angle_beta   102.88900000
_cell_angle_gamma   101.23100000
_symmetry_Int_Tables_number   1
_chemical_formula_structural   CuH8C15N4O5
_chemical_formula_sum   'Cu2 H16 C30 N8 O10'
_cell_volume   1052.34647330
_cell_formula_units_Z   2
loop_
 _symmetry_equiv_pos_site_id
 _symmetry_equiv_pos_as_xyz
  1  'x, y, z'
loop_
 _atom_site_type_symbol
 _atom_site_label
 _atom_site_symmetry_multiplicity
 _atom_site_fract_x
 _atom_site_fract_y
 _atom_site_fract_z
 _atom_site_occupancy
 _atom_site_charge
Cu  Cu1  1  0.00000000  0.50000000  0.00000000  1.0 0.7332582663
Cu  Cu2  1  0.00000000  0.00000000  0.50000000  1.0 0.8295133899
H  H1  1  0.46060000  0.74190000  0.82410000  1.0 0.1282143036
H  H2  1  0.53940000  0.25810000  0.17590000  1.0 0.1282143036
H  H3  1  0.11710000  0.46110000  0.61190000  1.0 0.1282143036
H  H4  1  0.88290000  0.53890000  0.38810000  1.0 0.1282143036
H  H5  1  0.53740000  0.32980000  0.76860000  1.0 0.1232251378
H  H6  1  0.46260000  0.67020000  0.23140000  1.0 0.1232251378
H  H7  1  0.15630000  0.72080000  0.54840000  1.0 0.1282143036
H  H8  1  0.84370000  0.27920000  0.45160000  1.0 0.1282143036
H  H9  1  0.26900000  0.05430000  0.88360000  1.0 0.1388479064
H  H10  1  0.73100000  0.94570000  0.11640000  1.0 0.1388479064
H  H11  1  0.28790000  0.03990000  0.04050000  1.0 0.1388479064
H  H12  1  0.71210000  0.96010000  0.95950000  1.0 0.1388479064
H  H13  1  0.19020000  0.81110000  0.08620000  1.0 0.112875283
H  H14  1  0.80980000  0.18890000  0.91380000  1.0 0.112875283
H  H15  1  0.03950000  0.61990000  0.83120000  1.0 0.112875283
H  H16  1  0.96050000  0.38010000  0.16880000  1.0 0.112875283
C  C1  1  0.67470000  0.57090000  0.89570000  1.0 0.5557377527
C  C2  1  0.32530000  0.42910000  0.10430000  1.0 0.5557377527
C  C3  1  0.52130000  0.53910000  0.81130000  1.0 0.008867623
C  C4  1  0.47870000  0.46090000  0.18870000  1.0 0.008867623
C  C5  1  0.42540000  0.64800000  0.78840000  1.0 -0.2100710159
C  C6  1  0.57460000  0.35200000  0.21160000  1.0 -0.2100710159
C  C7  1  0.27900000  0.61820000  0.71350000  1.0 0.1460631902
C  C8  1  0.72100000  0.38180000  0.28650000  1.0 0.1460631902
C  C9  1  0.22170000  0.48110000  0.66090000  1.0 -0.2023003906
C  C10  1  0.77830000  0.51890000  0.33910000  1.0 -0.2023003906
C  C11  1  0.31930000  0.37330000  0.68080000  1.0 0.008867623
C  C12  1  0.68070000  0.62670000  0.31920000  1.0 0.008867623
C  C13  1  0.46980000  0.40280000  0.75560000  1.0 -0.1263563742
C  C14  1  0.53020000  0.59720000  0.24440000  1.0 -0.1263563742
C  C15  1  0.26520000  0.22600000  0.62180000  1.0 0.5386595915
C  C16  1  0.73480000  0.77400000  0.37820000  1.0 0.5386595915
C  C17  1  0.14080000  0.77190000  0.60180000  1.0 0.1232251378
C  C18  1  0.85920000  0.22810000  0.39820000  1.0 0.1232251378
C  C19  1  0.13880000  0.83710000  0.74310000  1.0 0.2006113271
C  C20  1  0.86120000  0.16290000  0.25690000  1.0 0.2006113271
C  C21  1  0.15340000  0.83620000  0.84150000  1.0 -0.0064770949
C  C22  1  0.84660000  0.16380000  0.15850000  1.0 -0.0064770949
C  C23  1  0.22750000  0.96350000  0.90390000  1.0 -0.0626123135
C  C24  1  0.77250000  0.03650000  0.09610000  1.0 -0.0626123135
C  C25  1  0.23960000  0.95500000  0.99650000  1.0 -0.1145353352
C  C26  1  0.76040000  0.04500000  0.00350000  1.0 -0.1145353352
C  C27  1  0.17860000  0.81810000  0.02300000  1.0 0.083005138
C  C28  1  0.82140000  0.18190000  0.97700000  1.0 0.083005138
C  C29  1  0.09220000  0.70590000  0.87390000  1.0 0.0377109463
C  C30  1  0.90780000  0.29410000  0.12610000  1.0 0.0377109463
N  N1  1  0.18540000  0.73470000  0.68710000  1.0 -0.0872799416
N  N2  1  0.81460000  0.26530000  0.31290000  1.0 -0.0872799416
N  N3  1  0.07320000  0.88890000  0.60420000  1.0 -0.2023003906
N  N4  1  0.92680000  0.11110000  0.39580000  1.0 -0.2023003906
N  N5  1  0.07160000  0.93230000  0.69360000  1.0 -0.2440712934
N  N6  1  0.92840000  0.06770000  0.30640000  1.0 -0.2440712934
N  N7  1  0.10450000  0.69650000  0.96280000  1.0 -0.2023003906
N  N8  1  0.89550000  0.30350000  0.03720000  1.0 -0.2023003906
O  O1  1  0.69300000  0.68330000  0.95030000  1.0 -0.5704010536
O  O2  1  0.30700000  0.31670000  0.04970000  1.0 -0.5704010536
O  O3  1  0.77700000  0.47810000  0.90294000  1.0 -0.5559482386
O  O4  1  0.22300000  0.52190000  0.09706000  1.0 -0.5559482386
O  O5  1  0.38040000  0.15000000  0.61960000  1.0 -0.5291265359
O  O6  1  0.61960000  0.85000000  0.38040000  1.0 -0.5291265359
O  O7  1  0.10030000  0.18970000  0.57684000  1.0 -0.5822795441
O  O8  1  0.89970000  0.81030000  0.42316000  1.0 -0.5822795441
O  O9  1  0.71220000  0.01580000  0.53780000  1.0 0.2006113271
O  O10  1  0.28780000  0.98420000  0.46220000  1.0 0.2006113271
