# DDEC6 charges by PACMAN v1.1 (https://github.com/mtap-research/PACMAN-charge/)
data_LEDPIU_FSR_pacman
_symmetry_space_group_name_H-M   'P 1'
_cell_length_a   13.89670000
_cell_length_b   13.89670000
_cell_length_c   22.79000000
_cell_angle_alpha   82.86550000
_cell_angle_beta   97.13450000
_cell_angle_gamma   137.00600000
_symmetry_Int_Tables_number   1
_chemical_formula_structural   Cu3H52C48N12O13
_chemical_formula_sum   'Cu6 H104 C96 N24 O26'
_cell_volume   2974.39196426
_cell_formula_units_Z   2
loop_
 _symmetry_equiv_pos_site_id
 _symmetry_equiv_pos_as_xyz
  1  'x, y, z'
loop_
 _atom_site_type_symbol
 _atom_site_label
 _atom_site_symmetry_multiplicity
 _atom_site_fract_x
 _atom_site_fract_y
 _atom_site_fract_z
 _atom_site_occupancy
 _atom_site_charge
Cu  Cu1  1  0.70334000  0.11154000  0.45879000  1.0 0.8074136058
Cu  Cu2  1  0.11154000  0.70334000  0.04121000  1.0 0.8074136058
Cu  Cu3  1  0.29666000  0.88846000  0.54121000  1.0 0.8074136058
Cu  Cu4  1  0.88846000  0.29666000  0.95879000  1.0 0.8074136058
Cu  Cu5  1  0.36958000  0.36958000  0.25000000  1.0 0.7349938134
Cu  Cu6  1  0.63042000  0.63042000  0.75000000  1.0 0.7349938134
H  H1  1  0.48350000  0.75650000  0.37220000  1.0 0.1191251084
H  H2  1  0.75650000  0.48350000  0.12780000  1.0 0.1191251084
H  H3  1  0.51650000  0.24350000  0.62780000  1.0 0.1191251084
H  H4  1  0.24350000  0.51650000  0.87220000  1.0 0.1191251084
H  H5  1  0.15860000  0.55500000  0.47310000  1.0 0.1433094719
H  H6  1  0.55500000  0.15860000  0.02690000  1.0 0.1433094719
H  H7  1  0.84140000  0.44500000  0.52690000  1.0 0.1433094719
H  H8  1  0.44500000  0.84140000  0.97310000  1.0 0.1433094719
H  H9  1  0.12790000  0.34550000  0.35190000  1.0 0.1191251084
H  H10  1  0.34550000  0.12790000  0.14810000  1.0 0.1191251084
H  H11  1  0.87210000  0.65450000  0.64810000  1.0 0.1191251084
H  H12  1  0.65450000  0.87210000  0.85190000  1.0 0.1191251084
H  H13  1  0.61090000  0.41530000  0.32440000  1.0 0.1191251084
H  H14  1  0.41530000  0.61090000  0.17560000  1.0 0.1191251084
H  H15  1  0.38910000  0.58470000  0.67560000  1.0 0.1191251084
H  H16  1  0.58470000  0.38910000  0.82440000  1.0 0.1191251084
H  H17  1  0.27280000  0.28140000  0.37980000  1.0 0.1084161569
H  H18  1  0.28140000  0.27280000  0.12020000  1.0 0.1084161569
H  H19  1  0.72720000  0.71860000  0.62020000  1.0 0.1084161569
H  H20  1  0.71860000  0.72720000  0.87980000  1.0 0.1084161569
H  H21  1  0.62160000  0.38720000  0.43200000  1.0 0.1305061081
H  H22  1  0.38720000  0.62160000  0.06800000  1.0 0.1305061081
H  H23  1  0.37840000  0.61280000  0.56800000  1.0 0.1305061081
H  H24  1  0.61280000  0.37840000  0.93200000  1.0 0.1305061081
H  H25  1  0.30130000  0.26090000  0.48900000  1.0 0.1191251084
H  H26  1  0.26090000  0.30130000  0.01100000  1.0 0.1191251084
H  H27  1  0.69870000  0.73910000  0.51100000  1.0 0.1191251084
H  H28  1  0.73910000  0.69870000  0.98900000  1.0 0.1191251084
H  H29  1  0.40090000  0.24510000  0.51140000  1.0 0.1305061081
H  H30  1  0.24510000  0.40090000  0.98860000  1.0 0.1305061081
H  H31  1  0.59910000  0.75490000  0.48860000  1.0 0.1305061081
H  H32  1  0.75490000  0.59910000  0.01140000  1.0 0.1305061081
H  H33  1  0.47650000  0.43130000  0.55610000  1.0 0.1084161569
H  H34  1  0.43130000  0.47650000  0.94390000  1.0 0.1084161569
H  H35  1  0.52350000  0.56870000  0.44390000  1.0 0.1084161569
H  H36  1  0.56870000  0.52350000  0.05610000  1.0 0.1084161569
H  H37  1  0.59250000  0.48770000  0.51490000  1.0 0.1010133815
H  H38  1  0.48770000  0.59250000  0.98510000  1.0 0.1010133815
H  H39  1  0.40750000  0.51230000  0.48510000  1.0 0.1010133815
H  H40  1  0.51230000  0.40750000  0.01490000  1.0 0.1010133815
H  H41  1  0.62140000  0.01660000  0.32970000  1.0 0.1191251084
H  H42  1  0.01660000  0.62140000  0.17030000  1.0 0.1191251084
H  H43  1  0.37860000  0.98340000  0.67030000  1.0 0.1191251084
H  H44  1  0.98340000  0.37860000  0.82970000  1.0 0.1191251084
H  H45  1  0.75700000  0.35920000  0.37950000  1.0 0.1305061081
H  H46  1  0.35920000  0.75700000  0.12050000  1.0 0.1305061081
H  H47  1  0.24300000  0.64080000  0.62050000  1.0 0.1305061081
H  H48  1  0.64080000  0.24300000  0.87950000  1.0 0.1305061081
H  H49  1  0.74510000  0.37010000  0.27130000  1.0 0.1305061081
H  H50  1  0.37010000  0.74510000  0.22870000  1.0 0.1305061081
H  H51  1  0.25490000  0.62990000  0.72870000  1.0 0.1305061081
H  H52  1  0.62990000  0.25490000  0.77130000  1.0 0.1305061081
H  H53  1  0.60780000  0.04500000  0.21840000  1.0 0.1191251084
H  H54  1  0.04500000  0.60780000  0.28160000  1.0 0.1191251084
H  H55  1  0.39220000  0.95500000  0.78160000  1.0 0.1191251084
H  H56  1  0.95500000  0.39220000  0.71840000  1.0 0.1191251084
H  H57  1  0.59900000  0.14960000  0.19520000  1.0 0.1191251084
H  H58  1  0.14960000  0.59900000  0.30480000  1.0 0.1191251084
H  H59  1  0.40100000  0.85040000  0.80480000  1.0 0.1191251084
H  H60  1  0.85040000  0.40100000  0.69520000  1.0 0.1191251084
H  H61  1  0.84310000  0.33470000  0.18910000  1.0 0.1010133815
H  H62  1  0.33470000  0.84310000  0.31090000  1.0 0.1010133815
H  H63  1  0.15690000  0.66530000  0.81090000  1.0 0.1010133815
H  H64  1  0.66530000  0.15690000  0.68910000  1.0 0.1010133815
H  H65  1  0.78110000  0.21230000  0.15050000  1.0 0.1084161569
H  H66  1  0.21230000  0.78110000  0.34950000  1.0 0.1084161569
H  H67  1  0.21890000  0.78770000  0.84950000  1.0 0.1084161569
H  H68  1  0.78770000  0.21890000  0.65050000  1.0 0.1084161569
H  H69  1  0.92130000  0.27110000  0.26200000  1.0 0.1084161569
H  H70  1  0.27110000  0.92130000  0.23800000  1.0 0.1084161569
H  H71  1  0.07870000  0.72890000  0.73800000  1.0 0.1084161569
H  H72  1  0.72890000  0.07870000  0.76200000  1.0 0.1084161569
H  H73  1  0.85030000  0.13990000  0.22740000  1.0 0.1010133815
H  H74  1  0.13990000  0.85030000  0.27260000  1.0 0.1010133815
H  H75  1  0.14970000  0.86010000  0.77260000  1.0 0.1010133815
H  H76  1  0.86010000  0.14970000  0.72740000  1.0 0.1010133815
H  H77  1  0.08950000  0.31330000  0.21420000  1.0 0.1084161569
H  H78  1  0.31330000  0.08950000  0.28580000  1.0 0.1084161569
H  H79  1  0.91050000  0.68670000  0.78580000  1.0 0.1084161569
H  H80  1  0.68670000  0.91050000  0.71420000  1.0 0.1084161569
H  H81  1  0.08770000  0.42330000  0.19140000  1.0 0.1084161569
H  H82  1  0.42330000  0.08770000  0.30860000  1.0 0.1084161569
H  H83  1  0.91230000  0.57670000  0.80860000  1.0 0.1084161569
H  H84  1  0.57670000  0.91230000  0.69140000  1.0 0.1084161569
H  H85  1  0.01920000  0.42360000  0.08310000  1.0 0.1191251084
H  H86  1  0.42360000  0.01920000  0.41690000  1.0 0.1191251084
H  H87  1  0.98080000  0.57640000  0.91690000  1.0 0.1191251084
H  H88  1  0.57640000  0.98080000  0.58310000  1.0 0.1191251084
H  H89  1  0.95740000  0.10220000  0.13860000  1.0 0.1084161569
H  H90  1  0.10220000  0.95740000  0.36140000  1.0 0.1084161569
H  H91  1  0.04260000  0.89780000  0.86140000  1.0 0.1084161569
H  H92  1  0.89780000  0.04260000  0.63860000  1.0 0.1084161569
H  H93  1  0.89020000  0.08500000  0.03200000  1.0 0.1305061081
H  H94  1  0.08500000  0.89020000  0.46800000  1.0 0.1305061081
H  H95  1  0.10980000  0.91500000  0.96800000  1.0 0.1305061081
H  H96  1  0.91500000  0.10980000  0.53200000  1.0 0.1305061081
H  H97  1  0.07710000  0.13490000  0.25640000  1.0 0.1802170331
H  H98  1  0.13490000  0.07710000  0.24360000  1.0 0.1802170331
H  H99  1  0.92290000  0.86510000  0.74360000  1.0 0.1802170331
H  H100  1  0.86510000  0.92290000  0.75640000  1.0 0.1802170331
H  H101  1  0.09200000  0.05800000  0.23400000  1.0 0.1191251084
H  H102  1  0.05800000  0.09200000  0.26600000  1.0 0.1191251084
H  H103  1  0.90800000  0.94200000  0.76600000  1.0 0.1191251084
H  H104  1  0.94200000  0.90800000  0.73400000  1.0 0.1191251084
C  C1  1  0.39247000  0.67373000  0.38321000  1.0 -0.1431178757
C  C2  1  0.67373000  0.39247000  0.11679000  1.0 -0.1431178757
C  C3  1  0.60753000  0.32627000  0.61679000  1.0 -0.1431178757
C  C4  1  0.32627000  0.60753000  0.88321000  1.0 -0.1431178757
C  C5  1  0.33207000  0.67373000  0.42823000  1.0 -0.0362820907
C  C6  1  0.67373000  0.33207000  0.07177000  1.0 -0.0362820907
C  C7  1  0.66793000  0.32627000  0.57177000  1.0 -0.0362820907
C  C8  1  0.32627000  0.66793000  0.92823000  1.0 -0.0362820907
C  C9  1  0.19826000  0.55334000  0.44373000  1.0 -0.1199261946
C  C10  1  0.55334000  0.19826000  0.05627000  1.0 -0.1199261946
C  C11  1  0.80174000  0.44666000  0.55627000  1.0 -0.1199261946
C  C12  1  0.44666000  0.80174000  0.94373000  1.0 -0.1199261946
C  C13  1  0.11910000  0.42710000  0.41650000  1.0 -0.0144539664
C  C14  1  0.42710000  0.11910000  0.08350000  1.0 -0.0144539664
C  C15  1  0.88090000  0.57290000  0.58350000  1.0 -0.0160284613
C  C16  1  0.57290000  0.88090000  0.91650000  1.0 -0.0160284613
C  C17  1  0.17976000  0.42784000  0.37130000  1.0 -0.1431178757
C  C18  1  0.42784000  0.17976000  0.12870000  1.0 -0.1431178757
C  C19  1  0.82024000  0.57216000  0.62870000  1.0 -0.1431178757
C  C20  1  0.57216000  0.82024000  0.87130000  1.0 -0.1431178757
C  C21  1  0.31617000  0.55023000  0.35530000  1.0 -0.0315342249
C  C22  1  0.55023000  0.31617000  0.14470000  1.0 -0.0315342249
C  C23  1  0.68383000  0.44977000  0.64470000  1.0 -0.0315342249
C  C24  1  0.44977000  0.68383000  0.85530000  1.0 -0.0315342249
C  C25  1  0.41800000  0.80900000  0.45910000  1.0 0.5505869368
C  C26  1  0.80900000  0.41800000  0.04090000  1.0 0.5505869368
C  C27  1  0.58200000  0.19100000  0.54090000  1.0 0.5505869368
C  C28  1  0.19100000  0.58200000  0.95910000  1.0 0.5505869368
C  C29  1  0.96970000  0.29290000  0.43080000  1.0 0.5318255404
C  C30  1  0.29290000  0.96970000  0.06920000  1.0 0.5318255404
C  C31  1  0.03030000  0.70710000  0.56920000  1.0 0.5318255404
C  C32  1  0.70710000  0.03030000  0.93080000  1.0 0.5318255404
C  C33  1  0.37990000  0.54530000  0.30850000  1.0 0.5318255404
C  C34  1  0.54530000  0.37990000  0.19150000  1.0 0.5318255404
C  C35  1  0.62010000  0.45470000  0.69150000  1.0 0.5318255404
C  C36  1  0.45470000  0.62010000  0.80850000  1.0 0.5318255404
C  C37  1  0.54390000  0.38530000  0.34930000  1.0 -0.0160284613
C  C38  1  0.38530000  0.54390000  0.15070000  1.0 -0.0160284613
C  C39  1  0.45610000  0.61470000  0.65070000  1.0 -0.0160284613
C  C40  1  0.61470000  0.45610000  0.84930000  1.0 -0.0160284613
C  C41  1  0.35880000  0.31200000  0.37940000  1.0 0.0723123511
C  C42  1  0.31200000  0.35880000  0.12060000  1.0 0.0723123511
C  C43  1  0.64120000  0.68800000  0.62060000  1.0 0.0723123511
C  C44  1  0.68800000  0.64120000  0.87940000  1.0 0.0723123511
C  C45  1  0.55070000  0.36990000  0.40860000  1.0 -0.1110994072
C  C46  1  0.36990000  0.55070000  0.09140000  1.0 -0.1110994072
C  C47  1  0.44930000  0.63010000  0.59140000  1.0 -0.1110994072
C  C48  1  0.63010000  0.44930000  0.90860000  1.0 -0.1110994072
C  C49  1  0.39660000  0.30560000  0.48840000  1.0 -0.1199261946
C  C50  1  0.30560000  0.39660000  0.01160000  1.0 -0.1199261946
C  C51  1  0.60340000  0.69440000  0.51160000  1.0 -0.1199261946
C  C52  1  0.69440000  0.60340000  0.98840000  1.0 -0.1199261946
C  C53  1  0.49840000  0.44620000  0.51500000  1.0 -0.189770646
C  C54  1  0.44620000  0.49840000  0.98500000  1.0 -0.189770646
C  C55  1  0.50160000  0.55380000  0.48500000  1.0 -0.189770646
C  C56  1  0.55380000  0.50160000  0.01500000  1.0 -0.189770646
C  C57  1  0.65380000  0.10360000  0.32900000  1.0 0.0921817066
C  C58  1  0.10360000  0.65380000  0.17100000  1.0 0.0921817066
C  C59  1  0.34620000  0.89640000  0.67100000  1.0 0.0921817066
C  C60  1  0.89640000  0.34620000  0.82900000  1.0 0.0921817066
C  C61  1  0.72800000  0.29080000  0.35600000  1.0 -0.0315342249
C  C62  1  0.29080000  0.72800000  0.14400000  1.0 -0.0315342249
C  C63  1  0.27200000  0.70920000  0.64400000  1.0 -0.0315342249
C  C64  1  0.70920000  0.27200000  0.85600000  1.0 -0.0315342249
C  C65  1  0.72150000  0.29770000  0.29620000  1.0 -0.1199261946
C  C66  1  0.29770000  0.72150000  0.20380000  1.0 -0.1199261946
C  C67  1  0.27850000  0.70230000  0.70380000  1.0 -0.1199261946
C  C68  1  0.70230000  0.27850000  0.79620000  1.0 -0.1199261946
C  C69  1  0.65660000  0.14200000  0.21860000  1.0 -0.1301543137
C  C70  1  0.14200000  0.65660000  0.28140000  1.0 -0.1301543137
C  C71  1  0.34340000  0.85800000  0.78140000  1.0 -0.1301543137
C  C72  1  0.85800000  0.34340000  0.71860000  1.0 -0.1301543137
C  C73  1  0.79780000  0.23880000  0.19090000  1.0 -0.189770646
C  C74  1  0.23880000  0.79780000  0.30910000  1.0 -0.189770646
C  C75  1  0.20220000  0.76120000  0.80910000  1.0 -0.189770646
C  C76  1  0.76120000  0.20220000  0.69090000  1.0 -0.189770646
C  C77  1  0.89810000  0.23690000  0.22270000  1.0 -0.189770646
C  C78  1  0.23690000  0.89810000  0.27730000  1.0 -0.189770646
C  C79  1  0.10190000  0.76310000  0.77730000  1.0 -0.189770646
C  C80  1  0.76310000  0.10190000  0.72270000  1.0 -0.189770646
C  C81  1  0.03340000  0.32440000  0.19220000  1.0 -0.1431178757
C  C82  1  0.32440000  0.03340000  0.30780000  1.0 -0.1431178757
C  C83  1  0.96660000  0.67560000  0.80780000  1.0 -0.1431178757
C  C84  1  0.67560000  0.96660000  0.69220000  1.0 -0.1431178757
C  C85  1  0.99440000  0.34060000  0.08320000  1.0 0.0921817066
C  C86  1  0.34060000  0.99440000  0.41680000  1.0 0.0921817066
C  C87  1  0.00560000  0.65940000  0.91680000  1.0 0.0921817066
C  C88  1  0.65940000  0.00560000  0.58320000  1.0 0.0921817066
C  C89  1  0.96120000  0.16420000  0.11480000  1.0 -0.1110994072
C  C90  1  0.16420000  0.96120000  0.38520000  1.0 -0.1110994072
C  C91  1  0.03880000  0.83580000  0.88520000  1.0 -0.1110994072
C  C92  1  0.83580000  0.03880000  0.61480000  1.0 -0.1110994072
C  C93  1  0.92430000  0.15590000  0.05550000  1.0 -0.0160284613
C  C94  1  0.15590000  0.92430000  0.44450000  1.0 -0.0160284613
C  C95  1  0.07570000  0.84410000  0.94450000  1.0 -0.0160284613
C  C96  1  0.84410000  0.07570000  0.55550000  1.0 -0.0160284613
N  N1  1  0.42648000  0.35112000  0.33095000  1.0 -0.2990712544
N  N2  1  0.35112000  0.42648000  0.16905000  1.0 -0.2990712544
N  N3  1  0.57352000  0.64888000  0.66905000  1.0 -0.2990712544
N  N4  1  0.64888000  0.57352000  0.83095000  1.0 -0.2990712544
N  N5  1  0.43152000  0.32308000  0.42748000  1.0 0.0469694266
N  N6  1  0.32308000  0.43152000  0.07252000  1.0 0.0469694266
N  N7  1  0.56848000  0.67692000  0.57252000  1.0 0.0469694266
N  N8  1  0.67692000  0.56848000  0.92748000  1.0 0.0469694266
N  N9  1  0.68587000  0.16873000  0.37691000  1.0 -0.2905642336
N  N10  1  0.16873000  0.68587000  0.12309000  1.0 -0.2905642336
N  N11  1  0.31413000  0.83127000  0.62309000  1.0 -0.2905642336
N  N12  1  0.83127000  0.31413000  0.87691000  1.0 -0.2905642336
N  N13  1  0.67353000  0.17727000  0.27975000  1.0 0.0394484213
N  N14  1  0.17727000  0.67353000  0.22025000  1.0 0.0394484213
N  N15  1  0.32647000  0.82273000  0.72025000  1.0 0.0394484213
N  N16  1  0.82273000  0.32647000  0.77975000  1.0 0.0394484213
N  N17  1  0.00412000  0.28108000  0.13117000  1.0 0.0394484213
N  N18  1  0.28108000  0.00412000  0.36883000  1.0 0.0394484213
N  N19  1  0.99588000  0.71892000  0.86883000  1.0 0.0394484213
N  N20  1  0.71892000  0.99588000  0.63117000  1.0 0.0394484213
N  N21  1  0.94511000  0.26629000  0.03617000  1.0 -0.2905642336
N  N22  1  0.26629000  0.94511000  0.46383000  1.0 -0.2905642336
N  N23  1  0.05489000  0.73371000  0.96383000  1.0 -0.2905642336
N  N24  1  0.73371000  0.05489000  0.53617000  1.0 -0.2905642336
O  O1  1  0.53477000  0.91763000  0.43682000  1.0 -0.5544571301
O  O2  1  0.91763000  0.53477000  0.06318000  1.0 -0.5544571301
O  O3  1  0.46523000  0.08237000  0.56318000  1.0 -0.5544571301
O  O4  1  0.08237000  0.46523000  0.93682000  1.0 -0.5544571301
O  O5  1  0.36972000  0.80448000  0.50261000  1.0 -0.5673465973
O  O6  1  0.80448000  0.36972000  0.99739000  1.0 -0.5673465973
O  O7  1  0.63028000  0.19552000  0.49739000  1.0 -0.5673465973
O  O8  1  0.19552000  0.63028000  0.00261000  1.0 -0.5673465973
O  O9  1  0.90603000  0.30337000  0.46087000  1.0 -0.5275313428
O  O10  1  0.30337000  0.90603000  0.03913000  1.0 -0.5275313428
O  O11  1  0.09397000  0.69663000  0.53913000  1.0 -0.5275313428
O  O12  1  0.69663000  0.09397000  0.96087000  1.0 -0.5275313428
O  O13  1  0.91616000  0.18104000  0.41383000  1.0 -0.5673465973
O  O14  1  0.18104000  0.91616000  0.08617000  1.0 -0.5673465973
O  O15  1  0.08384000  0.81896000  0.58617000  1.0 -0.5673465973
O  O16  1  0.81896000  0.08384000  0.91383000  1.0 -0.5673465973
O  O17  1  0.30162000  0.43098000  0.28419000  1.0 -0.5384527316
O  O18  1  0.43098000  0.30162000  0.21581000  1.0 -0.5384527316
O  O19  1  0.69838000  0.56902000  0.71581000  1.0 -0.5384527316
O  O20  1  0.56902000  0.69838000  0.78419000  1.0 -0.5384527316
O  O21  1  0.50560000  0.64920000  0.29960000  1.0 -0.5384527316
O  O22  1  0.64920000  0.50560000  0.20040000  1.0 -0.5384527316
O  O23  1  0.49440000  0.35080000  0.70040000  1.0 -0.5384527316
O  O24  1  0.35080000  0.49440000  0.79960000  1.0 -0.5384527316
O  O25  1  0.14180000  0.14180000  0.25000000  1.0 -0.5011880418
O  O26  1  0.85820000  0.85820000  0.75000000  1.0 -0.5011880418
