# DDEC6 charges by PACMAN v1.1 (https://github.com/mtap-research/PACMAN-charge/)
data_LEGGIO_FSR_pacman
_symmetry_space_group_name_H-M   'P 1'
_cell_length_a   13.47500000
_cell_length_b   26.94900000
_cell_length_c   18.19890000
_cell_angle_alpha   90.00000000
_cell_angle_beta   132.33100000
_cell_angle_gamma   90.00000000
_symmetry_Int_Tables_number   1
_chemical_formula_structural   Zn2H8C12N6O5
_chemical_formula_sum   'Zn16 H64 C96 N48 O40'
_cell_volume   4885.59879797
_cell_formula_units_Z   8
loop_
 _symmetry_equiv_pos_site_id
 _symmetry_equiv_pos_as_xyz
  1  'x, y, z'
loop_
 _atom_site_type_symbol
 _atom_site_label
 _atom_site_symmetry_multiplicity
 _atom_site_fract_x
 _atom_site_fract_y
 _atom_site_fract_z
 _atom_site_occupancy
 _atom_site_charge
Zn  Zn1  1  0.64049000  0.02402000  0.86237000  1.0 0.6703112108
Zn  Zn2  1  0.35951000  0.52402000  0.63763000  1.0 0.6703112108
Zn  Zn3  1  0.35951000  0.97598000  0.13763000  1.0 0.6703112108
Zn  Zn4  1  0.64049000  0.47598000  0.36237000  1.0 0.6703112108
Zn  Zn5  1  0.10973000  0.05428000  0.74262000  1.0 0.6833053363
Zn  Zn6  1  0.89027000  0.55428000  0.75738000  1.0 0.6833053363
Zn  Zn7  1  0.89027000  0.94572000  0.25738000  1.0 0.6833053363
Zn  Zn8  1  0.10973000  0.44572000  0.24262000  1.0 0.6833053363
Zn  Zn9  1  0.42666000  0.92425000  0.68431000  1.0 0.7166219485
Zn  Zn10  1  0.57334000  0.42425000  0.81569000  1.0 0.7166219485
Zn  Zn11  1  0.57334000  0.07575000  0.31569000  1.0 0.7166219485
Zn  Zn12  1  0.42666000  0.57575000  0.18431000  1.0 0.7166219485
Zn  Zn13  1  0.10422000  0.04392000  0.29313000  1.0 0.7055982185
Zn  Zn14  1  0.89578000  0.54392000  0.20687000  1.0 0.7055982185
Zn  Zn15  1  0.89578000  0.95608000  0.70687000  1.0 0.7055982185
Zn  Zn16  1  0.10422000  0.45608000  0.79313000  1.0 0.7055982185
H  H1  1  0.59850000  0.92160000  0.61970000  1.0 0.1301951581
H  H2  1  0.40150000  0.42160000  0.88030000  1.0 0.1301951581
H  H3  1  0.40150000  0.07840000  0.38030000  1.0 0.1301951581
H  H4  1  0.59850000  0.57840000  0.11970000  1.0 0.1301951581
H  H5  1  0.88490000  0.09660000  0.52360000  1.0 0.1301951581
H  H6  1  0.11510000  0.59660000  0.97640000  1.0 0.1301951581
H  H7  1  0.11510000  0.90340000  0.47640000  1.0 0.1301951581
H  H8  1  0.88490000  0.40340000  0.02360000  1.0 0.1301951581
H  H9  1  0.64950000  0.98990000  0.47590000  1.0 0.1223601763
H  H10  1  0.35050000  0.48990000  0.02410000  1.0 0.1223601763
H  H11  1  0.35050000  0.01010000  0.52410000  1.0 0.1223601763
H  H12  1  0.64950000  0.51010000  0.97590000  1.0 0.1223601763
H  H13  1  0.16900000  0.96860000  0.65170000  1.0 0.1223601763
H  H14  1  0.83100000  0.46860000  0.84830000  1.0 0.1223601763
H  H15  1  0.83100000  0.03140000  0.34830000  1.0 0.1223601763
H  H16  1  0.16900000  0.53140000  0.15170000  1.0 0.1223601763
H  H17  1  0.70030000  0.94500000  0.02010000  1.0 0.1223601763
H  H18  1  0.29970000  0.44500000  0.47990000  1.0 0.1223601763
H  H19  1  0.29970000  0.05500000  0.97990000  1.0 0.1223601763
H  H20  1  0.70030000  0.55500000  0.52010000  1.0 0.1223601763
H  H21  1  0.93890000  0.04750000  0.05920000  1.0 0.1301951581
H  H22  1  0.06110000  0.54750000  0.44080000  1.0 0.1301951581
H  H23  1  0.06110000  0.95250000  0.94080000  1.0 0.1301951581
H  H24  1  0.93890000  0.45250000  0.55920000  1.0 0.1301951581
H  H25  1  0.41840000  0.06380000  0.86310000  1.0 0.1301951581
H  H26  1  0.58160000  0.56380000  0.63690000  1.0 0.1301951581
H  H27  1  0.58160000  0.93620000  0.13690000  1.0 0.1301951581
H  H28  1  0.41840000  0.43620000  0.36310000  1.0 0.1301951581
H  H29  1  0.81690000  0.03160000  0.80260000  1.0 0.1223601763
H  H30  1  0.18310000  0.53160000  0.69740000  1.0 0.1223601763
H  H31  1  0.18310000  0.96840000  0.19740000  1.0 0.1223601763
H  H32  1  0.81690000  0.46840000  0.30260000  1.0 0.1223601763
H  H33  1  0.04710000  0.20840000  0.64670000  1.0 0.1223601763
H  H34  1  0.95290000  0.70840000  0.85330000  1.0 0.1223601763
H  H35  1  0.95290000  0.79160000  0.35330000  1.0 0.1223601763
H  H36  1  0.04710000  0.29160000  0.14670000  1.0 0.1223601763
H  H37  1  0.51260000  0.26340000  0.88520000  1.0 0.1223601763
H  H38  1  0.48740000  0.76340000  0.61480000  1.0 0.1223601763
H  H39  1  0.48740000  0.73660000  0.11480000  1.0 0.1223601763
H  H40  1  0.51260000  0.23660000  0.38520000  1.0 0.1223601763
H  H41  1  0.02620000  0.29540000  0.63580000  1.0 0.1223601763
H  H42  1  0.97380000  0.79540000  0.86420000  1.0 0.1223601763
H  H43  1  0.97380000  0.70460000  0.36420000  1.0 0.1223601763
H  H44  1  0.02620000  0.20460000  0.13580000  1.0 0.1223601763
H  H45  1  0.54170000  0.17680000  0.89670000  1.0 0.1223601763
H  H46  1  0.45830000  0.67680000  0.60330000  1.0 0.1223601763
H  H47  1  0.45830000  0.82320000  0.10330000  1.0 0.1223601763
H  H48  1  0.54170000  0.32320000  0.39670000  1.0 0.1223601763
H  H49  1  0.81860000  0.27790000  0.89260000  1.0 0.1223601763
H  H50  1  0.18140000  0.77790000  0.60740000  1.0 0.1223601763
H  H51  1  0.18140000  0.72210000  0.10740000  1.0 0.1223601763
H  H52  1  0.81860000  0.22210000  0.39260000  1.0 0.1223601763
H  H53  1  0.33850000  0.22050000  0.94570000  1.0 0.1301951581
H  H54  1  0.66150000  0.72050000  0.55430000  1.0 0.1223601763
H  H55  1  0.66150000  0.77950000  0.05430000  1.0 0.1223601763
H  H56  1  0.33850000  0.27950000  0.44570000  1.0 0.1301951581
H  H57  1  0.84820000  0.19150000  0.90680000  1.0 0.1301951581
H  H58  1  0.15180000  0.69150000  0.59320000  1.0 0.1301951581
H  H59  1  0.15180000  0.80850000  0.09320000  1.0 0.1301951581
H  H60  1  0.84820000  0.30850000  0.40680000  1.0 0.1301951581
H  H61  1  0.30170000  0.30580000  0.93390000  1.0 0.1223601763
H  H62  1  0.69830000  0.80580000  0.56610000  1.0 0.1223601763
H  H63  1  0.69830000  0.69420000  0.06610000  1.0 0.1223601763
H  H64  1  0.30170000  0.19420000  0.43390000  1.0 0.1223601763
C  C1  1  0.69380000  0.17650000  0.89890000  1.0 -0.0175787931
C  C2  1  0.30620000  0.67650000  0.60110000  1.0 -0.0175787931
C  C3  1  0.30620000  0.82350000  0.10110000  1.0 -0.0175787931
C  C4  1  0.69380000  0.32350000  0.39890000  1.0 -0.0175787931
C  C5  1  0.63150000  0.94780000  0.66600000  1.0 0.1519995066
C  C6  1  0.36850000  0.44780000  0.83400000  1.0 0.1519995066
C  C7  1  0.36850000  0.05220000  0.33400000  1.0 0.1519995066
C  C8  1  0.63150000  0.55220000  0.16600000  1.0 0.1519995066
C  C9  1  0.85200000  0.06810000  0.53220000  1.0 0.1670059284
C  C10  1  0.14800000  0.56810000  0.96780000  1.0 0.1670059284
C  C11  1  0.14800000  0.93190000  0.46780000  1.0 0.1670059284
C  C12  1  0.85200000  0.43190000  0.03220000  1.0 0.1670059284
C  C13  1  0.72540000  0.01073000  0.50690000  1.0 0.1519995066
C  C14  1  0.27460000  0.51073000  0.99310000  1.0 0.1519995066
C  C15  1  0.27460000  0.98927000  0.49310000  1.0 0.1519995066
C  C16  1  0.72540000  0.48927000  0.00690000  1.0 0.1519995066
C  C17  1  0.24900000  0.98604000  0.70330000  1.0 0.1519995066
C  C18  1  0.75100000  0.48604000  0.79670000  1.0 0.1519995066
C  C19  1  0.75100000  0.01396000  0.29670000  1.0 0.1519995066
C  C20  1  0.24900000  0.51396000  0.20330000  1.0 0.1519995066
C  C21  1  0.66020000  0.27900000  0.88370000  1.0 -0.0175787931
C  C22  1  0.33980000  0.77900000  0.61630000  1.0 -0.0175787931
C  C23  1  0.33980000  0.72100000  0.11630000  1.0 -0.0175787931
C  C24  1  0.66020000  0.22100000  0.38370000  1.0 -0.0175787931
C  C25  1  0.77330000  0.96727000  0.05030000  1.0 0.1602848354
C  C26  1  0.22670000  0.46727000  0.44970000  1.0 0.1602848354
C  C27  1  0.22670000  0.03273000  0.94970000  1.0 0.1602848354
C  C28  1  0.77330000  0.53273000  0.55030000  1.0 0.1602848354
C  C29  1  0.90200000  0.02250000  0.07150000  1.0 0.1602848354
C  C30  1  0.09800000  0.52250000  0.42850000  1.0 0.1602848354
C  C31  1  0.09800000  0.97750000  0.92850000  1.0 0.1602848354
C  C32  1  0.90200000  0.47750000  0.57150000  1.0 0.1602848354
C  C33  1  0.38270000  0.03740000  0.81660000  1.0 0.1670059284
C  C34  1  0.61730000  0.53740000  0.68340000  1.0 0.1670059284
C  C35  1  0.61730000  0.96260000  0.18340000  1.0 0.1670059284
C  C36  1  0.38270000  0.46260000  0.31660000  1.0 0.1670059284
C  C37  1  0.63210000  0.33360000  0.86620000  1.0 0.5379757864
C  C38  1  0.36790000  0.83360000  0.63380000  1.0 0.5379757864
C  C39  1  0.36790000  0.66640000  0.13380000  1.0 0.5379757864
C  C40  1  0.63210000  0.16640000  0.36620000  1.0 0.5379757864
C  C41  1  0.74900000  0.00690000  0.76430000  1.0 0.1602848354
C  C42  1  0.25100000  0.50690000  0.73570000  1.0 0.1602848354
C  C43  1  0.25100000  0.99310000  0.23570000  1.0 0.1602848354
C  C44  1  0.74900000  0.49310000  0.26430000  1.0 0.1602848354
C  C45  1  0.19400000  0.20555000  0.79820000  1.0 -0.0276902233
C  C46  1  0.80600000  0.70555000  0.70180000  1.0 -0.0276902233
C  C47  1  0.80600000  0.79445000  0.20180000  1.0 -0.0276902233
C  C48  1  0.19400000  0.29445000  0.29820000  1.0 -0.0276902233
C  C49  1  0.16350000  0.30840000  0.78350000  1.0 -0.0120363309
C  C50  1  0.83650000  0.80840000  0.71650000  1.0 -0.0120363309
C  C51  1  0.83650000  0.69160000  0.21650000  1.0 -0.0120363309
C  C52  1  0.16350000  0.19160000  0.28350000  1.0 -0.0120363309
C  C53  1  0.20420000  0.15040000  0.80540000  1.0 0.5634574873
C  C54  1  0.79580000  0.65040000  0.69460000  1.0 0.5634574873
C  C55  1  0.79580000  0.84960000  0.19460000  1.0 0.5634574873
C  C56  1  0.20420000  0.34960000  0.30540000  1.0 0.5634574873
C  C57  1  0.13950000  0.36370000  0.77280000  1.0 0.5465958101
C  C58  1  0.86050000  0.86370000  0.72720000  1.0 0.5465958101
C  C59  1  0.86050000  0.63630000  0.22720000  1.0 0.5465958101
C  C60  1  0.13950000  0.13630000  0.27280000  1.0 0.5465958101
C  C61  1  0.10120000  0.22810000  0.70540000  1.0 -0.0993889794
C  C62  1  0.89880000  0.72810000  0.79460000  1.0 -0.0993889794
C  C63  1  0.89880000  0.77190000  0.29460000  1.0 -0.0993889794
C  C64  1  0.10120000  0.27190000  0.20540000  1.0 -0.0993889794
C  C65  1  0.57910000  0.24900000  0.88750000  1.0 -0.0993889794
C  C66  1  0.42090000  0.74900000  0.61250000  1.0 -0.0993889794
C  C67  1  0.42090000  0.75100000  0.11250000  1.0 -0.0993889794
C  C68  1  0.57910000  0.25100000  0.38750000  1.0 -0.0993889794
C  C69  1  0.08800000  0.27990000  0.69910000  1.0 -0.0937432813
C  C70  1  0.91200000  0.77990000  0.80090000  1.0 -0.0937432813
C  C71  1  0.91200000  0.72010000  0.30090000  1.0 -0.0937432813
C  C72  1  0.08800000  0.22010000  0.19910000  1.0 -0.0937432813
C  C73  1  0.59700000  0.19750000  0.89470000  1.0 -0.0993889794
C  C74  1  0.40300000  0.69750000  0.60530000  1.0 -0.0993889794
C  C75  1  0.40300000  0.80250000  0.10530000  1.0 -0.0993889794
C  C76  1  0.59700000  0.30250000  0.39470000  1.0 -0.0993889794
C  C77  1  0.76090000  0.25750000  0.89230000  1.0 -0.0993889794
C  C78  1  0.23910000  0.75750000  0.60770000  1.0 -0.0993889794
C  C79  1  0.23910000  0.74250000  0.10770000  1.0 -0.0993889794
C  C80  1  0.76090000  0.24250000  0.39230000  1.0 -0.0993889794
C  C81  1  0.27150000  0.23530000  0.88230000  1.0 -0.0993889794
C  C82  1  0.72850000  0.73530000  0.61770000  1.0 -0.0993889794
C  C83  1  0.72850000  0.76470000  0.11770000  1.0 -0.0993889794
C  C84  1  0.27150000  0.26470000  0.38230000  1.0 -0.0993889794
C  C85  1  0.77850000  0.20600000  0.90040000  1.0 -0.0993889794
C  C86  1  0.22150000  0.70600000  0.59960000  1.0 -0.0993889794
C  C87  1  0.22150000  0.79400000  0.09960000  1.0 -0.0993889794
C  C88  1  0.77850000  0.29400000  0.40040000  1.0 -0.0993889794
C  C89  1  0.70190000  0.12020000  0.89500000  1.0 0.5634574873
C  C90  1  0.29810000  0.62020000  0.60500000  1.0 0.5634574873
C  C91  1  0.29810000  0.87980000  0.10500000  1.0 0.5634574873
C  C92  1  0.70190000  0.37980000  0.39500000  1.0 0.5634574873
C  C93  1  0.25280000  0.28620000  0.87530000  1.0 -0.0993889794
C  C94  1  0.74720000  0.78620000  0.62470000  1.0 -0.0993889794
C  C95  1  0.74720000  0.71380000  0.12470000  1.0 -0.0993889794
C  C96  1  0.25280000  0.21380000  0.37530000  1.0 -0.0993889794
N  N1  1  0.25350000  0.02420000  0.75290000  1.0 -0.3186084248
N  N2  1  0.74650000  0.52420000  0.74710000  1.0 -0.3186084248
N  N3  1  0.74650000  0.97580000  0.24710000  1.0 -0.3186084248
N  N4  1  0.25350000  0.47580000  0.25290000  1.0 -0.3186084248
N  N5  1  0.78510000  0.99838000  0.99910000  1.0 -0.3186084248
N  N6  1  0.21490000  0.49838000  0.50090000  1.0 -0.3186084248
N  N7  1  0.21490000  0.00162000  0.00090000  1.0 -0.3186084248
N  N8  1  0.78510000  0.50162000  0.49910000  1.0 -0.3186084248
N  N9  1  0.72620000  0.05094000  0.46310000  1.0 -0.3186084248
N  N10  1  0.27380000  0.55094000  0.03690000  1.0 -0.3186084248
N  N11  1  0.27380000  0.94906000  0.53690000  1.0 -0.3186084248
N  N12  1  0.72620000  0.44906000  0.96310000  1.0 -0.3186084248
N  N13  1  0.36790000  0.97524000  0.73390000  1.0 -0.1981503105
N  N14  1  0.63210000  0.47524000  0.76610000  1.0 -0.1981503105
N  N15  1  0.63210000  0.02476000  0.26610000  1.0 -0.1981503105
N  N16  1  0.36790000  0.52476000  0.23390000  1.0 -0.1981503105
N  N17  1  0.57640000  0.96106000  0.70210000  1.0 -0.1926101724
N  N18  1  0.42360000  0.46106000  0.79790000  1.0 -0.1926101724
N  N19  1  0.42360000  0.03894000  0.29790000  1.0 -0.1926101724
N  N20  1  0.57640000  0.53894000  0.20210000  1.0 -0.1926101724
N  N21  1  0.92530000  0.04055000  0.61420000  1.0 -0.1981503105
N  N22  1  0.07470000  0.54055000  0.88580000  1.0 -0.1981503105
N  N23  1  0.07470000  0.95945000  0.38580000  1.0 -0.1981503105
N  N24  1  0.92530000  0.45945000  0.11420000  1.0 -0.1981503105
N  N25  1  0.45510000  0.00991000  0.80780000  1.0 -0.1981503105
N  N26  1  0.54490000  0.50991000  0.69220000  1.0 -0.1981503105
N  N27  1  0.54490000  0.99009000  0.19220000  1.0 -0.1981503105
N  N28  1  0.45510000  0.49009000  0.30780000  1.0 -0.1981503105
N  N29  1  0.87360000  0.97090000  0.14660000  1.0 -0.1981503105
N  N30  1  0.12640000  0.47090000  0.35340000  1.0 -0.1981503105
N  N31  1  0.12640000  0.02910000  0.85340000  1.0 -0.1981503105
N  N32  1  0.87360000  0.52910000  0.64660000  1.0 -0.1981503105
N  N33  1  0.95740000  0.00712000  0.16020000  1.0 -0.1926101724
N  N34  1  0.04260000  0.50712000  0.33980000  1.0 -0.1926101724
N  N35  1  0.04260000  0.99288000  0.83980000  1.0 -0.1926101724
N  N36  1  0.95740000  0.49288000  0.66020000  1.0 -0.1926101724
N  N37  1  0.73950000  0.97558000  0.70220000  1.0 -0.3306694942
N  N38  1  0.26050000  0.47558000  0.79780000  1.0 -0.3306694942
N  N39  1  0.26050000  0.02442000  0.29780000  1.0 -0.3306694942
N  N40  1  0.73950000  0.52442000  0.20220000  1.0 -0.3306694942
N  N41  1  0.84170000  0.00358000  0.59740000  1.0 -0.1981503105
N  N42  1  0.15830000  0.50358000  0.90260000  1.0 -0.1981503105
N  N43  1  0.15830000  0.99642000  0.40260000  1.0 -0.1981503105
N  N44  1  0.84170000  0.49642000  0.09740000  1.0 -0.1981503105
N  N45  1  0.65330000  0.99965000  0.76630000  1.0 -0.1981503105
N  N46  1  0.34670000  0.49965000  0.73370000  1.0 -0.1981503105
N  N47  1  0.34670000  0.00035000  0.23370000  1.0 -0.1981503105
N  N48  1  0.65330000  0.50035000  0.26630000  1.0 -0.1981503105
O  O1  1  0.58020000  0.90120000  0.83730000  1.0 -0.0993889794
O  O2  1  0.41980000  0.40120000  0.66270000  1.0 -0.0993889794
O  O3  1  0.41980000  0.09880000  0.16270000  1.0 -0.0993889794
O  O4  1  0.58020000  0.59880000  0.33730000  1.0 -0.0993889794
O  O5  1  0.62170000  0.09520000  0.89040000  1.0 -0.5047106462
O  O6  1  0.37830000  0.59520000  0.60960000  1.0 -0.5047106462
O  O7  1  0.37830000  0.90480000  0.10960000  1.0 -0.5047106462
O  O8  1  0.62170000  0.40480000  0.39040000  1.0 -0.5047106462
O  O9  1  0.10300000  0.12655000  0.72890000  1.0 -0.5479932295
O  O10  1  0.89700000  0.62655000  0.77110000  1.0 -0.5479932295
O  O11  1  0.89700000  0.87345000  0.27110000  1.0 -0.5479932295
O  O12  1  0.10300000  0.37345000  0.22890000  1.0 -0.5479932295
O  O13  1  0.68910000  0.35934000  0.84430000  1.0 -0.5479932295
O  O14  1  0.31090000  0.85934000  0.65570000  1.0 -0.5479932295
O  O15  1  0.31090000  0.64066000  0.15570000  1.0 -0.5479932295
O  O16  1  0.68910000  0.14066000  0.34430000  1.0 -0.5479932295
O  O17  1  0.55250000  0.35351000  0.87110000  1.0 -0.5302920061
O  O18  1  0.44750000  0.85351000  0.62890000  1.0 -0.5302920061
O  O19  1  0.44750000  0.64649000  0.12890000  1.0 -0.5302920061
O  O20  1  0.55250000  0.14649000  0.37110000  1.0 -0.5302920061
O  O21  1  0.93030000  0.06760000  0.27030000  1.0 -0.1295265889
O  O22  1  0.06970000  0.56760000  0.22970000  1.0 -0.1295265889
O  O23  1  0.06970000  0.93240000  0.72970000  1.0 -0.1295265889
O  O24  1  0.93030000  0.43240000  0.77030000  1.0 -0.1295265889
O  O25  1  0.18370000  0.38742000  0.85120000  1.0 -0.5302920061
O  O26  1  0.81630000  0.88742000  0.64880000  1.0 -0.5302920061
O  O27  1  0.81630000  0.61258000  0.14880000  1.0 -0.5302920061
O  O28  1  0.18370000  0.11258000  0.35120000  1.0 -0.5302920061
O  O29  1  0.30190000  0.12899000  0.88180000  1.0 -0.5432940739
O  O30  1  0.69810000  0.62899000  0.61820000  1.0 -0.5432940739
O  O31  1  0.69810000  0.87101000  0.11820000  1.0 -0.5432940739
O  O32  1  0.30190000  0.37101000  0.38180000  1.0 -0.5432940739
O  O33  1  0.07960000  0.38411000  0.69230000  1.0 -0.5099352615
O  O34  1  0.92040000  0.88411000  0.80770000  1.0 -0.5099352615
O  O35  1  0.92040000  0.61589000  0.30770000  1.0 -0.5099352615
O  O36  1  0.07960000  0.11589000  0.19230000  1.0 -0.5099352615
O  O37  1  0.79490000  0.10100000  0.90020000  1.0 -0.5906501132
O  O38  1  0.20510000  0.60100000  0.59980000  1.0 -0.5906501132
O  O39  1  0.20510000  0.89900000  0.09980000  1.0 -0.5906501132
O  O40  1  0.79490000  0.39900000  0.40020000  1.0 -0.5906501132
