# DDEC6 charges by PACMAN v1.1 (https://github.com/mtap-research/PACMAN-charge/)
data_LEHXUT_ASR_pacman
_symmetry_space_group_name_H-M   'P 1'
_cell_length_a   37.16340000
_cell_length_b   37.16340000
_cell_length_c   37.16340000
_cell_angle_alpha   60.00000000
_cell_angle_beta   60.00000000
_cell_angle_gamma   60.00000000
_symmetry_Int_Tables_number   1
_chemical_formula_structural   CuH13C21NO5
_chemical_formula_sum   'Cu24 H312 C504 N24 O120'
_cell_volume   36293.70639590
_cell_formula_units_Z   24
loop_
 _symmetry_equiv_pos_site_id
 _symmetry_equiv_pos_as_xyz
  1  'x, y, z'
loop_
 _atom_site_type_symbol
 _atom_site_label
 _atom_site_symmetry_multiplicity
 _atom_site_fract_x
 _atom_site_fract_y
 _atom_site_fract_z
 _atom_site_occupancy
 _atom_site_charge
Cu  Cu1  1  0.00000000  0.00000000  0.21508000  1.0 0.8736101367
Cu  Cu2  1  0.21508000  0.00000000  0.00000000  1.0 0.8736101367
Cu  Cu3  1  0.00000000  0.21508000  0.00000000  1.0 0.8736101367
Cu  Cu4  1  0.78492000  0.21508000  0.00000000  1.0 0.8736101367
Cu  Cu5  1  0.21508000  0.78492000  0.00000000  1.0 0.8736101367
Cu  Cu6  1  0.78492000  0.00000000  0.21508000  1.0 0.8736101367
Cu  Cu7  1  0.21508000  0.00000000  0.78492000  1.0 0.8736101367
Cu  Cu8  1  0.00000000  0.78492000  0.21508000  1.0 0.8736101367
Cu  Cu9  1  0.00000000  0.21508000  0.78492000  1.0 0.8736101367
Cu  Cu10  1  0.00000000  0.00000000  0.78492000  1.0 0.8736101367
Cu  Cu11  1  0.78492000  0.00000000  0.00000000  1.0 0.8736101367
Cu  Cu12  1  0.00000000  0.78492000  0.00000000  1.0 0.8736101367
Cu  Cu13  1  0.00000000  0.00000000  0.28620000  1.0 0.862485486
Cu  Cu14  1  0.28620000  0.00000000  0.00000000  1.0 0.862485486
Cu  Cu15  1  0.00000000  0.28620000  0.00000000  1.0 0.862485486
Cu  Cu16  1  0.71380000  0.28620000  0.00000000  1.0 0.862485486
Cu  Cu17  1  0.28620000  0.71380000  0.00000000  1.0 0.862485486
Cu  Cu18  1  0.71380000  0.00000000  0.28620000  1.0 0.862485486
Cu  Cu19  1  0.28620000  0.00000000  0.71380000  1.0 0.862485486
Cu  Cu20  1  0.00000000  0.71380000  0.28620000  1.0 0.862485486
Cu  Cu21  1  0.00000000  0.28620000  0.71380000  1.0 0.862485486
Cu  Cu22  1  0.00000000  0.00000000  0.71380000  1.0 0.862485486
Cu  Cu23  1  0.71380000  0.00000000  0.00000000  1.0 0.862485486
Cu  Cu24  1  0.00000000  0.71380000  0.00000000  1.0 0.862485486
H  H1  1  0.01630000  0.86370000  0.25630000  1.0 0.1422408727
H  H2  1  0.25630000  0.01630000  0.86370000  1.0 0.1422408727
H  H3  1  0.86370000  0.25630000  0.01630000  1.0 0.1422408727
H  H4  1  0.98370000  0.13630000  0.13630000  1.0 0.1422408727
H  H5  1  0.74370000  0.13630000  0.13630000  1.0 0.1422408727
H  H6  1  0.13630000  0.74370000  0.98370000  1.0 0.1422408727
H  H7  1  0.74370000  0.98370000  0.13630000  1.0 0.1422408727
H  H8  1  0.13630000  0.13630000  0.74370000  1.0 0.1422408727
H  H9  1  0.13630000  0.13630000  0.98370000  1.0 0.1422408727
H  H10  1  0.13630000  0.74370000  0.13630000  1.0 0.1422408727
H  H11  1  0.98370000  0.13630000  0.74370000  1.0 0.1422408727
H  H12  1  0.13630000  0.98370000  0.13630000  1.0 0.1422408727
H  H13  1  0.86370000  0.01630000  0.86370000  1.0 0.1422408727
H  H14  1  0.25630000  0.86370000  0.01630000  1.0 0.1422408727
H  H15  1  0.86370000  0.25630000  0.86370000  1.0 0.1422408727
H  H16  1  0.86370000  0.86370000  0.01630000  1.0 0.1422408727
H  H17  1  0.01630000  0.25630000  0.86370000  1.0 0.1422408727
H  H18  1  0.86370000  0.86370000  0.25630000  1.0 0.1422408727
H  H19  1  0.01630000  0.86370000  0.86370000  1.0 0.1422408727
H  H20  1  0.86370000  0.01630000  0.25630000  1.0 0.1422408727
H  H21  1  0.25630000  0.86370000  0.86370000  1.0 0.1422408727
H  H22  1  0.13630000  0.98370000  0.74370000  1.0 0.1422408727
H  H23  1  0.98370000  0.74370000  0.13630000  1.0 0.1422408727
H  H24  1  0.74370000  0.13630000  0.98370000  1.0 0.1422408727
H  H25  1  0.02440000  0.86100000  0.36040000  1.0 0.1422408727
H  H26  1  0.36040000  0.02440000  0.86100000  1.0 0.1422408727
H  H27  1  0.86100000  0.36040000  0.02440000  1.0 0.1422408727
H  H28  1  0.97560000  0.13900000  0.24580000  1.0 0.1422408727
H  H29  1  0.63960000  0.24580000  0.13900000  1.0 0.1422408727
H  H30  1  0.24580000  0.63960000  0.97560000  1.0 0.1422408727
H  H31  1  0.63960000  0.97560000  0.24580000  1.0 0.1422408727
H  H32  1  0.24580000  0.13900000  0.63960000  1.0 0.1422408727
H  H33  1  0.13900000  0.24580000  0.97560000  1.0 0.1422408727
H  H34  1  0.13900000  0.63960000  0.24580000  1.0 0.1422408727
H  H35  1  0.97560000  0.24580000  0.63960000  1.0 0.1422408727
H  H36  1  0.24580000  0.97560000  0.13900000  1.0 0.1422408727
H  H37  1  0.86100000  0.02440000  0.75420000  1.0 0.1422408727
H  H38  1  0.36040000  0.75420000  0.02440000  1.0 0.1422408727
H  H39  1  0.75420000  0.36040000  0.86100000  1.0 0.1422408727
H  H40  1  0.75420000  0.86100000  0.02440000  1.0 0.1422408727
H  H41  1  0.02440000  0.36040000  0.75420000  1.0 0.1422408727
H  H42  1  0.86100000  0.75420000  0.36040000  1.0 0.1422408727
H  H43  1  0.02440000  0.75420000  0.86100000  1.0 0.1422408727
H  H44  1  0.75420000  0.02440000  0.36040000  1.0 0.1422408727
H  H45  1  0.36040000  0.86100000  0.75420000  1.0 0.1422408727
H  H46  1  0.13900000  0.97560000  0.63960000  1.0 0.1422408727
H  H47  1  0.97560000  0.63960000  0.13900000  1.0 0.1422408727
H  H48  1  0.63960000  0.13900000  0.97560000  1.0 0.1422408727
H  H49  1  0.97560000  0.13900000  0.63960000  1.0 0.1422408727
H  H50  1  0.63960000  0.97560000  0.13900000  1.0 0.1422408727
H  H51  1  0.13900000  0.63960000  0.97560000  1.0 0.1422408727
H  H52  1  0.02440000  0.86100000  0.75420000  1.0 0.1422408727
H  H53  1  0.36040000  0.75420000  0.86100000  1.0 0.1422408727
H  H54  1  0.75420000  0.36040000  0.02440000  1.0 0.1422408727
H  H55  1  0.36040000  0.02440000  0.75420000  1.0 0.1422408727
H  H56  1  0.75420000  0.86100000  0.36040000  1.0 0.1422408727
H  H57  1  0.86100000  0.75420000  0.02440000  1.0 0.1422408727
H  H58  1  0.86100000  0.36040000  0.75420000  1.0 0.1422408727
H  H59  1  0.02440000  0.75420000  0.36040000  1.0 0.1422408727
H  H60  1  0.75420000  0.02440000  0.86100000  1.0 0.1422408727
H  H61  1  0.13900000  0.97560000  0.24580000  1.0 0.1422408727
H  H62  1  0.63960000  0.24580000  0.97560000  1.0 0.1422408727
H  H63  1  0.24580000  0.63960000  0.13900000  1.0 0.1422408727
H  H64  1  0.24580000  0.13900000  0.97560000  1.0 0.1422408727
H  H65  1  0.97560000  0.63960000  0.24580000  1.0 0.1422408727
H  H66  1  0.13900000  0.24580000  0.63960000  1.0 0.1422408727
H  H67  1  0.97560000  0.24580000  0.13900000  1.0 0.1422408727
H  H68  1  0.24580000  0.97560000  0.63960000  1.0 0.1422408727
H  H69  1  0.63960000  0.13900000  0.24580000  1.0 0.1422408727
H  H70  1  0.86100000  0.02440000  0.36040000  1.0 0.1422408727
H  H71  1  0.02440000  0.36040000  0.86100000  1.0 0.1422408727
H  H72  1  0.36040000  0.86100000  0.02440000  1.0 0.1422408727
H  H73  1  0.04350000  0.69030000  0.47910000  1.0 0.1014020876
H  H74  1  0.47910000  0.04350000  0.69030000  1.0 0.1014020876
H  H75  1  0.69030000  0.47910000  0.04350000  1.0 0.1014020876
H  H76  1  0.95650000  0.30970000  0.21290000  1.0 0.1014020876
H  H77  1  0.52090000  0.21290000  0.30970000  1.0 0.1014020876
H  H78  1  0.21290000  0.52090000  0.95650000  1.0 0.1014020876
H  H79  1  0.52090000  0.95650000  0.21290000  1.0 0.1014020876
H  H80  1  0.21290000  0.30970000  0.52090000  1.0 0.1014020876
H  H81  1  0.30970000  0.21290000  0.95650000  1.0 0.1014020876
H  H82  1  0.30970000  0.52090000  0.21290000  1.0 0.1014020876
H  H83  1  0.95650000  0.21290000  0.52090000  1.0 0.1014020876
H  H84  1  0.21290000  0.95650000  0.30970000  1.0 0.1014020876
H  H85  1  0.69030000  0.04350000  0.78710000  1.0 0.1014020876
H  H86  1  0.47910000  0.78710000  0.04350000  1.0 0.1014020876
H  H87  1  0.78710000  0.47910000  0.69030000  1.0 0.1014020876
H  H88  1  0.78710000  0.69030000  0.04350000  1.0 0.1014020876
H  H89  1  0.04350000  0.47910000  0.78710000  1.0 0.1014020876
H  H90  1  0.69030000  0.78710000  0.47910000  1.0 0.1014020876
H  H91  1  0.04350000  0.78710000  0.69030000  1.0 0.1014020876
H  H92  1  0.78710000  0.04350000  0.47910000  1.0 0.1014020876
H  H93  1  0.47910000  0.69030000  0.78710000  1.0 0.1014020876
H  H94  1  0.30970000  0.95650000  0.52090000  1.0 0.1014020876
H  H95  1  0.95650000  0.52090000  0.30970000  1.0 0.1014020876
H  H96  1  0.52090000  0.30970000  0.95650000  1.0 0.1014020876
H  H97  1  0.95650000  0.30970000  0.52090000  1.0 0.1014020876
H  H98  1  0.52090000  0.95650000  0.30970000  1.0 0.1014020876
H  H99  1  0.30970000  0.52090000  0.95650000  1.0 0.1014020876
H  H100  1  0.04350000  0.69030000  0.78710000  1.0 0.1014020876
H  H101  1  0.47910000  0.78710000  0.69030000  1.0 0.1014020876
H  H102  1  0.78710000  0.47910000  0.04350000  1.0 0.1014020876
H  H103  1  0.47910000  0.04350000  0.78710000  1.0 0.1014020876
H  H104  1  0.78710000  0.69030000  0.47910000  1.0 0.1014020876
H  H105  1  0.69030000  0.78710000  0.04350000  1.0 0.1014020876
H  H106  1  0.69030000  0.47910000  0.78710000  1.0 0.1014020876
H  H107  1  0.04350000  0.78710000  0.47910000  1.0 0.1014020876
H  H108  1  0.78710000  0.04350000  0.69030000  1.0 0.1014020876
H  H109  1  0.30970000  0.95650000  0.21290000  1.0 0.1014020876
H  H110  1  0.52090000  0.21290000  0.95650000  1.0 0.1014020876
H  H111  1  0.21290000  0.52090000  0.30970000  1.0 0.1014020876
H  H112  1  0.21290000  0.30970000  0.95650000  1.0 0.1014020876
H  H113  1  0.95650000  0.52090000  0.21290000  1.0 0.1014020876
H  H114  1  0.30970000  0.21290000  0.52090000  1.0 0.1014020876
H  H115  1  0.95650000  0.21290000  0.30970000  1.0 0.1014020876
H  H116  1  0.21290000  0.95650000  0.52090000  1.0 0.1014020876
H  H117  1  0.52090000  0.30970000  0.21290000  1.0 0.1014020876
H  H118  1  0.69030000  0.04350000  0.47910000  1.0 0.1014020876
H  H119  1  0.04350000  0.47910000  0.69030000  1.0 0.1014020876
H  H120  1  0.47910000  0.69030000  0.04350000  1.0 0.1014020876
H  H121  1  0.05820000  0.64840000  0.54660000  1.0 0.1014020876
H  H122  1  0.54660000  0.05820000  0.64840000  1.0 0.1014020876
H  H123  1  0.64840000  0.54660000  0.05820000  1.0 0.1014020876
H  H124  1  0.94180000  0.35160000  0.25320000  1.0 0.1014020876
H  H125  1  0.45340000  0.25320000  0.35160000  1.0 0.1014020876
H  H126  1  0.25320000  0.45340000  0.94180000  1.0 0.1014020876
H  H127  1  0.45340000  0.94180000  0.25320000  1.0 0.1014020876
H  H128  1  0.25320000  0.35160000  0.45340000  1.0 0.1014020876
H  H129  1  0.35160000  0.25320000  0.94180000  1.0 0.1014020876
H  H130  1  0.35160000  0.45340000  0.25320000  1.0 0.1014020876
H  H131  1  0.94180000  0.25320000  0.45340000  1.0 0.1014020876
H  H132  1  0.25320000  0.94180000  0.35160000  1.0 0.1014020876
H  H133  1  0.64840000  0.05820000  0.74680000  1.0 0.1014020876
H  H134  1  0.54660000  0.74680000  0.05820000  1.0 0.1014020876
H  H135  1  0.74680000  0.54660000  0.64840000  1.0 0.1014020876
H  H136  1  0.74680000  0.64840000  0.05820000  1.0 0.1014020876
H  H137  1  0.05820000  0.54660000  0.74680000  1.0 0.1014020876
H  H138  1  0.64840000  0.74680000  0.54660000  1.0 0.1014020876
H  H139  1  0.05820000  0.74680000  0.64840000  1.0 0.1014020876
H  H140  1  0.74680000  0.05820000  0.54660000  1.0 0.1014020876
H  H141  1  0.54660000  0.64840000  0.74680000  1.0 0.1014020876
H  H142  1  0.35160000  0.94180000  0.45340000  1.0 0.1014020876
H  H143  1  0.94180000  0.45340000  0.35160000  1.0 0.1014020876
H  H144  1  0.45340000  0.35160000  0.94180000  1.0 0.1014020876
H  H145  1  0.94180000  0.35160000  0.45340000  1.0 0.1014020876
H  H146  1  0.45340000  0.94180000  0.35160000  1.0 0.1014020876
H  H147  1  0.35160000  0.45340000  0.94180000  1.0 0.1014020876
H  H148  1  0.05820000  0.64840000  0.74680000  1.0 0.1014020876
H  H149  1  0.54660000  0.74680000  0.64840000  1.0 0.1014020876
H  H150  1  0.74680000  0.54660000  0.05820000  1.0 0.1014020876
H  H151  1  0.54660000  0.05820000  0.74680000  1.0 0.1014020876
H  H152  1  0.74680000  0.64840000  0.54660000  1.0 0.1014020876
H  H153  1  0.64840000  0.74680000  0.05820000  1.0 0.1014020876
H  H154  1  0.64840000  0.54660000  0.74680000  1.0 0.1014020876
H  H155  1  0.05820000  0.74680000  0.54660000  1.0 0.1014020876
H  H156  1  0.74680000  0.05820000  0.64840000  1.0 0.1014020876
H  H157  1  0.35160000  0.94180000  0.25320000  1.0 0.1014020876
H  H158  1  0.45340000  0.25320000  0.94180000  1.0 0.1014020876
H  H159  1  0.25320000  0.45340000  0.35160000  1.0 0.1014020876
H  H160  1  0.25320000  0.35160000  0.94180000  1.0 0.1014020876
H  H161  1  0.94180000  0.45340000  0.25320000  1.0 0.1014020876
H  H162  1  0.35160000  0.25320000  0.45340000  1.0 0.1014020876
H  H163  1  0.94180000  0.25320000  0.35160000  1.0 0.1014020876
H  H164  1  0.25320000  0.94180000  0.45340000  1.0 0.1014020876
H  H165  1  0.45340000  0.35160000  0.25320000  1.0 0.1014020876
H  H166  1  0.64840000  0.05820000  0.54660000  1.0 0.1014020876
H  H167  1  0.05820000  0.54660000  0.64840000  1.0 0.1014020876
H  H168  1  0.54660000  0.64840000  0.05820000  1.0 0.1014020876
H  H169  1  0.03760000  0.61820000  0.61820000  1.0 0.1072874795
H  H170  1  0.61820000  0.03760000  0.61820000  1.0 0.1072874795
H  H171  1  0.61820000  0.61820000  0.03760000  1.0 0.1072874795
H  H172  1  0.96240000  0.38180000  0.27400000  1.0 0.1072874795
H  H173  1  0.38180000  0.27400000  0.38180000  1.0 0.1072874795
H  H174  1  0.27400000  0.38180000  0.96240000  1.0 0.1072874795
H  H175  1  0.38180000  0.96240000  0.27400000  1.0 0.1072874795
H  H176  1  0.27400000  0.38180000  0.38180000  1.0 0.1072874795
H  H177  1  0.38180000  0.27400000  0.96240000  1.0 0.1072874795
H  H178  1  0.38180000  0.38180000  0.27400000  1.0 0.1072874795
H  H179  1  0.96240000  0.27400000  0.38180000  1.0 0.1072874795
H  H180  1  0.27400000  0.96240000  0.38180000  1.0 0.1072874795
H  H181  1  0.61820000  0.03760000  0.72600000  1.0 0.1072874795
H  H182  1  0.61820000  0.72600000  0.03760000  1.0 0.1072874795
H  H183  1  0.72600000  0.61820000  0.61820000  1.0 0.1072874795
H  H184  1  0.72600000  0.61820000  0.03760000  1.0 0.1072874795
H  H185  1  0.03760000  0.61820000  0.72600000  1.0 0.1072874795
H  H186  1  0.61820000  0.72600000  0.61820000  1.0 0.1072874795
H  H187  1  0.03760000  0.72600000  0.61820000  1.0 0.1072874795
H  H188  1  0.72600000  0.03760000  0.61820000  1.0 0.1072874795
H  H189  1  0.61820000  0.61820000  0.72600000  1.0 0.1072874795
H  H190  1  0.38180000  0.96240000  0.38180000  1.0 0.1072874795
H  H191  1  0.96240000  0.38180000  0.38180000  1.0 0.1072874795
H  H192  1  0.38180000  0.38180000  0.96240000  1.0 0.1072874795
H  H193  1  0.06010000  0.76390000  0.41210000  1.0 0.2940635709
H  H194  1  0.41210000  0.06010000  0.76390000  1.0 0.2940635709
H  H195  1  0.76390000  0.41210000  0.06010000  1.0 0.2940635709
H  H196  1  0.93990000  0.23610000  0.23610000  1.0 0.2940635709
H  H197  1  0.58790000  0.23610000  0.23610000  1.0 0.2940635709
H  H198  1  0.23610000  0.58790000  0.93990000  1.0 0.2940635709
H  H199  1  0.58790000  0.93990000  0.23610000  1.0 0.2940635709
H  H200  1  0.23610000  0.23610000  0.58790000  1.0 0.2940635709
H  H201  1  0.23610000  0.23610000  0.93990000  1.0 0.2940635709
H  H202  1  0.23610000  0.58790000  0.23610000  1.0 0.2940635709
H  H203  1  0.93990000  0.23610000  0.58790000  1.0 0.2940635709
H  H204  1  0.23610000  0.93990000  0.23610000  1.0 0.2940635709
H  H205  1  0.76390000  0.06010000  0.76390000  1.0 0.2940635709
H  H206  1  0.41210000  0.76390000  0.06010000  1.0 0.2940635709
H  H207  1  0.76390000  0.41210000  0.76390000  1.0 0.2940635709
H  H208  1  0.76390000  0.76390000  0.06010000  1.0 0.2940635709
H  H209  1  0.06010000  0.41210000  0.76390000  1.0 0.2940635709
H  H210  1  0.76390000  0.76390000  0.41210000  1.0 0.2940635709
H  H211  1  0.06010000  0.76390000  0.76390000  1.0 0.2940635709
H  H212  1  0.76390000  0.06010000  0.41210000  1.0 0.2940635709
H  H213  1  0.41210000  0.76390000  0.76390000  1.0 0.2940635709
H  H214  1  0.23610000  0.93990000  0.58790000  1.0 0.2940635709
H  H215  1  0.93990000  0.58790000  0.23610000  1.0 0.2940635709
H  H216  1  0.58790000  0.23610000  0.93990000  1.0 0.2940635709
H  H217  1  0.99310000  0.75930000  0.58030000  1.0 0.1014020876
H  H218  1  0.58030000  0.99310000  0.75930000  1.0 0.1014020876
H  H219  1  0.75930000  0.58030000  0.99310000  1.0 0.1014020876
H  H220  1  0.00690000  0.24070000  0.33270000  1.0 0.1014020876
H  H221  1  0.41970000  0.33270000  0.24070000  1.0 0.1014020876
H  H222  1  0.33270000  0.41970000  0.00690000  1.0 0.1014020876
H  H223  1  0.41970000  0.00690000  0.33270000  1.0 0.1014020876
H  H224  1  0.33270000  0.24070000  0.41970000  1.0 0.1014020876
H  H225  1  0.24070000  0.33270000  0.00690000  1.0 0.1014020876
H  H226  1  0.24070000  0.41970000  0.33270000  1.0 0.1014020876
H  H227  1  0.00690000  0.33270000  0.41970000  1.0 0.1014020876
H  H228  1  0.33270000  0.00690000  0.24070000  1.0 0.1014020876
H  H229  1  0.75930000  0.99310000  0.66730000  1.0 0.1014020876
H  H230  1  0.58030000  0.66730000  0.99310000  1.0 0.1014020876
H  H231  1  0.66730000  0.58030000  0.75930000  1.0 0.1014020876
H  H232  1  0.66730000  0.75930000  0.99310000  1.0 0.1014020876
H  H233  1  0.99310000  0.58030000  0.66730000  1.0 0.1014020876
H  H234  1  0.75930000  0.66730000  0.58030000  1.0 0.1014020876
H  H235  1  0.99310000  0.66730000  0.75930000  1.0 0.1014020876
H  H236  1  0.66730000  0.99310000  0.58030000  1.0 0.1014020876
H  H237  1  0.58030000  0.75930000  0.66730000  1.0 0.1014020876
H  H238  1  0.24070000  0.00690000  0.41970000  1.0 0.1014020876
H  H239  1  0.00690000  0.41970000  0.24070000  1.0 0.1014020876
H  H240  1  0.41970000  0.24070000  0.00690000  1.0 0.1014020876
H  H241  1  0.00690000  0.24070000  0.41970000  1.0 0.1014020876
H  H242  1  0.41970000  0.00690000  0.24070000  1.0 0.1014020876
H  H243  1  0.24070000  0.41970000  0.00690000  1.0 0.1014020876
H  H244  1  0.99310000  0.75930000  0.66730000  1.0 0.1014020876
H  H245  1  0.58030000  0.66730000  0.75930000  1.0 0.1014020876
H  H246  1  0.66730000  0.58030000  0.99310000  1.0 0.1014020876
H  H247  1  0.58030000  0.99310000  0.66730000  1.0 0.1014020876
H  H248  1  0.66730000  0.75930000  0.58030000  1.0 0.1014020876
H  H249  1  0.75930000  0.66730000  0.99310000  1.0 0.1014020876
H  H250  1  0.75930000  0.58030000  0.66730000  1.0 0.1014020876
H  H251  1  0.99310000  0.66730000  0.58030000  1.0 0.1014020876
H  H252  1  0.66730000  0.99310000  0.75930000  1.0 0.1014020876
H  H253  1  0.24070000  0.00690000  0.33270000  1.0 0.1014020876
H  H254  1  0.41970000  0.33270000  0.00690000  1.0 0.1014020876
H  H255  1  0.33270000  0.41970000  0.24070000  1.0 0.1014020876
H  H256  1  0.33270000  0.24070000  0.00690000  1.0 0.1014020876
H  H257  1  0.00690000  0.41970000  0.33270000  1.0 0.1014020876
H  H258  1  0.24070000  0.33270000  0.41970000  1.0 0.1014020876
H  H259  1  0.00690000  0.33270000  0.24070000  1.0 0.1014020876
H  H260  1  0.33270000  0.00690000  0.41970000  1.0 0.1014020876
H  H261  1  0.41970000  0.24070000  0.33270000  1.0 0.1014020876
H  H262  1  0.75930000  0.99310000  0.58030000  1.0 0.1014020876
H  H263  1  0.99310000  0.58030000  0.75930000  1.0 0.1014020876
H  H264  1  0.58030000  0.75930000  0.99310000  1.0 0.1014020876
H  H265  1  0.97920000  0.80080000  0.51320000  1.0 0.1072874795
H  H266  1  0.51320000  0.97920000  0.80080000  1.0 0.1072874795
H  H267  1  0.80080000  0.51320000  0.97920000  1.0 0.1072874795
H  H268  1  0.02080000  0.19920000  0.29320000  1.0 0.1072874795
H  H269  1  0.48680000  0.29320000  0.19920000  1.0 0.1072874795
H  H270  1  0.29320000  0.48680000  0.02080000  1.0 0.1072874795
H  H271  1  0.48680000  0.02080000  0.29320000  1.0 0.1072874795
H  H272  1  0.29320000  0.19920000  0.48680000  1.0 0.1072874795
H  H273  1  0.19920000  0.29320000  0.02080000  1.0 0.1072874795
H  H274  1  0.19920000  0.48680000  0.29320000  1.0 0.1072874795
H  H275  1  0.02080000  0.29320000  0.48680000  1.0 0.1072874795
H  H276  1  0.29320000  0.02080000  0.19920000  1.0 0.1072874795
H  H277  1  0.80080000  0.97920000  0.70680000  1.0 0.1072874795
H  H278  1  0.51320000  0.70680000  0.97920000  1.0 0.1072874795
H  H279  1  0.70680000  0.51320000  0.80080000  1.0 0.1072874795
H  H280  1  0.70680000  0.80080000  0.97920000  1.0 0.1072874795
H  H281  1  0.97920000  0.51320000  0.70680000  1.0 0.1072874795
H  H282  1  0.80080000  0.70680000  0.51320000  1.0 0.1072874795
H  H283  1  0.97920000  0.70680000  0.80080000  1.0 0.1072874795
H  H284  1  0.70680000  0.97920000  0.51320000  1.0 0.1072874795
H  H285  1  0.51320000  0.80080000  0.70680000  1.0 0.1072874795
H  H286  1  0.19920000  0.02080000  0.48680000  1.0 0.1072874795
H  H287  1  0.02080000  0.48680000  0.19920000  1.0 0.1072874795
H  H288  1  0.48680000  0.19920000  0.02080000  1.0 0.1072874795
H  H289  1  0.02080000  0.19920000  0.48680000  1.0 0.1072874795
H  H290  1  0.48680000  0.02080000  0.19920000  1.0 0.1072874795
H  H291  1  0.19920000  0.48680000  0.02080000  1.0 0.1072874795
H  H292  1  0.97920000  0.80080000  0.70680000  1.0 0.1072874795
H  H293  1  0.51320000  0.70680000  0.80080000  1.0 0.1072874795
H  H294  1  0.70680000  0.51320000  0.97920000  1.0 0.1072874795
H  H295  1  0.51320000  0.97920000  0.70680000  1.0 0.1072874795
H  H296  1  0.70680000  0.80080000  0.51320000  1.0 0.1072874795
H  H297  1  0.80080000  0.70680000  0.97920000  1.0 0.1072874795
H  H298  1  0.80080000  0.51320000  0.70680000  1.0 0.1072874795
H  H299  1  0.97920000  0.70680000  0.51320000  1.0 0.1072874795
H  H300  1  0.70680000  0.97920000  0.80080000  1.0 0.1072874795
H  H301  1  0.19920000  0.02080000  0.29320000  1.0 0.1072874795
H  H302  1  0.48680000  0.29320000  0.02080000  1.0 0.1072874795
H  H303  1  0.29320000  0.48680000  0.19920000  1.0 0.1072874795
H  H304  1  0.29320000  0.19920000  0.02080000  1.0 0.1072874795
H  H305  1  0.02080000  0.48680000  0.29320000  1.0 0.1072874795
H  H306  1  0.19920000  0.29320000  0.48680000  1.0 0.1072874795
H  H307  1  0.02080000  0.29320000  0.19920000  1.0 0.1072874795
H  H308  1  0.29320000  0.02080000  0.48680000  1.0 0.1072874795
H  H309  1  0.48680000  0.19920000  0.29320000  1.0 0.1072874795
H  H310  1  0.80080000  0.97920000  0.51320000  1.0 0.1072874795
H  H311  1  0.97920000  0.51320000  0.80080000  1.0 0.1072874795
H  H312  1  0.51320000  0.80080000  0.97920000  1.0 0.1072874795
C  C1  1  0.01219000  0.91887000  0.28535000  1.0 0.5825071437
C  C2  1  0.28535000  0.01219000  0.91887000  1.0 0.5825071437
C  C3  1  0.91887000  0.28535000  0.01219000  1.0 0.5825071437
C  C4  1  0.98781000  0.08113000  0.21641000  1.0 0.5825071437
C  C5  1  0.71465000  0.21641000  0.08113000  1.0 0.5825071437
C  C6  1  0.21641000  0.71465000  0.98781000  1.0 0.5825071437
C  C7  1  0.71465000  0.98781000  0.21641000  1.0 0.5825071437
C  C8  1  0.21641000  0.08113000  0.71465000  1.0 0.5825071437
C  C9  1  0.08113000  0.21641000  0.98781000  1.0 0.5825071437
C  C10  1  0.08113000  0.71465000  0.21641000  1.0 0.5825071437
C  C11  1  0.98781000  0.21641000  0.71465000  1.0 0.5825071437
C  C12  1  0.21641000  0.98781000  0.08113000  1.0 0.5825071437
C  C13  1  0.91887000  0.01219000  0.78359000  1.0 0.5825071437
C  C14  1  0.28535000  0.78359000  0.01219000  1.0 0.5825071437
C  C15  1  0.78359000  0.28535000  0.91887000  1.0 0.5825071437
C  C16  1  0.78359000  0.91887000  0.01219000  1.0 0.5825071437
C  C17  1  0.01219000  0.28535000  0.78359000  1.0 0.5825071437
C  C18  1  0.91887000  0.78359000  0.28535000  1.0 0.5825071437
C  C19  1  0.01219000  0.78359000  0.91887000  1.0 0.5825071437
C  C20  1  0.78359000  0.01219000  0.28535000  1.0 0.5825071437
C  C21  1  0.28535000  0.91887000  0.78359000  1.0 0.5825071437
C  C22  1  0.08113000  0.98781000  0.71465000  1.0 0.5825071437
C  C23  1  0.98781000  0.71465000  0.08113000  1.0 0.5825071437
C  C24  1  0.71465000  0.08113000  0.98781000  1.0 0.5825071437
C  C25  1  0.98781000  0.08113000  0.71465000  1.0 0.5825071437
C  C26  1  0.71465000  0.98781000  0.08113000  1.0 0.5825071437
C  C27  1  0.08113000  0.71465000  0.98781000  1.0 0.5825071437
C  C28  1  0.01219000  0.91887000  0.78359000  1.0 0.5825071437
C  C29  1  0.28535000  0.78359000  0.91887000  1.0 0.5825071437
C  C30  1  0.78359000  0.28535000  0.01219000  1.0 0.5825071437
C  C31  1  0.28535000  0.01219000  0.78359000  1.0 0.5825071437
C  C32  1  0.78359000  0.91887000  0.28535000  1.0 0.5825071437
C  C33  1  0.91887000  0.78359000  0.01219000  1.0 0.5825071437
C  C34  1  0.91887000  0.28535000  0.78359000  1.0 0.5825071437
C  C35  1  0.01219000  0.78359000  0.28535000  1.0 0.5825071437
C  C36  1  0.78359000  0.01219000  0.91887000  1.0 0.5825071437
C  C37  1  0.08113000  0.98781000  0.21641000  1.0 0.5825071437
C  C38  1  0.71465000  0.21641000  0.98781000  1.0 0.5825071437
C  C39  1  0.21641000  0.71465000  0.08113000  1.0 0.5825071437
C  C40  1  0.21641000  0.08113000  0.98781000  1.0 0.5825071437
C  C41  1  0.98781000  0.71465000  0.21641000  1.0 0.5825071437
C  C42  1  0.08113000  0.21641000  0.71465000  1.0 0.5825071437
C  C43  1  0.98781000  0.21641000  0.08113000  1.0 0.5825071437
C  C44  1  0.21641000  0.98781000  0.71465000  1.0 0.5825071437
C  C45  1  0.71465000  0.08113000  0.21641000  1.0 0.5825071437
C  C46  1  0.91887000  0.01219000  0.28535000  1.0 0.5825071437
C  C47  1  0.01219000  0.28535000  0.91887000  1.0 0.5825071437
C  C48  1  0.28535000  0.91887000  0.01219000  1.0 0.5825071437
C  C49  1  0.01671000  0.84909000  0.28511000  1.0 -0.0997070878
C  C50  1  0.28511000  0.01671000  0.84909000  1.0 -0.0997070878
C  C51  1  0.84909000  0.28511000  0.01671000  1.0 -0.0997070878
C  C52  1  0.98329000  0.15091000  0.15091000  1.0 -0.0997070878
C  C53  1  0.71489000  0.15091000  0.15091000  1.0 -0.0997070878
C  C54  1  0.15091000  0.71489000  0.98329000  1.0 -0.0997070878
C  C55  1  0.71489000  0.98329000  0.15091000  1.0 -0.0997070878
C  C56  1  0.15091000  0.15091000  0.71489000  1.0 -0.0997070878
C  C57  1  0.15091000  0.15091000  0.98329000  1.0 -0.0997070878
C  C58  1  0.15091000  0.71489000  0.15091000  1.0 -0.0997070878
C  C59  1  0.98329000  0.15091000  0.71489000  1.0 -0.0997070878
C  C60  1  0.15091000  0.98329000  0.15091000  1.0 -0.0997070878
C  C61  1  0.84909000  0.01671000  0.84909000  1.0 -0.0997070878
C  C62  1  0.28511000  0.84909000  0.01671000  1.0 -0.0997070878
C  C63  1  0.84909000  0.28511000  0.84909000  1.0 -0.0997070878
C  C64  1  0.84909000  0.84909000  0.01671000  1.0 -0.0997070878
C  C65  1  0.01671000  0.28511000  0.84909000  1.0 -0.0997070878
C  C66  1  0.84909000  0.84909000  0.28511000  1.0 -0.0997070878
C  C67  1  0.01671000  0.84909000  0.84909000  1.0 -0.0997070878
C  C68  1  0.84909000  0.01671000  0.28511000  1.0 -0.0997070878
C  C69  1  0.28511000  0.84909000  0.84909000  1.0 -0.0997070878
C  C70  1  0.15091000  0.98329000  0.71489000  1.0 -0.0997070878
C  C71  1  0.98329000  0.71489000  0.15091000  1.0 -0.0997070878
C  C72  1  0.71489000  0.15091000  0.98329000  1.0 -0.0997070878
C  C73  1  0.01702000  0.87082000  0.30632000  1.0 -0.0092104938
C  C74  1  0.30632000  0.01702000  0.87082000  1.0 -0.0092104938
C  C75  1  0.87082000  0.30632000  0.01702000  1.0 -0.0092104938
C  C76  1  0.98298000  0.12918000  0.19416000  1.0 -0.0092104938
C  C77  1  0.69368000  0.19416000  0.12918000  1.0 -0.0092104938
C  C78  1  0.19416000  0.69368000  0.98298000  1.0 -0.0092104938
C  C79  1  0.69368000  0.98298000  0.19416000  1.0 -0.0092104938
C  C80  1  0.19416000  0.12918000  0.69368000  1.0 -0.0092104938
C  C81  1  0.12918000  0.19416000  0.98298000  1.0 -0.0092104938
C  C82  1  0.12918000  0.69368000  0.19416000  1.0 -0.0092104938
C  C83  1  0.98298000  0.19416000  0.69368000  1.0 -0.0092104938
C  C84  1  0.19416000  0.98298000  0.12918000  1.0 -0.0092104938
C  C85  1  0.87082000  0.01702000  0.80584000  1.0 -0.0092104938
C  C86  1  0.30632000  0.80584000  0.01702000  1.0 -0.0092104938
C  C87  1  0.80584000  0.30632000  0.87082000  1.0 -0.0092104938
C  C88  1  0.80584000  0.87082000  0.01702000  1.0 -0.0092104938
C  C89  1  0.01702000  0.30632000  0.80584000  1.0 -0.0092104938
C  C90  1  0.87082000  0.80584000  0.30632000  1.0 -0.0092104938
C  C91  1  0.01702000  0.80584000  0.87082000  1.0 -0.0092104938
C  C92  1  0.80584000  0.01702000  0.30632000  1.0 -0.0092104938
C  C93  1  0.30632000  0.87082000  0.80584000  1.0 -0.0092104938
C  C94  1  0.12918000  0.98298000  0.69368000  1.0 -0.0092104938
C  C95  1  0.98298000  0.69368000  0.12918000  1.0 -0.0092104938
C  C96  1  0.69368000  0.12918000  0.98298000  1.0 -0.0092104938
C  C97  1  0.98298000  0.12918000  0.69368000  1.0 -0.0092104938
C  C98  1  0.69368000  0.98298000  0.12918000  1.0 -0.0092104938
C  C99  1  0.12918000  0.69368000  0.98298000  1.0 -0.0092104938
C  C100  1  0.01702000  0.87082000  0.80584000  1.0 -0.0092104938
C  C101  1  0.30632000  0.80584000  0.87082000  1.0 -0.0092104938
C  C102  1  0.80584000  0.30632000  0.01702000  1.0 -0.0092104938
C  C103  1  0.30632000  0.01702000  0.80584000  1.0 -0.0092104938
C  C104  1  0.80584000  0.87082000  0.30632000  1.0 -0.0092104938
C  C105  1  0.87082000  0.80584000  0.01702000  1.0 -0.0092104938
C  C106  1  0.87082000  0.30632000  0.80584000  1.0 -0.0092104938
C  C107  1  0.01702000  0.80584000  0.30632000  1.0 -0.0092104938
C  C108  1  0.80584000  0.01702000  0.87082000  1.0 -0.0092104938
C  C109  1  0.12918000  0.98298000  0.19416000  1.0 -0.0092104938
C  C110  1  0.69368000  0.19416000  0.98298000  1.0 -0.0092104938
C  C111  1  0.19416000  0.69368000  0.12918000  1.0 -0.0092104938
C  C112  1  0.19416000  0.12918000  0.98298000  1.0 -0.0092104938
C  C113  1  0.98298000  0.69368000  0.19416000  1.0 -0.0092104938
C  C114  1  0.12918000  0.19416000  0.69368000  1.0 -0.0092104938
C  C115  1  0.98298000  0.19416000  0.12918000  1.0 -0.0092104938
C  C116  1  0.19416000  0.98298000  0.69368000  1.0 -0.0092104938
C  C117  1  0.69368000  0.12918000  0.19416000  1.0 -0.0092104938
C  C118  1  0.87082000  0.01702000  0.30632000  1.0 -0.0092104938
C  C119  1  0.01702000  0.30632000  0.87082000  1.0 -0.0092104938
C  C120  1  0.30632000  0.87082000  0.01702000  1.0 -0.0092104938
C  C121  1  0.02270000  0.84686000  0.34680000  1.0 -0.1899560538
C  C122  1  0.34680000  0.02270000  0.84686000  1.0 -0.1899560538
C  C123  1  0.84686000  0.34680000  0.02270000  1.0 -0.1899560538
C  C124  1  0.97730000  0.15314000  0.21636000  1.0 -0.1899560538
C  C125  1  0.65320000  0.21636000  0.15314000  1.0 -0.1899560538
C  C126  1  0.21636000  0.65320000  0.97730000  1.0 -0.1899560538
C  C127  1  0.65320000  0.97730000  0.21636000  1.0 -0.1899560538
C  C128  1  0.21636000  0.15314000  0.65320000  1.0 -0.1899560538
C  C129  1  0.15314000  0.21636000  0.97730000  1.0 -0.1899560538
C  C130  1  0.15314000  0.65320000  0.21636000  1.0 -0.1899560538
C  C131  1  0.97730000  0.21636000  0.65320000  1.0 -0.1899560538
C  C132  1  0.21636000  0.97730000  0.15314000  1.0 -0.1899560538
C  C133  1  0.84686000  0.02270000  0.78364000  1.0 -0.1899560538
C  C134  1  0.34680000  0.78364000  0.02270000  1.0 -0.1899560538
C  C135  1  0.78364000  0.34680000  0.84686000  1.0 -0.1899560538
C  C136  1  0.78364000  0.84686000  0.02270000  1.0 -0.1899560538
C  C137  1  0.02270000  0.34680000  0.78364000  1.0 -0.1899560538
C  C138  1  0.84686000  0.78364000  0.34680000  1.0 -0.1899560538
C  C139  1  0.02270000  0.78364000  0.84686000  1.0 -0.1899560538
C  C140  1  0.78364000  0.02270000  0.34680000  1.0 -0.1899560538
C  C141  1  0.34680000  0.84686000  0.78364000  1.0 -0.1899560538
C  C142  1  0.15314000  0.97730000  0.65320000  1.0 -0.1899560538
C  C143  1  0.97730000  0.65320000  0.15314000  1.0 -0.1899560538
C  C144  1  0.65320000  0.15314000  0.97730000  1.0 -0.1899560538
C  C145  1  0.97730000  0.15314000  0.65320000  1.0 -0.1899560538
C  C146  1  0.65320000  0.97730000  0.15314000  1.0 -0.1899560538
C  C147  1  0.15314000  0.65320000  0.97730000  1.0 -0.1899560538
C  C148  1  0.02270000  0.84686000  0.78364000  1.0 -0.1899560538
C  C149  1  0.34680000  0.78364000  0.84686000  1.0 -0.1899560538
C  C150  1  0.78364000  0.34680000  0.02270000  1.0 -0.1899560538
C  C151  1  0.34680000  0.02270000  0.78364000  1.0 -0.1899560538
C  C152  1  0.78364000  0.84686000  0.34680000  1.0 -0.1899560538
C  C153  1  0.84686000  0.78364000  0.02270000  1.0 -0.1899560538
C  C154  1  0.84686000  0.34680000  0.78364000  1.0 -0.1899560538
C  C155  1  0.02270000  0.78364000  0.34680000  1.0 -0.1899560538
C  C156  1  0.78364000  0.02270000  0.84686000  1.0 -0.1899560538
C  C157  1  0.15314000  0.97730000  0.21636000  1.0 -0.1899560538
C  C158  1  0.65320000  0.21636000  0.97730000  1.0 -0.1899560538
C  C159  1  0.21636000  0.65320000  0.15314000  1.0 -0.1899560538
C  C160  1  0.21636000  0.15314000  0.97730000  1.0 -0.1899560538
C  C161  1  0.97730000  0.65320000  0.21636000  1.0 -0.1899560538
C  C162  1  0.15314000  0.21636000  0.65320000  1.0 -0.1899560538
C  C163  1  0.97730000  0.21636000  0.15314000  1.0 -0.1899560538
C  C164  1  0.21636000  0.97730000  0.65320000  1.0 -0.1899560538
C  C165  1  0.65320000  0.15314000  0.21636000  1.0 -0.1899560538
C  C166  1  0.84686000  0.02270000  0.34680000  1.0 -0.1899560538
C  C167  1  0.02270000  0.34680000  0.84686000  1.0 -0.1899560538
C  C168  1  0.34680000  0.84686000  0.02270000  1.0 -0.1899560538
C  C169  1  0.02587000  0.80289000  0.36835000  1.0 0.1963990743
C  C170  1  0.36835000  0.02587000  0.80289000  1.0 0.1963990743
C  C171  1  0.80289000  0.36835000  0.02587000  1.0 0.1963990743
C  C172  1  0.97413000  0.19711000  0.19711000  1.0 0.1963990743
C  C173  1  0.63165000  0.19711000  0.19711000  1.0 0.1963990743
C  C174  1  0.19711000  0.63165000  0.97413000  1.0 0.1963990743
C  C175  1  0.63165000  0.97413000  0.19711000  1.0 0.1963990743
C  C176  1  0.19711000  0.19711000  0.63165000  1.0 0.1963990743
C  C177  1  0.19711000  0.19711000  0.97413000  1.0 0.1963990743
C  C178  1  0.19711000  0.63165000  0.19711000  1.0 0.1963990743
C  C179  1  0.97413000  0.19711000  0.63165000  1.0 0.1963990743
C  C180  1  0.19711000  0.97413000  0.19711000  1.0 0.1963990743
C  C181  1  0.80289000  0.02587000  0.80289000  1.0 0.1963990743
C  C182  1  0.36835000  0.80289000  0.02587000  1.0 0.1963990743
C  C183  1  0.80289000  0.36835000  0.80289000  1.0 0.1963990743
C  C184  1  0.80289000  0.80289000  0.02587000  1.0 0.1963990743
C  C185  1  0.02587000  0.36835000  0.80289000  1.0 0.1963990743
C  C186  1  0.80289000  0.80289000  0.36835000  1.0 0.1963990743
C  C187  1  0.02587000  0.80289000  0.80289000  1.0 0.1963990743
C  C188  1  0.80289000  0.02587000  0.36835000  1.0 0.1963990743
C  C189  1  0.36835000  0.80289000  0.80289000  1.0 0.1963990743
C  C190  1  0.19711000  0.97413000  0.63165000  1.0 0.1963990743
C  C191  1  0.97413000  0.63165000  0.19711000  1.0 0.1963990743
C  C192  1  0.63165000  0.19711000  0.97413000  1.0 0.1963990743
C  C193  1  0.00006000  0.77610000  0.44774000  1.0 0.4261459976
C  C194  1  0.44774000  0.00006000  0.77610000  1.0 0.4261459976
C  C195  1  0.77610000  0.44774000  0.00006000  1.0 0.4261459976
C  C196  1  0.99994000  0.22390000  0.22390000  1.0 0.4261459976
C  C197  1  0.55226000  0.22390000  0.22390000  1.0 0.4261459976
C  C198  1  0.22390000  0.55226000  0.99994000  1.0 0.4261459976
C  C199  1  0.55226000  0.99994000  0.22390000  1.0 0.4240861712
C  C200  1  0.22390000  0.22390000  0.55226000  1.0 0.4261459976
C  C201  1  0.22390000  0.22390000  0.99994000  1.0 0.4261459976
C  C202  1  0.22390000  0.55226000  0.22390000  1.0 0.4261459976
C  C203  1  0.99994000  0.22390000  0.55226000  1.0 0.4261459976
C  C204  1  0.22390000  0.99994000  0.22390000  1.0 0.4261459976
C  C205  1  0.77610000  0.00006000  0.77610000  1.0 0.4261459976
C  C206  1  0.44774000  0.77610000  0.00006000  1.0 0.4261459976
C  C207  1  0.77610000  0.44774000  0.77610000  1.0 0.4261459976
C  C208  1  0.77610000  0.77610000  0.00006000  1.0 0.4261459976
C  C209  1  0.00006000  0.44774000  0.77610000  1.0 0.4261459976
C  C210  1  0.77610000  0.77610000  0.44774000  1.0 0.4261459976
C  C211  1  0.00006000  0.77610000  0.77610000  1.0 0.4261459976
C  C212  1  0.77610000  0.00006000  0.44774000  1.0 0.4261459976
C  C213  1  0.44774000  0.77610000  0.77610000  1.0 0.4261459976
C  C214  1  0.22390000  0.99994000  0.55226000  1.0 0.4261459976
C  C215  1  0.99994000  0.55226000  0.22390000  1.0 0.4261459976
C  C216  1  0.55226000  0.22390000  0.99994000  1.0 0.4261459976
C  C217  1  0.01279000  0.74937000  0.48847000  1.0 -0.0309233922
C  C218  1  0.48847000  0.01279000  0.74937000  1.0 -0.0309233922
C  C219  1  0.74937000  0.48847000  0.01279000  1.0 -0.0309233922
C  C220  1  0.98721000  0.25063000  0.25063000  1.0 -0.0309233922
C  C221  1  0.51153000  0.25063000  0.25063000  1.0 -0.0309233922
C  C222  1  0.25063000  0.51153000  0.98721000  1.0 -0.0309233922
C  C223  1  0.51153000  0.98721000  0.25063000  1.0 -0.0309233922
C  C224  1  0.25063000  0.25063000  0.51153000  1.0 -0.0309233922
C  C225  1  0.25063000  0.25063000  0.98721000  1.0 -0.0309233922
C  C226  1  0.25063000  0.51153000  0.25063000  1.0 -0.0309233922
C  C227  1  0.98721000  0.25063000  0.51153000  1.0 -0.0309233922
C  C228  1  0.25063000  0.98721000  0.25063000  1.0 -0.0309233922
C  C229  1  0.74937000  0.01279000  0.74937000  1.0 -0.0309233922
C  C230  1  0.48847000  0.74937000  0.01279000  1.0 -0.0309233922
C  C231  1  0.74937000  0.48847000  0.74937000  1.0 -0.0309233922
C  C232  1  0.74937000  0.74937000  0.01279000  1.0 -0.0309233922
C  C233  1  0.01279000  0.48847000  0.74937000  1.0 -0.0309233922
C  C234  1  0.74937000  0.74937000  0.48847000  1.0 -0.0309233922
C  C235  1  0.01279000  0.74937000  0.74937000  1.0 -0.0309233922
C  C236  1  0.74937000  0.01279000  0.48847000  1.0 -0.0309233922
C  C237  1  0.48847000  0.74937000  0.74937000  1.0 -0.0309233922
C  C238  1  0.25063000  0.98721000  0.51153000  1.0 -0.0309233922
C  C239  1  0.98721000  0.51153000  0.25063000  1.0 -0.0309233922
C  C240  1  0.51153000  0.25063000  0.98721000  1.0 -0.0309233922
C  C241  1  0.03438000  0.70494000  0.49892000  1.0 -0.0997070878
C  C242  1  0.49892000  0.03438000  0.70494000  1.0 -0.0997070878
C  C243  1  0.70494000  0.49892000  0.03438000  1.0 -0.0997070878
C  C244  1  0.96562000  0.29506000  0.23824000  1.0 -0.0997070878
C  C245  1  0.50108000  0.23824000  0.29506000  1.0 -0.0997070878
C  C246  1  0.23824000  0.50108000  0.96562000  1.0 -0.0997070878
C  C247  1  0.50108000  0.96562000  0.23824000  1.0 -0.0997070878
C  C248  1  0.23824000  0.29506000  0.50108000  1.0 -0.0997070878
C  C249  1  0.29506000  0.23824000  0.96562000  1.0 -0.0997070878
C  C250  1  0.29506000  0.50108000  0.23824000  1.0 -0.0997070878
C  C251  1  0.96562000  0.23824000  0.50108000  1.0 -0.0997070878
C  C252  1  0.23824000  0.96562000  0.29506000  1.0 -0.0997070878
C  C253  1  0.70494000  0.03438000  0.76176000  1.0 -0.0997070878
C  C254  1  0.49892000  0.76176000  0.03438000  1.0 -0.0997070878
C  C255  1  0.76176000  0.49892000  0.70494000  1.0 -0.0997070878
C  C256  1  0.76176000  0.70494000  0.03438000  1.0 -0.0997070878
C  C257  1  0.03438000  0.49892000  0.76176000  1.0 -0.0997070878
C  C258  1  0.70494000  0.76176000  0.49892000  1.0 -0.0997070878
C  C259  1  0.03438000  0.76176000  0.70494000  1.0 -0.0997070878
C  C260  1  0.76176000  0.03438000  0.49892000  1.0 -0.0997070878
C  C261  1  0.49892000  0.70494000  0.76176000  1.0 -0.0997070878
C  C262  1  0.29506000  0.96562000  0.50108000  1.0 -0.0997070878
C  C263  1  0.96562000  0.50108000  0.29506000  1.0 -0.0892831471
C  C264  1  0.50108000  0.29506000  0.96562000  1.0 -0.0997070878
C  C265  1  0.96562000  0.29506000  0.50108000  1.0 -0.0997070878
C  C266  1  0.50108000  0.96562000  0.29506000  1.0 -0.0997070878
C  C267  1  0.29506000  0.50108000  0.96562000  1.0 -0.0997070878
C  C268  1  0.03438000  0.70494000  0.76176000  1.0 -0.0997070878
C  C269  1  0.49892000  0.76176000  0.70494000  1.0 -0.0997070878
C  C270  1  0.76176000  0.49892000  0.03438000  1.0 -0.0997070878
C  C271  1  0.49892000  0.03438000  0.76176000  1.0 -0.0997070878
C  C272  1  0.76176000  0.70494000  0.49892000  1.0 -0.0997070878
C  C273  1  0.70494000  0.76176000  0.03438000  1.0 -0.0997070878
C  C274  1  0.70494000  0.49892000  0.76176000  1.0 -0.0997070878
C  C275  1  0.03438000  0.76176000  0.49892000  1.0 -0.0997070878
C  C276  1  0.76176000  0.03438000  0.70494000  1.0 -0.0997070878
C  C277  1  0.29506000  0.96562000  0.23824000  1.0 -0.0997070878
C  C278  1  0.50108000  0.23824000  0.96562000  1.0 -0.0997070878
C  C279  1  0.23824000  0.50108000  0.29506000  1.0 -0.0997070878
C  C280  1  0.23824000  0.29506000  0.96562000  1.0 -0.0997070878
C  C281  1  0.96562000  0.50108000  0.23824000  1.0 -0.0997070878
C  C282  1  0.29506000  0.23824000  0.50108000  1.0 -0.0997070878
C  C283  1  0.96562000  0.23824000  0.29506000  1.0 -0.0997070878
C  C284  1  0.23824000  0.96562000  0.50108000  1.0 -0.0997070878
C  C285  1  0.50108000  0.29506000  0.23824000  1.0 -0.0997070878
C  C286  1  0.70494000  0.03438000  0.49892000  1.0 -0.0997070878
C  C287  1  0.03438000  0.49892000  0.70494000  1.0 -0.0997070878
C  C288  1  0.49892000  0.70494000  0.03438000  1.0 -0.0997070878
C  C289  1  0.04311000  0.67965000  0.53895000  1.0 -0.0892831471
C  C290  1  0.53895000  0.04311000  0.67965000  1.0 -0.0892831471
C  C291  1  0.67965000  0.53895000  0.04311000  1.0 -0.0892831471
C  C292  1  0.95689000  0.32035000  0.26171000  1.0 -0.0892831471
C  C293  1  0.46105000  0.26171000  0.32035000  1.0 -0.0892831471
C  C294  1  0.26171000  0.46105000  0.95689000  1.0 -0.0892831471
C  C295  1  0.46105000  0.95689000  0.26171000  1.0 -0.0892831471
C  C296  1  0.26171000  0.32035000  0.46105000  1.0 -0.0892831471
C  C297  1  0.32035000  0.26171000  0.95689000  1.0 -0.0892831471
C  C298  1  0.32035000  0.46105000  0.26171000  1.0 -0.0892831471
C  C299  1  0.95689000  0.26171000  0.46105000  1.0 -0.0892831471
C  C300  1  0.26171000  0.95689000  0.32035000  1.0 -0.0892831471
C  C301  1  0.67965000  0.04311000  0.73829000  1.0 -0.0892831471
C  C302  1  0.53895000  0.73829000  0.04311000  1.0 -0.0892831471
C  C303  1  0.73829000  0.53895000  0.67965000  1.0 -0.0892831471
C  C304  1  0.73829000  0.67965000  0.04311000  1.0 -0.0892831471
C  C305  1  0.04311000  0.53895000  0.73829000  1.0 -0.0892831471
C  C306  1  0.67965000  0.73829000  0.53895000  1.0 -0.0892831471
C  C307  1  0.04311000  0.73829000  0.67965000  1.0 -0.0892831471
C  C308  1  0.73829000  0.04311000  0.53895000  1.0 -0.0892831471
C  C309  1  0.53895000  0.67965000  0.73829000  1.0 -0.0892831471
C  C310  1  0.32035000  0.95689000  0.46105000  1.0 -0.0892831471
C  C311  1  0.95689000  0.46105000  0.32035000  1.0 -0.0892831471
C  C312  1  0.46105000  0.32035000  0.95689000  1.0 -0.0892831471
C  C313  1  0.95689000  0.32035000  0.46105000  1.0 -0.0892831471
C  C314  1  0.46105000  0.95689000  0.32035000  1.0 -0.0892831471
C  C315  1  0.32035000  0.46105000  0.95689000  1.0 -0.0892831471
C  C316  1  0.04311000  0.67965000  0.73829000  1.0 -0.0892831471
C  C317  1  0.53895000  0.73829000  0.67965000  1.0 -0.0892831471
C  C318  1  0.73829000  0.53895000  0.04311000  1.0 -0.0892831471
C  C319  1  0.53895000  0.04311000  0.73829000  1.0 -0.0892831471
C  C320  1  0.73829000  0.67965000  0.53895000  1.0 -0.0892831471
C  C321  1  0.67965000  0.73829000  0.04311000  1.0 -0.0892831471
C  C322  1  0.67965000  0.53895000  0.73829000  1.0 -0.0892831471
C  C323  1  0.04311000  0.73829000  0.53895000  1.0 -0.0892831471
C  C324  1  0.73829000  0.04311000  0.67965000  1.0 -0.0892831471
C  C325  1  0.32035000  0.95689000  0.26171000  1.0 -0.0892831471
C  C326  1  0.46105000  0.26171000  0.95689000  1.0 -0.0892831471
C  C327  1  0.26171000  0.46105000  0.32035000  1.0 -0.0892831471
C  C328  1  0.26171000  0.32035000  0.95689000  1.0 -0.0892831471
C  C329  1  0.95689000  0.46105000  0.26171000  1.0 -0.0892831471
C  C330  1  0.32035000  0.26171000  0.46105000  1.0 -0.0892831471
C  C331  1  0.95689000  0.26171000  0.32035000  1.0 -0.0892831471
C  C332  1  0.26171000  0.95689000  0.46105000  1.0 -0.0892831471
C  C333  1  0.46105000  0.32035000  0.26171000  1.0 -0.0892831471
C  C334  1  0.67965000  0.04311000  0.53895000  1.0 -0.0892831471
C  C335  1  0.04311000  0.53895000  0.67965000  1.0 -0.0892831471
C  C336  1  0.53895000  0.67965000  0.04311000  1.0 -0.0892831471
C  C337  1  0.02828000  0.70168000  0.56836000  1.0 0.027699152
C  C338  1  0.56836000  0.02828000  0.70168000  1.0 0.0246907984
C  C339  1  0.70168000  0.56836000  0.02828000  1.0 0.027699152
C  C340  1  0.97172000  0.29832000  0.29832000  1.0 0.0246907984
C  C341  1  0.43164000  0.29832000  0.29832000  1.0 0.0246907984
C  C342  1  0.29832000  0.43164000  0.97172000  1.0 0.027699152
C  C343  1  0.43164000  0.97172000  0.29832000  1.0 0.027699152
C  C344  1  0.29832000  0.29832000  0.43164000  1.0 0.027699152
C  C345  1  0.29832000  0.29832000  0.97172000  1.0 0.027699152
C  C346  1  0.29832000  0.43164000  0.29832000  1.0 0.0246907984
C  C347  1  0.97172000  0.29832000  0.43164000  1.0 0.027699152
C  C348  1  0.29832000  0.97172000  0.29832000  1.0 0.027699152
C  C349  1  0.70168000  0.02828000  0.70168000  1.0 0.027699152
C  C350  1  0.56836000  0.70168000  0.02828000  1.0 0.027699152
C  C351  1  0.70168000  0.56836000  0.70168000  1.0 0.027699152
C  C352  1  0.70168000  0.70168000  0.02828000  1.0 0.027699152
C  C353  1  0.02828000  0.56836000  0.70168000  1.0 0.027699152
C  C354  1  0.70168000  0.70168000  0.56836000  1.0 0.027699152
C  C355  1  0.02828000  0.70168000  0.70168000  1.0 0.027699152
C  C356  1  0.70168000  0.02828000  0.56836000  1.0 0.027699152
C  C357  1  0.56836000  0.70168000  0.70168000  1.0 0.027699152
C  C358  1  0.29832000  0.97172000  0.43164000  1.0 0.027699152
C  C359  1  0.97172000  0.43164000  0.29832000  1.0 0.027699152
C  C360  1  0.43164000  0.29832000  0.97172000  1.0 0.027699152
C  C361  1  0.03278000  0.67678000  0.61366000  1.0 0.062908207
C  C362  1  0.61366000  0.03278000  0.67678000  1.0 0.062908207
C  C363  1  0.67678000  0.61366000  0.03278000  1.0 0.062908207
C  C364  1  0.96722000  0.32322000  0.32322000  1.0 0.062908207
C  C365  1  0.38634000  0.32322000  0.32322000  1.0 0.062908207
C  C366  1  0.32322000  0.38634000  0.96722000  1.0 0.062908207
C  C367  1  0.38634000  0.96722000  0.32322000  1.0 0.062908207
C  C368  1  0.32322000  0.32322000  0.38634000  1.0 0.062908207
C  C369  1  0.32322000  0.32322000  0.96722000  1.0 0.062908207
C  C370  1  0.32322000  0.38634000  0.32322000  1.0 0.062908207
C  C371  1  0.96722000  0.32322000  0.38634000  1.0 0.062908207
C  C372  1  0.32322000  0.96722000  0.32322000  1.0 0.062908207
C  C373  1  0.67678000  0.03278000  0.67678000  1.0 0.062908207
C  C374  1  0.61366000  0.67678000  0.03278000  1.0 0.062908207
C  C375  1  0.67678000  0.61366000  0.67678000  1.0 0.062908207
C  C376  1  0.67678000  0.67678000  0.03278000  1.0 0.062908207
C  C377  1  0.03278000  0.61366000  0.67678000  1.0 0.062908207
C  C378  1  0.67678000  0.67678000  0.61366000  1.0 0.062908207
C  C379  1  0.03278000  0.67678000  0.67678000  1.0 0.062908207
C  C380  1  0.67678000  0.03278000  0.61366000  1.0 0.062908207
C  C381  1  0.61366000  0.67678000  0.67678000  1.0 0.062908207
C  C382  1  0.32322000  0.96722000  0.38634000  1.0 0.062908207
C  C383  1  0.96722000  0.38634000  0.32322000  1.0 0.062908207
C  C384  1  0.38634000  0.32322000  0.96722000  1.0 0.062908207
C  C385  1  0.03489000  0.63351000  0.63351000  1.0 -0.2493042738
C  C386  1  0.63351000  0.03489000  0.63351000  1.0 -0.2493042738
C  C387  1  0.63351000  0.63351000  0.03489000  1.0 -0.2493042738
C  C388  1  0.96511000  0.36649000  0.30191000  1.0 -0.2493042738
C  C389  1  0.36649000  0.30191000  0.36649000  1.0 -0.2493042738
C  C390  1  0.30191000  0.36649000  0.96511000  1.0 -0.2493042738
C  C391  1  0.36649000  0.96511000  0.30191000  1.0 -0.2493042738
C  C392  1  0.30191000  0.36649000  0.36649000  1.0 -0.2493042738
C  C393  1  0.36649000  0.30191000  0.96511000  1.0 -0.2493042738
C  C394  1  0.36649000  0.36649000  0.30191000  1.0 -0.2493042738
C  C395  1  0.96511000  0.30191000  0.36649000  1.0 -0.2493042738
C  C396  1  0.30191000  0.96511000  0.36649000  1.0 -0.2493042738
C  C397  1  0.63351000  0.03489000  0.69809000  1.0 -0.2493042738
C  C398  1  0.63351000  0.69809000  0.03489000  1.0 -0.2493042738
C  C399  1  0.69809000  0.63351000  0.63351000  1.0 -0.2493042738
C  C400  1  0.69809000  0.63351000  0.03489000  1.0 -0.2493042738
C  C401  1  0.03489000  0.63351000  0.69809000  1.0 -0.2493042738
C  C402  1  0.63351000  0.69809000  0.63351000  1.0 -0.2493042738
C  C403  1  0.03489000  0.69809000  0.63351000  1.0 -0.2493042738
C  C404  1  0.69809000  0.03489000  0.63351000  1.0 -0.2493042738
C  C405  1  0.63351000  0.63351000  0.69809000  1.0 -0.2493042738
C  C406  1  0.36649000  0.96511000  0.36649000  1.0 -0.2493042738
C  C407  1  0.96511000  0.36649000  0.36649000  1.0 -0.2493042738
C  C408  1  0.36649000  0.36649000  0.96511000  1.0 -0.2493042738
C  C409  1  0.00422000  0.74524000  0.55932000  1.0 -0.0892831471
C  C410  1  0.55932000  0.00422000  0.74524000  1.0 -0.0892831471
C  C411  1  0.74524000  0.55932000  0.00422000  1.0 -0.0892831471
C  C412  1  0.99578000  0.25476000  0.30878000  1.0 -0.0892831471
C  C413  1  0.44068000  0.30878000  0.25476000  1.0 -0.0808502036
C  C414  1  0.30878000  0.44068000  0.99578000  1.0 -0.0892831471
C  C415  1  0.44068000  0.99578000  0.30878000  1.0 -0.0892831471
C  C416  1  0.30878000  0.25476000  0.44068000  1.0 -0.0892831471
C  C417  1  0.25476000  0.30878000  0.99578000  1.0 -0.0892831471
C  C418  1  0.25476000  0.44068000  0.30878000  1.0 -0.0892831471
C  C419  1  0.99578000  0.30878000  0.44068000  1.0 -0.0892831471
C  C420  1  0.30878000  0.99578000  0.25476000  1.0 -0.0892831471
C  C421  1  0.74524000  0.00422000  0.69122000  1.0 -0.0892831471
C  C422  1  0.55932000  0.69122000  0.00422000  1.0 -0.0892831471
C  C423  1  0.69122000  0.55932000  0.74524000  1.0 -0.0892831471
C  C424  1  0.69122000  0.74524000  0.00422000  1.0 -0.0892831471
C  C425  1  0.00422000  0.55932000  0.69122000  1.0 -0.0892831471
C  C426  1  0.74524000  0.69122000  0.55932000  1.0 -0.0892831471
C  C427  1  0.00422000  0.69122000  0.74524000  1.0 -0.0892831471
C  C428  1  0.69122000  0.00422000  0.55932000  1.0 -0.0892831471
C  C429  1  0.55932000  0.74524000  0.69122000  1.0 -0.0892831471
C  C430  1  0.25476000  0.99578000  0.44068000  1.0 -0.0892831471
C  C431  1  0.99578000  0.44068000  0.25476000  1.0 -0.0892831471
C  C432  1  0.44068000  0.25476000  0.99578000  1.0 -0.0892831471
C  C433  1  0.99578000  0.25476000  0.44068000  1.0 -0.0892831471
C  C434  1  0.44068000  0.99578000  0.25476000  1.0 -0.0892831471
C  C435  1  0.25476000  0.44068000  0.99578000  1.0 -0.0892831471
C  C436  1  0.00422000  0.74524000  0.69122000  1.0 -0.0892831471
C  C437  1  0.55932000  0.69122000  0.74524000  1.0 -0.0892831471
C  C438  1  0.69122000  0.55932000  0.00422000  1.0 -0.0892831471
C  C439  1  0.55932000  0.00422000  0.69122000  1.0 -0.0892831471
C  C440  1  0.69122000  0.74524000  0.55932000  1.0 -0.0892831471
C  C441  1  0.74524000  0.69122000  0.00422000  1.0 -0.0892831471
C  C442  1  0.74524000  0.55932000  0.69122000  1.0 -0.0892831471
C  C443  1  0.00422000  0.69122000  0.55932000  1.0 -0.0892831471
C  C444  1  0.69122000  0.00422000  0.74524000  1.0 -0.0892831471
C  C445  1  0.25476000  0.99578000  0.30878000  1.0 -0.0892831471
C  C446  1  0.44068000  0.30878000  0.99578000  1.0 -0.0892831471
C  C447  1  0.30878000  0.44068000  0.25476000  1.0 -0.0808502036
C  C448  1  0.30878000  0.25476000  0.99578000  1.0 -0.0892831471
C  C449  1  0.99578000  0.44068000  0.30878000  1.0 -0.0892831471
C  C450  1  0.25476000  0.30878000  0.44068000  1.0 -0.0892831471
C  C451  1  0.99578000  0.30878000  0.25476000  1.0 -0.0808502036
C  C452  1  0.30878000  0.99578000  0.44068000  1.0 -0.0892831471
C  C453  1  0.44068000  0.25476000  0.30878000  1.0 -0.0892831471
C  C454  1  0.74524000  0.00422000  0.55932000  1.0 -0.0892831471
C  C455  1  0.00422000  0.55932000  0.74524000  1.0 -0.0892831471
C  C456  1  0.55932000  0.74524000  0.00422000  1.0 -0.0892831471
C  C457  1  0.99634000  0.76998000  0.51956000  1.0 -0.0642539355
C  C458  1  0.51956000  0.99634000  0.76998000  1.0 -0.0659760195
C  C459  1  0.76998000  0.51956000  0.99634000  1.0 -0.0642539355
C  C460  1  0.00366000  0.23002000  0.28588000  1.0 -0.0642539355
C  C461  1  0.48044000  0.28588000  0.23002000  1.0 -0.0642539355
C  C462  1  0.28588000  0.48044000  0.00366000  1.0 -0.0642539355
C  C463  1  0.48044000  0.00366000  0.28588000  1.0 -0.0659760195
C  C464  1  0.28588000  0.23002000  0.48044000  1.0 -0.0642539355
C  C465  1  0.23002000  0.28588000  0.00366000  1.0 -0.0642539355
C  C466  1  0.23002000  0.48044000  0.28588000  1.0 -0.0659760195
C  C467  1  0.00366000  0.28588000  0.48044000  1.0 -0.0642539355
C  C468  1  0.28588000  0.00366000  0.23002000  1.0 -0.0642539355
C  C469  1  0.76998000  0.99634000  0.71412000  1.0 -0.0659760195
C  C470  1  0.51956000  0.71412000  0.99634000  1.0 -0.0642539355
C  C471  1  0.71412000  0.51956000  0.76998000  1.0 -0.0642539355
C  C472  1  0.71412000  0.76998000  0.99634000  1.0 -0.0642539355
C  C473  1  0.99634000  0.51956000  0.71412000  1.0 -0.0642539355
C  C474  1  0.76998000  0.71412000  0.51956000  1.0 -0.0659760195
C  C475  1  0.99634000  0.71412000  0.76998000  1.0 -0.0642539355
C  C476  1  0.71412000  0.99634000  0.51956000  1.0 -0.0642539355
C  C477  1  0.51956000  0.76998000  0.71412000  1.0 -0.0642539355
C  C478  1  0.23002000  0.00366000  0.48044000  1.0 -0.0642539355
C  C479  1  0.00366000  0.48044000  0.23002000  1.0 -0.0642539355
C  C480  1  0.48044000  0.23002000  0.00366000  1.0 -0.0642539355
C  C481  1  0.00366000  0.23002000  0.48044000  1.0 -0.0642539355
C  C482  1  0.48044000  0.00366000  0.23002000  1.0 -0.0642539355
C  C483  1  0.23002000  0.48044000  0.00366000  1.0 -0.0642539355
C  C484  1  0.99634000  0.76998000  0.71412000  1.0 -0.0642539355
C  C485  1  0.51956000  0.71412000  0.76998000  1.0 -0.0642539355
C  C486  1  0.71412000  0.51956000  0.99634000  1.0 -0.0642539355
C  C487  1  0.51956000  0.99634000  0.71412000  1.0 -0.0642539355
C  C488  1  0.71412000  0.76998000  0.51956000  1.0 -0.0659760195
C  C489  1  0.76998000  0.71412000  0.99634000  1.0 -0.0642539355
C  C490  1  0.76998000  0.51956000  0.71412000  1.0 -0.0642539355
C  C491  1  0.99634000  0.71412000  0.51956000  1.0 -0.0642539355
C  C492  1  0.71412000  0.99634000  0.76998000  1.0 -0.0659760195
C  C493  1  0.23002000  0.00366000  0.28588000  1.0 -0.0642539355
C  C494  1  0.48044000  0.28588000  0.00366000  1.0 -0.0642539355
C  C495  1  0.28588000  0.48044000  0.23002000  1.0 -0.0642539355
C  C496  1  0.28588000  0.23002000  0.00366000  1.0 -0.0642539355
C  C497  1  0.00366000  0.48044000  0.28588000  1.0 -0.0659760195
C  C498  1  0.23002000  0.28588000  0.48044000  1.0 -0.0642539355
C  C499  1  0.00366000  0.28588000  0.23002000  1.0 -0.0642539355
C  C500  1  0.28588000  0.00366000  0.48044000  1.0 -0.0642539355
C  C501  1  0.48044000  0.23002000  0.28588000  1.0 -0.0642539355
C  C502  1  0.76998000  0.99634000  0.51956000  1.0 -0.0642539355
C  C503  1  0.99634000  0.51956000  0.76998000  1.0 -0.0642539355
C  C504  1  0.51956000  0.76998000  0.99634000  1.0 -0.0642539355
N  N1  1  0.03363000  0.77757000  0.41123000  1.0 -0.3536270467
N  N2  1  0.41123000  0.03363000  0.77757000  1.0 -0.3555672623
N  N3  1  0.77757000  0.41123000  0.03363000  1.0 -0.3555672623
N  N4  1  0.96637000  0.22243000  0.22243000  1.0 -0.3555672623
N  N5  1  0.58877000  0.22243000  0.22243000  1.0 -0.3555672623
N  N6  1  0.22243000  0.58877000  0.96637000  1.0 -0.3555672623
N  N7  1  0.58877000  0.96637000  0.22243000  1.0 -0.3536270467
N  N8  1  0.22243000  0.22243000  0.58877000  1.0 -0.3555672623
N  N9  1  0.22243000  0.22243000  0.96637000  1.0 -0.3555672623
N  N10  1  0.22243000  0.58877000  0.22243000  1.0 -0.3555672623
N  N11  1  0.96637000  0.22243000  0.58877000  1.0 -0.3555672623
N  N12  1  0.22243000  0.96637000  0.22243000  1.0 -0.3536270467
N  N13  1  0.77757000  0.03363000  0.77757000  1.0 -0.3555672623
N  N14  1  0.41123000  0.77757000  0.03363000  1.0 -0.3536270467
N  N15  1  0.77757000  0.41123000  0.77757000  1.0 -0.3555672623
N  N16  1  0.77757000  0.77757000  0.03363000  1.0 -0.3536270467
N  N17  1  0.03363000  0.41123000  0.77757000  1.0 -0.3555672623
N  N18  1  0.77757000  0.77757000  0.41123000  1.0 -0.3536270467
N  N19  1  0.03363000  0.77757000  0.77757000  1.0 -0.3555672623
N  N20  1  0.77757000  0.03363000  0.41123000  1.0 -0.3555672623
N  N21  1  0.41123000  0.77757000  0.77757000  1.0 -0.3555672623
N  N22  1  0.22243000  0.96637000  0.58877000  1.0 -0.3536270467
N  N23  1  0.96637000  0.58877000  0.22243000  1.0 -0.3555672623
N  N24  1  0.58877000  0.22243000  0.96637000  1.0 -0.3555672623
O  O1  1  0.01049000  0.93709000  0.24629000  1.0 -0.5311824664
O  O2  1  0.24629000  0.01049000  0.93709000  1.0 -0.5311824664
O  O3  1  0.93709000  0.24629000  0.01049000  1.0 -0.5311824664
O  O4  1  0.98951000  0.06291000  0.19387000  1.0 -0.5311824664
O  O5  1  0.75371000  0.19387000  0.06291000  1.0 -0.5311824664
O  O6  1  0.19387000  0.75371000  0.98951000  1.0 -0.5311824664
O  O7  1  0.75371000  0.98951000  0.19387000  1.0 -0.5311824664
O  O8  1  0.19387000  0.06291000  0.75371000  1.0 -0.5311824664
O  O9  1  0.06291000  0.19387000  0.98951000  1.0 -0.5311824664
O  O10  1  0.06291000  0.75371000  0.19387000  1.0 -0.5311824664
O  O11  1  0.98951000  0.19387000  0.75371000  1.0 -0.5311824664
O  O12  1  0.19387000  0.98951000  0.06291000  1.0 -0.5311824664
O  O13  1  0.93709000  0.01049000  0.80613000  1.0 -0.5311824664
O  O14  1  0.24629000  0.80613000  0.01049000  1.0 -0.5311824664
O  O15  1  0.80613000  0.24629000  0.93709000  1.0 -0.5311824664
O  O16  1  0.80613000  0.93709000  0.01049000  1.0 -0.5311824664
O  O17  1  0.01049000  0.24629000  0.80613000  1.0 -0.5311824664
O  O18  1  0.93709000  0.80613000  0.24629000  1.0 -0.5311824664
O  O19  1  0.01049000  0.80613000  0.93709000  1.0 -0.5311824664
O  O20  1  0.80613000  0.01049000  0.24629000  1.0 -0.5311824664
O  O21  1  0.24629000  0.93709000  0.80613000  1.0 -0.5311824664
O  O22  1  0.06291000  0.98951000  0.75371000  1.0 -0.5311824664
O  O23  1  0.98951000  0.75371000  0.06291000  1.0 -0.5311824664
O  O24  1  0.75371000  0.06291000  0.98951000  1.0 -0.5311824664
O  O25  1  0.98951000  0.06291000  0.75371000  1.0 -0.5311824664
O  O26  1  0.75371000  0.98951000  0.06291000  1.0 -0.5311824664
O  O27  1  0.06291000  0.75371000  0.98951000  1.0 -0.5311824664
O  O28  1  0.01049000  0.93709000  0.80613000  1.0 -0.5311824664
O  O29  1  0.24629000  0.80613000  0.93709000  1.0 -0.5311824664
O  O30  1  0.80613000  0.24629000  0.01049000  1.0 -0.5311824664
O  O31  1  0.24629000  0.01049000  0.80613000  1.0 -0.5311824664
O  O32  1  0.80613000  0.93709000  0.24629000  1.0 -0.5311824664
O  O33  1  0.93709000  0.80613000  0.01049000  1.0 -0.5311824664
O  O34  1  0.93709000  0.24629000  0.80613000  1.0 -0.5311824664
O  O35  1  0.01049000  0.80613000  0.24629000  1.0 -0.5311824664
O  O36  1  0.80613000  0.01049000  0.93709000  1.0 -0.5311824664
O  O37  1  0.06291000  0.98951000  0.19387000  1.0 -0.5311824664
O  O38  1  0.75371000  0.19387000  0.98951000  1.0 -0.5311824664
O  O39  1  0.19387000  0.75371000  0.06291000  1.0 -0.5311824664
O  O40  1  0.19387000  0.06291000  0.98951000  1.0 -0.5311824664
O  O41  1  0.98951000  0.75371000  0.19387000  1.0 -0.5311824664
O  O42  1  0.06291000  0.19387000  0.75371000  1.0 -0.5311824664
O  O43  1  0.98951000  0.19387000  0.06291000  1.0 -0.5311824664
O  O44  1  0.19387000  0.98951000  0.75371000  1.0 -0.5311824664
O  O45  1  0.75371000  0.06291000  0.19387000  1.0 -0.5311824664
O  O46  1  0.93709000  0.01049000  0.24629000  1.0 -0.5311824664
O  O47  1  0.01049000  0.24629000  0.93709000  1.0 -0.5311824664
O  O48  1  0.24629000  0.93709000  0.01049000  1.0 -0.5311824664
O  O49  1  0.01008000  0.93748000  0.30690000  1.0 -0.52193587
O  O50  1  0.30690000  0.01008000  0.93748000  1.0 -0.52193587
O  O51  1  0.93748000  0.30690000  0.01008000  1.0 -0.52193587
O  O52  1  0.98992000  0.06252000  0.25446000  1.0 -0.52193587
O  O53  1  0.69310000  0.25446000  0.06252000  1.0 -0.52193587
O  O54  1  0.25446000  0.69310000  0.98992000  1.0 -0.52193587
O  O55  1  0.69310000  0.98992000  0.25446000  1.0 -0.52193587
O  O56  1  0.25446000  0.06252000  0.69310000  1.0 -0.52193587
O  O57  1  0.06252000  0.25446000  0.98992000  1.0 -0.52193587
O  O58  1  0.06252000  0.69310000  0.25446000  1.0 -0.52193587
O  O59  1  0.98992000  0.25446000  0.69310000  1.0 -0.52193587
O  O60  1  0.25446000  0.98992000  0.06252000  1.0 -0.52193587
O  O61  1  0.93748000  0.01008000  0.74554000  1.0 -0.52193587
O  O62  1  0.30690000  0.74554000  0.01008000  1.0 -0.52193587
O  O63  1  0.74554000  0.30690000  0.93748000  1.0 -0.52193587
O  O64  1  0.74554000  0.93748000  0.01008000  1.0 -0.52193587
O  O65  1  0.01008000  0.30690000  0.74554000  1.0 -0.52193587
O  O66  1  0.93748000  0.74554000  0.30690000  1.0 -0.52193587
O  O67  1  0.01008000  0.74554000  0.93748000  1.0 -0.52193587
O  O68  1  0.74554000  0.01008000  0.30690000  1.0 -0.52193587
O  O69  1  0.30690000  0.93748000  0.74554000  1.0 -0.52193587
O  O70  1  0.06252000  0.98992000  0.69310000  1.0 -0.52193587
O  O71  1  0.98992000  0.69310000  0.06252000  1.0 -0.52193587
O  O72  1  0.69310000  0.06252000  0.98992000  1.0 -0.52193587
O  O73  1  0.98992000  0.06252000  0.69310000  1.0 -0.52193587
O  O74  1  0.69310000  0.98992000  0.06252000  1.0 -0.52193587
O  O75  1  0.06252000  0.69310000  0.98992000  1.0 -0.52193587
O  O76  1  0.01008000  0.93748000  0.74554000  1.0 -0.52193587
O  O77  1  0.30690000  0.74554000  0.93748000  1.0 -0.52193587
O  O78  1  0.74554000  0.30690000  0.01008000  1.0 -0.52193587
O  O79  1  0.30690000  0.01008000  0.74554000  1.0 -0.52193587
O  O80  1  0.74554000  0.93748000  0.30690000  1.0 -0.52193587
O  O81  1  0.93748000  0.74554000  0.01008000  1.0 -0.52193587
O  O82  1  0.93748000  0.30690000  0.74554000  1.0 -0.52193587
O  O83  1  0.01008000  0.74554000  0.30690000  1.0 -0.52193587
O  O84  1  0.74554000  0.01008000  0.93748000  1.0 -0.52193587
O  O85  1  0.06252000  0.98992000  0.25446000  1.0 -0.52193587
O  O86  1  0.69310000  0.25446000  0.98992000  1.0 -0.52193587
O  O87  1  0.25446000  0.69310000  0.06252000  1.0 -0.52193587
O  O88  1  0.25446000  0.06252000  0.98992000  1.0 -0.52193587
O  O89  1  0.98992000  0.69310000  0.25446000  1.0 -0.52193587
O  O90  1  0.06252000  0.25446000  0.69310000  1.0 -0.52193587
O  O91  1  0.98992000  0.25446000  0.06252000  1.0 -0.52193587
O  O92  1  0.25446000  0.98992000  0.69310000  1.0 -0.52193587
O  O93  1  0.69310000  0.06252000  0.25446000  1.0 -0.52193587
O  O94  1  0.93748000  0.01008000  0.30690000  1.0 -0.52193587
O  O95  1  0.01008000  0.30690000  0.93748000  1.0 -0.52193587
O  O96  1  0.30690000  0.93748000  0.01008000  1.0 -0.52193587
O  O97  1  0.95899000  0.79449000  0.45203000  1.0 -0.4730423624
O  O98  1  0.45203000  0.95899000  0.79449000  1.0 -0.4730423624
O  O99  1  0.79449000  0.45203000  0.95899000  1.0 -0.4730423624
O  O100  1  0.04101000  0.20551000  0.20551000  1.0 -0.4730423624
O  O101  1  0.54797000  0.20551000  0.20551000  1.0 -0.4730423624
O  O102  1  0.20551000  0.54797000  0.04101000  1.0 -0.4730423624
O  O103  1  0.54797000  0.04101000  0.20551000  1.0 -0.4730423624
O  O104  1  0.20551000  0.20551000  0.54797000  1.0 -0.4730423624
O  O105  1  0.20551000  0.20551000  0.04101000  1.0 -0.4730423624
O  O106  1  0.20551000  0.54797000  0.20551000  1.0 -0.4730423624
O  O107  1  0.04101000  0.20551000  0.54797000  1.0 -0.4730423624
O  O108  1  0.20551000  0.04101000  0.20551000  1.0 -0.4730423624
O  O109  1  0.79449000  0.95899000  0.79449000  1.0 -0.4730423624
O  O110  1  0.45203000  0.79449000  0.95899000  1.0 -0.4730423624
O  O111  1  0.79449000  0.45203000  0.79449000  1.0 -0.4730423624
O  O112  1  0.79449000  0.79449000  0.95899000  1.0 -0.4730423624
O  O113  1  0.95899000  0.45203000  0.79449000  1.0 -0.4730423624
O  O114  1  0.79449000  0.79449000  0.45203000  1.0 -0.4730423624
O  O115  1  0.95899000  0.79449000  0.79449000  1.0 -0.4730423624
O  O116  1  0.79449000  0.95899000  0.45203000  1.0 -0.4730423624
O  O117  1  0.45203000  0.79449000  0.79449000  1.0 -0.4730423624
O  O118  1  0.20551000  0.04101000  0.54797000  1.0 -0.4730423624
O  O119  1  0.04101000  0.54797000  0.20551000  1.0 -0.4730423624
O  O120  1  0.54797000  0.20551000  0.04101000  1.0 -0.4730423624
