# DDEC6 charges by PACMAN v1.1 (https://github.com/mtap-research/PACMAN-charge/)
data_LEJBUX_ASR_pacman
_symmetry_space_group_name_H-M   'P 1'
_cell_length_a   9.00300000
_cell_length_b   12.04600000
_cell_length_c   18.87000000
_cell_angle_alpha   90.00000000
_cell_angle_beta   96.23000000
_cell_angle_gamma   90.00000000
_symmetry_Int_Tables_number   1
_chemical_formula_structural   CdC4
_chemical_formula_sum   'Cd8 C32'
_cell_volume   2034.36831784
_cell_formula_units_Z   8
loop_
 _symmetry_equiv_pos_site_id
 _symmetry_equiv_pos_as_xyz
  1  'x, y, z'
loop_
 _atom_site_type_symbol
 _atom_site_label
 _atom_site_symmetry_multiplicity
 _atom_site_fract_x
 _atom_site_fract_y
 _atom_site_fract_z
 _atom_site_occupancy
 _atom_site_charge
Cd  Cd1  1  0.75517000  0.76037000  0.59238000  1.0 0.6666410743
Cd  Cd2  1  0.24483000  0.26037000  0.90762000  1.0 0.6666410743
Cd  Cd3  1  0.24483000  0.23963000  0.40762000  1.0 0.6666410743
Cd  Cd4  1  0.75517000  0.73963000  0.09238000  1.0 0.6666410743
Cd  Cd5  1  0.73093000  0.00281000  0.84512000  1.0 0.7353452324
Cd  Cd6  1  0.26907000  0.50281000  0.65488000  1.0 0.7353452324
Cd  Cd7  1  0.26907000  0.99719000  0.15488000  1.0 0.7353452324
Cd  Cd8  1  0.73093000  0.49719000  0.34512000  1.0 0.7353452324
C  C1  1  0.73200000  0.91280000  0.74220000  1.0 -0.2919575245
C  C2  1  0.26800000  0.41280000  0.75780000  1.0 -0.2951817633
C  C3  1  0.26800000  0.08720000  0.25780000  1.0 -0.2951817633
C  C4  1  0.73200000  0.58720000  0.24220000  1.0 -0.2919575245
C  C5  1  0.74000000  0.86840000  0.69010000  1.0 -0.0688896476
C  C6  1  0.26000000  0.36840000  0.80990000  1.0 -0.0688896476
C  C7  1  0.26000000  0.13160000  0.30990000  1.0 -0.0688896476
C  C8  1  0.74000000  0.63160000  0.19010000  1.0 -0.0688896476
C  C9  1  0.75200000  0.61630000  0.43750000  1.0 -0.2340453338
C  C10  1  0.24800000  0.11630000  0.06250000  1.0 -0.2411681658
C  C11  1  0.24800000  0.38370000  0.56250000  1.0 -0.2340453338
C  C12  1  0.75200000  0.88370000  0.93750000  1.0 -0.2340453338
C  C13  1  0.75800000  0.67090000  0.48640000  1.0 -0.1121258744
C  C14  1  0.24200000  0.17090000  0.01360000  1.0 -0.1121258744
C  C15  1  0.24200000  0.32910000  0.51360000  1.0 -0.1121258744
C  C16  1  0.75800000  0.82910000  0.98640000  1.0 -0.1121258744
C  C17  1  0.07000000  0.61500000  0.64330000  1.0 -0.2470418633
C  C18  1  0.93000000  0.11500000  0.85670000  1.0 -0.2470418633
C  C19  1  0.93000000  0.38500000  0.35670000  1.0 -0.2470418633
C  C20  1  0.07000000  0.88500000  0.14330000  1.0 -0.2411681658
C  C21  1  0.96470000  0.66610000  0.63470000  1.0 -0.0927076199
C  C22  1  0.03530000  0.16610000  0.86530000  1.0 -0.0927076199
C  C23  1  0.03530000  0.33390000  0.36530000  1.0 -0.0927076199
C  C24  1  0.96470000  0.83390000  0.13470000  1.0 -0.0927076199
C  C25  1  0.47700000  0.59870000  0.64430000  1.0 -0.2411681658
C  C26  1  0.52300000  0.09870000  0.85570000  1.0 -0.2411681658
C  C27  1  0.52300000  0.40130000  0.35570000  1.0 -0.2411681658
C  C28  1  0.47700000  0.90130000  0.14430000  1.0 -0.2411681658
C  C29  1  0.58250000  0.64410000  0.63200000  1.0 -0.1121258744
C  C30  1  0.41750000  0.14410000  0.86800000  1.0 -0.1121258744
C  C31  1  0.41750000  0.35590000  0.36800000  1.0 -0.1121258744
C  C32  1  0.58250000  0.85590000  0.13200000  1.0 -0.1121258744
