# DDEC6 charges by PACMAN v1.1 (https://github.com/mtap-research/PACMAN-charge/)
data_LEJKIW_ASR_pacman
_symmetry_space_group_name_H-M   'P 1'
_cell_length_a   13.76760000
_cell_length_b   13.76760000
_cell_length_c   28.06190000
_cell_angle_alpha   90.00000000
_cell_angle_beta   90.00000000
_cell_angle_gamma   120.00000000
_symmetry_Int_Tables_number   1
_chemical_formula_structural   In9P17H11O60
_chemical_formula_sum   'In18 P34 H22 O120'
_cell_volume   4606.42689945
_cell_formula_units_Z   2
loop_
 _symmetry_equiv_pos_site_id
 _symmetry_equiv_pos_as_xyz
  1  'x, y, z'
loop_
 _atom_site_type_symbol
 _atom_site_label
 _atom_site_symmetry_multiplicity
 _atom_site_fract_x
 _atom_site_fract_y
 _atom_site_fract_z
 _atom_site_occupancy
 _atom_site_charge
In  In1  1  0.00000000  0.00000000  0.00000000  1.0 1.6586189841
In  In2  1  0.00000000  0.00000000  0.50000000  1.0 1.6586189841
In  In3  1  0.85316000  0.55970000  0.97537000  1.0 1.7362657959
In  In4  1  0.44030000  0.29346000  0.97537000  1.0 1.7362657959
In  In5  1  0.70654000  0.14684000  0.97537000  1.0 1.7362657959
In  In6  1  0.14684000  0.44030000  0.47537000  1.0 1.7362657959
In  In7  1  0.55970000  0.70654000  0.47537000  1.0 1.7362657959
In  In8  1  0.29346000  0.85316000  0.47537000  1.0 1.7362657959
In  In9  1  0.14684000  0.44030000  0.02463000  1.0 1.7362657959
In  In10  1  0.55970000  0.70654000  0.02463000  1.0 1.7362657959
In  In11  1  0.29346000  0.85316000  0.02463000  1.0 1.7362657959
In  In12  1  0.85316000  0.55970000  0.52463000  1.0 1.7362657959
In  In13  1  0.44030000  0.29346000  0.52463000  1.0 1.7362657959
In  In14  1  0.70654000  0.14684000  0.52463000  1.0 1.7362657959
In  In15  1  0.00000000  0.00000000  0.83559000  1.0 1.6359751796
In  In16  1  0.00000000  0.00000000  0.33559000  1.0 1.6359751796
In  In17  1  0.00000000  0.00000000  0.16441000  1.0 1.6348020409
In  In18  1  0.00000000  0.00000000  0.66441000  1.0 1.6359751796
P  P1  1  0.97467000  0.80914000  0.91683000  1.0 1.2463710084
P  P2  1  0.19086000  0.16553000  0.91683000  1.0 1.2463710084
P  P3  1  0.83447000  0.02533000  0.91683000  1.0 1.2463710084
P  P4  1  0.02533000  0.19086000  0.41683000  1.0 1.2463710084
P  P5  1  0.80914000  0.83447000  0.41683000  1.0 1.2463710084
P  P6  1  0.16553000  0.97467000  0.41683000  1.0 1.2463710084
P  P7  1  0.02533000  0.19086000  0.08317000  1.0 1.2463710084
P  P8  1  0.80914000  0.83447000  0.08317000  1.0 1.2463710084
P  P9  1  0.16553000  0.97467000  0.08317000  1.0 1.2463710084
P  P10  1  0.97467000  0.80914000  0.58317000  1.0 1.2463710084
P  P11  1  0.19086000  0.16553000  0.58317000  1.0 1.2463710084
P  P12  1  0.83447000  0.02533000  0.58317000  1.0 1.2463710084
P  P13  1  0.66666667  0.33333333  0.90764000  1.0 1.3295389091
P  P14  1  0.33333333  0.66666667  0.40764000  1.0 1.3295389091
P  P15  1  0.33333333  0.66666667  0.09236000  1.0 1.3295389091
P  P16  1  0.66666667  0.33333333  0.59236000  1.0 1.3295389091
P  P17  1  0.07277000  0.87610000  0.75000000  1.0 1.420251963
P  P18  1  0.12390000  0.19667000  0.75000000  1.0 1.420251963
P  P19  1  0.80333000  0.92723000  0.75000000  1.0 1.420251963
P  P20  1  0.92723000  0.12390000  0.25000000  1.0 1.420251963
P  P21  1  0.87610000  0.80333000  0.25000000  1.0 1.420251963
P  P22  1  0.19667000  0.07277000  0.25000000  1.0 1.420251963
P  P23  1  0.62942000  0.50737000  0.04011000  1.0 1.4333733295
P  P24  1  0.49263000  0.12205000  0.04011000  1.0 1.4362991278
P  P25  1  0.87795000  0.37058000  0.04011000  1.0 1.4333733295
P  P26  1  0.37058000  0.49263000  0.54011000  1.0 1.4362991278
P  P27  1  0.50737000  0.87795000  0.54011000  1.0 1.4362991278
P  P28  1  0.12205000  0.62942000  0.54011000  1.0 1.4362991278
P  P29  1  0.37058000  0.49263000  0.95989000  1.0 1.4362991278
P  P30  1  0.50737000  0.87795000  0.95989000  1.0 1.4362991278
P  P31  1  0.12205000  0.62942000  0.95989000  1.0 1.4362991278
P  P32  1  0.62942000  0.50737000  0.45989000  1.0 1.4333733295
P  P33  1  0.49263000  0.12205000  0.45989000  1.0 1.4362991278
P  P34  1  0.87795000  0.37058000  0.45989000  1.0 1.4333733295
H  H1  1  0.05060000  0.80130000  0.89000000  1.0 -0.0621569573
H  H2  1  0.19870000  0.24930000  0.89000000  1.0 -0.0621569573
H  H3  1  0.75070000  0.94940000  0.89000000  1.0 -0.0621569573
H  H4  1  0.94940000  0.19870000  0.39000000  1.0 -0.0621569573
H  H5  1  0.80130000  0.75070000  0.39000000  1.0 -0.0621569573
H  H6  1  0.24930000  0.05060000  0.39000000  1.0 -0.0621569573
H  H7  1  0.94940000  0.19870000  0.11000000  1.0 -0.0621569573
H  H8  1  0.80130000  0.75070000  0.11000000  1.0 -0.0621569573
H  H9  1  0.24930000  0.05060000  0.11000000  1.0 -0.0621569573
H  H10  1  0.05060000  0.80130000  0.61000000  1.0 -0.0621569573
H  H11  1  0.19870000  0.24930000  0.61000000  1.0 -0.0621569573
H  H12  1  0.75070000  0.94940000  0.61000000  1.0 -0.0621569573
H  H13  1  0.66666667  0.33333333  0.86060000  1.0 -0.245161357
H  H14  1  0.33333333  0.66666667  0.36060000  1.0 -0.245161357
H  H15  1  0.33333333  0.66666667  0.13940000  1.0 -0.245161357
H  H16  1  0.66666667  0.33333333  0.63940000  1.0 -0.245161357
H  H17  1  0.15170000  0.76810000  0.75000000  1.0 0.4704702173
H  H18  1  0.23190000  0.38360000  0.75000000  1.0 0.4704702173
H  H19  1  0.61640000  0.84830000  0.75000000  1.0 0.4704702173
H  H20  1  0.84830000  0.23190000  0.25000000  1.0 0.4704702173
H  H21  1  0.76810000  0.61640000  0.25000000  1.0 0.4704702173
H  H22  1  0.38360000  0.15170000  0.25000000  1.0 0.4704702173
O  O1  1  0.03240000  0.88880000  0.95798000  1.0 -0.6437321449
O  O2  1  0.11120000  0.14360000  0.95798000  1.0 -0.6437321449
O  O3  1  0.85640000  0.96760000  0.95798000  1.0 -0.6437321449
O  O4  1  0.96760000  0.11120000  0.45798000  1.0 -0.6437321449
O  O5  1  0.88880000  0.85640000  0.45798000  1.0 -0.6437321449
O  O6  1  0.14360000  0.03240000  0.45798000  1.0 -0.6437321449
O  O7  1  0.96760000  0.11120000  0.04202000  1.0 -0.6453070069
O  O8  1  0.88880000  0.85640000  0.04202000  1.0 -0.6437321449
O  O9  1  0.14360000  0.03240000  0.04202000  1.0 -0.6453070069
O  O10  1  0.03240000  0.88880000  0.54202000  1.0 -0.6437321449
O  O11  1  0.11120000  0.14360000  0.54202000  1.0 -0.6437321449
O  O12  1  0.85640000  0.96760000  0.54202000  1.0 -0.6437321449
O  O13  1  0.71450000  0.57100000  0.00162000  1.0 -0.7253289844
O  O14  1  0.42900000  0.14350000  0.00162000  1.0 -0.7253289844
O  O15  1  0.85650000  0.28550000  0.00162000  1.0 -0.7253289844
O  O16  1  0.28550000  0.42900000  0.50162000  1.0 -0.7253289844
O  O17  1  0.57100000  0.85650000  0.50162000  1.0 -0.7253289844
O  O18  1  0.14350000  0.71450000  0.50162000  1.0 -0.7253289844
O  O19  1  0.28550000  0.42900000  0.99838000  1.0 -0.7253289844
O  O20  1  0.57100000  0.85650000  0.99838000  1.0 -0.7253289844
O  O21  1  0.14350000  0.71450000  0.99838000  1.0 -0.7253289844
O  O22  1  0.71450000  0.57100000  0.49838000  1.0 -0.7253289844
O  O23  1  0.42900000  0.14350000  0.49838000  1.0 -0.7253289844
O  O24  1  0.85650000  0.28550000  0.49838000  1.0 -0.7253289844
O  O25  1  0.87880000  0.69630000  0.93218000  1.0 -0.6037496473
O  O26  1  0.30370000  0.18250000  0.93218000  1.0 -0.6037496473
O  O27  1  0.81750000  0.12120000  0.93218000  1.0 -0.6037496473
O  O28  1  0.12120000  0.30370000  0.43218000  1.0 -0.6037496473
O  O29  1  0.69630000  0.81750000  0.43218000  1.0 -0.6037496473
O  O30  1  0.18250000  0.87880000  0.43218000  1.0 -0.6037496473
O  O31  1  0.12120000  0.30370000  0.06782000  1.0 -0.6037496473
O  O32  1  0.69630000  0.81750000  0.06782000  1.0 -0.6037496473
O  O33  1  0.18250000  0.87880000  0.06782000  1.0 -0.6037496473
O  O34  1  0.87880000  0.69630000  0.56782000  1.0 -0.6052094127
O  O35  1  0.30370000  0.18250000  0.56782000  1.0 -0.6052094127
O  O36  1  0.81750000  0.12120000  0.56782000  1.0 -0.6037496473
O  O37  1  0.56270000  0.56480000  0.05146000  1.0 -0.737302127
O  O38  1  0.43520000  0.99790000  0.05146000  1.0 -0.737302127
O  O39  1  0.00210000  0.43730000  0.05146000  1.0 -0.737302127
O  O40  1  0.43730000  0.43520000  0.55146000  1.0 -0.737302127
O  O41  1  0.56480000  0.00210000  0.55146000  1.0 -0.737302127
O  O42  1  0.99790000  0.56270000  0.55146000  1.0 -0.737302127
O  O43  1  0.43730000  0.43520000  0.94854000  1.0 -0.737302127
O  O44  1  0.56480000  0.00210000  0.94854000  1.0 -0.737302127
O  O45  1  0.99790000  0.56270000  0.94854000  1.0 -0.737302127
O  O46  1  0.56270000  0.56480000  0.44854000  1.0 -0.737302127
O  O47  1  0.43520000  0.99790000  0.44854000  1.0 -0.737302127
O  O48  1  0.00210000  0.43730000  0.44854000  1.0 -0.737302127
O  O49  1  0.93080000  0.85400000  0.87831000  1.0 -0.6310045024
O  O50  1  0.14600000  0.07680000  0.87831000  1.0 -0.6310045024
O  O51  1  0.92320000  0.06920000  0.87831000  1.0 -0.6310045024
O  O52  1  0.06920000  0.14600000  0.37831000  1.0 -0.6310045024
O  O53  1  0.85400000  0.92320000  0.37831000  1.0 -0.6310045024
O  O54  1  0.07680000  0.93080000  0.37831000  1.0 -0.6310045024
O  O55  1  0.06920000  0.14600000  0.12169000  1.0 -0.6310045024
O  O56  1  0.85400000  0.92320000  0.12169000  1.0 -0.6310045024
O  O57  1  0.07680000  0.93080000  0.12169000  1.0 -0.6310045024
O  O58  1  0.93080000  0.85400000  0.62169000  1.0 -0.6310045024
O  O59  1  0.14600000  0.07680000  0.62169000  1.0 -0.6310045024
O  O60  1  0.92320000  0.06920000  0.62169000  1.0 -0.6310045024
O  O61  1  0.75990000  0.44790000  0.92050000  1.0 -0.6310045024
O  O62  1  0.55210000  0.31200000  0.92050000  1.0 -0.6310045024
O  O63  1  0.68800000  0.24010000  0.92050000  1.0 -0.6310045024
O  O64  1  0.24010000  0.55210000  0.42050000  1.0 -0.6310045024
O  O65  1  0.44790000  0.68800000  0.42050000  1.0 -0.6310045024
O  O66  1  0.31200000  0.75990000  0.42050000  1.0 -0.6310045024
O  O67  1  0.24010000  0.55210000  0.07950000  1.0 -0.6310045024
O  O68  1  0.44790000  0.68800000  0.07950000  1.0 -0.6310045024
O  O69  1  0.31200000  0.75990000  0.07950000  1.0 -0.6310045024
O  O70  1  0.75990000  0.44790000  0.57950000  1.0 -0.6310045024
O  O71  1  0.55210000  0.31200000  0.57950000  1.0 -0.6310045024
O  O72  1  0.68800000  0.24010000  0.57950000  1.0 -0.6310045024
O  O73  1  0.55600000  0.38410000  0.02968000  1.0 -0.7004447604
O  O74  1  0.61590000  0.17190000  0.02968000  1.0 -0.7004447604
O  O75  1  0.82810000  0.44400000  0.02968000  1.0 -0.7004447604
O  O76  1  0.44400000  0.61590000  0.52968000  1.0 -0.7004447604
O  O77  1  0.38410000  0.82810000  0.52968000  1.0 -0.7004447604
O  O78  1  0.17190000  0.55600000  0.52968000  1.0 -0.7004447604
O  O79  1  0.44400000  0.61590000  0.97032000  1.0 -0.7004447604
O  O80  1  0.38410000  0.82810000  0.97032000  1.0 -0.7004447604
O  O81  1  0.17190000  0.55600000  0.97032000  1.0 -0.7004447604
O  O82  1  0.55600000  0.38410000  0.47032000  1.0 -0.7004447604
O  O83  1  0.61590000  0.17190000  0.47032000  1.0 -0.7004447604
O  O84  1  0.82810000  0.44400000  0.47032000  1.0 -0.7004447604
O  O85  1  0.09030000  0.94140000  0.79524000  1.0 -0.7168033148
O  O86  1  0.05860000  0.14890000  0.79524000  1.0 -0.7141273941
O  O87  1  0.85110000  0.90970000  0.79524000  1.0 -0.7141273941
O  O88  1  0.90970000  0.05860000  0.29524000  1.0 -0.7168033148
O  O89  1  0.94140000  0.85110000  0.29524000  1.0 -0.7168033148
O  O90  1  0.14890000  0.09030000  0.29524000  1.0 -0.7168033148
O  O91  1  0.90970000  0.05860000  0.20476000  1.0 -0.7141273941
O  O92  1  0.94140000  0.85110000  0.20476000  1.0 -0.7141273941
O  O93  1  0.14890000  0.09030000  0.20476000  1.0 -0.7141273941
O  O94  1  0.09030000  0.94140000  0.70476000  1.0 -0.7168033148
O  O95  1  0.05860000  0.14890000  0.70476000  1.0 -0.7141273941
O  O96  1  0.85110000  0.90970000  0.70476000  1.0 -0.7168033148
O  O97  1  0.15297000  0.82800000  0.75000000  1.0 -0.5585166738
O  O98  1  0.17200000  0.32497000  0.75000000  1.0 -0.5585166738
O  O99  1  0.67503000  0.84703000  0.75000000  1.0 -0.5585166738
O  O100  1  0.84703000  0.17200000  0.25000000  1.0 -0.5585166738
O  O101  1  0.82800000  0.67503000  0.25000000  1.0 -0.5585166738
O  O102  1  0.32497000  0.15297000  0.25000000  1.0 -0.5585166738
O  O103  1  0.96270000  0.77340000  0.75000000  1.0 -0.5769612218
O  O104  1  0.22660000  0.18930000  0.75000000  1.0 -0.5769612218
O  O105  1  0.81070000  0.03730000  0.75000000  1.0 -0.5769612218
O  O106  1  0.03730000  0.22660000  0.25000000  1.0 -0.5732863769
O  O107  1  0.77340000  0.81070000  0.25000000  1.0 -0.5732863769
O  O108  1  0.18930000  0.96270000  0.25000000  1.0 -0.5732863769
O  O109  1  0.69580000  0.50840000  0.08210000  1.0 -0.5289297477
O  O110  1  0.49160000  0.18740000  0.08210000  1.0 -0.5289297477
O  O111  1  0.81260000  0.30420000  0.08210000  1.0 -0.5289297477
O  O112  1  0.30420000  0.49160000  0.58210000  1.0 -0.5289297477
O  O113  1  0.50840000  0.81260000  0.58210000  1.0 -0.5289297477
O  O114  1  0.18740000  0.69580000  0.58210000  1.0 -0.5289297477
O  O115  1  0.30420000  0.49160000  0.91790000  1.0 -0.5289297477
O  O116  1  0.50840000  0.81260000  0.91790000  1.0 -0.5289297477
O  O117  1  0.18740000  0.69580000  0.91790000  1.0 -0.5289297477
O  O118  1  0.69580000  0.50840000  0.41790000  1.0 -0.5289297477
O  O119  1  0.49160000  0.18740000  0.41790000  1.0 -0.5289297477
O  O120  1  0.81260000  0.30420000  0.41790000  1.0 -0.5289297477
