# DDEC6 charges by PACMAN v1.1 (https://github.com/mtap-research/PACMAN-charge/)
data_LELDUD_ASR_pacman
_symmetry_space_group_name_H-M   'P 1'
_cell_length_a   39.48400000
_cell_length_b   39.48400000
_cell_length_c   39.48400000
_cell_angle_alpha   90.00000000
_cell_angle_beta   90.00000000
_cell_angle_gamma   90.00000000
_symmetry_Int_Tables_number   1
_chemical_formula_structural   CuH8C17NO4
_chemical_formula_sum   'Cu48 H384 C816 N48 O192'
_cell_volume   61555.01333190
_cell_formula_units_Z   48
loop_
 _symmetry_equiv_pos_site_id
 _symmetry_equiv_pos_as_xyz
  1  'x, y, z'
loop_
 _atom_site_type_symbol
 _atom_site_label
 _atom_site_symmetry_multiplicity
 _atom_site_fract_x
 _atom_site_fract_y
 _atom_site_fract_z
 _atom_site_occupancy
 _atom_site_charge
Cu  Cu1  1  0.03543000  0.54087000  0.26381000  1.0 0.8896301631
Cu  Cu2  1  0.26381000  0.03543000  0.54087000  1.0 0.8896301631
Cu  Cu3  1  0.54087000  0.26381000  0.03543000  1.0 0.8896301631
Cu  Cu4  1  0.95913000  0.73619000  0.53543000  1.0 0.8896301631
Cu  Cu5  1  0.76381000  0.46457000  0.45913000  1.0 0.8896301631
Cu  Cu6  1  0.45913000  0.76381000  0.46457000  1.0 0.8896301631
Cu  Cu7  1  0.23619000  0.96457000  0.04087000  1.0 0.8896301631
Cu  Cu8  1  0.73619000  0.53543000  0.95913000  1.0 0.8896301631
Cu  Cu9  1  0.04087000  0.23619000  0.96457000  1.0 0.8896301631
Cu  Cu10  1  0.46457000  0.45913000  0.76381000  1.0 0.8896301631
Cu  Cu11  1  0.53543000  0.95913000  0.73619000  1.0 0.8896301631
Cu  Cu12  1  0.96457000  0.04087000  0.23619000  1.0 0.8896301631
Cu  Cu13  1  0.96457000  0.45913000  0.73619000  1.0 0.8896301631
Cu  Cu14  1  0.73619000  0.96457000  0.45913000  1.0 0.8896301631
Cu  Cu15  1  0.45913000  0.73619000  0.96457000  1.0 0.8896301631
Cu  Cu16  1  0.04087000  0.26381000  0.46457000  1.0 0.8896301631
Cu  Cu17  1  0.23619000  0.53543000  0.54087000  1.0 0.8896301631
Cu  Cu18  1  0.54087000  0.23619000  0.53543000  1.0 0.8896301631
Cu  Cu19  1  0.76381000  0.03543000  0.95913000  1.0 0.8896301631
Cu  Cu20  1  0.26381000  0.46457000  0.04087000  1.0 0.8896301631
Cu  Cu21  1  0.95913000  0.76381000  0.03543000  1.0 0.8896301631
Cu  Cu22  1  0.53543000  0.54087000  0.23619000  1.0 0.8896301631
Cu  Cu23  1  0.46457000  0.04087000  0.26381000  1.0 0.8896301631
Cu  Cu24  1  0.03543000  0.95913000  0.76381000  1.0 0.8896301631
Cu  Cu25  1  0.02554000  0.52929000  0.32853000  1.0 0.8646493796
Cu  Cu26  1  0.32853000  0.02554000  0.52929000  1.0 0.8646493796
Cu  Cu27  1  0.52929000  0.32853000  0.02554000  1.0 0.8646493796
Cu  Cu28  1  0.97071000  0.67147000  0.52554000  1.0 0.8646493796
Cu  Cu29  1  0.82853000  0.47446000  0.47071000  1.0 0.8646493796
Cu  Cu30  1  0.47071000  0.82853000  0.47446000  1.0 0.8646493796
Cu  Cu31  1  0.17147000  0.97446000  0.02929000  1.0 0.8646493796
Cu  Cu32  1  0.67147000  0.52554000  0.97071000  1.0 0.8646493796
Cu  Cu33  1  0.02929000  0.17147000  0.97446000  1.0 0.8646493796
Cu  Cu34  1  0.47446000  0.47071000  0.82853000  1.0 0.8646493796
Cu  Cu35  1  0.52554000  0.97071000  0.67147000  1.0 0.8646493796
Cu  Cu36  1  0.97446000  0.02929000  0.17147000  1.0 0.8646493796
Cu  Cu37  1  0.97446000  0.47071000  0.67147000  1.0 0.8646493796
Cu  Cu38  1  0.67147000  0.97446000  0.47071000  1.0 0.8646493796
Cu  Cu39  1  0.47071000  0.67147000  0.97446000  1.0 0.8646493796
Cu  Cu40  1  0.02929000  0.32853000  0.47446000  1.0 0.8646493796
Cu  Cu41  1  0.17147000  0.52554000  0.52929000  1.0 0.8646493796
Cu  Cu42  1  0.52929000  0.17147000  0.52554000  1.0 0.8646493796
Cu  Cu43  1  0.82853000  0.02554000  0.97071000  1.0 0.8646493796
Cu  Cu44  1  0.32853000  0.47446000  0.02929000  1.0 0.8646493796
Cu  Cu45  1  0.97071000  0.82853000  0.02554000  1.0 0.8646493796
Cu  Cu46  1  0.52554000  0.52929000  0.17147000  1.0 0.8646493796
Cu  Cu47  1  0.47446000  0.02929000  0.32853000  1.0 0.8646493796
Cu  Cu48  1  0.02554000  0.97071000  0.82853000  1.0 0.8646493796
H  H1  1  0.03670000  0.41920000  0.33030000  1.0 0.1404874326
H  H2  1  0.33030000  0.03670000  0.41920000  1.0 0.1404874326
H  H3  1  0.41920000  0.33030000  0.03670000  1.0 0.1404874326
H  H4  1  0.08080000  0.66970000  0.53670000  1.0 0.1404874326
H  H5  1  0.83030000  0.46330000  0.58080000  1.0 0.1404874326
H  H6  1  0.58080000  0.83030000  0.46330000  1.0 0.1404874326
H  H7  1  0.16970000  0.96330000  0.91920000  1.0 0.1404874326
H  H8  1  0.66970000  0.53670000  0.08080000  1.0 0.1404874326
H  H9  1  0.91920000  0.16970000  0.96330000  1.0 0.1404874326
H  H10  1  0.46330000  0.58080000  0.83030000  1.0 0.1404874326
H  H11  1  0.53670000  0.08080000  0.66970000  1.0 0.1404874326
H  H12  1  0.96330000  0.91920000  0.16970000  1.0 0.1404874326
H  H13  1  0.96330000  0.58080000  0.66970000  1.0 0.1404874326
H  H14  1  0.66970000  0.96330000  0.58080000  1.0 0.1404874326
H  H15  1  0.58080000  0.66970000  0.96330000  1.0 0.1404874326
H  H16  1  0.91920000  0.33030000  0.46330000  1.0 0.1404874326
H  H17  1  0.16970000  0.53670000  0.41920000  1.0 0.1404874326
H  H18  1  0.41920000  0.16970000  0.53670000  1.0 0.1404874326
H  H19  1  0.83030000  0.03670000  0.08080000  1.0 0.1404874326
H  H20  1  0.33030000  0.46330000  0.91920000  1.0 0.1404874326
H  H21  1  0.08080000  0.83030000  0.03670000  1.0 0.1404874326
H  H22  1  0.53670000  0.41920000  0.16970000  1.0 0.1404874326
H  H23  1  0.46330000  0.91920000  0.33030000  1.0 0.1404874326
H  H24  1  0.03670000  0.08080000  0.83030000  1.0 0.1404874326
H  H25  1  0.03180000  0.44180000  0.22770000  1.0 0.1317132582
H  H26  1  0.22770000  0.03180000  0.44180000  1.0 0.1317132582
H  H27  1  0.44180000  0.22770000  0.03180000  1.0 0.1317132582
H  H28  1  0.05820000  0.77230000  0.53180000  1.0 0.1317132582
H  H29  1  0.72770000  0.46820000  0.55820000  1.0 0.1317132582
H  H30  1  0.55820000  0.72770000  0.46820000  1.0 0.1317132582
H  H31  1  0.27230000  0.96820000  0.94180000  1.0 0.1404874326
H  H32  1  0.77230000  0.53180000  0.05820000  1.0 0.1317132582
H  H33  1  0.94180000  0.27230000  0.96820000  1.0 0.1404874326
H  H34  1  0.46820000  0.55820000  0.72770000  1.0 0.1404874326
H  H35  1  0.53180000  0.05820000  0.77230000  1.0 0.1317132582
H  H36  1  0.96820000  0.94180000  0.27230000  1.0 0.1317132582
H  H37  1  0.96820000  0.55820000  0.77230000  1.0 0.1404874326
H  H38  1  0.77230000  0.96820000  0.55820000  1.0 0.1317132582
H  H39  1  0.55820000  0.77230000  0.96820000  1.0 0.1404874326
H  H40  1  0.94180000  0.22770000  0.46820000  1.0 0.1404874326
H  H41  1  0.27230000  0.53180000  0.44180000  1.0 0.1317132582
H  H42  1  0.44180000  0.27230000  0.53180000  1.0 0.1317132582
H  H43  1  0.72770000  0.03180000  0.05820000  1.0 0.1317132582
H  H44  1  0.22770000  0.46820000  0.94180000  1.0 0.1317132582
H  H45  1  0.05820000  0.72770000  0.03180000  1.0 0.1317132582
H  H46  1  0.53180000  0.44180000  0.27230000  1.0 0.1317132582
H  H47  1  0.46820000  0.94180000  0.22770000  1.0 0.1317132582
H  H48  1  0.03180000  0.05820000  0.72770000  1.0 0.1317132582
H  H49  1  0.03180000  0.37760000  0.21620000  1.0 0.1317132582
H  H50  1  0.21620000  0.03180000  0.37760000  1.0 0.1317132582
H  H51  1  0.37760000  0.21620000  0.03180000  1.0 0.1317132582
H  H52  1  0.12240000  0.78380000  0.53180000  1.0 0.1317132582
H  H53  1  0.71620000  0.46820000  0.62240000  1.0 0.1317132582
H  H54  1  0.62240000  0.71620000  0.46820000  1.0 0.1317132582
H  H55  1  0.28380000  0.96820000  0.87760000  1.0 0.1317132582
H  H56  1  0.78380000  0.53180000  0.12240000  1.0 0.1317132582
H  H57  1  0.87760000  0.28380000  0.96820000  1.0 0.1317132582
H  H58  1  0.46820000  0.62240000  0.71620000  1.0 0.1317132582
H  H59  1  0.53180000  0.12240000  0.78380000  1.0 0.1317132582
H  H60  1  0.96820000  0.87760000  0.28380000  1.0 0.1317132582
H  H61  1  0.96820000  0.62240000  0.78380000  1.0 0.1317132582
H  H62  1  0.78380000  0.96820000  0.62240000  1.0 0.1317132582
H  H63  1  0.62240000  0.78380000  0.96820000  1.0 0.1317132582
H  H64  1  0.87760000  0.21620000  0.46820000  1.0 0.1317132582
H  H65  1  0.28380000  0.53180000  0.37760000  1.0 0.1317132582
H  H66  1  0.37760000  0.28380000  0.53180000  1.0 0.1317132582
H  H67  1  0.71620000  0.03180000  0.12240000  1.0 0.1317132582
H  H68  1  0.21620000  0.46820000  0.87760000  1.0 0.1317132582
H  H69  1  0.12240000  0.71620000  0.03180000  1.0 0.1317132582
H  H70  1  0.53180000  0.37760000  0.28380000  1.0 0.1317132582
H  H71  1  0.46820000  0.87760000  0.21620000  1.0 0.1317132582
H  H72  1  0.03180000  0.12240000  0.71620000  1.0 0.1317132582
H  H73  1  0.03740000  0.27050000  0.29850000  1.0 0.1317132582
H  H74  1  0.29850000  0.03740000  0.27050000  1.0 0.1317132582
H  H75  1  0.27050000  0.29850000  0.03740000  1.0 0.1317132582
H  H76  1  0.22950000  0.70150000  0.53740000  1.0 0.1317132582
H  H77  1  0.79850000  0.46260000  0.72950000  1.0 0.1317132582
H  H78  1  0.72950000  0.79850000  0.46260000  1.0 0.1317132582
H  H79  1  0.20150000  0.96260000  0.77050000  1.0 0.1317132582
H  H80  1  0.70150000  0.53740000  0.22950000  1.0 0.1317132582
H  H81  1  0.77050000  0.20150000  0.96260000  1.0 0.1317132582
H  H82  1  0.46260000  0.72950000  0.79850000  1.0 0.1317132582
H  H83  1  0.53740000  0.22950000  0.70150000  1.0 0.1317132582
H  H84  1  0.96260000  0.77050000  0.20150000  1.0 0.1317132582
H  H85  1  0.96260000  0.72950000  0.70150000  1.0 0.1317132582
H  H86  1  0.70150000  0.96260000  0.72950000  1.0 0.1317132582
H  H87  1  0.72950000  0.70150000  0.96260000  1.0 0.1317132582
H  H88  1  0.77050000  0.29850000  0.46260000  1.0 0.1317132582
H  H89  1  0.20150000  0.53740000  0.27050000  1.0 0.1317132582
H  H90  1  0.27050000  0.20150000  0.53740000  1.0 0.1317132582
H  H91  1  0.79850000  0.03740000  0.22950000  1.0 0.1317132582
H  H92  1  0.29850000  0.46260000  0.77050000  1.0 0.1317132582
H  H93  1  0.22950000  0.79850000  0.03740000  1.0 0.1317132582
H  H94  1  0.53740000  0.27050000  0.20150000  1.0 0.1317132582
H  H95  1  0.46260000  0.77050000  0.29850000  1.0 0.1317132582
H  H96  1  0.03740000  0.22950000  0.79850000  1.0 0.1317132582
H  H97  1  0.04090000  0.26010000  0.35700000  1.0 0.1317132582
H  H98  1  0.35700000  0.04090000  0.26010000  1.0 0.1317132582
H  H99  1  0.26010000  0.35700000  0.04090000  1.0 0.1317132582
H  H100  1  0.23990000  0.64300000  0.54090000  1.0 0.1317132582
H  H101  1  0.85700000  0.45910000  0.73990000  1.0 0.1317132582
H  H102  1  0.73990000  0.85700000  0.45910000  1.0 0.1317132582
H  H103  1  0.14300000  0.95910000  0.76010000  1.0 0.1317132582
H  H104  1  0.64300000  0.54090000  0.23990000  1.0 0.1317132582
H  H105  1  0.76010000  0.14300000  0.95910000  1.0 0.1317132582
H  H106  1  0.45910000  0.73990000  0.85700000  1.0 0.1317132582
H  H107  1  0.54090000  0.23990000  0.64300000  1.0 0.1317132582
H  H108  1  0.95910000  0.76010000  0.14300000  1.0 0.1317132582
H  H109  1  0.95910000  0.73990000  0.64300000  1.0 0.1317132582
H  H110  1  0.64300000  0.95910000  0.73990000  1.0 0.1317132582
H  H111  1  0.73990000  0.64300000  0.95910000  1.0 0.1317132582
H  H112  1  0.76010000  0.35700000  0.45910000  1.0 0.1317132582
H  H113  1  0.14300000  0.54090000  0.26010000  1.0 0.1317132582
H  H114  1  0.26010000  0.14300000  0.54090000  1.0 0.1317132582
H  H115  1  0.85700000  0.04090000  0.23990000  1.0 0.1317132582
H  H116  1  0.35700000  0.45910000  0.76010000  1.0 0.1317132582
H  H117  1  0.23990000  0.85700000  0.04090000  1.0 0.1317132582
H  H118  1  0.54090000  0.26010000  0.14300000  1.0 0.1317132582
H  H119  1  0.45910000  0.76010000  0.35700000  1.0 0.1317132582
H  H120  1  0.04090000  0.23990000  0.85700000  1.0 0.1317132582
H  H121  1  0.04010000  0.36350000  0.37220000  1.0 0.1482837884
H  H122  1  0.37220000  0.04010000  0.36350000  1.0 0.1482837884
H  H123  1  0.36350000  0.37220000  0.04010000  1.0 0.1482837884
H  H124  1  0.13650000  0.62780000  0.54010000  1.0 0.1482837884
H  H125  1  0.87220000  0.45990000  0.63650000  1.0 0.1482837884
H  H126  1  0.63650000  0.87220000  0.45990000  1.0 0.1482837884
H  H127  1  0.12780000  0.95990000  0.86350000  1.0 0.1482837884
H  H128  1  0.62780000  0.54010000  0.13650000  1.0 0.1482837884
H  H129  1  0.86350000  0.12780000  0.95990000  1.0 0.1482837884
H  H130  1  0.45990000  0.63650000  0.87220000  1.0 0.1482837884
H  H131  1  0.54010000  0.13650000  0.62780000  1.0 0.1482837884
H  H132  1  0.95990000  0.86350000  0.12780000  1.0 0.1482837884
H  H133  1  0.95990000  0.63650000  0.62780000  1.0 0.1482837884
H  H134  1  0.62780000  0.95990000  0.63650000  1.0 0.1482837884
H  H135  1  0.63650000  0.62780000  0.95990000  1.0 0.1482837884
H  H136  1  0.86350000  0.37220000  0.45990000  1.0 0.1482837884
H  H137  1  0.12780000  0.54010000  0.36350000  1.0 0.1482837884
H  H138  1  0.36350000  0.12780000  0.54010000  1.0 0.1482837884
H  H139  1  0.87220000  0.04010000  0.13650000  1.0 0.1482837884
H  H140  1  0.37220000  0.45990000  0.86350000  1.0 0.1482837884
H  H141  1  0.13650000  0.87220000  0.04010000  1.0 0.1482837884
H  H142  1  0.54010000  0.36350000  0.12780000  1.0 0.1482837884
H  H143  1  0.45990000  0.86350000  0.37220000  1.0 0.1482837884
H  H144  1  0.04010000  0.13650000  0.87220000  1.0 0.1482837884
H  H145  1  0.98880000  0.32710000  0.22230000  1.0 0.1317132582
H  H146  1  0.22230000  0.98880000  0.32710000  1.0 0.1317132582
H  H147  1  0.32710000  0.22230000  0.98880000  1.0 0.1317132582
H  H148  1  0.17290000  0.77770000  0.48880000  1.0 0.1317132582
H  H149  1  0.72230000  0.51120000  0.67290000  1.0 0.1317132582
H  H150  1  0.67290000  0.72230000  0.51120000  1.0 0.1317132582
H  H151  1  0.27770000  0.01120000  0.82710000  1.0 0.1317132582
H  H152  1  0.77770000  0.48880000  0.17290000  1.0 0.1317132582
H  H153  1  0.82710000  0.27770000  0.01120000  1.0 0.1317132582
H  H154  1  0.51120000  0.67290000  0.72230000  1.0 0.1317132582
H  H155  1  0.48880000  0.17290000  0.77770000  1.0 0.1317132582
H  H156  1  0.01120000  0.82710000  0.27770000  1.0 0.1317132582
H  H157  1  0.01120000  0.67290000  0.77770000  1.0 0.1317132582
H  H158  1  0.77770000  0.01120000  0.67290000  1.0 0.1317132582
H  H159  1  0.67290000  0.77770000  0.01120000  1.0 0.1317132582
H  H160  1  0.82710000  0.22230000  0.51120000  1.0 0.1317132582
H  H161  1  0.27770000  0.48880000  0.32710000  1.0 0.1317132582
H  H162  1  0.32710000  0.27770000  0.48880000  1.0 0.1317132582
H  H163  1  0.72230000  0.98880000  0.17290000  1.0 0.1317132582
H  H164  1  0.22230000  0.51120000  0.82710000  1.0 0.1317132582
H  H165  1  0.17290000  0.72230000  0.98880000  1.0 0.1317132582
H  H166  1  0.48880000  0.32710000  0.27770000  1.0 0.1317132582
H  H167  1  0.51120000  0.82710000  0.22230000  1.0 0.1317132582
H  H168  1  0.98880000  0.17290000  0.72230000  1.0 0.1317132582
H  H169  1  0.98470000  0.28750000  0.18120000  1.0 0.1317132582
H  H170  1  0.18120000  0.98470000  0.28750000  1.0 0.1317132582
H  H171  1  0.28750000  0.18120000  0.98470000  1.0 0.1317132582
H  H172  1  0.21250000  0.81880000  0.48470000  1.0 0.1317132582
H  H173  1  0.68120000  0.51530000  0.71250000  1.0 0.1317132582
H  H174  1  0.71250000  0.68120000  0.51530000  1.0 0.1317132582
H  H175  1  0.31880000  0.01530000  0.78750000  1.0 0.1317132582
H  H176  1  0.81880000  0.48470000  0.21250000  1.0 0.1317132582
H  H177  1  0.78750000  0.31880000  0.01530000  1.0 0.1317132582
H  H178  1  0.51530000  0.71250000  0.68120000  1.0 0.1317132582
H  H179  1  0.48470000  0.21250000  0.81880000  1.0 0.1317132582
H  H180  1  0.01530000  0.78750000  0.31880000  1.0 0.1317132582
H  H181  1  0.01530000  0.71250000  0.81880000  1.0 0.1317132582
H  H182  1  0.81880000  0.01530000  0.71250000  1.0 0.1317132582
H  H183  1  0.71250000  0.81880000  0.01530000  1.0 0.1317132582
H  H184  1  0.78750000  0.18120000  0.51530000  1.0 0.1317132582
H  H185  1  0.31880000  0.48470000  0.28750000  1.0 0.1317132582
H  H186  1  0.28750000  0.31880000  0.48470000  1.0 0.1317132582
H  H187  1  0.68120000  0.98470000  0.21250000  1.0 0.1317132582
H  H188  1  0.18120000  0.51530000  0.78750000  1.0 0.1317132582
H  H189  1  0.21250000  0.68120000  0.98470000  1.0 0.1317132582
H  H190  1  0.48470000  0.28750000  0.31880000  1.0 0.1317132582
H  H191  1  0.51530000  0.78750000  0.18120000  1.0 0.1317132582
H  H192  1  0.98470000  0.21250000  0.68120000  1.0 0.1317132582
H  H193  1  0.06590000  0.24080000  0.21050000  1.0 0.1404874326
H  H194  1  0.21050000  0.06590000  0.24080000  1.0 0.1404874326
H  H195  1  0.24080000  0.21050000  0.06590000  1.0 0.1404874326
H  H196  1  0.25920000  0.78950000  0.56590000  1.0 0.1404874326
H  H197  1  0.71050000  0.43410000  0.75920000  1.0 0.1404874326
H  H198  1  0.75920000  0.71050000  0.43410000  1.0 0.1404874326
H  H199  1  0.28950000  0.93410000  0.74080000  1.0 0.1404874326
H  H200  1  0.78950000  0.56590000  0.25920000  1.0 0.1404874326
H  H201  1  0.74080000  0.28950000  0.93410000  1.0 0.1404874326
H  H202  1  0.43410000  0.75920000  0.71050000  1.0 0.1404874326
H  H203  1  0.56590000  0.25920000  0.78950000  1.0 0.1404874326
H  H204  1  0.93410000  0.74080000  0.28950000  1.0 0.1404874326
H  H205  1  0.93410000  0.75920000  0.78950000  1.0 0.1404874326
H  H206  1  0.78950000  0.93410000  0.75920000  1.0 0.1404874326
H  H207  1  0.75920000  0.78950000  0.93410000  1.0 0.1404874326
H  H208  1  0.74080000  0.21050000  0.43410000  1.0 0.1404874326
H  H209  1  0.28950000  0.56590000  0.24080000  1.0 0.1404874326
H  H210  1  0.24080000  0.28950000  0.56590000  1.0 0.1404874326
H  H211  1  0.71050000  0.06590000  0.25920000  1.0 0.1404874326
H  H212  1  0.21050000  0.43410000  0.74080000  1.0 0.1404874326
H  H213  1  0.25920000  0.71050000  0.06590000  1.0 0.1404874326
H  H214  1  0.56590000  0.24080000  0.28950000  1.0 0.1404874326
H  H215  1  0.43410000  0.74080000  0.21050000  1.0 0.1404874326
H  H216  1  0.06590000  0.25920000  0.71050000  1.0 0.1404874326
H  H217  1  0.07500000  0.28130000  0.25400000  1.0 0.1317132582
H  H218  1  0.25400000  0.07500000  0.28130000  1.0 0.1317132582
H  H219  1  0.28130000  0.25400000  0.07500000  1.0 0.1317132582
H  H220  1  0.21870000  0.74600000  0.57500000  1.0 0.1317132582
H  H221  1  0.75400000  0.42500000  0.71870000  1.0 0.1317132582
H  H222  1  0.71870000  0.75400000  0.42500000  1.0 0.1317132582
H  H223  1  0.24600000  0.92500000  0.78130000  1.0 0.1317132582
H  H224  1  0.74600000  0.57500000  0.21870000  1.0 0.1317132582
H  H225  1  0.78130000  0.24600000  0.92500000  1.0 0.1317132582
H  H226  1  0.42500000  0.71870000  0.75400000  1.0 0.1317132582
H  H227  1  0.57500000  0.21870000  0.74600000  1.0 0.1317132582
H  H228  1  0.92500000  0.78130000  0.24600000  1.0 0.1317132582
H  H229  1  0.92500000  0.71870000  0.74600000  1.0 0.1317132582
H  H230  1  0.74600000  0.92500000  0.71870000  1.0 0.1317132582
H  H231  1  0.71870000  0.74600000  0.92500000  1.0 0.1317132582
H  H232  1  0.78130000  0.25400000  0.42500000  1.0 0.1317132582
H  H233  1  0.24600000  0.57500000  0.28130000  1.0 0.1317132582
H  H234  1  0.28130000  0.24600000  0.57500000  1.0 0.1317132582
H  H235  1  0.75400000  0.07500000  0.21870000  1.0 0.1317132582
H  H236  1  0.25400000  0.42500000  0.78130000  1.0 0.1317132582
H  H237  1  0.21870000  0.75400000  0.07500000  1.0 0.1317132582
H  H238  1  0.57500000  0.28130000  0.24600000  1.0 0.1317132582
H  H239  1  0.42500000  0.78130000  0.25400000  1.0 0.1317132582
H  H240  1  0.07500000  0.21870000  0.75400000  1.0 0.1317132582
H  H241  1  0.03250000  0.28220000  0.12280000  1.0 0.1404874326
H  H242  1  0.12280000  0.03250000  0.28220000  1.0 0.1404874326
H  H243  1  0.28220000  0.12280000  0.03250000  1.0 0.1404874326
H  H244  1  0.21780000  0.87720000  0.53250000  1.0 0.1404874326
H  H245  1  0.62280000  0.46750000  0.71780000  1.0 0.1404874326
H  H246  1  0.71780000  0.62280000  0.46750000  1.0 0.1404874326
H  H247  1  0.37720000  0.96750000  0.78220000  1.0 0.1404874326
H  H248  1  0.87720000  0.53250000  0.21780000  1.0 0.1404874326
H  H249  1  0.78220000  0.37720000  0.96750000  1.0 0.1404874326
H  H250  1  0.46750000  0.71780000  0.62280000  1.0 0.1404874326
H  H251  1  0.53250000  0.21780000  0.87720000  1.0 0.1404874326
H  H252  1  0.96750000  0.78220000  0.37720000  1.0 0.1404874326
H  H253  1  0.96750000  0.71780000  0.87720000  1.0 0.1404874326
H  H254  1  0.87720000  0.96750000  0.71780000  1.0 0.1404874326
H  H255  1  0.71780000  0.87720000  0.96750000  1.0 0.1404874326
H  H256  1  0.78220000  0.12280000  0.46750000  1.0 0.1404874326
H  H257  1  0.37720000  0.53250000  0.28220000  1.0 0.1404874326
H  H258  1  0.28220000  0.37720000  0.53250000  1.0 0.1404874326
H  H259  1  0.62280000  0.03250000  0.21780000  1.0 0.1404874326
H  H260  1  0.12280000  0.46750000  0.78220000  1.0 0.1404874326
H  H261  1  0.21780000  0.62280000  0.03250000  1.0 0.1404874326
H  H262  1  0.53250000  0.28220000  0.37720000  1.0 0.1404874326
H  H263  1  0.46750000  0.78220000  0.12280000  1.0 0.1404874326
H  H264  1  0.03250000  0.21780000  0.62280000  1.0 0.1404874326
H  H265  1  0.03700000  0.27180000  0.06810000  1.0 0.1404874326
H  H266  1  0.06810000  0.03700000  0.27180000  1.0 0.1404874326
H  H267  1  0.27180000  0.06810000  0.03700000  1.0 0.1404874326
H  H268  1  0.22820000  0.93190000  0.53700000  1.0 0.1404874326
H  H269  1  0.56810000  0.46300000  0.72820000  1.0 0.1404874326
H  H270  1  0.72820000  0.56810000  0.46300000  1.0 0.1404874326
H  H271  1  0.43190000  0.96300000  0.77180000  1.0 0.1404874326
H  H272  1  0.93190000  0.53700000  0.22820000  1.0 0.1404874326
H  H273  1  0.77180000  0.43190000  0.96300000  1.0 0.1404874326
H  H274  1  0.46300000  0.72820000  0.56810000  1.0 0.1404874326
H  H275  1  0.53700000  0.22820000  0.93190000  1.0 0.1404874326
H  H276  1  0.96300000  0.77180000  0.43190000  1.0 0.1404874326
H  H277  1  0.96300000  0.72820000  0.93190000  1.0 0.1404874326
H  H278  1  0.93190000  0.96300000  0.72820000  1.0 0.1404874326
H  H279  1  0.72820000  0.93190000  0.96300000  1.0 0.1404874326
H  H280  1  0.77180000  0.06810000  0.46300000  1.0 0.1404874326
H  H281  1  0.43190000  0.53700000  0.27180000  1.0 0.1404874326
H  H282  1  0.27180000  0.43190000  0.53700000  1.0 0.1404874326
H  H283  1  0.56810000  0.03700000  0.22820000  1.0 0.1404874326
H  H284  1  0.06810000  0.46300000  0.77180000  1.0 0.1404874326
H  H285  1  0.22820000  0.56810000  0.03700000  1.0 0.1404874326
H  H286  1  0.53700000  0.27180000  0.43190000  1.0 0.1404874326
H  H287  1  0.46300000  0.77180000  0.06810000  1.0 0.1404874326
H  H288  1  0.03700000  0.22820000  0.56810000  1.0 0.1404874326
H  H289  1  0.01100000  0.17170000  0.08140000  1.0 0.1564658825
H  H290  1  0.08140000  0.01100000  0.17170000  1.0 0.1564658825
H  H291  1  0.17170000  0.08140000  0.01100000  1.0 0.1564658825
H  H292  1  0.32830000  0.91860000  0.51100000  1.0 0.1564658825
H  H293  1  0.58140000  0.48900000  0.82830000  1.0 0.1564658825
H  H294  1  0.82830000  0.58140000  0.48900000  1.0 0.1564658825
H  H295  1  0.41860000  0.98900000  0.67170000  1.0 0.1564658825
H  H296  1  0.91860000  0.51100000  0.32830000  1.0 0.1564658825
H  H297  1  0.67170000  0.41860000  0.98900000  1.0 0.1564658825
H  H298  1  0.48900000  0.82830000  0.58140000  1.0 0.1564658825
H  H299  1  0.51100000  0.32830000  0.91860000  1.0 0.1564658825
H  H300  1  0.98900000  0.67170000  0.41860000  1.0 0.1564658825
H  H301  1  0.98900000  0.82830000  0.91860000  1.0 0.1564658825
H  H302  1  0.91860000  0.98900000  0.82830000  1.0 0.1564658825
H  H303  1  0.82830000  0.91860000  0.98900000  1.0 0.1564658825
H  H304  1  0.67170000  0.08140000  0.48900000  1.0 0.1564658825
H  H305  1  0.41860000  0.51100000  0.17170000  1.0 0.1564658825
H  H306  1  0.17170000  0.41860000  0.51100000  1.0 0.1564658825
H  H307  1  0.58140000  0.01100000  0.32830000  1.0 0.1564658825
H  H308  1  0.08140000  0.48900000  0.67170000  1.0 0.1564658825
H  H309  1  0.32830000  0.58140000  0.01100000  1.0 0.1564658825
H  H310  1  0.51100000  0.17170000  0.41860000  1.0 0.1564658825
H  H311  1  0.48900000  0.67170000  0.08140000  1.0 0.1564658825
H  H312  1  0.01100000  0.32830000  0.58140000  1.0 0.1564658825
H  H313  1  0.99340000  0.13210000  0.13940000  1.0 0.1482837884
H  H314  1  0.13940000  0.99340000  0.13210000  1.0 0.1482837884
H  H315  1  0.13210000  0.13940000  0.99340000  1.0 0.1482837884
H  H316  1  0.36790000  0.86060000  0.49340000  1.0 0.1482837884
H  H317  1  0.63940000  0.50660000  0.86790000  1.0 0.1482837884
H  H318  1  0.86790000  0.63940000  0.50660000  1.0 0.1482837884
H  H319  1  0.36060000  0.00660000  0.63210000  1.0 0.1482837884
H  H320  1  0.86060000  0.49340000  0.36790000  1.0 0.1482837884
H  H321  1  0.63210000  0.36060000  0.00660000  1.0 0.1482837884
H  H322  1  0.50660000  0.86790000  0.63940000  1.0 0.1482837884
H  H323  1  0.49340000  0.36790000  0.86060000  1.0 0.1482837884
H  H324  1  0.00660000  0.63210000  0.36060000  1.0 0.1482837884
H  H325  1  0.00660000  0.86790000  0.86060000  1.0 0.1482837884
H  H326  1  0.86060000  0.00660000  0.86790000  1.0 0.1482837884
H  H327  1  0.86790000  0.86060000  0.00660000  1.0 0.1482837884
H  H328  1  0.63210000  0.13940000  0.50660000  1.0 0.1482837884
H  H329  1  0.36060000  0.49340000  0.13210000  1.0 0.1482837884
H  H330  1  0.13210000  0.36060000  0.49340000  1.0 0.1482837884
H  H331  1  0.63940000  0.99340000  0.36790000  1.0 0.1482837884
H  H332  1  0.13940000  0.50660000  0.63210000  1.0 0.1482837884
H  H333  1  0.36790000  0.63940000  0.99340000  1.0 0.1482837884
H  H334  1  0.49340000  0.13210000  0.36060000  1.0 0.1482837884
H  H335  1  0.50660000  0.63210000  0.13940000  1.0 0.1482837884
H  H336  1  0.99340000  0.36790000  0.63940000  1.0 0.1482837884
H  H337  1  0.99790000  0.20040000  0.23370000  1.0 0.1404874326
H  H338  1  0.23370000  0.99790000  0.20040000  1.0 0.1404874326
H  H339  1  0.20040000  0.23370000  0.99790000  1.0 0.1404874326
H  H340  1  0.29960000  0.76630000  0.49790000  1.0 0.1404874326
H  H341  1  0.73370000  0.50210000  0.79960000  1.0 0.1404874326
H  H342  1  0.79960000  0.73370000  0.50210000  1.0 0.1404874326
H  H343  1  0.26630000  0.00210000  0.70040000  1.0 0.1404874326
H  H344  1  0.76630000  0.49790000  0.29960000  1.0 0.1404874326
H  H345  1  0.70040000  0.26630000  0.00210000  1.0 0.1404874326
H  H346  1  0.50210000  0.79960000  0.73370000  1.0 0.1404874326
H  H347  1  0.49790000  0.29960000  0.76630000  1.0 0.1404874326
H  H348  1  0.00210000  0.70040000  0.26630000  1.0 0.1404874326
H  H349  1  0.00210000  0.79960000  0.76630000  1.0 0.1404874326
H  H350  1  0.76630000  0.00210000  0.79960000  1.0 0.1404874326
H  H351  1  0.79960000  0.76630000  0.00210000  1.0 0.1404874326
H  H352  1  0.70040000  0.23370000  0.50210000  1.0 0.1404874326
H  H353  1  0.26630000  0.49790000  0.20040000  1.0 0.1404874326
H  H354  1  0.20040000  0.26630000  0.49790000  1.0 0.1404874326
H  H355  1  0.73370000  0.99790000  0.29960000  1.0 0.1404874326
H  H356  1  0.23370000  0.50210000  0.70040000  1.0 0.1404874326
H  H357  1  0.29960000  0.73370000  0.99790000  1.0 0.1404874326
H  H358  1  0.49790000  0.20040000  0.26630000  1.0 0.1404874326
H  H359  1  0.50210000  0.70040000  0.23370000  1.0 0.1404874326
H  H360  1  0.99790000  0.29960000  0.73370000  1.0 0.1404874326
H  H361  1  0.98410000  0.14800000  0.23880000  1.0 0.1317132582
H  H362  1  0.23880000  0.98410000  0.14800000  1.0 0.1317132582
H  H363  1  0.14800000  0.23880000  0.98410000  1.0 0.1317132582
H  H364  1  0.35200000  0.76120000  0.48410000  1.0 0.1317132582
H  H365  1  0.73880000  0.51590000  0.85200000  1.0 0.1317132582
H  H366  1  0.85200000  0.73880000  0.51590000  1.0 0.1317132582
H  H367  1  0.26120000  0.01590000  0.64800000  1.0 0.1317132582
H  H368  1  0.76120000  0.48410000  0.35200000  1.0 0.1317132582
H  H369  1  0.64800000  0.26120000  0.01590000  1.0 0.1317132582
H  H370  1  0.51590000  0.85200000  0.73880000  1.0 0.1317132582
H  H371  1  0.48410000  0.35200000  0.76120000  1.0 0.1317132582
H  H372  1  0.01590000  0.64800000  0.26120000  1.0 0.1317132582
H  H373  1  0.01590000  0.85200000  0.76120000  1.0 0.1317132582
H  H374  1  0.76120000  0.01590000  0.85200000  1.0 0.1317132582
H  H375  1  0.85200000  0.76120000  0.01590000  1.0 0.1317132582
H  H376  1  0.64800000  0.23880000  0.51590000  1.0 0.1317132582
H  H377  1  0.26120000  0.48410000  0.14800000  1.0 0.1317132582
H  H378  1  0.14800000  0.26120000  0.48410000  1.0 0.1317132582
H  H379  1  0.73880000  0.98410000  0.35200000  1.0 0.1317132582
H  H380  1  0.23880000  0.51590000  0.64800000  1.0 0.1317132582
H  H381  1  0.35200000  0.73880000  0.98410000  1.0 0.1317132582
H  H382  1  0.48410000  0.14800000  0.26120000  1.0 0.1317132582
H  H383  1  0.51590000  0.64800000  0.23880000  1.0 0.1317132582
H  H384  1  0.98410000  0.35200000  0.73880000  1.0 0.1317132582
C  C1  1  0.03351000  0.47190000  0.28511000  1.0 0.5159390215
C  C2  1  0.28511000  0.03351000  0.47190000  1.0 0.5159390215
C  C3  1  0.47190000  0.28511000  0.03351000  1.0 0.5159390215
C  C4  1  0.02810000  0.71489000  0.53351000  1.0 0.5159390215
C  C5  1  0.78511000  0.46649000  0.52810000  1.0 0.5159390215
C  C6  1  0.52810000  0.78511000  0.46649000  1.0 0.5159390215
C  C7  1  0.21489000  0.96649000  0.97190000  1.0 0.5159390215
C  C8  1  0.71489000  0.53351000  0.02810000  1.0 0.5159390215
C  C9  1  0.97190000  0.21489000  0.96649000  1.0 0.5159390215
C  C10  1  0.46649000  0.52810000  0.78511000  1.0 0.5159390215
C  C11  1  0.53351000  0.02810000  0.71489000  1.0 0.5159390215
C  C12  1  0.96649000  0.97190000  0.21489000  1.0 0.5159390215
C  C13  1  0.96649000  0.52810000  0.71489000  1.0 0.5159390215
C  C14  1  0.71489000  0.96649000  0.52810000  1.0 0.5159390215
C  C15  1  0.52810000  0.71489000  0.96649000  1.0 0.5159390215
C  C16  1  0.97190000  0.28511000  0.46649000  1.0 0.5159390215
C  C17  1  0.21489000  0.53351000  0.47190000  1.0 0.5159390215
C  C18  1  0.47190000  0.21489000  0.53351000  1.0 0.5159390215
C  C19  1  0.78511000  0.03351000  0.02810000  1.0 0.5159390215
C  C20  1  0.28511000  0.46649000  0.97190000  1.0 0.5159390215
C  C21  1  0.02810000  0.78511000  0.03351000  1.0 0.5159390215
C  C22  1  0.53351000  0.47190000  0.21489000  1.0 0.5159390215
C  C23  1  0.46649000  0.97190000  0.28511000  1.0 0.5159390215
C  C24  1  0.03351000  0.02810000  0.78511000  1.0 0.5159390215
C  C25  1  0.03578000  0.41161000  0.30746000  1.0 -0.0893803924
C  C26  1  0.30746000  0.03578000  0.41161000  1.0 -0.0893803924
C  C27  1  0.41161000  0.30746000  0.03578000  1.0 -0.0893803924
C  C28  1  0.08839000  0.69254000  0.53578000  1.0 -0.0893803924
C  C29  1  0.80746000  0.46422000  0.58839000  1.0 -0.0893803924
C  C30  1  0.58839000  0.80746000  0.46422000  1.0 -0.0893803924
C  C31  1  0.19254000  0.96422000  0.91161000  1.0 -0.0893803924
C  C32  1  0.69254000  0.53578000  0.08839000  1.0 -0.0893803924
C  C33  1  0.91161000  0.19254000  0.96422000  1.0 -0.0893803924
C  C34  1  0.46422000  0.58839000  0.80746000  1.0 -0.0893803924
C  C35  1  0.53578000  0.08839000  0.69254000  1.0 -0.0893803924
C  C36  1  0.96422000  0.91161000  0.19254000  1.0 -0.0893803924
C  C37  1  0.96422000  0.58839000  0.69254000  1.0 -0.0893803924
C  C38  1  0.69254000  0.96422000  0.58839000  1.0 -0.0893803924
C  C39  1  0.58839000  0.69254000  0.96422000  1.0 -0.0893803924
C  C40  1  0.91161000  0.30746000  0.46422000  1.0 -0.0893803924
C  C41  1  0.19254000  0.53578000  0.41161000  1.0 -0.0893803924
C  C42  1  0.41161000  0.19254000  0.53578000  1.0 -0.0893803924
C  C43  1  0.80746000  0.03578000  0.08839000  1.0 -0.0893803924
C  C44  1  0.30746000  0.46422000  0.91161000  1.0 -0.0893803924
C  C45  1  0.08839000  0.80746000  0.03578000  1.0 -0.0893803924
C  C46  1  0.53578000  0.41161000  0.19254000  1.0 -0.0893803924
C  C47  1  0.46422000  0.91161000  0.30746000  1.0 -0.0893803924
C  C48  1  0.03578000  0.08839000  0.80746000  1.0 -0.0893803924
C  C49  1  0.03405000  0.43666000  0.28085000  1.0 -0.0799874421
C  C50  1  0.28085000  0.03405000  0.43666000  1.0 -0.0799874421
C  C51  1  0.43666000  0.28085000  0.03405000  1.0 -0.0799874421
C  C52  1  0.06334000  0.71915000  0.53405000  1.0 -0.0799874421
C  C53  1  0.78085000  0.46595000  0.56334000  1.0 -0.0799874421
C  C54  1  0.56334000  0.78085000  0.46595000  1.0 -0.0799874421
C  C55  1  0.21915000  0.96595000  0.93666000  1.0 -0.0799874421
C  C56  1  0.71915000  0.53405000  0.06334000  1.0 -0.0799874421
C  C57  1  0.93666000  0.21915000  0.96595000  1.0 -0.0799874421
C  C58  1  0.46595000  0.56334000  0.78085000  1.0 -0.0799874421
C  C59  1  0.53405000  0.06334000  0.71915000  1.0 -0.0799874421
C  C60  1  0.96595000  0.93666000  0.21915000  1.0 -0.0799874421
C  C61  1  0.96595000  0.56334000  0.71915000  1.0 -0.0799874421
C  C62  1  0.71915000  0.96595000  0.56334000  1.0 -0.0799874421
C  C63  1  0.56334000  0.71915000  0.96595000  1.0 -0.0799874421
C  C64  1  0.93666000  0.28085000  0.46595000  1.0 -0.0799874421
C  C65  1  0.21915000  0.53405000  0.43666000  1.0 -0.0799874421
C  C66  1  0.43666000  0.21915000  0.53405000  1.0 -0.0799874421
C  C67  1  0.78085000  0.03405000  0.06334000  1.0 -0.0799874421
C  C68  1  0.28085000  0.46595000  0.93666000  1.0 -0.0799874421
C  C69  1  0.06334000  0.78085000  0.03405000  1.0 -0.0799874421
C  C70  1  0.53405000  0.43666000  0.21915000  1.0 -0.0799874421
C  C71  1  0.46595000  0.93666000  0.28085000  1.0 -0.0799874421
C  C72  1  0.03405000  0.06334000  0.78085000  1.0 -0.0799874421
C  C73  1  0.03270000  0.42581000  0.24561000  1.0 -0.0893803924
C  C74  1  0.24561000  0.03270000  0.42581000  1.0 -0.0893803924
C  C75  1  0.42581000  0.24561000  0.03270000  1.0 -0.0893803924
C  C76  1  0.07419000  0.75439000  0.53270000  1.0 -0.0893803924
C  C77  1  0.74561000  0.46730000  0.57419000  1.0 -0.0893803924
C  C78  1  0.57419000  0.74561000  0.46730000  1.0 -0.0893803924
C  C79  1  0.25439000  0.96730000  0.92581000  1.0 -0.0893803924
C  C80  1  0.75439000  0.53270000  0.07419000  1.0 -0.0893803924
C  C81  1  0.92581000  0.25439000  0.96730000  1.0 -0.0893803924
C  C82  1  0.46730000  0.57419000  0.74561000  1.0 -0.0893803924
C  C83  1  0.53270000  0.07419000  0.75439000  1.0 -0.0893803924
C  C84  1  0.96730000  0.92581000  0.25439000  1.0 -0.0893803924
C  C85  1  0.96730000  0.57419000  0.75439000  1.0 -0.0893803924
C  C86  1  0.75439000  0.96730000  0.57419000  1.0 -0.0893803924
C  C87  1  0.57419000  0.75439000  0.96730000  1.0 -0.0893803924
C  C88  1  0.92581000  0.24561000  0.46730000  1.0 -0.0893803924
C  C89  1  0.25439000  0.53270000  0.42581000  1.0 -0.0893803924
C  C90  1  0.42581000  0.25439000  0.53270000  1.0 -0.0893803924
C  C91  1  0.74561000  0.03270000  0.07419000  1.0 -0.0893803924
C  C92  1  0.24561000  0.46730000  0.92581000  1.0 -0.0893803924
C  C93  1  0.07419000  0.74561000  0.03270000  1.0 -0.0893803924
C  C94  1  0.53270000  0.42581000  0.25439000  1.0 -0.0893803924
C  C95  1  0.46730000  0.92581000  0.24561000  1.0 -0.0893803924
C  C96  1  0.03270000  0.07419000  0.74561000  1.0 -0.0893803924
C  C97  1  0.03285000  0.38700000  0.23840000  1.0 -0.2072322715
C  C98  1  0.23840000  0.03285000  0.38700000  1.0 -0.2072322715
C  C99  1  0.38700000  0.23840000  0.03285000  1.0 -0.2072322715
C  C100  1  0.11300000  0.76160000  0.53285000  1.0 -0.2072322715
C  C101  1  0.73840000  0.46715000  0.61300000  1.0 -0.2072322715
C  C102  1  0.61300000  0.73840000  0.46715000  1.0 -0.2072322715
C  C103  1  0.26160000  0.96715000  0.88700000  1.0 -0.2072322715
C  C104  1  0.76160000  0.53285000  0.11300000  1.0 -0.2072322715
C  C105  1  0.88700000  0.26160000  0.96715000  1.0 -0.2072322715
C  C106  1  0.46715000  0.61300000  0.73840000  1.0 -0.2072322715
C  C107  1  0.53285000  0.11300000  0.76160000  1.0 -0.2072322715
C  C108  1  0.96715000  0.88700000  0.26160000  1.0 -0.2072322715
C  C109  1  0.96715000  0.61300000  0.76160000  1.0 -0.2072322715
C  C110  1  0.76160000  0.96715000  0.61300000  1.0 -0.2072322715
C  C111  1  0.61300000  0.76160000  0.96715000  1.0 -0.2072322715
C  C112  1  0.88700000  0.23840000  0.46715000  1.0 -0.2072322715
C  C113  1  0.26160000  0.53285000  0.38700000  1.0 -0.2072322715
C  C114  1  0.38700000  0.26160000  0.53285000  1.0 -0.2072322715
C  C115  1  0.73840000  0.03285000  0.11300000  1.0 -0.2072322715
C  C116  1  0.23840000  0.46715000  0.88700000  1.0 -0.2072322715
C  C117  1  0.11300000  0.73840000  0.03285000  1.0 -0.2072322715
C  C118  1  0.53285000  0.38700000  0.26160000  1.0 -0.2072322715
C  C119  1  0.46715000  0.88700000  0.23840000  1.0 -0.2072322715
C  C120  1  0.03285000  0.11300000  0.73840000  1.0 -0.2072322715
C  C121  1  0.03479000  0.36630000  0.26980000  1.0 0.1246058072
C  C122  1  0.26980000  0.03479000  0.36630000  1.0 0.1246058072
C  C123  1  0.36630000  0.26980000  0.03479000  1.0 0.1246058072
C  C124  1  0.13370000  0.73020000  0.53479000  1.0 0.1246058072
C  C125  1  0.76980000  0.46521000  0.63370000  1.0 0.1246058072
C  C126  1  0.63370000  0.76980000  0.46521000  1.0 0.1246058072
C  C127  1  0.23020000  0.96521000  0.86630000  1.0 0.1246058072
C  C128  1  0.73020000  0.53479000  0.13370000  1.0 0.1246058072
C  C129  1  0.86630000  0.23020000  0.96521000  1.0 0.1317132582
C  C130  1  0.46521000  0.63370000  0.76980000  1.0 0.1246058072
C  C131  1  0.53479000  0.13370000  0.73020000  1.0 0.1246058072
C  C132  1  0.96521000  0.86630000  0.23020000  1.0 0.1246058072
C  C133  1  0.96521000  0.63370000  0.73020000  1.0 0.1246058072
C  C134  1  0.73020000  0.96521000  0.63370000  1.0 0.1246058072
C  C135  1  0.63370000  0.73020000  0.96521000  1.0 0.1317132582
C  C136  1  0.86630000  0.26980000  0.46521000  1.0 0.1246058072
C  C137  1  0.23020000  0.53479000  0.36630000  1.0 0.1246058072
C  C138  1  0.36630000  0.23020000  0.53479000  1.0 0.1246058072
C  C139  1  0.76980000  0.03479000  0.13370000  1.0 0.1246058072
C  C140  1  0.26980000  0.46521000  0.86630000  1.0 0.1246058072
C  C141  1  0.13370000  0.76980000  0.03479000  1.0 0.1246058072
C  C142  1  0.53479000  0.36630000  0.23020000  1.0 0.1246058072
C  C143  1  0.46521000  0.86630000  0.26980000  1.0 0.1246058072
C  C144  1  0.03479000  0.13370000  0.76980000  1.0 0.1246058072
C  C145  1  0.03616000  0.37971000  0.30174000  1.0 -0.0302047384
C  C146  1  0.30174000  0.03616000  0.37971000  1.0 -0.0302047384
C  C147  1  0.37971000  0.30174000  0.03616000  1.0 -0.0302047384
C  C148  1  0.12029000  0.69826000  0.53616000  1.0 -0.0302047384
C  C149  1  0.80174000  0.46384000  0.62029000  1.0 -0.0302047384
C  C150  1  0.62029000  0.80174000  0.46384000  1.0 -0.0302047384
C  C151  1  0.19826000  0.96384000  0.87971000  1.0 -0.0302047384
C  C152  1  0.69826000  0.53616000  0.12029000  1.0 -0.0302047384
C  C153  1  0.87971000  0.19826000  0.96384000  1.0 -0.0302047384
C  C154  1  0.46384000  0.62029000  0.80174000  1.0 -0.0302047384
C  C155  1  0.53616000  0.12029000  0.69826000  1.0 -0.0302047384
C  C156  1  0.96384000  0.87971000  0.19826000  1.0 -0.0302047384
C  C157  1  0.96384000  0.62029000  0.69826000  1.0 -0.0302047384
C  C158  1  0.69826000  0.96384000  0.62029000  1.0 -0.0302047384
C  C159  1  0.62029000  0.69826000  0.96384000  1.0 -0.0302047384
C  C160  1  0.87971000  0.30174000  0.46384000  1.0 -0.0302047384
C  C161  1  0.19826000  0.53616000  0.37971000  1.0 -0.0302047384
C  C162  1  0.37971000  0.19826000  0.53616000  1.0 -0.0302047384
C  C163  1  0.80174000  0.03616000  0.12029000  1.0 -0.0302047384
C  C164  1  0.30174000  0.46384000  0.87971000  1.0 -0.0302047384
C  C165  1  0.12029000  0.80174000  0.03616000  1.0 -0.0302047384
C  C166  1  0.53616000  0.37971000  0.19826000  1.0 -0.0302047384
C  C167  1  0.46384000  0.87971000  0.30174000  1.0 -0.0302047384
C  C168  1  0.03616000  0.12029000  0.80174000  1.0 -0.0302047384
C  C169  1  0.03789000  0.35183000  0.32261000  1.0 0.0098845309
C  C170  1  0.32261000  0.03789000  0.35183000  1.0 0.0098845309
C  C171  1  0.35183000  0.32261000  0.03789000  1.0 0.0098845309
C  C172  1  0.14817000  0.67739000  0.53789000  1.0 0.0098845309
C  C173  1  0.82261000  0.46211000  0.64817000  1.0 0.0098845309
C  C174  1  0.64817000  0.82261000  0.46211000  1.0 0.0098845309
C  C175  1  0.17739000  0.96211000  0.85183000  1.0 0.0098845309
C  C176  1  0.67739000  0.53789000  0.14817000  1.0 0.0098845309
C  C177  1  0.85183000  0.17739000  0.96211000  1.0 0.0155685042
C  C178  1  0.46211000  0.64817000  0.82261000  1.0 0.0098845309
C  C179  1  0.53789000  0.14817000  0.67739000  1.0 0.0098845309
C  C180  1  0.96211000  0.85183000  0.17739000  1.0 0.0098845309
C  C181  1  0.96211000  0.64817000  0.67739000  1.0 0.0098845309
C  C182  1  0.67739000  0.96211000  0.64817000  1.0 0.0098845309
C  C183  1  0.64817000  0.67739000  0.96211000  1.0 0.0098845309
C  C184  1  0.85183000  0.32261000  0.46211000  1.0 0.0098845309
C  C185  1  0.17739000  0.53789000  0.35183000  1.0 0.0098845309
C  C186  1  0.35183000  0.17739000  0.53789000  1.0 0.0098845309
C  C187  1  0.82261000  0.03789000  0.14817000  1.0 0.0098845309
C  C188  1  0.32261000  0.46211000  0.85183000  1.0 0.0098845309
C  C189  1  0.14817000  0.82261000  0.03789000  1.0 0.0098845309
C  C190  1  0.53789000  0.35183000  0.17739000  1.0 0.0098845309
C  C191  1  0.46211000  0.85183000  0.32261000  1.0 0.0098845309
C  C192  1  0.03789000  0.14817000  0.82261000  1.0 0.0098845309
C  C193  1  0.03763000  0.32013000  0.30081000  1.0 0.089554656
C  C194  1  0.30081000  0.03763000  0.32013000  1.0 0.089554656
C  C195  1  0.32013000  0.30081000  0.03763000  1.0 0.089554656
C  C196  1  0.17987000  0.69919000  0.53763000  1.0 0.089554656
C  C197  1  0.80081000  0.46237000  0.67987000  1.0 0.089554656
C  C198  1  0.67987000  0.80081000  0.46237000  1.0 0.089554656
C  C199  1  0.19919000  0.96237000  0.82013000  1.0 0.089554656
C  C200  1  0.69919000  0.53763000  0.17987000  1.0 0.089554656
C  C201  1  0.82013000  0.19919000  0.96237000  1.0 0.089554656
C  C202  1  0.46237000  0.67987000  0.80081000  1.0 0.089554656
C  C203  1  0.53763000  0.17987000  0.69919000  1.0 0.089554656
C  C204  1  0.96237000  0.82013000  0.19919000  1.0 0.089554656
C  C205  1  0.96237000  0.67987000  0.69919000  1.0 0.089554656
C  C206  1  0.69919000  0.96237000  0.67987000  1.0 0.089554656
C  C207  1  0.67987000  0.69919000  0.96237000  1.0 0.089554656
C  C208  1  0.82013000  0.30081000  0.46237000  1.0 0.089554656
C  C209  1  0.19919000  0.53763000  0.32013000  1.0 0.089554656
C  C210  1  0.32013000  0.19919000  0.53763000  1.0 0.089554656
C  C211  1  0.80081000  0.03763000  0.17987000  1.0 0.089554656
C  C212  1  0.30081000  0.46237000  0.82013000  1.0 0.089554656
C  C213  1  0.17987000  0.80081000  0.03763000  1.0 0.089554656
C  C214  1  0.53763000  0.32013000  0.19919000  1.0 0.089554656
C  C215  1  0.46237000  0.82013000  0.30081000  1.0 0.089554656
C  C216  1  0.03763000  0.17987000  0.80081000  1.0 0.089554656
C  C217  1  0.03828000  0.28920000  0.31370000  1.0 -0.1787290256
C  C218  1  0.31370000  0.03828000  0.28920000  1.0 -0.1787290256
C  C219  1  0.28920000  0.31370000  0.03828000  1.0 -0.1787290256
C  C220  1  0.21080000  0.68630000  0.53828000  1.0 -0.1787290256
C  C221  1  0.81370000  0.46172000  0.71080000  1.0 -0.1787290256
C  C222  1  0.71080000  0.81370000  0.46172000  1.0 -0.1787290256
C  C223  1  0.18630000  0.96172000  0.78920000  1.0 -0.1787290256
C  C224  1  0.68630000  0.53828000  0.21080000  1.0 -0.1787290256
C  C225  1  0.78920000  0.18630000  0.96172000  1.0 -0.1787290256
C  C226  1  0.46172000  0.71080000  0.81370000  1.0 -0.1787290256
C  C227  1  0.53828000  0.21080000  0.68630000  1.0 -0.1787290256
C  C228  1  0.96172000  0.78920000  0.18630000  1.0 -0.1787290256
C  C229  1  0.96172000  0.71080000  0.68630000  1.0 -0.1787290256
C  C230  1  0.68630000  0.96172000  0.71080000  1.0 -0.1787290256
C  C231  1  0.71080000  0.68630000  0.96172000  1.0 -0.1787290256
C  C232  1  0.78920000  0.31370000  0.46172000  1.0 -0.1787290256
C  C233  1  0.18630000  0.53828000  0.28920000  1.0 -0.1787290256
C  C234  1  0.28920000  0.18630000  0.53828000  1.0 -0.1787290256
C  C235  1  0.81370000  0.03828000  0.21080000  1.0 -0.1787290256
C  C236  1  0.31370000  0.46172000  0.78920000  1.0 -0.1787290256
C  C237  1  0.21080000  0.81370000  0.03828000  1.0 -0.1787290256
C  C238  1  0.53828000  0.28920000  0.18630000  1.0 -0.1787290256
C  C239  1  0.46172000  0.78920000  0.31370000  1.0 -0.1787290256
C  C240  1  0.03828000  0.21080000  0.81370000  1.0 -0.1787290256
C  C241  1  0.04015000  0.28250000  0.34820000  1.0 -0.0893803924
C  C242  1  0.34820000  0.04015000  0.28250000  1.0 -0.0893803924
C  C243  1  0.28250000  0.34820000  0.04015000  1.0 -0.0893803924
C  C244  1  0.21750000  0.65180000  0.54015000  1.0 -0.0893803924
C  C245  1  0.84820000  0.45985000  0.71750000  1.0 -0.0893803924
C  C246  1  0.71750000  0.84820000  0.45985000  1.0 -0.0893803924
C  C247  1  0.15180000  0.95985000  0.78250000  1.0 -0.0893803924
C  C248  1  0.65180000  0.54015000  0.21750000  1.0 -0.0893803924
C  C249  1  0.78250000  0.15180000  0.95985000  1.0 -0.0893803924
C  C250  1  0.45985000  0.71750000  0.84820000  1.0 -0.0893803924
C  C251  1  0.54015000  0.21750000  0.65180000  1.0 -0.0893803924
C  C252  1  0.95985000  0.78250000  0.15180000  1.0 -0.0893803924
C  C253  1  0.95985000  0.71750000  0.65180000  1.0 -0.0893803924
C  C254  1  0.65180000  0.95985000  0.71750000  1.0 -0.0893803924
C  C255  1  0.71750000  0.65180000  0.95985000  1.0 -0.0893803924
C  C256  1  0.78250000  0.34820000  0.45985000  1.0 -0.0893803924
C  C257  1  0.15180000  0.54015000  0.28250000  1.0 -0.0893803924
C  C258  1  0.28250000  0.15180000  0.54015000  1.0 -0.0893803924
C  C259  1  0.84820000  0.04015000  0.21750000  1.0 -0.0893803924
C  C260  1  0.34820000  0.45985000  0.78250000  1.0 -0.0893803924
C  C261  1  0.21750000  0.84820000  0.04015000  1.0 -0.0893803924
C  C262  1  0.54015000  0.28250000  0.15180000  1.0 -0.0893803924
C  C263  1  0.45985000  0.78250000  0.34820000  1.0 -0.0893803924
C  C264  1  0.04015000  0.21750000  0.84820000  1.0 -0.0893803924
C  C265  1  0.04083000  0.31170000  0.36964000  1.0 -0.0200219471
C  C266  1  0.36964000  0.04083000  0.31170000  1.0 -0.0200219471
C  C267  1  0.31170000  0.36964000  0.04083000  1.0 -0.0200219471
C  C268  1  0.18830000  0.63036000  0.54083000  1.0 -0.0200219471
C  C269  1  0.86964000  0.45917000  0.68830000  1.0 -0.0200219471
C  C270  1  0.68830000  0.86964000  0.45917000  1.0 -0.0200219471
C  C271  1  0.13036000  0.95917000  0.81170000  1.0 -0.0200219471
C  C272  1  0.63036000  0.54083000  0.18830000  1.0 -0.0200219471
C  C273  1  0.81170000  0.13036000  0.95917000  1.0 -0.0200219471
C  C274  1  0.45917000  0.68830000  0.86964000  1.0 -0.0200219471
C  C275  1  0.54083000  0.18830000  0.63036000  1.0 -0.0200219471
C  C276  1  0.95917000  0.81170000  0.13036000  1.0 -0.0200219471
C  C277  1  0.95917000  0.68830000  0.63036000  1.0 -0.0200219471
C  C278  1  0.63036000  0.95917000  0.68830000  1.0 -0.0200219471
C  C279  1  0.68830000  0.63036000  0.95917000  1.0 -0.0200219471
C  C280  1  0.81170000  0.36964000  0.45917000  1.0 -0.0200219471
C  C281  1  0.13036000  0.54083000  0.31170000  1.0 -0.0200219471
C  C282  1  0.31170000  0.13036000  0.54083000  1.0 -0.0200219471
C  C283  1  0.86964000  0.04083000  0.18830000  1.0 -0.0200219471
C  C284  1  0.36964000  0.45917000  0.81170000  1.0 -0.0200219471
C  C285  1  0.18830000  0.86964000  0.04083000  1.0 -0.0200219471
C  C286  1  0.54083000  0.31170000  0.13036000  1.0 -0.0200219471
C  C287  1  0.45917000  0.81170000  0.36964000  1.0 -0.0200219471
C  C288  1  0.04083000  0.18830000  0.86964000  1.0 -0.0200219471
C  C289  1  0.03965000  0.34512000  0.35678000  1.0 -0.1565548848
C  C290  1  0.35678000  0.03965000  0.34512000  1.0 -0.1565548848
C  C291  1  0.34512000  0.35678000  0.03965000  1.0 -0.1565548848
C  C292  1  0.15488000  0.64322000  0.53965000  1.0 -0.1565548848
C  C293  1  0.85678000  0.46035000  0.65488000  1.0 -0.1565548848
C  C294  1  0.65488000  0.85678000  0.46035000  1.0 -0.1565548848
C  C295  1  0.14322000  0.96035000  0.84512000  1.0 -0.1565548848
C  C296  1  0.64322000  0.53965000  0.15488000  1.0 -0.1565548848
C  C297  1  0.84512000  0.14322000  0.96035000  1.0 -0.1565548848
C  C298  1  0.46035000  0.65488000  0.85678000  1.0 -0.1565548848
C  C299  1  0.53965000  0.15488000  0.64322000  1.0 -0.1565548848
C  C300  1  0.96035000  0.84512000  0.14322000  1.0 -0.1565548848
C  C301  1  0.96035000  0.65488000  0.64322000  1.0 -0.1565548848
C  C302  1  0.64322000  0.96035000  0.65488000  1.0 -0.1565548848
C  C303  1  0.65488000  0.64322000  0.96035000  1.0 -0.1565548848
C  C304  1  0.84512000  0.35678000  0.46035000  1.0 -0.1565548848
C  C305  1  0.14322000  0.53965000  0.34512000  1.0 -0.1565548848
C  C306  1  0.34512000  0.14322000  0.53965000  1.0 -0.1565548848
C  C307  1  0.85678000  0.03965000  0.15488000  1.0 -0.1565548848
C  C308  1  0.35678000  0.46035000  0.84512000  1.0 -0.1565548848
C  C309  1  0.15488000  0.85678000  0.03965000  1.0 -0.1565548848
C  C310  1  0.53965000  0.34512000  0.14322000  1.0 -0.1565548848
C  C311  1  0.46035000  0.84512000  0.35678000  1.0 -0.1565548848
C  C312  1  0.03965000  0.15488000  0.85678000  1.0 -0.1565548848
C  C313  1  0.04232000  0.30735000  0.40728000  1.0 0.592502201
C  C314  1  0.40728000  0.04232000  0.30735000  1.0 0.592502201
C  C315  1  0.30735000  0.40728000  0.04232000  1.0 0.592502201
C  C316  1  0.19265000  0.59272000  0.54232000  1.0 0.592502201
C  C317  1  0.90728000  0.45768000  0.69265000  1.0 0.592502201
C  C318  1  0.69265000  0.90728000  0.45768000  1.0 0.592502201
C  C319  1  0.09272000  0.95768000  0.80735000  1.0 0.592502201
C  C320  1  0.59272000  0.54232000  0.19265000  1.0 0.592502201
C  C321  1  0.80735000  0.09272000  0.95768000  1.0 0.592502201
C  C322  1  0.45768000  0.69265000  0.90728000  1.0 0.592502201
C  C323  1  0.54232000  0.19265000  0.59272000  1.0 0.592502201
C  C324  1  0.95768000  0.80735000  0.09272000  1.0 0.592502201
C  C325  1  0.95768000  0.69265000  0.59272000  1.0 0.592502201
C  C326  1  0.59272000  0.95768000  0.69265000  1.0 0.592502201
C  C327  1  0.69265000  0.59272000  0.95768000  1.0 0.592502201
C  C328  1  0.80735000  0.40728000  0.45768000  1.0 0.592502201
C  C329  1  0.09272000  0.54232000  0.30735000  1.0 0.592502201
C  C330  1  0.30735000  0.09272000  0.54232000  1.0 0.592502201
C  C331  1  0.90728000  0.04232000  0.19265000  1.0 0.592502201
C  C332  1  0.40728000  0.45768000  0.80735000  1.0 0.592502201
C  C333  1  0.19265000  0.90728000  0.04232000  1.0 0.592502201
C  C334  1  0.54232000  0.30735000  0.09272000  1.0 0.592502201
C  C335  1  0.45768000  0.80735000  0.40728000  1.0 0.592502201
C  C336  1  0.04232000  0.19265000  0.90728000  1.0 0.592502201
C  C337  1  0.03132000  0.30949000  0.24360000  1.0 0.191114707
C  C338  1  0.24360000  0.03132000  0.30949000  1.0 0.191114707
C  C339  1  0.30949000  0.24360000  0.03132000  1.0 0.191114707
C  C340  1  0.19051000  0.75640000  0.53132000  1.0 0.191114707
C  C341  1  0.74360000  0.46868000  0.69051000  1.0 0.191114707
C  C342  1  0.69051000  0.74360000  0.46868000  1.0 0.191114707
C  C343  1  0.25640000  0.96868000  0.80949000  1.0 0.191114707
C  C344  1  0.75640000  0.53132000  0.19051000  1.0 0.191114707
C  C345  1  0.80949000  0.25640000  0.96868000  1.0 0.191114707
C  C346  1  0.46868000  0.69051000  0.74360000  1.0 0.191114707
C  C347  1  0.53132000  0.19051000  0.75640000  1.0 0.191114707
C  C348  1  0.96868000  0.80949000  0.25640000  1.0 0.191114707
C  C349  1  0.96868000  0.69051000  0.75640000  1.0 0.191114707
C  C350  1  0.75640000  0.96868000  0.69051000  1.0 0.191114707
C  C351  1  0.69051000  0.75640000  0.96868000  1.0 0.191114707
C  C352  1  0.80949000  0.24360000  0.46868000  1.0 0.191114707
C  C353  1  0.25640000  0.53132000  0.30949000  1.0 0.191114707
C  C354  1  0.30949000  0.25640000  0.53132000  1.0 0.191114707
C  C355  1  0.74360000  0.03132000  0.19051000  1.0 0.191114707
C  C356  1  0.24360000  0.46868000  0.80949000  1.0 0.191114707
C  C357  1  0.19051000  0.74360000  0.03132000  1.0 0.191114707
C  C358  1  0.53132000  0.30949000  0.25640000  1.0 0.191114707
C  C359  1  0.46868000  0.80949000  0.24360000  1.0 0.191114707
C  C360  1  0.03132000  0.19051000  0.74360000  1.0 0.191114707
C  C361  1  0.00550000  0.30980000  0.22100000  1.0 -0.1875987705
C  C362  1  0.22100000  0.00550000  0.30980000  1.0 -0.1875987705
C  C363  1  0.30980000  0.22100000  0.00550000  1.0 -0.1875987705
C  C364  1  0.19020000  0.77900000  0.50550000  1.0 -0.1875987705
C  C365  1  0.72100000  0.49450000  0.69020000  1.0 -0.1875987705
C  C366  1  0.69020000  0.72100000  0.49450000  1.0 -0.1875987705
C  C367  1  0.27900000  0.99450000  0.80980000  1.0 -0.1875987705
C  C368  1  0.77900000  0.50550000  0.19020000  1.0 -0.1875987705
C  C369  1  0.80980000  0.27900000  0.99450000  1.0 -0.1875987705
C  C370  1  0.49450000  0.69020000  0.72100000  1.0 -0.1875987705
C  C371  1  0.50550000  0.19020000  0.77900000  1.0 -0.1875987705
C  C372  1  0.99450000  0.80980000  0.27900000  1.0 -0.1875987705
C  C373  1  0.99450000  0.69020000  0.77900000  1.0 -0.1875987705
C  C374  1  0.77900000  0.99450000  0.69020000  1.0 -0.1875987705
C  C375  1  0.69020000  0.77900000  0.99450000  1.0 -0.1875987705
C  C376  1  0.80980000  0.22100000  0.49450000  1.0 -0.1875987705
C  C377  1  0.27900000  0.50550000  0.30980000  1.0 -0.1875987705
C  C378  1  0.30980000  0.27900000  0.50550000  1.0 -0.1875987705
C  C379  1  0.72100000  0.00550000  0.19020000  1.0 -0.1875987705
C  C380  1  0.22100000  0.49450000  0.80980000  1.0 -0.1875987705
C  C381  1  0.19020000  0.72100000  0.00550000  1.0 -0.1875987705
C  C382  1  0.50550000  0.30980000  0.27900000  1.0 -0.1875987705
C  C383  1  0.49450000  0.80980000  0.22100000  1.0 -0.1875987705
C  C384  1  0.00550000  0.19020000  0.72100000  1.0 -0.1875987705
C  C385  1  0.00330000  0.28560000  0.19640000  1.0 -0.1565548848
C  C386  1  0.19640000  0.00330000  0.28560000  1.0 -0.1565548848
C  C387  1  0.28560000  0.19640000  0.00330000  1.0 -0.1565548848
C  C388  1  0.21440000  0.80360000  0.50330000  1.0 -0.1565548848
C  C389  1  0.69640000  0.49670000  0.71440000  1.0 -0.1565548848
C  C390  1  0.71440000  0.69640000  0.49670000  1.0 -0.1565548848
C  C391  1  0.30360000  0.99670000  0.78560000  1.0 -0.1565548848
C  C392  1  0.80360000  0.50330000  0.21440000  1.0 -0.1507019776
C  C393  1  0.78560000  0.30360000  0.99670000  1.0 -0.1565548848
C  C394  1  0.49670000  0.71440000  0.69640000  1.0 -0.1565548848
C  C395  1  0.50330000  0.21440000  0.80360000  1.0 -0.1565548848
C  C396  1  0.99670000  0.78560000  0.30360000  1.0 -0.1507019776
C  C397  1  0.99670000  0.71440000  0.80360000  1.0 -0.1565548848
C  C398  1  0.80360000  0.99670000  0.71440000  1.0 -0.1565548848
C  C399  1  0.71440000  0.80360000  0.99670000  1.0 -0.1565548848
C  C400  1  0.78560000  0.19640000  0.49670000  1.0 -0.1565548848
C  C401  1  0.30360000  0.50330000  0.28560000  1.0 -0.1565548848
C  C402  1  0.28560000  0.30360000  0.50330000  1.0 -0.1565548848
C  C403  1  0.69640000  0.00330000  0.21440000  1.0 -0.1507019776
C  C404  1  0.19640000  0.49670000  0.78560000  1.0 -0.1565548848
C  C405  1  0.21440000  0.69640000  0.00330000  1.0 -0.1565548848
C  C406  1  0.50330000  0.28560000  0.30360000  1.0 -0.1565548848
C  C407  1  0.49670000  0.78560000  0.19640000  1.0 -0.1565548848
C  C408  1  0.00330000  0.21440000  0.69640000  1.0 -0.1565548848
C  C409  1  0.02271000  0.26142000  0.19141000  1.0 0.089554656
C  C410  1  0.19141000  0.02271000  0.26142000  1.0 0.089554656
C  C411  1  0.26142000  0.19141000  0.02271000  1.0 0.089554656
C  C412  1  0.23858000  0.80859000  0.52271000  1.0 0.089554656
C  C413  1  0.69141000  0.47729000  0.73858000  1.0 0.089554656
C  C414  1  0.73858000  0.69141000  0.47729000  1.0 0.089554656
C  C415  1  0.30859000  0.97729000  0.76142000  1.0 0.089554656
C  C416  1  0.80859000  0.52271000  0.23858000  1.0 0.089554656
C  C417  1  0.76142000  0.30859000  0.97729000  1.0 0.089554656
C  C418  1  0.47729000  0.73858000  0.69141000  1.0 0.089554656
C  C419  1  0.52271000  0.23858000  0.80859000  1.0 0.089554656
C  C420  1  0.97729000  0.76142000  0.30859000  1.0 0.089554656
C  C421  1  0.97729000  0.73858000  0.80859000  1.0 0.089554656
C  C422  1  0.80859000  0.97729000  0.73858000  1.0 0.089554656
C  C423  1  0.73858000  0.80859000  0.97729000  1.0 0.089554656
C  C424  1  0.76142000  0.19141000  0.47729000  1.0 0.089554656
C  C425  1  0.30859000  0.52271000  0.26142000  1.0 0.089554656
C  C426  1  0.26142000  0.30859000  0.52271000  1.0 0.089554656
C  C427  1  0.69141000  0.02271000  0.23858000  1.0 0.089554656
C  C428  1  0.19141000  0.47729000  0.76142000  1.0 0.089554656
C  C429  1  0.23858000  0.69141000  0.02271000  1.0 0.089554656
C  C430  1  0.52271000  0.26142000  0.30859000  1.0 0.089554656
C  C431  1  0.47729000  0.76142000  0.19141000  1.0 0.089554656
C  C432  1  0.02271000  0.23858000  0.69141000  1.0 0.089554656
C  C433  1  0.05031000  0.25899000  0.21330000  1.0 -0.2072322715
C  C434  1  0.21330000  0.05031000  0.25899000  1.0 -0.2072322715
C  C435  1  0.25899000  0.21330000  0.05031000  1.0 -0.2072322715
C  C436  1  0.24101000  0.78670000  0.55031000  1.0 -0.2072322715
C  C437  1  0.71330000  0.44969000  0.74101000  1.0 -0.2072322715
C  C438  1  0.74101000  0.71330000  0.44969000  1.0 -0.2072322715
C  C439  1  0.28670000  0.94969000  0.75899000  1.0 -0.2072322715
C  C440  1  0.78670000  0.55031000  0.24101000  1.0 -0.2072322715
C  C441  1  0.75899000  0.28670000  0.94969000  1.0 -0.2072322715
C  C442  1  0.44969000  0.74101000  0.71330000  1.0 -0.2072322715
C  C443  1  0.55031000  0.24101000  0.78670000  1.0 -0.2072322715
C  C444  1  0.94969000  0.75899000  0.28670000  1.0 -0.2072322715
C  C445  1  0.94969000  0.74101000  0.78670000  1.0 -0.2072322715
C  C446  1  0.78670000  0.94969000  0.74101000  1.0 -0.2072322715
C  C447  1  0.74101000  0.78670000  0.94969000  1.0 -0.2072322715
C  C448  1  0.75899000  0.21330000  0.44969000  1.0 -0.2072322715
C  C449  1  0.28670000  0.55031000  0.25899000  1.0 -0.2072322715
C  C450  1  0.25899000  0.28670000  0.55031000  1.0 -0.2072322715
C  C451  1  0.71330000  0.05031000  0.24101000  1.0 -0.2072322715
C  C452  1  0.21330000  0.44969000  0.75899000  1.0 -0.2072322715
C  C453  1  0.24101000  0.71330000  0.05031000  1.0 -0.2072322715
C  C454  1  0.55031000  0.25899000  0.28670000  1.0 -0.2072322715
C  C455  1  0.44969000  0.75899000  0.21330000  1.0 -0.2072322715
C  C456  1  0.05031000  0.24101000  0.71330000  1.0 -0.2072322715
C  C457  1  0.05580000  0.28280000  0.23960000  1.0 -0.1963589458
C  C458  1  0.23960000  0.05580000  0.28280000  1.0 -0.1963589458
C  C459  1  0.28280000  0.23960000  0.05580000  1.0 -0.1963589458
C  C460  1  0.21720000  0.76040000  0.55580000  1.0 -0.1963589458
C  C461  1  0.73960000  0.44420000  0.71720000  1.0 -0.1963589458
C  C462  1  0.71720000  0.73960000  0.44420000  1.0 -0.1963589458
C  C463  1  0.26040000  0.94420000  0.78280000  1.0 -0.1963589458
C  C464  1  0.76040000  0.55580000  0.21720000  1.0 -0.1963589458
C  C465  1  0.78280000  0.26040000  0.94420000  1.0 -0.1963589458
C  C466  1  0.44420000  0.71720000  0.73960000  1.0 -0.1963589458
C  C467  1  0.55580000  0.21720000  0.76040000  1.0 -0.1963589458
C  C468  1  0.94420000  0.78280000  0.26040000  1.0 -0.1963589458
C  C469  1  0.94420000  0.71720000  0.76040000  1.0 -0.1963589458
C  C470  1  0.76040000  0.94420000  0.71720000  1.0 -0.1963589458
C  C471  1  0.71720000  0.76040000  0.94420000  1.0 -0.1963589458
C  C472  1  0.78280000  0.23960000  0.44420000  1.0 -0.1963589458
C  C473  1  0.26040000  0.55580000  0.28280000  1.0 -0.1963589458
C  C474  1  0.28280000  0.26040000  0.55580000  1.0 -0.1963589458
C  C475  1  0.73960000  0.05580000  0.21720000  1.0 -0.1963589458
C  C476  1  0.23960000  0.44420000  0.78280000  1.0 -0.1963589458
C  C477  1  0.21720000  0.73960000  0.05580000  1.0 -0.1963589458
C  C478  1  0.55580000  0.28280000  0.26040000  1.0 -0.1963589458
C  C479  1  0.44420000  0.78280000  0.23960000  1.0 -0.1963589458
C  C480  1  0.05580000  0.21720000  0.73960000  1.0 -0.1963589458
C  C481  1  0.01186000  0.19913000  0.12500000  1.0 -0.0302047384
C  C482  1  0.12500000  0.01186000  0.19913000  1.0 -0.0302047384
C  C483  1  0.19913000  0.12500000  0.01186000  1.0 -0.0302047384
C  C484  1  0.30087000  0.87500000  0.51186000  1.0 -0.0302047384
C  C485  1  0.62500000  0.48814000  0.80087000  1.0 -0.0302047384
C  C486  1  0.80087000  0.62500000  0.48814000  1.0 -0.0302047384
C  C487  1  0.37500000  0.98814000  0.69913000  1.0 -0.0302047384
C  C488  1  0.87500000  0.51186000  0.30087000  1.0 -0.0302047384
C  C489  1  0.69913000  0.37500000  0.98814000  1.0 -0.0302047384
C  C490  1  0.48814000  0.80087000  0.62500000  1.0 -0.0302047384
C  C491  1  0.51186000  0.30087000  0.87500000  1.0 -0.0302047384
C  C492  1  0.98814000  0.69913000  0.37500000  1.0 -0.0302047384
C  C493  1  0.98814000  0.80087000  0.87500000  1.0 -0.0302047384
C  C494  1  0.87500000  0.98814000  0.80087000  1.0 -0.0302047384
C  C495  1  0.80087000  0.87500000  0.98814000  1.0 -0.0302047384
C  C496  1  0.69913000  0.12500000  0.48814000  1.0 -0.0302047384
C  C497  1  0.37500000  0.51186000  0.19913000  1.0 -0.0302047384
C  C498  1  0.19913000  0.37500000  0.51186000  1.0 -0.0302047384
C  C499  1  0.62500000  0.01186000  0.30087000  1.0 -0.0302047384
C  C500  1  0.12500000  0.48814000  0.69913000  1.0 -0.0302047384
C  C501  1  0.30087000  0.62500000  0.01186000  1.0 -0.0302047384
C  C502  1  0.51186000  0.19913000  0.37500000  1.0 -0.0302047384
C  C503  1  0.48814000  0.69913000  0.12500000  1.0 -0.0302047384
C  C504  1  0.01186000  0.30087000  0.62500000  1.0 -0.0302047384
C  C505  1  0.01795000  0.23100000  0.13740000  1.0 0.1317132582
C  C506  1  0.13740000  0.01795000  0.23100000  1.0 0.1317132582
C  C507  1  0.23100000  0.13740000  0.01795000  1.0 0.1317132582
C  C508  1  0.26900000  0.86260000  0.51795000  1.0 0.1317132582
C  C509  1  0.63740000  0.48205000  0.76900000  1.0 0.1317132582
C  C510  1  0.76900000  0.63740000  0.48205000  1.0 0.1317132582
C  C511  1  0.36260000  0.98205000  0.73100000  1.0 0.1317132582
C  C512  1  0.86260000  0.51795000  0.26900000  1.0 0.1317132582
C  C513  1  0.73100000  0.36260000  0.98205000  1.0 0.1317132582
C  C514  1  0.48205000  0.76900000  0.63740000  1.0 0.1317132582
C  C515  1  0.51795000  0.26900000  0.86260000  1.0 0.1317132582
C  C516  1  0.98205000  0.73100000  0.36260000  1.0 0.1317132582
C  C517  1  0.98205000  0.76900000  0.86260000  1.0 0.1317132582
C  C518  1  0.86260000  0.98205000  0.76900000  1.0 0.1317132582
C  C519  1  0.76900000  0.86260000  0.98205000  1.0 0.1317132582
C  C520  1  0.73100000  0.13740000  0.48205000  1.0 0.1317132582
C  C521  1  0.36260000  0.51795000  0.23100000  1.0 0.1317132582
C  C522  1  0.23100000  0.36260000  0.51795000  1.0 0.1317132582
C  C523  1  0.63740000  0.01795000  0.26900000  1.0 0.1317132582
C  C524  1  0.13740000  0.48205000  0.73100000  1.0 0.1317132582
C  C525  1  0.26900000  0.63740000  0.01795000  1.0 0.1317132582
C  C526  1  0.51795000  0.23100000  0.36260000  1.0 0.1317132582
C  C527  1  0.48205000  0.73100000  0.13740000  1.0 0.1317132582
C  C528  1  0.01795000  0.26900000  0.63740000  1.0 0.1317132582
C  C529  1  0.02820000  0.26016000  0.11403000  1.0 -0.1565548848
C  C530  1  0.11403000  0.02820000  0.26016000  1.0 -0.1565548848
C  C531  1  0.26016000  0.11403000  0.02820000  1.0 -0.1565548848
C  C532  1  0.23984000  0.88597000  0.52820000  1.0 -0.1565548848
C  C533  1  0.61403000  0.47180000  0.73984000  1.0 -0.1565548848
C  C534  1  0.73984000  0.61403000  0.47180000  1.0 -0.1565548848
C  C535  1  0.38597000  0.97180000  0.76016000  1.0 -0.1565548848
C  C536  1  0.88597000  0.52820000  0.23984000  1.0 -0.1565548848
C  C537  1  0.76016000  0.38597000  0.97180000  1.0 -0.1565548848
C  C538  1  0.47180000  0.73984000  0.61403000  1.0 -0.1565548848
C  C539  1  0.52820000  0.23984000  0.88597000  1.0 -0.1565548848
C  C540  1  0.97180000  0.76016000  0.38597000  1.0 -0.1565548848
C  C541  1  0.97180000  0.73984000  0.88597000  1.0 -0.1565548848
C  C542  1  0.88597000  0.97180000  0.73984000  1.0 -0.1565548848
C  C543  1  0.73984000  0.88597000  0.97180000  1.0 -0.1565548848
C  C544  1  0.76016000  0.11403000  0.47180000  1.0 -0.1565548848
C  C545  1  0.38597000  0.52820000  0.26016000  1.0 -0.1565548848
C  C546  1  0.26016000  0.38597000  0.52820000  1.0 -0.1565548848
C  C547  1  0.61403000  0.02820000  0.23984000  1.0 -0.1565548848
C  C548  1  0.11403000  0.47180000  0.76016000  1.0 -0.1565548848
C  C549  1  0.23984000  0.61403000  0.02820000  1.0 -0.1565548848
C  C550  1  0.52820000  0.26016000  0.38597000  1.0 -0.1565548848
C  C551  1  0.47180000  0.76016000  0.11403000  1.0 -0.1565548848
C  C552  1  0.02820000  0.23984000  0.61403000  1.0 -0.1565548848
C  C553  1  0.03077000  0.25416000  0.08320000  1.0 -0.0799874421
C  C554  1  0.08320000  0.03077000  0.25416000  1.0 -0.0799874421
C  C555  1  0.25416000  0.08320000  0.03077000  1.0 -0.0799874421
C  C556  1  0.24584000  0.91680000  0.53077000  1.0 -0.0799874421
C  C557  1  0.58320000  0.46923000  0.74584000  1.0 -0.0799874421
C  C558  1  0.74584000  0.58320000  0.46923000  1.0 -0.0799874421
C  C559  1  0.41680000  0.96923000  0.75416000  1.0 -0.0799874421
C  C560  1  0.91680000  0.53077000  0.24584000  1.0 -0.0799874421
C  C561  1  0.75416000  0.41680000  0.96923000  1.0 -0.0799874421
C  C562  1  0.46923000  0.74584000  0.58320000  1.0 -0.0799874421
C  C563  1  0.53077000  0.24584000  0.91680000  1.0 -0.0799874421
C  C564  1  0.96923000  0.75416000  0.41680000  1.0 -0.0799874421
C  C565  1  0.96923000  0.74584000  0.91680000  1.0 -0.0799874421
C  C566  1  0.91680000  0.96923000  0.74584000  1.0 -0.0799874421
C  C567  1  0.74584000  0.91680000  0.96923000  1.0 -0.0799874421
C  C568  1  0.75416000  0.08320000  0.46923000  1.0 -0.0799874421
C  C569  1  0.41680000  0.53077000  0.25416000  1.0 -0.0799874421
C  C570  1  0.25416000  0.41680000  0.53077000  1.0 -0.0799874421
C  C571  1  0.58320000  0.03077000  0.24584000  1.0 -0.0799874421
C  C572  1  0.08320000  0.46923000  0.75416000  1.0 -0.0799874421
C  C573  1  0.24584000  0.58320000  0.03077000  1.0 -0.0799874421
C  C574  1  0.53077000  0.25416000  0.41680000  1.0 -0.0799874421
C  C575  1  0.46923000  0.75416000  0.08320000  1.0 -0.0799874421
C  C576  1  0.03077000  0.24584000  0.58320000  1.0 -0.0799874421
C  C577  1  0.02433000  0.22051000  0.07009000  1.0 0.0098845309
C  C578  1  0.07009000  0.02433000  0.22051000  1.0 0.0098845309
C  C579  1  0.22051000  0.07009000  0.02433000  1.0 0.0098845309
C  C580  1  0.27949000  0.92991000  0.52433000  1.0 0.0098845309
C  C581  1  0.57009000  0.47567000  0.77949000  1.0 0.0098845309
C  C582  1  0.77949000  0.57009000  0.47567000  1.0 0.0098845309
C  C583  1  0.42991000  0.97567000  0.72051000  1.0 0.0098845309
C  C584  1  0.92991000  0.52433000  0.27949000  1.0 0.0098845309
C  C585  1  0.72051000  0.42991000  0.97567000  1.0 0.0098845309
C  C586  1  0.47567000  0.77949000  0.57009000  1.0 0.0098845309
C  C587  1  0.52433000  0.27949000  0.92991000  1.0 0.0098845309
C  C588  1  0.97567000  0.72051000  0.42991000  1.0 0.0098845309
C  C589  1  0.97567000  0.77949000  0.92991000  1.0 0.0098845309
C  C590  1  0.92991000  0.97567000  0.77949000  1.0 0.0098845309
C  C591  1  0.77949000  0.92991000  0.97567000  1.0 0.0098845309
C  C592  1  0.72051000  0.07009000  0.47567000  1.0 0.0098845309
C  C593  1  0.42991000  0.52433000  0.22051000  1.0 0.0098845309
C  C594  1  0.22051000  0.42991000  0.52433000  1.0 0.0098845309
C  C595  1  0.57009000  0.02433000  0.27949000  1.0 0.0098845309
C  C596  1  0.07009000  0.47567000  0.72051000  1.0 0.0098845309
C  C597  1  0.27949000  0.57009000  0.02433000  1.0 0.0098845309
C  C598  1  0.52433000  0.22051000  0.42991000  1.0 0.0098845309
C  C599  1  0.47567000  0.72051000  0.07009000  1.0 0.0098845309
C  C600  1  0.02433000  0.27949000  0.57009000  1.0 0.0098845309
C  C601  1  0.01505000  0.19351000  0.09076000  1.0 -0.1507019776
C  C602  1  0.09076000  0.01505000  0.19351000  1.0 -0.1507019776
C  C603  1  0.19351000  0.09076000  0.01505000  1.0 -0.1507019776
C  C604  1  0.30649000  0.90924000  0.51505000  1.0 -0.1507019776
C  C605  1  0.59076000  0.48495000  0.80649000  1.0 -0.1507019776
C  C606  1  0.80649000  0.59076000  0.48495000  1.0 -0.1507019776
C  C607  1  0.40924000  0.98495000  0.69351000  1.0 -0.1507019776
C  C608  1  0.90924000  0.51505000  0.30649000  1.0 -0.1507019776
C  C609  1  0.69351000  0.40924000  0.98495000  1.0 -0.1507019776
C  C610  1  0.48495000  0.80649000  0.59076000  1.0 -0.1507019776
C  C611  1  0.51505000  0.30649000  0.90924000  1.0 -0.1507019776
C  C612  1  0.98495000  0.69351000  0.40924000  1.0 -0.1507019776
C  C613  1  0.98495000  0.80649000  0.90924000  1.0 -0.1507019776
C  C614  1  0.90924000  0.98495000  0.80649000  1.0 -0.1507019776
C  C615  1  0.80649000  0.90924000  0.98495000  1.0 -0.1507019776
C  C616  1  0.69351000  0.09076000  0.48495000  1.0 -0.1507019776
C  C617  1  0.40924000  0.51505000  0.19351000  1.0 -0.1507019776
C  C618  1  0.19351000  0.40924000  0.51505000  1.0 -0.1507019776
C  C619  1  0.59076000  0.01505000  0.30649000  1.0 -0.1507019776
C  C620  1  0.09076000  0.48495000  0.69351000  1.0 -0.1507019776
C  C621  1  0.30649000  0.59076000  0.01505000  1.0 -0.1507019776
C  C622  1  0.51505000  0.19351000  0.40924000  1.0 -0.1507019776
C  C623  1  0.48495000  0.69351000  0.09076000  1.0 -0.1507019776
C  C624  1  0.01505000  0.30649000  0.59076000  1.0 -0.1507019776
C  C625  1  0.02848000  0.21431000  0.03194000  1.0 0.5781795054
C  C626  1  0.03194000  0.02848000  0.21431000  1.0 0.5781795054
C  C627  1  0.21431000  0.03194000  0.02848000  1.0 0.5781795054
C  C628  1  0.28569000  0.96806000  0.52848000  1.0 0.5781795054
C  C629  1  0.53194000  0.47152000  0.78569000  1.0 0.5781795054
C  C630  1  0.78569000  0.53194000  0.47152000  1.0 0.5781795054
C  C631  1  0.46806000  0.97152000  0.71431000  1.0 0.5781795054
C  C632  1  0.96806000  0.52848000  0.28569000  1.0 0.5781795054
C  C633  1  0.71431000  0.46806000  0.97152000  1.0 0.5781795054
C  C634  1  0.47152000  0.78569000  0.53194000  1.0 0.5781795054
C  C635  1  0.52848000  0.28569000  0.96806000  1.0 0.5781795054
C  C636  1  0.97152000  0.71431000  0.46806000  1.0 0.5781795054
C  C637  1  0.97152000  0.78569000  0.96806000  1.0 0.5781795054
C  C638  1  0.96806000  0.97152000  0.78569000  1.0 0.5781795054
C  C639  1  0.78569000  0.96806000  0.97152000  1.0 0.5781795054
C  C640  1  0.71431000  0.03194000  0.47152000  1.0 0.5781795054
C  C641  1  0.46806000  0.52848000  0.21431000  1.0 0.5781795054
C  C642  1  0.21431000  0.46806000  0.52848000  1.0 0.5781795054
C  C643  1  0.53194000  0.02848000  0.28569000  1.0 0.5781795054
C  C644  1  0.03194000  0.47152000  0.71431000  1.0 0.5781795054
C  C645  1  0.28569000  0.53194000  0.02848000  1.0 0.5781795054
C  C646  1  0.52848000  0.21431000  0.46806000  1.0 0.5781795054
C  C647  1  0.47152000  0.71431000  0.03194000  1.0 0.5781795054
C  C648  1  0.02848000  0.28569000  0.53194000  1.0 0.5781795054
C  C649  1  0.99445000  0.14671000  0.15848000  1.0 -0.0995737298
C  C650  1  0.15848000  0.99445000  0.14671000  1.0 -0.0995737298
C  C651  1  0.14671000  0.15848000  0.99445000  1.0 -0.0995737298
C  C652  1  0.35329000  0.84152000  0.49445000  1.0 -0.0995737298
C  C653  1  0.65848000  0.50555000  0.85329000  1.0 -0.0995737298
C  C654  1  0.85329000  0.65848000  0.50555000  1.0 -0.0995737298
C  C655  1  0.34152000  0.00555000  0.64671000  1.0 -0.0995737298
C  C656  1  0.84152000  0.49445000  0.35329000  1.0 -0.0995737298
C  C657  1  0.64671000  0.34152000  0.00555000  1.0 -0.0995737298
C  C658  1  0.50555000  0.85329000  0.65848000  1.0 -0.0995737298
C  C659  1  0.49445000  0.35329000  0.84152000  1.0 -0.0995737298
C  C660  1  0.00555000  0.64671000  0.34152000  1.0 -0.0995737298
C  C661  1  0.00555000  0.85329000  0.84152000  1.0 -0.0995737298
C  C662  1  0.84152000  0.00555000  0.85329000  1.0 -0.0995737298
C  C663  1  0.85329000  0.84152000  0.00555000  1.0 -0.0995737298
C  C664  1  0.64671000  0.15848000  0.50555000  1.0 -0.0995737298
C  C665  1  0.34152000  0.49445000  0.14671000  1.0 -0.0995737298
C  C666  1  0.14671000  0.34152000  0.49445000  1.0 -0.0995737298
C  C667  1  0.65848000  0.99445000  0.35329000  1.0 -0.0995737298
C  C668  1  0.15848000  0.50555000  0.64671000  1.0 -0.0995737298
C  C669  1  0.35329000  0.65848000  0.99445000  1.0 -0.0995737298
C  C670  1  0.49445000  0.14671000  0.34152000  1.0 -0.0995737298
C  C671  1  0.50555000  0.64671000  0.15848000  1.0 -0.0995737298
C  C672  1  0.99445000  0.35329000  0.65848000  1.0 -0.0995737298
C  C673  1  0.00359000  0.18012000  0.15188000  1.0 -0.0200219471
C  C674  1  0.15188000  0.00359000  0.18012000  1.0 -0.0200219471
C  C675  1  0.18012000  0.15188000  0.00359000  1.0 -0.0200219471
C  C676  1  0.31988000  0.84812000  0.50359000  1.0 -0.0200219471
C  C677  1  0.65188000  0.49641000  0.81988000  1.0 -0.0200219471
C  C678  1  0.81988000  0.65188000  0.49641000  1.0 -0.0200219471
C  C679  1  0.34812000  0.99641000  0.68012000  1.0 -0.0200219471
C  C680  1  0.84812000  0.50359000  0.31988000  1.0 -0.0200219471
C  C681  1  0.68012000  0.34812000  0.99641000  1.0 -0.0200219471
C  C682  1  0.49641000  0.81988000  0.65188000  1.0 -0.0200219471
C  C683  1  0.50359000  0.31988000  0.84812000  1.0 -0.0200219471
C  C684  1  0.99641000  0.68012000  0.34812000  1.0 -0.0200219471
C  C685  1  0.99641000  0.81988000  0.84812000  1.0 -0.0200219471
C  C686  1  0.84812000  0.99641000  0.81988000  1.0 -0.0200219471
C  C687  1  0.81988000  0.84812000  0.99641000  1.0 -0.0200219471
C  C688  1  0.68012000  0.15188000  0.49641000  1.0 -0.0200219471
C  C689  1  0.34812000  0.50359000  0.18012000  1.0 -0.0200219471
C  C690  1  0.18012000  0.34812000  0.50359000  1.0 -0.0200219471
C  C691  1  0.65188000  0.00359000  0.31988000  1.0 -0.0200219471
C  C692  1  0.15188000  0.49641000  0.68012000  1.0 -0.0200219471
C  C693  1  0.31988000  0.65188000  0.00359000  1.0 -0.0200219471
C  C694  1  0.50359000  0.18012000  0.34812000  1.0 -0.0200219471
C  C695  1  0.49641000  0.68012000  0.15188000  1.0 -0.0200219471
C  C696  1  0.00359000  0.31988000  0.65188000  1.0 -0.0200219471
C  C697  1  0.00483000  0.20250000  0.18250000  1.0 0.0564867665
C  C698  1  0.18250000  0.00483000  0.20250000  1.0 0.0564867665
C  C699  1  0.20250000  0.18250000  0.00483000  1.0 0.0564867665
C  C700  1  0.29750000  0.81750000  0.50483000  1.0 0.0564867665
C  C701  1  0.68250000  0.49517000  0.79750000  1.0 0.0564867665
C  C702  1  0.79750000  0.68250000  0.49517000  1.0 0.0564867665
C  C703  1  0.31750000  0.99517000  0.70250000  1.0 0.0564867665
C  C704  1  0.81750000  0.50483000  0.29750000  1.0 0.0564867665
C  C705  1  0.70250000  0.31750000  0.99517000  1.0 0.0564867665
C  C706  1  0.49517000  0.79750000  0.68250000  1.0 0.0564867665
C  C707  1  0.50483000  0.29750000  0.81750000  1.0 0.0564867665
C  C708  1  0.99517000  0.70250000  0.31750000  1.0 0.0564867665
C  C709  1  0.99517000  0.79750000  0.81750000  1.0 0.0564867665
C  C710  1  0.81750000  0.99517000  0.79750000  1.0 0.0564867665
C  C711  1  0.79750000  0.81750000  0.99517000  1.0 0.0564867665
C  C712  1  0.70250000  0.18250000  0.49517000  1.0 0.0564867665
C  C713  1  0.31750000  0.50483000  0.20250000  1.0 0.0564867665
C  C714  1  0.20250000  0.31750000  0.50483000  1.0 0.0564867665
C  C715  1  0.68250000  0.00483000  0.29750000  1.0 0.0564867665
C  C716  1  0.18250000  0.49517000  0.70250000  1.0 0.0564867665
C  C717  1  0.29750000  0.68250000  0.00483000  1.0 0.0564867665
C  C718  1  0.50483000  0.20250000  0.31750000  1.0 0.0564867665
C  C719  1  0.49517000  0.70250000  0.18250000  1.0 0.0564867665
C  C720  1  0.00483000  0.29750000  0.68250000  1.0 0.0564867665
C  C721  1  0.99702000  0.18691000  0.21381000  1.0 -0.1695134335
C  C722  1  0.21381000  0.99702000  0.18691000  1.0 -0.1695134335
C  C723  1  0.18691000  0.21381000  0.99702000  1.0 -0.1695134335
C  C724  1  0.31309000  0.78619000  0.49702000  1.0 -0.1695134335
C  C725  1  0.71381000  0.50298000  0.81309000  1.0 -0.1695134335
C  C726  1  0.81309000  0.71381000  0.50298000  1.0 -0.1695134335
C  C727  1  0.28619000  0.00298000  0.68691000  1.0 -0.1695134335
C  C728  1  0.78619000  0.49702000  0.31309000  1.0 -0.1695134335
C  C729  1  0.68691000  0.28619000  0.00298000  1.0 -0.1695134335
C  C730  1  0.50298000  0.81309000  0.71381000  1.0 -0.1695134335
C  C731  1  0.49702000  0.31309000  0.78619000  1.0 -0.1695134335
C  C732  1  0.00298000  0.68691000  0.28619000  1.0 -0.1695134335
C  C733  1  0.00298000  0.81309000  0.78619000  1.0 -0.1695134335
C  C734  1  0.78619000  0.00298000  0.81309000  1.0 -0.1695134335
C  C735  1  0.81309000  0.78619000  0.00298000  1.0 -0.1695134335
C  C736  1  0.68691000  0.21381000  0.50298000  1.0 -0.1695134335
C  C737  1  0.28619000  0.49702000  0.18691000  1.0 -0.1695134335
C  C738  1  0.18691000  0.28619000  0.49702000  1.0 -0.1695134335
C  C739  1  0.71381000  0.99702000  0.31309000  1.0 -0.1695134335
C  C740  1  0.21381000  0.50298000  0.68691000  1.0 -0.1695134335
C  C741  1  0.31309000  0.71381000  0.99702000  1.0 -0.1695134335
C  C742  1  0.49702000  0.18691000  0.28619000  1.0 -0.1695134335
C  C743  1  0.50298000  0.68691000  0.21381000  1.0 -0.1695134335
C  C744  1  0.99702000  0.31309000  0.71381000  1.0 -0.1695134335
C  C745  1  0.98904000  0.15622000  0.21676000  1.0 -0.0597575894
C  C746  1  0.21676000  0.98904000  0.15622000  1.0 -0.0597575894
C  C747  1  0.15622000  0.21676000  0.98904000  1.0 -0.0597575894
C  C748  1  0.34378000  0.78324000  0.48904000  1.0 -0.0597575894
C  C749  1  0.71676000  0.51096000  0.84378000  1.0 -0.0597575894
C  C750  1  0.84378000  0.71676000  0.51096000  1.0 -0.0597575894
C  C751  1  0.28324000  0.01096000  0.65622000  1.0 -0.0597575894
C  C752  1  0.78324000  0.48904000  0.34378000  1.0 -0.0597575894
C  C753  1  0.65622000  0.28324000  0.01096000  1.0 -0.0597575894
C  C754  1  0.51096000  0.84378000  0.71676000  1.0 -0.0597575894
C  C755  1  0.48904000  0.34378000  0.78324000  1.0 -0.0597575894
C  C756  1  0.01096000  0.65622000  0.28324000  1.0 -0.0597575894
C  C757  1  0.01096000  0.84378000  0.78324000  1.0 -0.0597575894
C  C758  1  0.78324000  0.01096000  0.84378000  1.0 -0.0597575894
C  C759  1  0.84378000  0.78324000  0.01096000  1.0 -0.0597575894
C  C760  1  0.65622000  0.21676000  0.51096000  1.0 -0.0597575894
C  C761  1  0.28324000  0.48904000  0.15622000  1.0 -0.0597575894
C  C762  1  0.15622000  0.28324000  0.48904000  1.0 -0.0597575894
C  C763  1  0.71676000  0.98904000  0.34378000  1.0 -0.0597575894
C  C764  1  0.21676000  0.51096000  0.65622000  1.0 -0.0597575894
C  C765  1  0.34378000  0.71676000  0.98904000  1.0 -0.0597575894
C  C766  1  0.48904000  0.15622000  0.28324000  1.0 -0.0597575894
C  C767  1  0.51096000  0.65622000  0.21676000  1.0 -0.0597575894
C  C768  1  0.98904000  0.34378000  0.71676000  1.0 -0.0597575894
C  C769  1  0.98688000  0.13237000  0.18860000  1.0 -0.0893803924
C  C770  1  0.18860000  0.98688000  0.13237000  1.0 -0.0893803924
C  C771  1  0.13237000  0.18860000  0.98688000  1.0 -0.0893803924
C  C772  1  0.36763000  0.81140000  0.48688000  1.0 -0.0893803924
C  C773  1  0.68860000  0.51312000  0.86763000  1.0 -0.0893803924
C  C774  1  0.86763000  0.68860000  0.51312000  1.0 -0.0893803924
C  C775  1  0.31140000  0.01312000  0.63237000  1.0 -0.0893803924
C  C776  1  0.81140000  0.48688000  0.36763000  1.0 -0.0893803924
C  C777  1  0.63237000  0.31140000  0.01312000  1.0 -0.0893803924
C  C778  1  0.51312000  0.86763000  0.68860000  1.0 -0.0893803924
C  C779  1  0.48688000  0.36763000  0.81140000  1.0 -0.0893803924
C  C780  1  0.01312000  0.63237000  0.31140000  1.0 -0.0893803924
C  C781  1  0.01312000  0.86763000  0.81140000  1.0 -0.0893803924
C  C782  1  0.81140000  0.01312000  0.86763000  1.0 -0.0893803924
C  C783  1  0.86763000  0.81140000  0.01312000  1.0 -0.0893803924
C  C784  1  0.63237000  0.18860000  0.51312000  1.0 -0.0893803924
C  C785  1  0.31140000  0.48688000  0.13237000  1.0 -0.0893803924
C  C786  1  0.13237000  0.31140000  0.48688000  1.0 -0.0893803924
C  C787  1  0.68860000  0.98688000  0.36763000  1.0 -0.0893803924
C  C788  1  0.18860000  0.51312000  0.63237000  1.0 -0.0893803924
C  C789  1  0.36763000  0.68860000  0.98688000  1.0 -0.0893803924
C  C790  1  0.48688000  0.13237000  0.31140000  1.0 -0.0893803924
C  C791  1  0.51312000  0.63237000  0.18860000  1.0 -0.0893803924
C  C792  1  0.98688000  0.36763000  0.68860000  1.0 -0.0893803924
C  C793  1  0.97838000  0.09916000  0.19289000  1.0 0.5148359184
C  C794  1  0.19289000  0.97838000  0.09916000  1.0 0.5148359184
C  C795  1  0.09916000  0.19289000  0.97838000  1.0 0.5148359184
C  C796  1  0.40084000  0.80711000  0.47838000  1.0 0.5148359184
C  C797  1  0.69289000  0.52162000  0.90084000  1.0 0.5148359184
C  C798  1  0.90084000  0.69289000  0.52162000  1.0 0.5148359184
C  C799  1  0.30711000  0.02162000  0.59916000  1.0 0.5148359184
C  C800  1  0.80711000  0.47838000  0.40084000  1.0 0.5148359184
C  C801  1  0.59916000  0.30711000  0.02162000  1.0 0.5148359184
C  C802  1  0.52162000  0.90084000  0.69289000  1.0 0.5148359184
C  C803  1  0.47838000  0.40084000  0.80711000  1.0 0.5148359184
C  C804  1  0.02162000  0.59916000  0.30711000  1.0 0.5148359184
C  C805  1  0.02162000  0.90084000  0.80711000  1.0 0.5148359184
C  C806  1  0.80711000  0.02162000  0.90084000  1.0 0.5148359184
C  C807  1  0.90084000  0.80711000  0.02162000  1.0 0.5148359184
C  C808  1  0.59916000  0.19289000  0.52162000  1.0 0.5148359184
C  C809  1  0.30711000  0.47838000  0.09916000  1.0 0.5148359184
C  C810  1  0.09916000  0.30711000  0.47838000  1.0 0.5148359184
C  C811  1  0.69289000  0.97838000  0.40084000  1.0 0.5148359184
C  C812  1  0.19289000  0.52162000  0.59916000  1.0 0.5148359184
C  C813  1  0.40084000  0.69289000  0.97838000  1.0 0.5148359184
C  C814  1  0.47838000  0.09916000  0.30711000  1.0 0.5148359184
C  C815  1  0.52162000  0.59916000  0.19289000  1.0 0.5148359184
C  C816  1  0.97838000  0.40084000  0.69289000  1.0 0.5148359184
N  N1  1  0.03599000  0.33305000  0.26581000  1.0 -0.0799874421
N  N2  1  0.26581000  0.03599000  0.33305000  1.0 -0.0799874421
N  N3  1  0.33305000  0.26581000  0.03599000  1.0 -0.0799874421
N  N4  1  0.16695000  0.73419000  0.53599000  1.0 -0.0799874421
N  N5  1  0.76581000  0.46401000  0.66695000  1.0 -0.0799874421
N  N6  1  0.66695000  0.76581000  0.46401000  1.0 -0.0799874421
N  N7  1  0.23419000  0.96401000  0.83305000  1.0 -0.0799874421
N  N8  1  0.73419000  0.53599000  0.16695000  1.0 -0.0799874421
N  N9  1  0.83305000  0.23419000  0.96401000  1.0 -0.0799874421
N  N10  1  0.46401000  0.66695000  0.76581000  1.0 -0.0799874421
N  N11  1  0.53599000  0.16695000  0.73419000  1.0 -0.0799874421
N  N12  1  0.96401000  0.83305000  0.23419000  1.0 -0.0799874421
N  N13  1  0.96401000  0.66695000  0.73419000  1.0 -0.0799874421
N  N14  1  0.73419000  0.96401000  0.66695000  1.0 -0.0799874421
N  N15  1  0.66695000  0.73419000  0.96401000  1.0 -0.0799874421
N  N16  1  0.83305000  0.26581000  0.46401000  1.0 -0.0799874421
N  N17  1  0.23419000  0.53599000  0.33305000  1.0 -0.0799874421
N  N18  1  0.33305000  0.23419000  0.53599000  1.0 -0.0799874421
N  N19  1  0.76581000  0.03599000  0.16695000  1.0 -0.0799874421
N  N20  1  0.26581000  0.46401000  0.83305000  1.0 -0.0799874421
N  N21  1  0.16695000  0.76581000  0.03599000  1.0 -0.0799874421
N  N22  1  0.53599000  0.33305000  0.23419000  1.0 -0.0799874421
N  N23  1  0.46401000  0.83305000  0.26581000  1.0 -0.0799874421
N  N24  1  0.03599000  0.16695000  0.76581000  1.0 -0.0799874421
N  N25  1  0.01403000  0.23230000  0.16940000  1.0 -0.0597575894
N  N26  1  0.16940000  0.01403000  0.23230000  1.0 -0.0597575894
N  N27  1  0.23230000  0.16940000  0.01403000  1.0 -0.0597575894
N  N28  1  0.26770000  0.83060000  0.51403000  1.0 -0.0597575894
N  N29  1  0.66940000  0.48597000  0.76770000  1.0 -0.0597575894
N  N30  1  0.76770000  0.66940000  0.48597000  1.0 -0.0597575894
N  N31  1  0.33060000  0.98597000  0.73230000  1.0 -0.0597575894
N  N32  1  0.83060000  0.51403000  0.26770000  1.0 -0.0597575894
N  N33  1  0.73230000  0.33060000  0.98597000  1.0 -0.0597575894
N  N34  1  0.48597000  0.76770000  0.66940000  1.0 -0.0597575894
N  N35  1  0.51403000  0.26770000  0.83060000  1.0 -0.0597575894
N  N36  1  0.98597000  0.73230000  0.33060000  1.0 -0.0597575894
N  N37  1  0.98597000  0.76770000  0.83060000  1.0 -0.0597575894
N  N38  1  0.83060000  0.98597000  0.76770000  1.0 -0.0597575894
N  N39  1  0.76770000  0.83060000  0.98597000  1.0 -0.0597575894
N  N40  1  0.73230000  0.16940000  0.48597000  1.0 -0.0597575894
N  N41  1  0.33060000  0.51403000  0.23230000  1.0 -0.0597575894
N  N42  1  0.23230000  0.33060000  0.51403000  1.0 -0.0597575894
N  N43  1  0.66940000  0.01403000  0.26770000  1.0 -0.0597575894
N  N44  1  0.16940000  0.48597000  0.73230000  1.0 -0.0597575894
N  N45  1  0.26770000  0.66940000  0.01403000  1.0 -0.0597575894
N  N46  1  0.51403000  0.23230000  0.33060000  1.0 -0.0597575894
N  N47  1  0.48597000  0.73230000  0.16940000  1.0 -0.0597575894
N  N48  1  0.01403000  0.26770000  0.66940000  1.0 -0.0597575894
O  O1  1  0.03368000  0.48148000  0.31775000  1.0 -0.5488296207
O  O2  1  0.31775000  0.03368000  0.48148000  1.0 -0.5488296207
O  O3  1  0.48148000  0.31775000  0.03368000  1.0 -0.5488296207
O  O4  1  0.01852000  0.68225000  0.53368000  1.0 -0.5488296207
O  O5  1  0.81775000  0.46632000  0.51852000  1.0 -0.5488296207
O  O6  1  0.51852000  0.81775000  0.46632000  1.0 -0.5488296207
O  O7  1  0.18225000  0.96632000  0.98148000  1.0 -0.5488296207
O  O8  1  0.68225000  0.53368000  0.01852000  1.0 -0.5488296207
O  O9  1  0.98148000  0.18225000  0.96632000  1.0 -0.5488296207
O  O10  1  0.46632000  0.51852000  0.81775000  1.0 -0.5488296207
O  O11  1  0.53368000  0.01852000  0.68225000  1.0 -0.5488296207
O  O12  1  0.96632000  0.98148000  0.18225000  1.0 -0.5488296207
O  O13  1  0.96632000  0.51852000  0.68225000  1.0 -0.5488296207
O  O14  1  0.68225000  0.96632000  0.51852000  1.0 -0.5488296207
O  O15  1  0.51852000  0.68225000  0.96632000  1.0 -0.5488296207
O  O16  1  0.98148000  0.31775000  0.46632000  1.0 -0.5488296207
O  O17  1  0.18225000  0.53368000  0.48148000  1.0 -0.5488296207
O  O18  1  0.48148000  0.18225000  0.53368000  1.0 -0.5488296207
O  O19  1  0.81775000  0.03368000  0.01852000  1.0 -0.5488296207
O  O20  1  0.31775000  0.46632000  0.98148000  1.0 -0.5488296207
O  O21  1  0.01852000  0.81775000  0.03368000  1.0 -0.5488296207
O  O22  1  0.53368000  0.48148000  0.18225000  1.0 -0.5488296207
O  O23  1  0.46632000  0.98148000  0.31775000  1.0 -0.5488296207
O  O24  1  0.03368000  0.01852000  0.81775000  1.0 -0.5488296207
O  O25  1  0.03498000  0.49361000  0.25905000  1.0 -0.5366346593
O  O26  1  0.25905000  0.03498000  0.49361000  1.0 -0.5366346593
O  O27  1  0.49361000  0.25905000  0.03498000  1.0 -0.5366346593
O  O28  1  0.00639000  0.74095000  0.53498000  1.0 -0.5366346593
O  O29  1  0.75905000  0.46502000  0.50639000  1.0 -0.5366346593
O  O30  1  0.50639000  0.75905000  0.46502000  1.0 -0.5366346593
O  O31  1  0.24095000  0.96502000  0.99361000  1.0 -0.5366346593
O  O32  1  0.74095000  0.53498000  0.00639000  1.0 -0.5366346593
O  O33  1  0.99361000  0.24095000  0.96502000  1.0 -0.5366346593
O  O34  1  0.46502000  0.50639000  0.75905000  1.0 -0.5366346593
O  O35  1  0.53498000  0.00639000  0.74095000  1.0 -0.5366346593
O  O36  1  0.96502000  0.99361000  0.24095000  1.0 -0.5366346593
O  O37  1  0.96502000  0.50639000  0.74095000  1.0 -0.5366346593
O  O38  1  0.74095000  0.96502000  0.50639000  1.0 -0.5366346593
O  O39  1  0.50639000  0.74095000  0.96502000  1.0 -0.5366346593
O  O40  1  0.99361000  0.25905000  0.46502000  1.0 -0.5366346593
O  O41  1  0.24095000  0.53498000  0.49361000  1.0 -0.5366346593
O  O42  1  0.49361000  0.24095000  0.53498000  1.0 -0.5366346593
O  O43  1  0.75905000  0.03498000  0.00639000  1.0 -0.5366346593
O  O44  1  0.25905000  0.46502000  0.99361000  1.0 -0.5366346593
O  O45  1  0.00639000  0.75905000  0.03498000  1.0 -0.5366346593
O  O46  1  0.53498000  0.49361000  0.24095000  1.0 -0.5366346593
O  O47  1  0.46502000  0.99361000  0.25905000  1.0 -0.5366346593
O  O48  1  0.03498000  0.00639000  0.75905000  1.0 -0.5366346593
O  O49  1  0.03757000  0.33318000  0.42595000  1.0 -0.5202040356
O  O50  1  0.42595000  0.03757000  0.33318000  1.0 -0.5202040356
O  O51  1  0.33318000  0.42595000  0.03757000  1.0 -0.5202040356
O  O52  1  0.16682000  0.57405000  0.53757000  1.0 -0.5202040356
O  O53  1  0.92595000  0.46243000  0.66682000  1.0 -0.5202040356
O  O54  1  0.66682000  0.92595000  0.46243000  1.0 -0.5202040356
O  O55  1  0.07405000  0.96243000  0.83318000  1.0 -0.5202040356
O  O56  1  0.57405000  0.53757000  0.16682000  1.0 -0.5202040356
O  O57  1  0.83318000  0.07405000  0.96243000  1.0 -0.5202040356
O  O58  1  0.46243000  0.66682000  0.92595000  1.0 -0.5202040356
O  O59  1  0.53757000  0.16682000  0.57405000  1.0 -0.5202040356
O  O60  1  0.96243000  0.83318000  0.07405000  1.0 -0.5202040356
O  O61  1  0.96243000  0.66682000  0.57405000  1.0 -0.5202040356
O  O62  1  0.57405000  0.96243000  0.66682000  1.0 -0.5202040356
O  O63  1  0.66682000  0.57405000  0.96243000  1.0 -0.5202040356
O  O64  1  0.83318000  0.42595000  0.46243000  1.0 -0.5202040356
O  O65  1  0.07405000  0.53757000  0.33318000  1.0 -0.5202040356
O  O66  1  0.33318000  0.07405000  0.53757000  1.0 -0.5202040356
O  O67  1  0.92595000  0.03757000  0.16682000  1.0 -0.5202040356
O  O68  1  0.42595000  0.46243000  0.83318000  1.0 -0.5202040356
O  O69  1  0.16682000  0.92595000  0.03757000  1.0 -0.5202040356
O  O70  1  0.53757000  0.33318000  0.07405000  1.0 -0.5202040356
O  O71  1  0.46243000  0.83318000  0.42595000  1.0 -0.5202040356
O  O72  1  0.03757000  0.16682000  0.92595000  1.0 -0.5202040356
O  O73  1  0.03980000  0.27697000  0.41716000  1.0 -0.5202040356
O  O74  1  0.41716000  0.03980000  0.27697000  1.0 -0.5202040356
O  O75  1  0.27697000  0.41716000  0.03980000  1.0 -0.5202040356
O  O76  1  0.22303000  0.58284000  0.53980000  1.0 -0.5202040356
O  O77  1  0.91716000  0.46020000  0.72303000  1.0 -0.5202040356
O  O78  1  0.72303000  0.91716000  0.46020000  1.0 -0.5202040356
O  O79  1  0.08284000  0.96020000  0.77697000  1.0 -0.5202040356
O  O80  1  0.58284000  0.53980000  0.22303000  1.0 -0.5202040356
O  O81  1  0.77697000  0.08284000  0.96020000  1.0 -0.5202040356
O  O82  1  0.46020000  0.72303000  0.91716000  1.0 -0.5202040356
O  O83  1  0.53980000  0.22303000  0.58284000  1.0 -0.5202040356
O  O84  1  0.96020000  0.77697000  0.08284000  1.0 -0.5202040356
O  O85  1  0.96020000  0.72303000  0.58284000  1.0 -0.5202040356
O  O86  1  0.58284000  0.96020000  0.72303000  1.0 -0.5202040356
O  O87  1  0.72303000  0.58284000  0.96020000  1.0 -0.5202040356
O  O88  1  0.77697000  0.41716000  0.46020000  1.0 -0.5202040356
O  O89  1  0.08284000  0.53980000  0.27697000  1.0 -0.5202040356
O  O90  1  0.27697000  0.08284000  0.53980000  1.0 -0.5202040356
O  O91  1  0.91716000  0.03980000  0.22303000  1.0 -0.5202040356
O  O92  1  0.41716000  0.46020000  0.77697000  1.0 -0.5202040356
O  O93  1  0.22303000  0.91716000  0.03980000  1.0 -0.5202040356
O  O94  1  0.53980000  0.27697000  0.08284000  1.0 -0.5202040356
O  O95  1  0.46020000  0.77697000  0.41716000  1.0 -0.5202040356
O  O96  1  0.03980000  0.22303000  0.91716000  1.0 -0.5202040356
O  O97  1  0.03806000  0.23948000  0.01362000  1.0 -0.5252997088
O  O98  1  0.01362000  0.03806000  0.23948000  1.0 -0.5252997088
O  O99  1  0.23948000  0.01362000  0.03806000  1.0 -0.5252997088
O  O100  1  0.26052000  0.98638000  0.53806000  1.0 -0.5252997088
O  O101  1  0.51362000  0.46194000  0.76052000  1.0 -0.5252997088
O  O102  1  0.76052000  0.51362000  0.46194000  1.0 -0.5252997088
O  O103  1  0.48638000  0.96194000  0.73948000  1.0 -0.5252997088
O  O104  1  0.98638000  0.53806000  0.26052000  1.0 -0.5252997088
O  O105  1  0.73948000  0.48638000  0.96194000  1.0 -0.5252997088
O  O106  1  0.46194000  0.76052000  0.51362000  1.0 -0.5252997088
O  O107  1  0.53806000  0.26052000  0.98638000  1.0 -0.5252997088
O  O108  1  0.96194000  0.73948000  0.48638000  1.0 -0.5252997088
O  O109  1  0.96194000  0.76052000  0.98638000  1.0 -0.5252997088
O  O110  1  0.98638000  0.96194000  0.76052000  1.0 -0.5252997088
O  O111  1  0.76052000  0.98638000  0.96194000  1.0 -0.5252997088
O  O112  1  0.73948000  0.01362000  0.46194000  1.0 -0.5252997088
O  O113  1  0.48638000  0.53806000  0.23948000  1.0 -0.5252997088
O  O114  1  0.23948000  0.48638000  0.53806000  1.0 -0.5252997088
O  O115  1  0.51362000  0.03806000  0.26052000  1.0 -0.5252997088
O  O116  1  0.01362000  0.46194000  0.73948000  1.0 -0.5252997088
O  O117  1  0.26052000  0.51362000  0.03806000  1.0 -0.5252997088
O  O118  1  0.53806000  0.23948000  0.48638000  1.0 -0.5252997088
O  O119  1  0.46194000  0.73948000  0.01362000  1.0 -0.5202040356
O  O120  1  0.03806000  0.26052000  0.51362000  1.0 -0.5252997088
O  O121  1  0.02368000  0.18560000  0.02104000  1.0 -0.4851107099
O  O122  1  0.02104000  0.02368000  0.18560000  1.0 -0.4851107099
O  O123  1  0.18560000  0.02104000  0.02368000  1.0 -0.4851107099
O  O124  1  0.31440000  0.97896000  0.52368000  1.0 -0.4851107099
O  O125  1  0.52104000  0.47632000  0.81440000  1.0 -0.4851107099
O  O126  1  0.81440000  0.52104000  0.47632000  1.0 -0.4851107099
O  O127  1  0.47896000  0.97632000  0.68560000  1.0 -0.4851107099
O  O128  1  0.97896000  0.52368000  0.31440000  1.0 -0.4851107099
O  O129  1  0.68560000  0.47896000  0.97632000  1.0 -0.4851107099
O  O130  1  0.47632000  0.81440000  0.52104000  1.0 -0.4851107099
O  O131  1  0.52368000  0.31440000  0.97896000  1.0 -0.4851107099
O  O132  1  0.97632000  0.68560000  0.47896000  1.0 -0.4845266099
O  O133  1  0.97632000  0.81440000  0.97896000  1.0 -0.4851107099
O  O134  1  0.97896000  0.97632000  0.81440000  1.0 -0.4845266099
O  O135  1  0.81440000  0.97896000  0.97632000  1.0 -0.4851107099
O  O136  1  0.68560000  0.02104000  0.47632000  1.0 -0.4851107099
O  O137  1  0.47896000  0.52368000  0.18560000  1.0 -0.4851107099
O  O138  1  0.18560000  0.47896000  0.52368000  1.0 -0.4851107099
O  O139  1  0.52104000  0.02368000  0.31440000  1.0 -0.4851107099
O  O140  1  0.02104000  0.47632000  0.68560000  1.0 -0.4851107099
O  O141  1  0.31440000  0.52104000  0.02368000  1.0 -0.4851107099
O  O142  1  0.52368000  0.18560000  0.47896000  1.0 -0.4851107099
O  O143  1  0.47632000  0.68560000  0.02104000  1.0 -0.4845266099
O  O144  1  0.02368000  0.31440000  0.52104000  1.0 -0.4851107099
O  O145  1  0.98418000  0.07866000  0.16869000  1.0 -0.5025814827
O  O146  1  0.16869000  0.98418000  0.07866000  1.0 -0.5025814827
O  O147  1  0.07866000  0.16869000  0.98418000  1.0 -0.5025814827
O  O148  1  0.42134000  0.83131000  0.48418000  1.0 -0.5025814827
O  O149  1  0.66869000  0.51582000  0.92134000  1.0 -0.5025814827
O  O150  1  0.92134000  0.66869000  0.51582000  1.0 -0.5025814827
O  O151  1  0.33131000  0.01582000  0.57866000  1.0 -0.5025814827
O  O152  1  0.83131000  0.48418000  0.42134000  1.0 -0.5025814827
O  O153  1  0.57866000  0.33131000  0.01582000  1.0 -0.5025814827
O  O154  1  0.51582000  0.92134000  0.66869000  1.0 -0.5025814827
O  O155  1  0.48418000  0.42134000  0.83131000  1.0 -0.5025814827
O  O156  1  0.01582000  0.57866000  0.33131000  1.0 -0.5025814827
O  O157  1  0.01582000  0.92134000  0.83131000  1.0 -0.5025814827
O  O158  1  0.83131000  0.01582000  0.92134000  1.0 -0.5025814827
O  O159  1  0.92134000  0.83131000  0.01582000  1.0 -0.5025814827
O  O160  1  0.57866000  0.16869000  0.51582000  1.0 -0.5025814827
O  O161  1  0.33131000  0.48418000  0.07866000  1.0 -0.5025814827
O  O162  1  0.07866000  0.33131000  0.48418000  1.0 -0.5025814827
O  O163  1  0.66869000  0.98418000  0.42134000  1.0 -0.5025814827
O  O164  1  0.16869000  0.51582000  0.57866000  1.0 -0.5025814827
O  O165  1  0.42134000  0.66869000  0.98418000  1.0 -0.5025814827
O  O166  1  0.48418000  0.07866000  0.33131000  1.0 -0.5025814827
O  O167  1  0.51582000  0.57866000  0.16869000  1.0 -0.5025814827
O  O168  1  0.98418000  0.42134000  0.66869000  1.0 -0.5025814827
O  O169  1  0.96626000  0.08733000  0.22217000  1.0 -0.5488296207
O  O170  1  0.22217000  0.96626000  0.08733000  1.0 -0.5488296207
O  O171  1  0.08733000  0.22217000  0.96626000  1.0 -0.5488296207
O  O172  1  0.41267000  0.77783000  0.46626000  1.0 -0.5488296207
O  O173  1  0.72217000  0.53374000  0.91267000  1.0 -0.5488296207
O  O174  1  0.91267000  0.72217000  0.53374000  1.0 -0.5488296207
O  O175  1  0.27783000  0.03374000  0.58733000  1.0 -0.5488296207
O  O176  1  0.77783000  0.46626000  0.41267000  1.0 -0.5488296207
O  O177  1  0.58733000  0.27783000  0.03374000  1.0 -0.5488296207
O  O178  1  0.53374000  0.91267000  0.72217000  1.0 -0.5488296207
O  O179  1  0.46626000  0.41267000  0.77783000  1.0 -0.5488296207
O  O180  1  0.03374000  0.58733000  0.27783000  1.0 -0.5488296207
O  O181  1  0.03374000  0.91267000  0.77783000  1.0 -0.5488296207
O  O182  1  0.77783000  0.03374000  0.91267000  1.0 -0.5488296207
O  O183  1  0.91267000  0.77783000  0.03374000  1.0 -0.5488296207
O  O184  1  0.58733000  0.22217000  0.53374000  1.0 -0.5488296207
O  O185  1  0.27783000  0.46626000  0.08733000  1.0 -0.5488296207
O  O186  1  0.08733000  0.27783000  0.46626000  1.0 -0.5488296207
O  O187  1  0.72217000  0.96626000  0.41267000  1.0 -0.5488296207
O  O188  1  0.22217000  0.53374000  0.58733000  1.0 -0.5488296207
O  O189  1  0.41267000  0.72217000  0.96626000  1.0 -0.5488296207
O  O190  1  0.46626000  0.08733000  0.27783000  1.0 -0.5488296207
O  O191  1  0.53374000  0.58733000  0.22217000  1.0 -0.5488296207
O  O192  1  0.96626000  0.41267000  0.72217000  1.0 -0.5488296207
