# DDEC6 charges by PACMAN v1.1 (https://github.com/mtap-research/PACMAN-charge/)
data_LELDOX_ASR_pacman
_symmetry_space_group_name_H-M   'P 1'
_cell_length_a   28.30270000
_cell_length_b   28.30270000
_cell_length_c   28.30270000
_cell_angle_alpha   60.00000000
_cell_angle_beta   60.00000000
_cell_angle_gamma   60.00000000
_symmetry_Int_Tables_number   1
_chemical_formula_structural   CuH18C23NO8
_chemical_formula_sum   'Cu12 H216 C276 N12 O96'
_cell_volume   16031.29501169
_cell_formula_units_Z   12
loop_
 _symmetry_equiv_pos_site_id
 _symmetry_equiv_pos_as_xyz
  1  'x, y, z'
loop_
 _atom_site_type_symbol
 _atom_site_label
 _atom_site_symmetry_multiplicity
 _atom_site_fract_x
 _atom_site_fract_y
 _atom_site_fract_z
 _atom_site_occupancy
 _atom_site_charge
Cu  Cu1  1  0.82720000  0.17280000  0.82720000  1.0 0.8368747225
Cu  Cu2  1  0.82720000  0.17280000  0.17280000  1.0 0.8368747225
Cu  Cu3  1  0.17280000  0.82720000  0.17280000  1.0 0.8349957904
Cu  Cu4  1  0.17280000  0.82720000  0.82720000  1.0 0.8368747225
Cu  Cu5  1  0.82720000  0.82720000  0.17280000  1.0 0.8349957904
Cu  Cu6  1  0.17280000  0.17280000  0.82720000  1.0 0.8368747225
Cu  Cu7  1  0.76156000  0.23844000  0.76156000  1.0 0.8735169411
Cu  Cu8  1  0.76156000  0.23844000  0.23844000  1.0 0.8735169411
Cu  Cu9  1  0.23844000  0.76156000  0.23844000  1.0 0.8735169411
Cu  Cu10  1  0.23844000  0.76156000  0.76156000  1.0 0.8735169411
Cu  Cu11  1  0.76156000  0.76156000  0.23844000  1.0 0.8735169411
Cu  Cu12  1  0.23844000  0.23844000  0.76156000  1.0 0.8735169411
H  H1  1  0.58340000  0.03200000  0.83420000  1.0 0.0893259429
H  H2  1  0.44960000  0.16580000  0.41660000  1.0 0.0893259429
H  H3  1  0.03200000  0.58340000  0.55040000  1.0 0.0893259429
H  H4  1  0.16580000  0.44960000  0.96800000  1.0 0.0893259429
H  H5  1  0.96800000  0.44960000  0.41660000  1.0 0.0893259429
H  H6  1  0.55040000  0.83420000  0.03200000  1.0 0.0893259429
H  H7  1  0.16580000  0.41660000  0.44960000  1.0 0.0893259429
H  H8  1  0.96800000  0.16580000  0.44960000  1.0 0.0893259429
H  H9  1  0.83420000  0.55040000  0.58340000  1.0 0.0893259429
H  H10  1  0.44960000  0.41660000  0.96800000  1.0 0.0893259429
H  H11  1  0.83420000  0.58340000  0.03200000  1.0 0.0893259429
H  H12  1  0.03200000  0.83420000  0.58340000  1.0 0.0893259429
H  H13  1  0.83420000  0.03200000  0.55040000  1.0 0.0893259429
H  H14  1  0.55040000  0.03200000  0.58340000  1.0 0.0893259429
H  H15  1  0.58340000  0.55040000  0.03200000  1.0 0.0893259429
H  H16  1  0.58340000  0.83420000  0.55040000  1.0 0.0893259429
H  H17  1  0.03200000  0.55040000  0.83420000  1.0 0.0893259429
H  H18  1  0.55040000  0.58340000  0.83420000  1.0 0.0893259429
H  H19  1  0.41660000  0.96800000  0.44960000  1.0 0.0893259429
H  H20  1  0.96800000  0.41660000  0.16580000  1.0 0.0893259429
H  H21  1  0.44960000  0.96800000  0.16580000  1.0 0.0893259429
H  H22  1  0.41660000  0.16580000  0.96800000  1.0 0.0893259429
H  H23  1  0.41660000  0.44960000  0.16580000  1.0 0.0893259429
H  H24  1  0.16580000  0.96800000  0.41660000  1.0 0.0893259429
H  H25  1  0.41660000  0.96800000  0.16580000  1.0 0.0893259429
H  H26  1  0.55040000  0.83420000  0.58340000  1.0 0.0893259429
H  H27  1  0.96800000  0.41660000  0.44960000  1.0 0.0893259429
H  H28  1  0.83420000  0.55040000  0.03200000  1.0 0.0893259429
H  H29  1  0.03200000  0.55040000  0.58340000  1.0 0.0893259429
H  H30  1  0.44960000  0.16580000  0.96800000  1.0 0.0893259429
H  H31  1  0.83420000  0.58340000  0.55040000  1.0 0.0893259429
H  H32  1  0.03200000  0.83420000  0.55040000  1.0 0.0893259429
H  H33  1  0.16580000  0.44960000  0.41660000  1.0 0.0893259429
H  H34  1  0.55040000  0.58340000  0.03200000  1.0 0.0893259429
H  H35  1  0.16580000  0.41660000  0.96800000  1.0 0.0893259429
H  H36  1  0.96800000  0.16580000  0.41660000  1.0 0.0893259429
H  H37  1  0.16580000  0.96800000  0.44960000  1.0 0.0893259429
H  H38  1  0.44960000  0.96800000  0.41660000  1.0 0.0893259429
H  H39  1  0.41660000  0.44960000  0.96800000  1.0 0.0893259429
H  H40  1  0.41660000  0.16580000  0.44960000  1.0 0.0893259429
H  H41  1  0.96800000  0.44960000  0.16580000  1.0 0.0893259429
H  H42  1  0.44960000  0.41660000  0.16580000  1.0 0.0893259429
H  H43  1  0.58340000  0.03200000  0.55040000  1.0 0.0893259429
H  H44  1  0.03200000  0.58340000  0.83420000  1.0 0.0893259429
H  H45  1  0.55040000  0.03200000  0.83420000  1.0 0.0893259429
H  H46  1  0.58340000  0.83420000  0.03200000  1.0 0.0893259429
H  H47  1  0.58340000  0.55040000  0.83420000  1.0 0.0893259429
H  H48  1  0.83420000  0.03200000  0.58340000  1.0 0.0893259429
H  H49  1  0.63850000  0.03530000  0.83370000  1.0 0.1288181478
H  H50  1  0.50750000  0.16630000  0.36150000  1.0 0.1288181478
H  H51  1  0.03530000  0.63850000  0.49250000  1.0 0.1288181478
H  H52  1  0.16630000  0.50750000  0.96470000  1.0 0.1288181478
H  H53  1  0.96470000  0.50750000  0.36150000  1.0 0.1288181478
H  H54  1  0.49250000  0.83370000  0.03530000  1.0 0.1288181478
H  H55  1  0.16630000  0.36150000  0.50750000  1.0 0.1288181478
H  H56  1  0.96470000  0.16630000  0.50750000  1.0 0.1288181478
H  H57  1  0.83370000  0.49250000  0.63850000  1.0 0.1288181478
H  H58  1  0.50750000  0.36150000  0.96470000  1.0 0.1288181478
H  H59  1  0.83370000  0.63850000  0.03530000  1.0 0.1288181478
H  H60  1  0.03530000  0.83370000  0.63850000  1.0 0.1288181478
H  H61  1  0.83370000  0.03530000  0.49250000  1.0 0.1288181478
H  H62  1  0.49250000  0.03530000  0.63850000  1.0 0.1288181478
H  H63  1  0.63850000  0.49250000  0.03530000  1.0 0.1288181478
H  H64  1  0.63850000  0.83370000  0.49250000  1.0 0.1288181478
H  H65  1  0.03530000  0.49250000  0.83370000  1.0 0.1288181478
H  H66  1  0.49250000  0.63850000  0.83370000  1.0 0.1288181478
H  H67  1  0.36150000  0.96470000  0.50750000  1.0 0.1288181478
H  H68  1  0.96470000  0.36150000  0.16630000  1.0 0.1288181478
H  H69  1  0.50750000  0.96470000  0.16630000  1.0 0.1288181478
H  H70  1  0.36150000  0.16630000  0.96470000  1.0 0.1288181478
H  H71  1  0.36150000  0.50750000  0.16630000  1.0 0.1288181478
H  H72  1  0.16630000  0.96470000  0.36150000  1.0 0.1288181478
H  H73  1  0.36150000  0.96470000  0.16630000  1.0 0.1288181478
H  H74  1  0.49250000  0.83370000  0.63850000  1.0 0.1288181478
H  H75  1  0.96470000  0.36150000  0.50750000  1.0 0.1288181478
H  H76  1  0.83370000  0.49250000  0.03530000  1.0 0.1288181478
H  H77  1  0.03530000  0.49250000  0.63850000  1.0 0.1288181478
H  H78  1  0.50750000  0.16630000  0.96470000  1.0 0.1288181478
H  H79  1  0.83370000  0.63850000  0.49250000  1.0 0.1288181478
H  H80  1  0.03530000  0.83370000  0.49250000  1.0 0.1288181478
H  H81  1  0.16630000  0.50750000  0.36150000  1.0 0.1288181478
H  H82  1  0.49250000  0.63850000  0.03530000  1.0 0.1288181478
H  H83  1  0.16630000  0.36150000  0.96470000  1.0 0.1288181478
H  H84  1  0.96470000  0.16630000  0.36150000  1.0 0.1288181478
H  H85  1  0.16630000  0.96470000  0.50750000  1.0 0.1288181478
H  H86  1  0.50750000  0.96470000  0.36150000  1.0 0.1288181478
H  H87  1  0.36150000  0.50750000  0.96470000  1.0 0.1288181478
H  H88  1  0.36150000  0.16630000  0.50750000  1.0 0.1288181478
H  H89  1  0.96470000  0.50750000  0.16630000  1.0 0.1288181478
H  H90  1  0.50750000  0.36150000  0.16630000  1.0 0.1288181478
H  H91  1  0.63850000  0.03530000  0.49250000  1.0 0.1288181478
H  H92  1  0.03530000  0.63850000  0.83370000  1.0 0.1288181478
H  H93  1  0.49250000  0.03530000  0.83370000  1.0 0.1288181478
H  H94  1  0.63850000  0.83370000  0.03530000  1.0 0.1288181478
H  H95  1  0.63850000  0.49250000  0.83370000  1.0 0.1288181478
H  H96  1  0.83370000  0.03530000  0.63850000  1.0 0.1288181478
H  H97  1  0.57460000  0.06700000  0.86980000  1.0 0.0991327262
H  H98  1  0.51140000  0.13020000  0.42540000  1.0 0.0991327262
H  H99  1  0.06700000  0.57460000  0.48860000  1.0 0.0991327262
H  H100  1  0.13020000  0.51140000  0.93300000  1.0 0.0991327262
H  H101  1  0.93300000  0.51140000  0.42540000  1.0 0.0991327262
H  H102  1  0.48860000  0.86980000  0.06700000  1.0 0.0991327262
H  H103  1  0.13020000  0.42540000  0.51140000  1.0 0.0991327262
H  H104  1  0.93300000  0.13020000  0.51140000  1.0 0.0991327262
H  H105  1  0.86980000  0.48860000  0.57460000  1.0 0.0991327262
H  H106  1  0.51140000  0.42540000  0.93300000  1.0 0.0991327262
H  H107  1  0.86980000  0.57460000  0.06700000  1.0 0.0991327262
H  H108  1  0.06700000  0.86980000  0.57460000  1.0 0.0991327262
H  H109  1  0.86980000  0.06700000  0.48860000  1.0 0.0991327262
H  H110  1  0.48860000  0.06700000  0.57460000  1.0 0.0991327262
H  H111  1  0.57460000  0.48860000  0.06700000  1.0 0.0991327262
H  H112  1  0.57460000  0.86980000  0.48860000  1.0 0.0991327262
H  H113  1  0.06700000  0.48860000  0.86980000  1.0 0.0991327262
H  H114  1  0.48860000  0.57460000  0.86980000  1.0 0.0991327262
H  H115  1  0.42540000  0.93300000  0.51140000  1.0 0.0991327262
H  H116  1  0.93300000  0.42540000  0.13020000  1.0 0.0991327262
H  H117  1  0.51140000  0.93300000  0.13020000  1.0 0.0991327262
H  H118  1  0.42540000  0.13020000  0.93300000  1.0 0.0991327262
H  H119  1  0.42540000  0.51140000  0.13020000  1.0 0.0991327262
H  H120  1  0.13020000  0.93300000  0.42540000  1.0 0.0991327262
H  H121  1  0.42540000  0.93300000  0.13020000  1.0 0.0991327262
H  H122  1  0.48860000  0.86980000  0.57460000  1.0 0.0991327262
H  H123  1  0.93300000  0.42540000  0.51140000  1.0 0.0991327262
H  H124  1  0.86980000  0.48860000  0.06700000  1.0 0.0991327262
H  H125  1  0.06700000  0.48860000  0.57460000  1.0 0.0991327262
H  H126  1  0.51140000  0.13020000  0.93300000  1.0 0.0991327262
H  H127  1  0.86980000  0.57460000  0.48860000  1.0 0.0991327262
H  H128  1  0.06700000  0.86980000  0.48860000  1.0 0.0991327262
H  H129  1  0.13020000  0.51140000  0.42540000  1.0 0.0991327262
H  H130  1  0.48860000  0.57460000  0.06700000  1.0 0.0991327262
H  H131  1  0.13020000  0.42540000  0.93300000  1.0 0.0991327262
H  H132  1  0.93300000  0.13020000  0.42540000  1.0 0.0991327262
H  H133  1  0.13020000  0.93300000  0.51140000  1.0 0.0991327262
H  H134  1  0.51140000  0.93300000  0.42540000  1.0 0.0991327262
H  H135  1  0.42540000  0.51140000  0.93300000  1.0 0.0991327262
H  H136  1  0.42540000  0.13020000  0.51140000  1.0 0.0991327262
H  H137  1  0.93300000  0.51140000  0.13020000  1.0 0.0991327262
H  H138  1  0.51140000  0.42540000  0.13020000  1.0 0.0991327262
H  H139  1  0.57460000  0.06700000  0.48860000  1.0 0.0991327262
H  H140  1  0.06700000  0.57460000  0.86980000  1.0 0.0991327262
H  H141  1  0.48860000  0.06700000  0.86980000  1.0 0.0991327262
H  H142  1  0.57460000  0.86980000  0.06700000  1.0 0.0991327262
H  H143  1  0.57460000  0.48860000  0.86980000  1.0 0.0991327262
H  H144  1  0.86980000  0.06700000  0.57460000  1.0 0.0991327262
H  H145  1  0.74220000  0.05180000  0.94820000  1.0 0.139726343
H  H146  1  0.74220000  0.05180000  0.25780000  1.0 0.139726343
H  H147  1  0.05180000  0.74220000  0.25780000  1.0 0.139726343
H  H148  1  0.05180000  0.74220000  0.94820000  1.0 0.139726343
H  H149  1  0.94820000  0.74220000  0.25780000  1.0 0.139726343
H  H150  1  0.25780000  0.94820000  0.05180000  1.0 0.139726343
H  H151  1  0.05180000  0.25780000  0.74220000  1.0 0.139726343
H  H152  1  0.94820000  0.05180000  0.74220000  1.0 0.139726343
H  H153  1  0.94820000  0.25780000  0.74220000  1.0 0.139726343
H  H154  1  0.74220000  0.25780000  0.94820000  1.0 0.139726343
H  H155  1  0.94820000  0.74220000  0.05180000  1.0 0.139726343
H  H156  1  0.05180000  0.94820000  0.74220000  1.0 0.139726343
H  H157  1  0.94820000  0.05180000  0.25780000  1.0 0.139726343
H  H158  1  0.25780000  0.05180000  0.74220000  1.0 0.139726343
H  H159  1  0.74220000  0.25780000  0.05180000  1.0 0.139726343
H  H160  1  0.74220000  0.94820000  0.25780000  1.0 0.139726343
H  H161  1  0.05180000  0.25780000  0.94820000  1.0 0.139726343
H  H162  1  0.25780000  0.74220000  0.94820000  1.0 0.139726343
H  H163  1  0.25780000  0.94820000  0.74220000  1.0 0.139726343
H  H164  1  0.94820000  0.25780000  0.05180000  1.0 0.139726343
H  H165  1  0.74220000  0.94820000  0.05180000  1.0 0.139726343
H  H166  1  0.25780000  0.05180000  0.94820000  1.0 0.139726343
H  H167  1  0.25780000  0.74220000  0.05180000  1.0 0.139726343
H  H168  1  0.05180000  0.94820000  0.25780000  1.0 0.139726343
H  H169  1  0.58310000  0.09530000  0.90470000  1.0 0.1145437848
H  H170  1  0.58310000  0.09530000  0.41690000  1.0 0.1145437848
H  H171  1  0.09530000  0.58310000  0.41690000  1.0 0.1145437848
H  H172  1  0.09530000  0.58310000  0.90470000  1.0 0.1145437848
H  H173  1  0.90470000  0.58310000  0.41690000  1.0 0.1145437848
H  H174  1  0.41690000  0.90470000  0.09530000  1.0 0.1145437848
H  H175  1  0.09530000  0.41690000  0.58310000  1.0 0.1145437848
H  H176  1  0.90470000  0.09530000  0.58310000  1.0 0.1145437848
H  H177  1  0.90470000  0.41690000  0.58310000  1.0 0.1145437848
H  H178  1  0.58310000  0.41690000  0.90470000  1.0 0.1145437848
H  H179  1  0.90470000  0.58310000  0.09530000  1.0 0.1145437848
H  H180  1  0.09530000  0.90470000  0.58310000  1.0 0.1145437848
H  H181  1  0.90470000  0.09530000  0.41690000  1.0 0.1145437848
H  H182  1  0.41690000  0.09530000  0.58310000  1.0 0.1145437848
H  H183  1  0.58310000  0.41690000  0.09530000  1.0 0.1145437848
H  H184  1  0.58310000  0.90470000  0.41690000  1.0 0.1145437848
H  H185  1  0.09530000  0.41690000  0.90470000  1.0 0.1145437848
H  H186  1  0.41690000  0.58310000  0.90470000  1.0 0.1145437848
H  H187  1  0.41690000  0.90470000  0.58310000  1.0 0.1145437848
H  H188  1  0.90470000  0.41690000  0.09530000  1.0 0.1145437848
H  H189  1  0.58310000  0.90470000  0.09530000  1.0 0.1145437848
H  H190  1  0.41690000  0.09530000  0.90470000  1.0 0.1145437848
H  H191  1  0.41690000  0.58310000  0.09530000  1.0 0.1145437848
H  H192  1  0.09530000  0.90470000  0.41690000  1.0 0.1145437848
H  H193  1  0.64100000  0.15020000  0.84980000  1.0 0.139726343
H  H194  1  0.64100000  0.15020000  0.35900000  1.0 0.139726343
H  H195  1  0.15020000  0.64100000  0.35900000  1.0 0.139726343
H  H196  1  0.15020000  0.64100000  0.84980000  1.0 0.139726343
H  H197  1  0.84980000  0.64100000  0.35900000  1.0 0.139726343
H  H198  1  0.35900000  0.84980000  0.15020000  1.0 0.139726343
H  H199  1  0.15020000  0.35900000  0.64100000  1.0 0.139726343
H  H200  1  0.84980000  0.15020000  0.64100000  1.0 0.139726343
H  H201  1  0.84980000  0.35900000  0.64100000  1.0 0.139726343
H  H202  1  0.64100000  0.35900000  0.84980000  1.0 0.139726343
H  H203  1  0.84980000  0.64100000  0.15020000  1.0 0.139726343
H  H204  1  0.15020000  0.84980000  0.64100000  1.0 0.139726343
H  H205  1  0.84980000  0.15020000  0.35900000  1.0 0.139726343
H  H206  1  0.35900000  0.15020000  0.64100000  1.0 0.139726343
H  H207  1  0.64100000  0.35900000  0.15020000  1.0 0.139726343
H  H208  1  0.64100000  0.84980000  0.35900000  1.0 0.139726343
H  H209  1  0.15020000  0.35900000  0.84980000  1.0 0.139726343
H  H210  1  0.35900000  0.64100000  0.84980000  1.0 0.139726343
H  H211  1  0.35900000  0.84980000  0.64100000  1.0 0.139726343
H  H212  1  0.84980000  0.35900000  0.15020000  1.0 0.139726343
H  H213  1  0.64100000  0.84980000  0.15020000  1.0 0.139726343
H  H214  1  0.35900000  0.15020000  0.84980000  1.0 0.139726343
H  H215  1  0.35900000  0.64100000  0.15020000  1.0 0.139726343
H  H216  1  0.15020000  0.84980000  0.35900000  1.0 0.139726343
C  C1  1  0.59940000  0.03300000  0.85720000  1.0 -0.2127771572
C  C2  1  0.48960000  0.14280000  0.40060000  1.0 -0.2127771572
C  C3  1  0.03300000  0.59940000  0.51040000  1.0 -0.2127771572
C  C4  1  0.14280000  0.48960000  0.96700000  1.0 -0.2127771572
C  C5  1  0.96700000  0.48960000  0.40060000  1.0 -0.2127771572
C  C6  1  0.51040000  0.85720000  0.03300000  1.0 -0.2127771572
C  C7  1  0.14280000  0.40060000  0.48960000  1.0 -0.2127771572
C  C8  1  0.96700000  0.14280000  0.48960000  1.0 -0.2127771572
C  C9  1  0.85720000  0.51040000  0.59940000  1.0 -0.2127771572
C  C10  1  0.48960000  0.40060000  0.96700000  1.0 -0.2127771572
C  C11  1  0.85720000  0.59940000  0.03300000  1.0 -0.2127771572
C  C12  1  0.03300000  0.85720000  0.59940000  1.0 -0.2127771572
C  C13  1  0.85720000  0.03300000  0.51040000  1.0 -0.2127771572
C  C14  1  0.51040000  0.03300000  0.59940000  1.0 -0.2127771572
C  C15  1  0.59940000  0.51040000  0.03300000  1.0 -0.2127771572
C  C16  1  0.59940000  0.85720000  0.51040000  1.0 -0.2127771572
C  C17  1  0.03300000  0.51040000  0.85720000  1.0 -0.2127771572
C  C18  1  0.51040000  0.59940000  0.85720000  1.0 -0.2127771572
C  C19  1  0.40060000  0.96700000  0.48960000  1.0 -0.2127771572
C  C20  1  0.96700000  0.40060000  0.14280000  1.0 -0.2127771572
C  C21  1  0.48960000  0.96700000  0.14280000  1.0 -0.2127771572
C  C22  1  0.40060000  0.14280000  0.96700000  1.0 -0.2127771572
C  C23  1  0.40060000  0.48960000  0.14280000  1.0 -0.2127771572
C  C24  1  0.14280000  0.96700000  0.40060000  1.0 -0.2127771572
C  C25  1  0.40060000  0.96700000  0.14280000  1.0 -0.2127771572
C  C26  1  0.51040000  0.85720000  0.59940000  1.0 -0.2127771572
C  C27  1  0.96700000  0.40060000  0.48960000  1.0 -0.2127771572
C  C28  1  0.85720000  0.51040000  0.03300000  1.0 -0.2127771572
C  C29  1  0.03300000  0.51040000  0.59940000  1.0 -0.2127771572
C  C30  1  0.48960000  0.14280000  0.96700000  1.0 -0.2127771572
C  C31  1  0.85720000  0.59940000  0.51040000  1.0 -0.2127771572
C  C32  1  0.03300000  0.85720000  0.51040000  1.0 -0.2127771572
C  C33  1  0.14280000  0.48960000  0.40060000  1.0 -0.2127771572
C  C34  1  0.51040000  0.59940000  0.03300000  1.0 -0.2127771572
C  C35  1  0.14280000  0.40060000  0.96700000  1.0 -0.2127771572
C  C36  1  0.96700000  0.14280000  0.40060000  1.0 -0.2127771572
C  C37  1  0.14280000  0.96700000  0.48960000  1.0 -0.2127771572
C  C38  1  0.48960000  0.96700000  0.40060000  1.0 -0.2127771572
C  C39  1  0.40060000  0.48960000  0.96700000  1.0 -0.2127771572
C  C40  1  0.40060000  0.14280000  0.48960000  1.0 -0.2127771572
C  C41  1  0.96700000  0.48960000  0.14280000  1.0 -0.2127771572
C  C42  1  0.48960000  0.40060000  0.14280000  1.0 -0.2127771572
C  C43  1  0.59940000  0.03300000  0.51040000  1.0 -0.2127771572
C  C44  1  0.03300000  0.59940000  0.85720000  1.0 -0.2127771572
C  C45  1  0.51040000  0.03300000  0.85720000  1.0 -0.2127771572
C  C46  1  0.59940000  0.85720000  0.03300000  1.0 -0.2127771572
C  C47  1  0.59940000  0.51040000  0.85720000  1.0 -0.2127771572
C  C48  1  0.85720000  0.03300000  0.59940000  1.0 -0.2127771572
C  C49  1  0.73404000  0.14304000  0.85696000  1.0 0.5774176931
C  C50  1  0.73404000  0.14304000  0.26596000  1.0 0.5774176931
C  C51  1  0.14304000  0.73404000  0.26596000  1.0 0.5774176931
C  C52  1  0.14304000  0.73404000  0.85696000  1.0 0.5774176931
C  C53  1  0.85696000  0.73404000  0.26596000  1.0 0.5774176931
C  C54  1  0.26596000  0.85696000  0.14304000  1.0 0.5774176931
C  C55  1  0.14304000  0.26596000  0.73404000  1.0 0.5774176931
C  C56  1  0.85696000  0.14304000  0.73404000  1.0 0.5774176931
C  C57  1  0.85696000  0.26596000  0.73404000  1.0 0.5774176931
C  C58  1  0.73404000  0.26596000  0.85696000  1.0 0.5774176931
C  C59  1  0.85696000  0.73404000  0.14304000  1.0 0.5774176931
C  C60  1  0.14304000  0.85696000  0.73404000  1.0 0.5774176931
C  C61  1  0.85696000  0.14304000  0.26596000  1.0 0.5774176931
C  C62  1  0.26596000  0.14304000  0.73404000  1.0 0.5774176931
C  C63  1  0.73404000  0.26596000  0.14304000  1.0 0.5774176931
C  C64  1  0.73404000  0.85696000  0.26596000  1.0 0.5774176931
C  C65  1  0.14304000  0.26596000  0.85696000  1.0 0.5774176931
C  C66  1  0.26596000  0.73404000  0.85696000  1.0 0.5774176931
C  C67  1  0.26596000  0.85696000  0.73404000  1.0 0.5774176931
C  C68  1  0.85696000  0.26596000  0.14304000  1.0 0.5774176931
C  C69  1  0.73404000  0.85696000  0.14304000  1.0 0.5774176931
C  C70  1  0.26596000  0.14304000  0.85696000  1.0 0.5774176931
C  C71  1  0.26596000  0.73404000  0.14304000  1.0 0.5774176931
C  C72  1  0.14304000  0.85696000  0.26596000  1.0 0.5774176931
C  C73  1  0.69510000  0.10470000  0.89530000  1.0 -0.0006111548
C  C74  1  0.69510000  0.10470000  0.30490000  1.0 -0.0006111548
C  C75  1  0.10470000  0.69510000  0.30490000  1.0 -0.0006111548
C  C76  1  0.10470000  0.69510000  0.89530000  1.0 -0.0006111548
C  C77  1  0.89530000  0.69510000  0.30490000  1.0 -0.0006111548
C  C78  1  0.30490000  0.89530000  0.10470000  1.0 -0.0006111548
C  C79  1  0.10470000  0.30490000  0.69510000  1.0 -0.0006111548
C  C80  1  0.89530000  0.10470000  0.69510000  1.0 -0.0006111548
C  C81  1  0.89530000  0.30490000  0.69510000  1.0 -0.0006111548
C  C82  1  0.69510000  0.30490000  0.89530000  1.0 -0.0006111548
C  C83  1  0.89530000  0.69510000  0.10470000  1.0 -0.0006111548
C  C84  1  0.10470000  0.89530000  0.69510000  1.0 -0.0006111548
C  C85  1  0.89530000  0.10470000  0.30490000  1.0 -0.0006111548
C  C86  1  0.30490000  0.10470000  0.69510000  1.0 -0.0006111548
C  C87  1  0.69510000  0.30490000  0.10470000  1.0 -0.0006111548
C  C88  1  0.69510000  0.89530000  0.30490000  1.0 -0.0006111548
C  C89  1  0.10470000  0.30490000  0.89530000  1.0 -0.0006111548
C  C90  1  0.30490000  0.69510000  0.89530000  1.0 -0.0006111548
C  C91  1  0.30490000  0.89530000  0.69510000  1.0 -0.0006111548
C  C92  1  0.89530000  0.30490000  0.10470000  1.0 -0.0006111548
C  C93  1  0.69510000  0.89530000  0.10470000  1.0 -0.0006111548
C  C94  1  0.30490000  0.10470000  0.89530000  1.0 -0.0006111548
C  C95  1  0.30490000  0.69510000  0.10470000  1.0 -0.0006111548
C  C96  1  0.10470000  0.89530000  0.30490000  1.0 -0.0006111548
C  C97  1  0.70950000  0.05950000  0.94050000  1.0 -0.1423637907
C  C98  1  0.70950000  0.05950000  0.29050000  1.0 -0.1423637907
C  C99  1  0.05950000  0.70950000  0.29050000  1.0 -0.1423637907
C  C100  1  0.05950000  0.70950000  0.94050000  1.0 -0.1423637907
C  C101  1  0.94050000  0.70950000  0.29050000  1.0 -0.1423637907
C  C102  1  0.29050000  0.94050000  0.05950000  1.0 -0.1423637907
C  C103  1  0.05950000  0.29050000  0.70950000  1.0 -0.1423637907
C  C104  1  0.94050000  0.05950000  0.70950000  1.0 -0.1423637907
C  C105  1  0.94050000  0.29050000  0.70950000  1.0 -0.1423637907
C  C106  1  0.70950000  0.29050000  0.94050000  1.0 -0.1423637907
C  C107  1  0.94050000  0.70950000  0.05950000  1.0 -0.1423637907
C  C108  1  0.05950000  0.94050000  0.70950000  1.0 -0.1423637907
C  C109  1  0.94050000  0.05950000  0.29050000  1.0 -0.1423637907
C  C110  1  0.29050000  0.05950000  0.70950000  1.0 -0.1423637907
C  C111  1  0.70950000  0.29050000  0.05950000  1.0 -0.1423637907
C  C112  1  0.70950000  0.94050000  0.29050000  1.0 -0.1423637907
C  C113  1  0.05950000  0.29050000  0.94050000  1.0 -0.1423637907
C  C114  1  0.29050000  0.70950000  0.94050000  1.0 -0.1423637907
C  C115  1  0.29050000  0.94050000  0.70950000  1.0 -0.1423637907
C  C116  1  0.94050000  0.29050000  0.05950000  1.0 -0.1423637907
C  C117  1  0.70950000  0.94050000  0.05950000  1.0 -0.1423637907
C  C118  1  0.29050000  0.05950000  0.94050000  1.0 -0.1423637907
C  C119  1  0.29050000  0.70950000  0.05950000  1.0 -0.1423637907
C  C120  1  0.05950000  0.94050000  0.29050000  1.0 -0.1423637907
C  C121  1  0.67420000  0.02300000  0.97700000  1.0 -0.0283305669
C  C122  1  0.67420000  0.02300000  0.32580000  1.0 -0.0283305669
C  C123  1  0.02300000  0.67420000  0.32580000  1.0 -0.0283305669
C  C124  1  0.02300000  0.67420000  0.97700000  1.0 -0.0283305669
C  C125  1  0.97700000  0.67420000  0.32580000  1.0 -0.0283305669
C  C126  1  0.32580000  0.97700000  0.02300000  1.0 -0.0283305669
C  C127  1  0.02300000  0.32580000  0.67420000  1.0 -0.0283305669
C  C128  1  0.97700000  0.02300000  0.67420000  1.0 -0.0283305669
C  C129  1  0.97700000  0.32580000  0.67420000  1.0 -0.0283305669
C  C130  1  0.67420000  0.32580000  0.97700000  1.0 -0.0283305669
C  C131  1  0.97700000  0.67420000  0.02300000  1.0 -0.0283305669
C  C132  1  0.02300000  0.97700000  0.67420000  1.0 -0.0283305669
C  C133  1  0.97700000  0.02300000  0.32580000  1.0 -0.0283305669
C  C134  1  0.32580000  0.02300000  0.67420000  1.0 -0.0283305669
C  C135  1  0.67420000  0.32580000  0.02300000  1.0 -0.0283305669
C  C136  1  0.67420000  0.97700000  0.32580000  1.0 -0.0283305669
C  C137  1  0.02300000  0.32580000  0.97700000  1.0 -0.0283305669
C  C138  1  0.32580000  0.67420000  0.97700000  1.0 -0.0283305669
C  C139  1  0.32580000  0.97700000  0.67420000  1.0 -0.0283305669
C  C140  1  0.97700000  0.32580000  0.02300000  1.0 -0.0283305669
C  C141  1  0.67420000  0.97700000  0.02300000  1.0 -0.0283305669
C  C142  1  0.32580000  0.02300000  0.97700000  1.0 -0.0283305669
C  C143  1  0.32580000  0.67420000  0.02300000  1.0 -0.0283305669
C  C144  1  0.02300000  0.97700000  0.32580000  1.0 -0.0283305669
C  C145  1  0.62940000  0.03980000  0.96020000  1.0 0.1171216552
C  C146  1  0.62940000  0.03980000  0.37060000  1.0 0.1171216552
C  C147  1  0.03980000  0.62940000  0.37060000  1.0 0.1171216552
C  C148  1  0.03980000  0.62940000  0.96020000  1.0 0.1171216552
C  C149  1  0.96020000  0.62940000  0.37060000  1.0 0.1171216552
C  C150  1  0.37060000  0.96020000  0.03980000  1.0 0.1171216552
C  C151  1  0.03980000  0.37060000  0.62940000  1.0 0.1171216552
C  C152  1  0.96020000  0.03980000  0.62940000  1.0 0.1171216552
C  C153  1  0.96020000  0.37060000  0.62940000  1.0 0.1171216552
C  C154  1  0.62940000  0.37060000  0.96020000  1.0 0.1171216552
C  C155  1  0.96020000  0.62940000  0.03980000  1.0 0.1171216552
C  C156  1  0.03980000  0.96020000  0.62940000  1.0 0.1171216552
C  C157  1  0.96020000  0.03980000  0.37060000  1.0 0.1171216552
C  C158  1  0.37060000  0.03980000  0.62940000  1.0 0.1171216552
C  C159  1  0.62940000  0.37060000  0.03980000  1.0 0.1171216552
C  C160  1  0.62940000  0.96020000  0.37060000  1.0 0.1171216552
C  C161  1  0.03980000  0.37060000  0.96020000  1.0 0.1171216552
C  C162  1  0.37060000  0.62940000  0.96020000  1.0 0.1171216552
C  C163  1  0.37060000  0.96020000  0.62940000  1.0 0.1171216552
C  C164  1  0.96020000  0.37060000  0.03980000  1.0 0.1171216552
C  C165  1  0.62940000  0.96020000  0.03980000  1.0 0.1171216552
C  C166  1  0.37060000  0.03980000  0.96020000  1.0 0.1171216552
C  C167  1  0.37060000  0.62940000  0.03980000  1.0 0.1171216552
C  C168  1  0.03980000  0.96020000  0.37060000  1.0 0.1171216552
C  C169  1  0.61550000  0.08650000  0.91350000  1.0 -0.1800694251
C  C170  1  0.61550000  0.08650000  0.38450000  1.0 -0.1800694251
C  C171  1  0.08650000  0.61550000  0.38450000  1.0 -0.1800694251
C  C172  1  0.08650000  0.61550000  0.91350000  1.0 -0.1800694251
C  C173  1  0.91350000  0.61550000  0.38450000  1.0 -0.1800694251
C  C174  1  0.38450000  0.91350000  0.08650000  1.0 -0.1800694251
C  C175  1  0.08650000  0.38450000  0.61550000  1.0 -0.1800694251
C  C176  1  0.91350000  0.08650000  0.61550000  1.0 -0.1800694251
C  C177  1  0.91350000  0.38450000  0.61550000  1.0 -0.1800694251
C  C178  1  0.61550000  0.38450000  0.91350000  1.0 -0.1800694251
C  C179  1  0.91350000  0.61550000  0.08650000  1.0 -0.1800694251
C  C180  1  0.08650000  0.91350000  0.61550000  1.0 -0.1800694251
C  C181  1  0.91350000  0.08650000  0.38450000  1.0 -0.1800694251
C  C182  1  0.38450000  0.08650000  0.61550000  1.0 -0.1800694251
C  C183  1  0.61550000  0.38450000  0.08650000  1.0 -0.1800694251
C  C184  1  0.61550000  0.91350000  0.38450000  1.0 -0.1800694251
C  C185  1  0.08650000  0.38450000  0.91350000  1.0 -0.1800694251
C  C186  1  0.38450000  0.61550000  0.91350000  1.0 -0.1800694251
C  C187  1  0.38450000  0.91350000  0.61550000  1.0 -0.1800694251
C  C188  1  0.91350000  0.38450000  0.08650000  1.0 -0.1800694251
C  C189  1  0.61550000  0.91350000  0.08650000  1.0 -0.1800694251
C  C190  1  0.38450000  0.08650000  0.91350000  1.0 -0.1800694251
C  C191  1  0.38450000  0.61550000  0.08650000  1.0 -0.1800694251
C  C192  1  0.08650000  0.91350000  0.38450000  1.0 -0.1800694251
C  C193  1  0.64890000  0.11770000  0.88230000  1.0 -0.0832860069
C  C194  1  0.64890000  0.11770000  0.35110000  1.0 -0.0832860069
C  C195  1  0.11770000  0.64890000  0.35110000  1.0 -0.0832860069
C  C196  1  0.11770000  0.64890000  0.88230000  1.0 -0.0832860069
C  C197  1  0.88230000  0.64890000  0.35110000  1.0 -0.0832860069
C  C198  1  0.35110000  0.88230000  0.11770000  1.0 -0.0832860069
C  C199  1  0.11770000  0.35110000  0.64890000  1.0 -0.0832860069
C  C200  1  0.88230000  0.11770000  0.64890000  1.0 -0.0832860069
C  C201  1  0.88230000  0.35110000  0.64890000  1.0 -0.0832860069
C  C202  1  0.64890000  0.35110000  0.88230000  1.0 -0.0832860069
C  C203  1  0.88230000  0.64890000  0.11770000  1.0 -0.0832860069
C  C204  1  0.11770000  0.88230000  0.64890000  1.0 -0.0832860069
C  C205  1  0.88230000  0.11770000  0.35110000  1.0 -0.0832860069
C  C206  1  0.35110000  0.11770000  0.64890000  1.0 -0.0832860069
C  C207  1  0.64890000  0.35110000  0.11770000  1.0 -0.0832860069
C  C208  1  0.64890000  0.88230000  0.35110000  1.0 -0.0832860069
C  C209  1  0.11770000  0.35110000  0.88230000  1.0 -0.0832860069
C  C210  1  0.35110000  0.64890000  0.88230000  1.0 -0.0832860069
C  C211  1  0.35110000  0.88230000  0.64890000  1.0 -0.0832860069
C  C212  1  0.88230000  0.35110000  0.11770000  1.0 -0.0832860069
C  C213  1  0.64890000  0.88230000  0.11770000  1.0 -0.0832860069
C  C214  1  0.35110000  0.11770000  0.88230000  1.0 -0.0832860069
C  C215  1  0.35110000  0.64890000  0.11770000  1.0 -0.0832860069
C  C216  1  0.11770000  0.88230000  0.35110000  1.0 -0.0832860069
C  C217  1  0.54440000  0.00000000  0.00000000  1.0 0.0333479823
C  C218  1  0.54440000  0.00000000  0.45560000  1.0 0.0333479823
C  C219  1  0.00000000  0.54440000  0.45560000  1.0 0.0333479823
C  C220  1  0.00000000  0.54440000  0.00000000  1.0 0.0333479823
C  C221  1  0.45560000  0.00000000  0.00000000  1.0 0.0333479823
C  C222  1  0.00000000  0.45560000  0.54440000  1.0 0.0333479823
C  C223  1  0.00000000  0.00000000  0.54440000  1.0 0.0333479823
C  C224  1  0.54440000  0.45560000  0.00000000  1.0 0.0333479823
C  C225  1  0.00000000  0.00000000  0.45560000  1.0 0.0333479823
C  C226  1  0.45560000  0.00000000  0.54440000  1.0 0.0333479823
C  C227  1  0.00000000  0.45560000  0.00000000  1.0 0.0333479823
C  C228  1  0.45560000  0.54440000  0.00000000  1.0 0.0333479823
C  C229  1  0.55380000  0.99220000  0.95020000  1.0 0.0461434631
C  C230  1  0.49620000  0.04980000  0.44620000  1.0 0.0461434631
C  C231  1  0.99220000  0.55380000  0.50380000  1.0 0.0461434631
C  C232  1  0.04980000  0.49620000  0.00780000  1.0 0.0461434631
C  C233  1  0.00780000  0.49620000  0.44620000  1.0 0.0461434631
C  C234  1  0.50380000  0.95020000  0.99220000  1.0 0.0461434631
C  C235  1  0.04980000  0.44620000  0.49620000  1.0 0.0461434631
C  C236  1  0.00780000  0.04980000  0.49620000  1.0 0.0461434631
C  C237  1  0.95020000  0.50380000  0.55380000  1.0 0.0461434631
C  C238  1  0.49620000  0.44620000  0.00780000  1.0 0.0461434631
C  C239  1  0.95020000  0.55380000  0.99220000  1.0 0.0461434631
C  C240  1  0.99220000  0.95020000  0.55380000  1.0 0.0461434631
C  C241  1  0.95020000  0.99220000  0.50380000  1.0 0.0461434631
C  C242  1  0.50380000  0.99220000  0.55380000  1.0 0.0461434631
C  C243  1  0.55380000  0.50380000  0.99220000  1.0 0.0461434631
C  C244  1  0.55380000  0.95020000  0.50380000  1.0 0.0461434631
C  C245  1  0.99220000  0.50380000  0.95020000  1.0 0.0461434631
C  C246  1  0.50380000  0.55380000  0.95020000  1.0 0.0461434631
C  C247  1  0.44620000  0.00780000  0.49620000  1.0 0.0461434631
C  C248  1  0.00780000  0.44620000  0.04980000  1.0 0.0461434631
C  C249  1  0.49620000  0.00780000  0.04980000  1.0 0.0461434631
C  C250  1  0.44620000  0.04980000  0.00780000  1.0 0.0461434631
C  C251  1  0.44620000  0.49620000  0.04980000  1.0 0.0461434631
C  C252  1  0.04980000  0.00780000  0.44620000  1.0 0.0461434631
C  C253  1  0.44620000  0.00780000  0.04980000  1.0 0.0461434631
C  C254  1  0.50380000  0.95020000  0.55380000  1.0 0.0461434631
C  C255  1  0.00780000  0.44620000  0.49620000  1.0 0.0461434631
C  C256  1  0.95020000  0.50380000  0.99220000  1.0 0.0461434631
C  C257  1  0.99220000  0.50380000  0.55380000  1.0 0.0461434631
C  C258  1  0.49620000  0.04980000  0.00780000  1.0 0.0461434631
C  C259  1  0.95020000  0.55380000  0.50380000  1.0 0.0461434631
C  C260  1  0.99220000  0.95020000  0.50380000  1.0 0.0461434631
C  C261  1  0.04980000  0.49620000  0.44620000  1.0 0.0461434631
C  C262  1  0.50380000  0.55380000  0.99220000  1.0 0.0461434631
C  C263  1  0.04980000  0.44620000  0.00780000  1.0 0.0461434631
C  C264  1  0.00780000  0.04980000  0.44620000  1.0 0.0461434631
C  C265  1  0.04980000  0.00780000  0.49620000  1.0 0.0461434631
C  C266  1  0.49620000  0.00780000  0.44620000  1.0 0.0461434631
C  C267  1  0.44620000  0.49620000  0.00780000  1.0 0.0461434631
C  C268  1  0.44620000  0.04980000  0.49620000  1.0 0.0461434631
C  C269  1  0.00780000  0.49620000  0.04980000  1.0 0.0461434631
C  C270  1  0.49620000  0.44620000  0.04980000  1.0 0.0461434631
C  C271  1  0.55380000  0.99220000  0.50380000  1.0 0.0461434631
C  C272  1  0.99220000  0.55380000  0.95020000  1.0 0.0461434631
C  C273  1  0.50380000  0.99220000  0.95020000  1.0 0.0461434631
C  C274  1  0.55380000  0.95020000  0.99220000  1.0 0.0461434631
C  C275  1  0.55380000  0.50380000  0.95020000  1.0 0.0461434631
C  C276  1  0.95020000  0.99220000  0.55380000  1.0 0.0461434631
N  N1  1  0.59840000  0.00000000  0.00000000  1.0 -0.2127771572
N  N2  1  0.59840000  0.00000000  0.40160000  1.0 -0.2186478385
N  N3  1  0.00000000  0.59840000  0.40160000  1.0 -0.2127771572
N  N4  1  0.00000000  0.59840000  0.00000000  1.0 -0.2127771572
N  N5  1  0.40160000  0.00000000  0.00000000  1.0 -0.2127771572
N  N6  1  0.00000000  0.40160000  0.59840000  1.0 -0.2186478385
N  N7  1  0.00000000  0.00000000  0.59840000  1.0 -0.2186478385
N  N8  1  0.59840000  0.40160000  0.00000000  1.0 -0.2127771572
N  N9  1  0.00000000  0.00000000  0.40160000  1.0 -0.2186478385
N  N10  1  0.40160000  0.00000000  0.59840000  1.0 -0.2186478385
N  N11  1  0.00000000  0.40160000  0.00000000  1.0 -0.2186478385
N  N12  1  0.40160000  0.59840000  0.00000000  1.0 -0.2186478385
O  O1  1  0.77450000  0.12808000  0.87192000  1.0 -0.4703233003
O  O2  1  0.77450000  0.12808000  0.22550000  1.0 -0.4703233003
O  O3  1  0.12808000  0.77450000  0.22550000  1.0 -0.4703233003
O  O4  1  0.12808000  0.77450000  0.87192000  1.0 -0.4703233003
O  O5  1  0.87192000  0.77450000  0.22550000  1.0 -0.4703233003
O  O6  1  0.22550000  0.87192000  0.12808000  1.0 -0.4703233003
O  O7  1  0.12808000  0.22550000  0.77450000  1.0 -0.4703233003
O  O8  1  0.87192000  0.12808000  0.77450000  1.0 -0.4703233003
O  O9  1  0.87192000  0.22550000  0.77450000  1.0 -0.4703233003
O  O10  1  0.77450000  0.22550000  0.87192000  1.0 -0.4703233003
O  O11  1  0.87192000  0.77450000  0.12808000  1.0 -0.4703233003
O  O12  1  0.12808000  0.87192000  0.77450000  1.0 -0.4703233003
O  O13  1  0.87192000  0.12808000  0.22550000  1.0 -0.4703233003
O  O14  1  0.22550000  0.12808000  0.77450000  1.0 -0.4703233003
O  O15  1  0.77450000  0.22550000  0.12808000  1.0 -0.4703233003
O  O16  1  0.77450000  0.87192000  0.22550000  1.0 -0.4703233003
O  O17  1  0.12808000  0.22550000  0.87192000  1.0 -0.4703233003
O  O18  1  0.22550000  0.77450000  0.87192000  1.0 -0.4703233003
O  O19  1  0.22550000  0.87192000  0.77450000  1.0 -0.4703233003
O  O20  1  0.87192000  0.22550000  0.12808000  1.0 -0.4703233003
O  O21  1  0.77450000  0.87192000  0.12808000  1.0 -0.4703233003
O  O22  1  0.22550000  0.12808000  0.87192000  1.0 -0.4703233003
O  O23  1  0.22550000  0.77450000  0.12808000  1.0 -0.4703233003
O  O24  1  0.12808000  0.87192000  0.22550000  1.0 -0.4703233003
O  O25  1  0.71739000  0.18573000  0.81427000  1.0 -0.5361247071
O  O26  1  0.71739000  0.18573000  0.28261000  1.0 -0.5361247071
O  O27  1  0.18573000  0.71739000  0.28261000  1.0 -0.5361247071
O  O28  1  0.18573000  0.71739000  0.81427000  1.0 -0.5361247071
O  O29  1  0.81427000  0.71739000  0.28261000  1.0 -0.5361247071
O  O30  1  0.28261000  0.81427000  0.18573000  1.0 -0.5361247071
O  O31  1  0.18573000  0.28261000  0.71739000  1.0 -0.5361247071
O  O32  1  0.81427000  0.18573000  0.71739000  1.0 -0.5361247071
O  O33  1  0.81427000  0.28261000  0.71739000  1.0 -0.5361247071
O  O34  1  0.71739000  0.28261000  0.81427000  1.0 -0.5361247071
O  O35  1  0.81427000  0.71739000  0.18573000  1.0 -0.5361247071
O  O36  1  0.18573000  0.81427000  0.71739000  1.0 -0.5361247071
O  O37  1  0.81427000  0.18573000  0.28261000  1.0 -0.5361247071
O  O38  1  0.28261000  0.18573000  0.71739000  1.0 -0.5361247071
O  O39  1  0.71739000  0.28261000  0.18573000  1.0 -0.5361247071
O  O40  1  0.71739000  0.81427000  0.28261000  1.0 -0.5361247071
O  O41  1  0.18573000  0.28261000  0.81427000  1.0 -0.5361247071
O  O42  1  0.28261000  0.71739000  0.81427000  1.0 -0.5361247071
O  O43  1  0.28261000  0.81427000  0.71739000  1.0 -0.5361247071
O  O44  1  0.81427000  0.28261000  0.18573000  1.0 -0.5361247071
O  O45  1  0.71739000  0.81427000  0.18573000  1.0 -0.5361247071
O  O46  1  0.28261000  0.18573000  0.81427000  1.0 -0.5361247071
O  O47  1  0.28261000  0.71739000  0.18573000  1.0 -0.5361247071
O  O48  1  0.18573000  0.81427000  0.28261000  1.0 -0.5361247071
O  O49  1  0.60200000  0.98500000  0.90360000  1.0 -0.1423637907
O  O50  1  0.49060000  0.09640000  0.39800000  1.0 -0.1423637907
O  O51  1  0.98500000  0.60200000  0.50940000  1.0 -0.1423637907
O  O52  1  0.09640000  0.49060000  0.01500000  1.0 -0.1423637907
O  O53  1  0.01500000  0.49060000  0.39800000  1.0 -0.1423637907
O  O54  1  0.50940000  0.90360000  0.98500000  1.0 -0.1423637907
O  O55  1  0.09640000  0.39800000  0.49060000  1.0 -0.1423637907
O  O56  1  0.01500000  0.09640000  0.49060000  1.0 -0.1423637907
O  O57  1  0.90360000  0.50940000  0.60200000  1.0 -0.1423637907
O  O58  1  0.49060000  0.39800000  0.01500000  1.0 -0.1423637907
O  O59  1  0.90360000  0.60200000  0.98500000  1.0 -0.1423637907
O  O60  1  0.98500000  0.90360000  0.60200000  1.0 -0.1423637907
O  O61  1  0.90360000  0.98500000  0.50940000  1.0 -0.1423637907
O  O62  1  0.50940000  0.98500000  0.60200000  1.0 -0.1423637907
O  O63  1  0.60200000  0.50940000  0.98500000  1.0 -0.1423637907
O  O64  1  0.60200000  0.90360000  0.50940000  1.0 -0.1423637907
O  O65  1  0.98500000  0.50940000  0.90360000  1.0 -0.1423637907
O  O66  1  0.50940000  0.60200000  0.90360000  1.0 -0.1423637907
O  O67  1  0.39800000  0.01500000  0.49060000  1.0 -0.1423637907
O  O68  1  0.01500000  0.39800000  0.09640000  1.0 -0.1423637907
O  O69  1  0.49060000  0.01500000  0.09640000  1.0 -0.1423637907
O  O70  1  0.39800000  0.09640000  0.01500000  1.0 -0.1423637907
O  O71  1  0.39800000  0.49060000  0.09640000  1.0 -0.1423637907
O  O72  1  0.09640000  0.01500000  0.39800000  1.0 -0.1423637907
O  O73  1  0.39800000  0.01500000  0.09640000  1.0 -0.1423637907
O  O74  1  0.50940000  0.90360000  0.60200000  1.0 -0.1423637907
O  O75  1  0.01500000  0.39800000  0.49060000  1.0 -0.1423637907
O  O76  1  0.90360000  0.50940000  0.98500000  1.0 -0.1423637907
O  O77  1  0.98500000  0.50940000  0.60200000  1.0 -0.1423637907
O  O78  1  0.49060000  0.09640000  0.01500000  1.0 -0.1423637907
O  O79  1  0.90360000  0.60200000  0.50940000  1.0 -0.1423637907
O  O80  1  0.98500000  0.90360000  0.50940000  1.0 -0.1423637907
O  O81  1  0.09640000  0.49060000  0.39800000  1.0 -0.1423637907
O  O82  1  0.50940000  0.60200000  0.98500000  1.0 -0.1423637907
O  O83  1  0.09640000  0.39800000  0.01500000  1.0 -0.1423637907
O  O84  1  0.01500000  0.09640000  0.39800000  1.0 -0.1423637907
O  O85  1  0.09640000  0.01500000  0.49060000  1.0 -0.1423637907
O  O86  1  0.49060000  0.01500000  0.39800000  1.0 -0.1423637907
O  O87  1  0.39800000  0.49060000  0.01500000  1.0 -0.1423637907
O  O88  1  0.39800000  0.09640000  0.49060000  1.0 -0.1423637907
O  O89  1  0.01500000  0.49060000  0.09640000  1.0 -0.1423637907
O  O90  1  0.49060000  0.39800000  0.09640000  1.0 -0.1423637907
O  O91  1  0.60200000  0.98500000  0.50940000  1.0 -0.1423637907
O  O92  1  0.98500000  0.60200000  0.90360000  1.0 -0.1423637907
O  O93  1  0.50940000  0.98500000  0.90360000  1.0 -0.1423637907
O  O94  1  0.60200000  0.90360000  0.98500000  1.0 -0.1423637907
O  O95  1  0.60200000  0.50940000  0.90360000  1.0 -0.1423637907
O  O96  1  0.90360000  0.98500000  0.60200000  1.0 -0.1423637907
