# DDEC6 charges by PACMAN v1.1 (https://github.com/mtap-research/PACMAN-charge/)
data_LELMEW_ASR_pacman
_symmetry_space_group_name_H-M   'P 1'
_cell_length_a   28.13110000
_cell_length_b   28.13110000
_cell_length_c   28.13110000
_cell_angle_alpha   60.00000000
_cell_angle_beta   60.00000000
_cell_angle_gamma   60.00000000
_symmetry_Int_Tables_number   1
_chemical_formula_structural   Cu12H54C92N11O36
_chemical_formula_sum   'Cu48 H216 C368 N44 O144'
_cell_volume   15741.46491816
_cell_formula_units_Z   4
loop_
 _symmetry_equiv_pos_site_id
 _symmetry_equiv_pos_as_xyz
  1  'x, y, z'
loop_
 _atom_site_type_symbol
 _atom_site_label
 _atom_site_symmetry_multiplicity
 _atom_site_fract_x
 _atom_site_fract_y
 _atom_site_fract_z
 _atom_site_occupancy
 _atom_site_charge
Cu  Cu1  1  0.32319000  0.41387000  0.84907000  1.0 0.3738135545
Cu  Cu2  1  0.41387000  0.32319000  0.41387000  1.0 0.3738135545
Cu  Cu3  1  0.84907000  0.41387000  0.32319000  1.0 0.3738135545
Cu  Cu4  1  0.41387000  0.84907000  0.41387000  1.0 0.3738135545
Cu  Cu5  1  0.84907000  0.32319000  0.41387000  1.0 0.3738135545
Cu  Cu6  1  0.41387000  0.41387000  0.32319000  1.0 0.3738135545
Cu  Cu7  1  0.32319000  0.84907000  0.41387000  1.0 0.3738135545
Cu  Cu8  1  0.41387000  0.41387000  0.84907000  1.0 0.3738135545
Cu  Cu9  1  0.41387000  0.84907000  0.32319000  1.0 0.3738135545
Cu  Cu10  1  0.32319000  0.41387000  0.41387000  1.0 0.3738135545
Cu  Cu11  1  0.41387000  0.32319000  0.84907000  1.0 0.3738135545
Cu  Cu12  1  0.84907000  0.41387000  0.41387000  1.0 0.3738135545
Cu  Cu13  1  0.67681000  0.58613000  0.58613000  1.0 0.3738135545
Cu  Cu14  1  0.58613000  0.67681000  0.15093000  1.0 0.3738135545
Cu  Cu15  1  0.15093000  0.58613000  0.58613000  1.0 0.3738135545
Cu  Cu16  1  0.58613000  0.15093000  0.67681000  1.0 0.3738135545
Cu  Cu17  1  0.15093000  0.67681000  0.58613000  1.0 0.3738135545
Cu  Cu18  1  0.58613000  0.58613000  0.15093000  1.0 0.3738135545
Cu  Cu19  1  0.67681000  0.15093000  0.58613000  1.0 0.3738135545
Cu  Cu20  1  0.58613000  0.58613000  0.67681000  1.0 0.3738135545
Cu  Cu21  1  0.58613000  0.15093000  0.58613000  1.0 0.3738135545
Cu  Cu22  1  0.67681000  0.58613000  0.15093000  1.0 0.3738135545
Cu  Cu23  1  0.58613000  0.67681000  0.58613000  1.0 0.3738135545
Cu  Cu24  1  0.15093000  0.58613000  0.67681000  1.0 0.3738135545
Cu  Cu25  1  0.00000000  0.28266000  0.00000000  1.0 0.8816682173
Cu  Cu26  1  0.28266000  0.00000000  0.71734000  1.0 0.8816682173
Cu  Cu27  1  0.00000000  0.71734000  0.00000000  1.0 0.8816682173
Cu  Cu28  1  0.71734000  0.00000000  0.28266000  1.0 0.8816682173
Cu  Cu29  1  0.00000000  0.00000000  0.28266000  1.0 0.8816682173
Cu  Cu30  1  0.71734000  0.28266000  0.00000000  1.0 0.8816682173
Cu  Cu31  1  0.00000000  0.00000000  0.71734000  1.0 0.8816682173
Cu  Cu32  1  0.28266000  0.71734000  0.00000000  1.0 0.8816682173
Cu  Cu33  1  0.28266000  0.00000000  0.00000000  1.0 0.8816682173
Cu  Cu34  1  0.00000000  0.71734000  0.28266000  1.0 0.8816682173
Cu  Cu35  1  0.71734000  0.00000000  0.00000000  1.0 0.8816682173
Cu  Cu36  1  0.00000000  0.28266000  0.71734000  1.0 0.8816682173
Cu  Cu37  1  0.00000000  0.37698000  0.00000000  1.0 0.7617458476
Cu  Cu38  1  0.37698000  0.00000000  0.62302000  1.0 0.7617458476
Cu  Cu39  1  0.00000000  0.62302000  0.00000000  1.0 0.7617458476
Cu  Cu40  1  0.62302000  0.00000000  0.37698000  1.0 0.7617458476
Cu  Cu41  1  0.00000000  0.00000000  0.37698000  1.0 0.7617458476
Cu  Cu42  1  0.62302000  0.37698000  0.00000000  1.0 0.7617458476
Cu  Cu43  1  0.00000000  0.00000000  0.62302000  1.0 0.7617458476
Cu  Cu44  1  0.37698000  0.62302000  0.00000000  1.0 0.7617458476
Cu  Cu45  1  0.37698000  0.00000000  0.00000000  1.0 0.7617458476
Cu  Cu46  1  0.00000000  0.62302000  0.37698000  1.0 0.7617458476
Cu  Cu47  1  0.62302000  0.00000000  0.00000000  1.0 0.7617458476
Cu  Cu48  1  0.00000000  0.37698000  0.62302000  1.0 0.7617458476
H  H1  1  0.18930000  0.33170000  0.94130000  1.0 0.1255527404
H  H2  1  0.33170000  0.18930000  0.53770000  1.0 0.1255527404
H  H3  1  0.94130000  0.53770000  0.18930000  1.0 0.1255527404
H  H4  1  0.53770000  0.94130000  0.33170000  1.0 0.1255527404
H  H5  1  0.94130000  0.18930000  0.33170000  1.0 0.1255527404
H  H6  1  0.53770000  0.33170000  0.18930000  1.0 0.1255527404
H  H7  1  0.18930000  0.94130000  0.53770000  1.0 0.1255527404
H  H8  1  0.33170000  0.53770000  0.94130000  1.0 0.1255527404
H  H9  1  0.33170000  0.94130000  0.18930000  1.0 0.1255527404
H  H10  1  0.18930000  0.53770000  0.33170000  1.0 0.1255527404
H  H11  1  0.53770000  0.18930000  0.94130000  1.0 0.1255527404
H  H12  1  0.94130000  0.33170000  0.53770000  1.0 0.1255527404
H  H13  1  0.81070000  0.66830000  0.46230000  1.0 0.1255527404
H  H14  1  0.66830000  0.81070000  0.05870000  1.0 0.1255527404
H  H15  1  0.05870000  0.46230000  0.66830000  1.0 0.1255527404
H  H16  1  0.46230000  0.05870000  0.81070000  1.0 0.1255527404
H  H17  1  0.05870000  0.81070000  0.46230000  1.0 0.1255527404
H  H18  1  0.46230000  0.66830000  0.05870000  1.0 0.1255527404
H  H19  1  0.81070000  0.05870000  0.66830000  1.0 0.1255527404
H  H20  1  0.66830000  0.46230000  0.81070000  1.0 0.1255527404
H  H21  1  0.66830000  0.05870000  0.46230000  1.0 0.1255527404
H  H22  1  0.81070000  0.46230000  0.05870000  1.0 0.1255527404
H  H23  1  0.46230000  0.81070000  0.66830000  1.0 0.1255527404
H  H24  1  0.05870000  0.66830000  0.81070000  1.0 0.1255527404
H  H25  1  0.81070000  0.66830000  0.05870000  1.0 0.1255527404
H  H26  1  0.66830000  0.81070000  0.46230000  1.0 0.1255527404
H  H27  1  0.05870000  0.46230000  0.81070000  1.0 0.1255527404
H  H28  1  0.46230000  0.05870000  0.66830000  1.0 0.1255527404
H  H29  1  0.05870000  0.81070000  0.66830000  1.0 0.1255527404
H  H30  1  0.46230000  0.66830000  0.81070000  1.0 0.1255527404
H  H31  1  0.81070000  0.05870000  0.46230000  1.0 0.1255527404
H  H32  1  0.66830000  0.46230000  0.05870000  1.0 0.1255527404
H  H33  1  0.66830000  0.05870000  0.81070000  1.0 0.1255527404
H  H34  1  0.81070000  0.46230000  0.66830000  1.0 0.1255527404
H  H35  1  0.46230000  0.81070000  0.05870000  1.0 0.1255527404
H  H36  1  0.05870000  0.66830000  0.46230000  1.0 0.1255527404
H  H37  1  0.18930000  0.33170000  0.53770000  1.0 0.1255527404
H  H38  1  0.33170000  0.18930000  0.94130000  1.0 0.1255527404
H  H39  1  0.94130000  0.53770000  0.33170000  1.0 0.1255527404
H  H40  1  0.53770000  0.94130000  0.18930000  1.0 0.1255527404
H  H41  1  0.94130000  0.18930000  0.53770000  1.0 0.1255527404
H  H42  1  0.53770000  0.33170000  0.94130000  1.0 0.1255527404
H  H43  1  0.18930000  0.94130000  0.33170000  1.0 0.1255527404
H  H44  1  0.33170000  0.53770000  0.18930000  1.0 0.1255527404
H  H45  1  0.33170000  0.94130000  0.53770000  1.0 0.1255527404
H  H46  1  0.18930000  0.53770000  0.94130000  1.0 0.1255527404
H  H47  1  0.53770000  0.18930000  0.33170000  1.0 0.1255527404
H  H48  1  0.94130000  0.33170000  0.18930000  1.0 0.1255527404
H  H49  1  0.17650000  0.17650000  0.99010000  1.0 0.1383120013
H  H50  1  0.17650000  0.17650000  0.65690000  1.0 0.1383120013
H  H51  1  0.99010000  0.65690000  0.17650000  1.0 0.1383120013
H  H52  1  0.65690000  0.99010000  0.17650000  1.0 0.1383120013
H  H53  1  0.99010000  0.17650000  0.17650000  1.0 0.1383120013
H  H54  1  0.65690000  0.17650000  0.17650000  1.0 0.1383120013
H  H55  1  0.17650000  0.99010000  0.65690000  1.0 0.1383120013
H  H56  1  0.17650000  0.65690000  0.99010000  1.0 0.1383120013
H  H57  1  0.17650000  0.99010000  0.17650000  1.0 0.1383120013
H  H58  1  0.17650000  0.65690000  0.17650000  1.0 0.1383120013
H  H59  1  0.65690000  0.17650000  0.99010000  1.0 0.1383120013
H  H60  1  0.99010000  0.17650000  0.65690000  1.0 0.1383120013
H  H61  1  0.82350000  0.82350000  0.34310000  1.0 0.1383120013
H  H62  1  0.82350000  0.82350000  0.00990000  1.0 0.1383120013
H  H63  1  0.00990000  0.34310000  0.82350000  1.0 0.1383120013
H  H64  1  0.34310000  0.00990000  0.82350000  1.0 0.1383120013
H  H65  1  0.00990000  0.82350000  0.34310000  1.0 0.1383120013
H  H66  1  0.34310000  0.82350000  0.00990000  1.0 0.1383120013
H  H67  1  0.82350000  0.00990000  0.82350000  1.0 0.1383120013
H  H68  1  0.82350000  0.34310000  0.82350000  1.0 0.1383120013
H  H69  1  0.82350000  0.00990000  0.34310000  1.0 0.1383120013
H  H70  1  0.82350000  0.34310000  0.00990000  1.0 0.1383120013
H  H71  1  0.34310000  0.82350000  0.82350000  1.0 0.1383120013
H  H72  1  0.00990000  0.82350000  0.82350000  1.0 0.1383120013
H  H73  1  0.27600000  0.40160000  0.77860000  1.0 0.1187630543
H  H74  1  0.40160000  0.27600000  0.54380000  1.0 0.1187630543
H  H75  1  0.77860000  0.54380000  0.27600000  1.0 0.1187630543
H  H76  1  0.54380000  0.77860000  0.40160000  1.0 0.1187630543
H  H77  1  0.77860000  0.27600000  0.40160000  1.0 0.1187630543
H  H78  1  0.54380000  0.40160000  0.27600000  1.0 0.1187630543
H  H79  1  0.27600000  0.77860000  0.54380000  1.0 0.1187630543
H  H80  1  0.40160000  0.54380000  0.77860000  1.0 0.1187630543
H  H81  1  0.40160000  0.77860000  0.27600000  1.0 0.1187630543
H  H82  1  0.27600000  0.54380000  0.40160000  1.0 0.1187630543
H  H83  1  0.54380000  0.27600000  0.77860000  1.0 0.1187630543
H  H84  1  0.77860000  0.40160000  0.54380000  1.0 0.1187630543
H  H85  1  0.72400000  0.59840000  0.45620000  1.0 0.1187630543
H  H86  1  0.59840000  0.72400000  0.22140000  1.0 0.1187630543
H  H87  1  0.22140000  0.45620000  0.59840000  1.0 0.1187630543
H  H88  1  0.45620000  0.22140000  0.72400000  1.0 0.1187630543
H  H89  1  0.22140000  0.72400000  0.45620000  1.0 0.1187630543
H  H90  1  0.45620000  0.59840000  0.22140000  1.0 0.1187630543
H  H91  1  0.72400000  0.22140000  0.59840000  1.0 0.1187630543
H  H92  1  0.59840000  0.45620000  0.72400000  1.0 0.1187630543
H  H93  1  0.59840000  0.22140000  0.45620000  1.0 0.1187630543
H  H94  1  0.72400000  0.45620000  0.22140000  1.0 0.1187630543
H  H95  1  0.45620000  0.72400000  0.59840000  1.0 0.1187630543
H  H96  1  0.22140000  0.59840000  0.72400000  1.0 0.1187630543
H  H97  1  0.72400000  0.59840000  0.22140000  1.0 0.1187630543
H  H98  1  0.59840000  0.72400000  0.45620000  1.0 0.1187630543
H  H99  1  0.22140000  0.45620000  0.72400000  1.0 0.1187630543
H  H100  1  0.45620000  0.22140000  0.59840000  1.0 0.1187630543
H  H101  1  0.22140000  0.72400000  0.59840000  1.0 0.1187630543
H  H102  1  0.45620000  0.59840000  0.72400000  1.0 0.1187630543
H  H103  1  0.72400000  0.22140000  0.45620000  1.0 0.1187630543
H  H104  1  0.59840000  0.45620000  0.22140000  1.0 0.1187630543
H  H105  1  0.59840000  0.22140000  0.72400000  1.0 0.1187630543
H  H106  1  0.72400000  0.45620000  0.59840000  1.0 0.1187630543
H  H107  1  0.45620000  0.72400000  0.22140000  1.0 0.1187630543
H  H108  1  0.22140000  0.59840000  0.45620000  1.0 0.1187630543
H  H109  1  0.27600000  0.40160000  0.54380000  1.0 0.1187630543
H  H110  1  0.40160000  0.27600000  0.77860000  1.0 0.1187630543
H  H111  1  0.77860000  0.54380000  0.40160000  1.0 0.1187630543
H  H112  1  0.54380000  0.77860000  0.27600000  1.0 0.1187630543
H  H113  1  0.77860000  0.27600000  0.54380000  1.0 0.1187630543
H  H114  1  0.54380000  0.40160000  0.77860000  1.0 0.1187630543
H  H115  1  0.27600000  0.77860000  0.40160000  1.0 0.1187630543
H  H116  1  0.40160000  0.54380000  0.27600000  1.0 0.1187630543
H  H117  1  0.40160000  0.77860000  0.54380000  1.0 0.1187630543
H  H118  1  0.27600000  0.54380000  0.77860000  1.0 0.1187630543
H  H119  1  0.54380000  0.27600000  0.40160000  1.0 0.1187630543
H  H120  1  0.77860000  0.40160000  0.27600000  1.0 0.1187630543
H  H121  1  0.32470000  0.42910000  0.72990000  1.0 0.1148022809
H  H122  1  0.42910000  0.32470000  0.51630000  1.0 0.1148022809
H  H123  1  0.72990000  0.51630000  0.32470000  1.0 0.1148022809
H  H124  1  0.51630000  0.72990000  0.42910000  1.0 0.1148022809
H  H125  1  0.72990000  0.32470000  0.42910000  1.0 0.1148022809
H  H126  1  0.51630000  0.42910000  0.32470000  1.0 0.1148022809
H  H127  1  0.32470000  0.72990000  0.51630000  1.0 0.1148022809
H  H128  1  0.42910000  0.51630000  0.72990000  1.0 0.1148022809
H  H129  1  0.42910000  0.72990000  0.32470000  1.0 0.1148022809
H  H130  1  0.32470000  0.51630000  0.42910000  1.0 0.1148022809
H  H131  1  0.51630000  0.32470000  0.72990000  1.0 0.1148022809
H  H132  1  0.72990000  0.42910000  0.51630000  1.0 0.1148022809
H  H133  1  0.67530000  0.57090000  0.48370000  1.0 0.1148022809
H  H134  1  0.57090000  0.67530000  0.27010000  1.0 0.1148022809
H  H135  1  0.27010000  0.48370000  0.57090000  1.0 0.1148022809
H  H136  1  0.48370000  0.27010000  0.67530000  1.0 0.1148022809
H  H137  1  0.27010000  0.67530000  0.48370000  1.0 0.1148022809
H  H138  1  0.48370000  0.57090000  0.27010000  1.0 0.1148022809
H  H139  1  0.67530000  0.27010000  0.57090000  1.0 0.1148022809
H  H140  1  0.57090000  0.48370000  0.67530000  1.0 0.1148022809
H  H141  1  0.57090000  0.27010000  0.48370000  1.0 0.1148022809
H  H142  1  0.67530000  0.48370000  0.27010000  1.0 0.1148022809
H  H143  1  0.48370000  0.67530000  0.57090000  1.0 0.1148022809
H  H144  1  0.27010000  0.57090000  0.67530000  1.0 0.1148022809
H  H145  1  0.67530000  0.57090000  0.27010000  1.0 0.1148022809
H  H146  1  0.57090000  0.67530000  0.48370000  1.0 0.1148022809
H  H147  1  0.27010000  0.48370000  0.67530000  1.0 0.1148022809
H  H148  1  0.48370000  0.27010000  0.57090000  1.0 0.1148022809
H  H149  1  0.27010000  0.67530000  0.57090000  1.0 0.1148022809
H  H150  1  0.48370000  0.57090000  0.67530000  1.0 0.1148022809
H  H151  1  0.67530000  0.27010000  0.48370000  1.0 0.1148022809
H  H152  1  0.57090000  0.48370000  0.27010000  1.0 0.1148022809
H  H153  1  0.57090000  0.27010000  0.67530000  1.0 0.1148022809
H  H154  1  0.67530000  0.48370000  0.57090000  1.0 0.1148022809
H  H155  1  0.48370000  0.67530000  0.27010000  1.0 0.1148022809
H  H156  1  0.27010000  0.57090000  0.48370000  1.0 0.1148022809
H  H157  1  0.32470000  0.42910000  0.51630000  1.0 0.1148022809
H  H158  1  0.42910000  0.32470000  0.72990000  1.0 0.1148022809
H  H159  1  0.72990000  0.51630000  0.42910000  1.0 0.1148022809
H  H160  1  0.51630000  0.72990000  0.32470000  1.0 0.1148022809
H  H161  1  0.72990000  0.32470000  0.51630000  1.0 0.1148022809
H  H162  1  0.51630000  0.42910000  0.72990000  1.0 0.1148022809
H  H163  1  0.32470000  0.72990000  0.42910000  1.0 0.1148022809
H  H164  1  0.42910000  0.51630000  0.32470000  1.0 0.1148022809
H  H165  1  0.42910000  0.72990000  0.51630000  1.0 0.1148022809
H  H166  1  0.32470000  0.51630000  0.72990000  1.0 0.1148022809
H  H167  1  0.51630000  0.32470000  0.42910000  1.0 0.1148022809
H  H168  1  0.72990000  0.42910000  0.32470000  1.0 0.1148022809
H  H169  1  0.20230000  0.49970000  0.85330000  1.0 0.1187630543
H  H170  1  0.49970000  0.20230000  0.44470000  1.0 0.1187630543
H  H171  1  0.85330000  0.44470000  0.20230000  1.0 0.1187630543
H  H172  1  0.44470000  0.85330000  0.49970000  1.0 0.1187630543
H  H173  1  0.85330000  0.20230000  0.49970000  1.0 0.1187630543
H  H174  1  0.44470000  0.49970000  0.20230000  1.0 0.1187630543
H  H175  1  0.20230000  0.85330000  0.44470000  1.0 0.1187630543
H  H176  1  0.49970000  0.44470000  0.85330000  1.0 0.1187630543
H  H177  1  0.49970000  0.85330000  0.20230000  1.0 0.1187630543
H  H178  1  0.20230000  0.44470000  0.49970000  1.0 0.1187630543
H  H179  1  0.44470000  0.20230000  0.85330000  1.0 0.1187630543
H  H180  1  0.85330000  0.49970000  0.44470000  1.0 0.1187630543
H  H181  1  0.79770000  0.50030000  0.55530000  1.0 0.1187630543
H  H182  1  0.50030000  0.79770000  0.14670000  1.0 0.1187630543
H  H183  1  0.14670000  0.55530000  0.50030000  1.0 0.1187630543
H  H184  1  0.55530000  0.14670000  0.79770000  1.0 0.1187630543
H  H185  1  0.14670000  0.79770000  0.55530000  1.0 0.1187630543
H  H186  1  0.55530000  0.50030000  0.14670000  1.0 0.1187630543
H  H187  1  0.79770000  0.14670000  0.50030000  1.0 0.1187630543
H  H188  1  0.50030000  0.55530000  0.79770000  1.0 0.1187630543
H  H189  1  0.50030000  0.14670000  0.55530000  1.0 0.1187630543
H  H190  1  0.79770000  0.55530000  0.14670000  1.0 0.1187630543
H  H191  1  0.55530000  0.79770000  0.50030000  1.0 0.1187630543
H  H192  1  0.14670000  0.50030000  0.79770000  1.0 0.1187630543
H  H193  1  0.79770000  0.50030000  0.14670000  1.0 0.1187630543
H  H194  1  0.50030000  0.79770000  0.55530000  1.0 0.1187630543
H  H195  1  0.14670000  0.55530000  0.79770000  1.0 0.1187630543
H  H196  1  0.55530000  0.14670000  0.50030000  1.0 0.1187630543
H  H197  1  0.14670000  0.79770000  0.50030000  1.0 0.1187630543
H  H198  1  0.55530000  0.50030000  0.79770000  1.0 0.1187630543
H  H199  1  0.79770000  0.14670000  0.55530000  1.0 0.1187630543
H  H200  1  0.50030000  0.55530000  0.14670000  1.0 0.1187630543
H  H201  1  0.50030000  0.14670000  0.79770000  1.0 0.1187630543
H  H202  1  0.79770000  0.55530000  0.50030000  1.0 0.1187630543
H  H203  1  0.55530000  0.79770000  0.14670000  1.0 0.1187630543
H  H204  1  0.14670000  0.50030000  0.55530000  1.0 0.1187630543
H  H205  1  0.20230000  0.49970000  0.44470000  1.0 0.1187630543
H  H206  1  0.49970000  0.20230000  0.85330000  1.0 0.1187630543
H  H207  1  0.85330000  0.44470000  0.49970000  1.0 0.1187630543
H  H208  1  0.44470000  0.85330000  0.20230000  1.0 0.1187630543
H  H209  1  0.85330000  0.20230000  0.44470000  1.0 0.1187630543
H  H210  1  0.44470000  0.49970000  0.85330000  1.0 0.1187630543
H  H211  1  0.20230000  0.85330000  0.49970000  1.0 0.1187630543
H  H212  1  0.49970000  0.44470000  0.20230000  1.0 0.1187630543
H  H213  1  0.49970000  0.85330000  0.44470000  1.0 0.1187630543
H  H214  1  0.20230000  0.44470000  0.85330000  1.0 0.1187630543
H  H215  1  0.44470000  0.20230000  0.49970000  1.0 0.1187630543
H  H216  1  0.85330000  0.49970000  0.20230000  1.0 0.1187630543
C  C1  1  0.17244000  0.25832000  0.96824000  1.0 -0.0234431761
C  C2  1  0.25832000  0.17244000  0.60100000  1.0 -0.0234431761
C  C3  1  0.96824000  0.60100000  0.17244000  1.0 -0.0234431761
C  C4  1  0.60100000  0.96824000  0.25832000  1.0 -0.0234431761
C  C5  1  0.96824000  0.17244000  0.25832000  1.0 -0.0234431761
C  C6  1  0.60100000  0.25832000  0.17244000  1.0 -0.0234431761
C  C7  1  0.17244000  0.96824000  0.60100000  1.0 -0.0234431761
C  C8  1  0.25832000  0.60100000  0.96824000  1.0 -0.0234431761
C  C9  1  0.25832000  0.96824000  0.17244000  1.0 -0.0234431761
C  C10  1  0.17244000  0.60100000  0.25832000  1.0 -0.0234431761
C  C11  1  0.60100000  0.17244000  0.96824000  1.0 -0.0234431761
C  C12  1  0.96824000  0.25832000  0.60100000  1.0 -0.0234431761
C  C13  1  0.82756000  0.74168000  0.39900000  1.0 -0.0234431761
C  C14  1  0.74168000  0.82756000  0.03176000  1.0 -0.0234431761
C  C15  1  0.03176000  0.39900000  0.74168000  1.0 -0.0234431761
C  C16  1  0.39900000  0.03176000  0.82756000  1.0 -0.0234431761
C  C17  1  0.03176000  0.82756000  0.39900000  1.0 -0.0234431761
C  C18  1  0.39900000  0.74168000  0.03176000  1.0 -0.0234431761
C  C19  1  0.82756000  0.03176000  0.74168000  1.0 -0.0234431761
C  C20  1  0.74168000  0.39900000  0.82756000  1.0 -0.0234431761
C  C21  1  0.74168000  0.03176000  0.39900000  1.0 -0.0234431761
C  C22  1  0.82756000  0.39900000  0.03176000  1.0 -0.0234431761
C  C23  1  0.39900000  0.82756000  0.74168000  1.0 -0.0234431761
C  C24  1  0.03176000  0.74168000  0.82756000  1.0 -0.0234431761
C  C25  1  0.82756000  0.74168000  0.03176000  1.0 -0.0234431761
C  C26  1  0.74168000  0.82756000  0.39900000  1.0 -0.0234431761
C  C27  1  0.03176000  0.39900000  0.82756000  1.0 -0.0234431761
C  C28  1  0.39900000  0.03176000  0.74168000  1.0 -0.0234431761
C  C29  1  0.03176000  0.82756000  0.74168000  1.0 -0.0234431761
C  C30  1  0.39900000  0.74168000  0.82756000  1.0 -0.0234431761
C  C31  1  0.82756000  0.03176000  0.39900000  1.0 -0.0234431761
C  C32  1  0.74168000  0.39900000  0.03176000  1.0 -0.0234431761
C  C33  1  0.74168000  0.03176000  0.82756000  1.0 -0.0234431761
C  C34  1  0.82756000  0.39900000  0.74168000  1.0 -0.0234431761
C  C35  1  0.39900000  0.82756000  0.03176000  1.0 -0.0234431761
C  C36  1  0.03176000  0.74168000  0.39900000  1.0 -0.0234431761
C  C37  1  0.17244000  0.25832000  0.60100000  1.0 -0.0234431761
C  C38  1  0.25832000  0.17244000  0.96824000  1.0 -0.0234431761
C  C39  1  0.96824000  0.60100000  0.25832000  1.0 -0.0234431761
C  C40  1  0.60100000  0.96824000  0.17244000  1.0 -0.0234431761
C  C41  1  0.96824000  0.17244000  0.60100000  1.0 -0.0234431761
C  C42  1  0.60100000  0.25832000  0.96824000  1.0 -0.0234431761
C  C43  1  0.17244000  0.96824000  0.25832000  1.0 -0.0234431761
C  C44  1  0.25832000  0.60100000  0.17244000  1.0 -0.0234431761
C  C45  1  0.25832000  0.96824000  0.60100000  1.0 -0.0234431761
C  C46  1  0.17244000  0.60100000  0.96824000  1.0 -0.0234431761
C  C47  1  0.60100000  0.17244000  0.25832000  1.0 -0.0234431761
C  C48  1  0.96824000  0.25832000  0.17244000  1.0 -0.0234431761
C  C49  1  0.20673000  0.29191000  0.94731000  1.0 -0.10882127
C  C50  1  0.29191000  0.20673000  0.55405000  1.0 -0.10882127
C  C51  1  0.94731000  0.55405000  0.20673000  1.0 -0.10882127
C  C52  1  0.55405000  0.94731000  0.29191000  1.0 -0.10882127
C  C53  1  0.94731000  0.20673000  0.29191000  1.0 -0.10882127
C  C54  1  0.55405000  0.29191000  0.20673000  1.0 -0.10882127
C  C55  1  0.20673000  0.94731000  0.55405000  1.0 -0.10882127
C  C56  1  0.29191000  0.55405000  0.94731000  1.0 -0.10882127
C  C57  1  0.29191000  0.94731000  0.20673000  1.0 -0.10882127
C  C58  1  0.20673000  0.55405000  0.29191000  1.0 -0.10882127
C  C59  1  0.55405000  0.20673000  0.94731000  1.0 -0.10882127
C  C60  1  0.94731000  0.29191000  0.55405000  1.0 -0.10882127
C  C61  1  0.79327000  0.70809000  0.44595000  1.0 -0.10882127
C  C62  1  0.70809000  0.79327000  0.05269000  1.0 -0.10882127
C  C63  1  0.05269000  0.44595000  0.70809000  1.0 -0.10882127
C  C64  1  0.44595000  0.05269000  0.79327000  1.0 -0.10882127
C  C65  1  0.05269000  0.79327000  0.44595000  1.0 -0.10882127
C  C66  1  0.44595000  0.70809000  0.05269000  1.0 -0.10882127
C  C67  1  0.79327000  0.05269000  0.70809000  1.0 -0.10882127
C  C68  1  0.70809000  0.44595000  0.79327000  1.0 -0.10882127
C  C69  1  0.70809000  0.05269000  0.44595000  1.0 -0.10882127
C  C70  1  0.79327000  0.44595000  0.05269000  1.0 -0.10882127
C  C71  1  0.44595000  0.79327000  0.70809000  1.0 -0.10882127
C  C72  1  0.05269000  0.70809000  0.79327000  1.0 -0.10882127
C  C73  1  0.79327000  0.70809000  0.05269000  1.0 -0.10882127
C  C74  1  0.70809000  0.79327000  0.44595000  1.0 -0.10882127
C  C75  1  0.05269000  0.44595000  0.79327000  1.0 -0.10882127
C  C76  1  0.44595000  0.05269000  0.70809000  1.0 -0.10882127
C  C77  1  0.05269000  0.79327000  0.70809000  1.0 -0.10882127
C  C78  1  0.44595000  0.70809000  0.79327000  1.0 -0.10882127
C  C79  1  0.79327000  0.05269000  0.44595000  1.0 -0.10882127
C  C80  1  0.70809000  0.44595000  0.05269000  1.0 -0.10882127
C  C81  1  0.70809000  0.05269000  0.79327000  1.0 -0.10882127
C  C82  1  0.79327000  0.44595000  0.70809000  1.0 -0.10882127
C  C83  1  0.44595000  0.79327000  0.05269000  1.0 -0.10882127
C  C84  1  0.05269000  0.70809000  0.44595000  1.0 -0.10882127
C  C85  1  0.20673000  0.29191000  0.55405000  1.0 -0.10882127
C  C86  1  0.29191000  0.20673000  0.94731000  1.0 -0.10882127
C  C87  1  0.94731000  0.55405000  0.29191000  1.0 -0.10882127
C  C88  1  0.55405000  0.94731000  0.20673000  1.0 -0.10882127
C  C89  1  0.94731000  0.20673000  0.55405000  1.0 -0.10882127
C  C90  1  0.55405000  0.29191000  0.94731000  1.0 -0.10882127
C  C91  1  0.20673000  0.94731000  0.29191000  1.0 -0.10882127
C  C92  1  0.29191000  0.55405000  0.20673000  1.0 -0.10882127
C  C93  1  0.29191000  0.94731000  0.55405000  1.0 -0.10882127
C  C94  1  0.20673000  0.55405000  0.94731000  1.0 -0.10882127
C  C95  1  0.55405000  0.20673000  0.29191000  1.0 -0.10882127
C  C96  1  0.94731000  0.29191000  0.20673000  1.0 -0.10882127
C  C97  1  0.26657000  0.26657000  0.93537000  1.0 -0.0328710667
C  C98  1  0.26657000  0.26657000  0.53149000  1.0 -0.0328710667
C  C99  1  0.93537000  0.53149000  0.26657000  1.0 -0.0328710667
C  C100  1  0.53149000  0.93537000  0.26657000  1.0 -0.0328710667
C  C101  1  0.93537000  0.26657000  0.26657000  1.0 -0.0328710667
C  C102  1  0.53149000  0.26657000  0.26657000  1.0 -0.0328710667
C  C103  1  0.26657000  0.93537000  0.53149000  1.0 -0.0328710667
C  C104  1  0.26657000  0.53149000  0.93537000  1.0 -0.0328710667
C  C105  1  0.26657000  0.93537000  0.26657000  1.0 -0.0328710667
C  C106  1  0.26657000  0.53149000  0.26657000  1.0 -0.0328710667
C  C107  1  0.53149000  0.26657000  0.93537000  1.0 -0.0328710667
C  C108  1  0.93537000  0.26657000  0.53149000  1.0 -0.0328710667
C  C109  1  0.73343000  0.73343000  0.46851000  1.0 -0.0328710667
C  C110  1  0.73343000  0.73343000  0.06463000  1.0 -0.0328710667
C  C111  1  0.06463000  0.46851000  0.73343000  1.0 -0.0328710667
C  C112  1  0.46851000  0.06463000  0.73343000  1.0 -0.0328710667
C  C113  1  0.06463000  0.73343000  0.46851000  1.0 -0.0328710667
C  C114  1  0.46851000  0.73343000  0.06463000  1.0 -0.0328710667
C  C115  1  0.73343000  0.06463000  0.73343000  1.0 -0.0328710667
C  C116  1  0.73343000  0.46851000  0.73343000  1.0 -0.0328710667
C  C117  1  0.73343000  0.06463000  0.46851000  1.0 -0.0328710667
C  C118  1  0.73343000  0.46851000  0.06463000  1.0 -0.0328710667
C  C119  1  0.46851000  0.73343000  0.73343000  1.0 -0.0328710667
C  C120  1  0.06463000  0.73343000  0.73343000  1.0 -0.0328710667
C  C121  1  0.19881000  0.19881000  0.97753000  1.0 -0.0912479735
C  C122  1  0.19881000  0.19881000  0.62485000  1.0 -0.0912479735
C  C123  1  0.97753000  0.62485000  0.19881000  1.0 -0.0912479735
C  C124  1  0.62485000  0.97753000  0.19881000  1.0 -0.0912479735
C  C125  1  0.97753000  0.19881000  0.19881000  1.0 -0.0912479735
C  C126  1  0.62485000  0.19881000  0.19881000  1.0 -0.0912479735
C  C127  1  0.19881000  0.97753000  0.62485000  1.0 -0.0912479735
C  C128  1  0.19881000  0.62485000  0.97753000  1.0 -0.0912479735
C  C129  1  0.19881000  0.97753000  0.19881000  1.0 -0.0912479735
C  C130  1  0.19881000  0.62485000  0.19881000  1.0 -0.0912479735
C  C131  1  0.62485000  0.19881000  0.97753000  1.0 -0.0912479735
C  C132  1  0.97753000  0.19881000  0.62485000  1.0 -0.0912479735
C  C133  1  0.80119000  0.80119000  0.37515000  1.0 -0.0912479735
C  C134  1  0.80119000  0.80119000  0.02247000  1.0 -0.0912479735
C  C135  1  0.02247000  0.37515000  0.80119000  1.0 -0.0912479735
C  C136  1  0.37515000  0.02247000  0.80119000  1.0 -0.0912479735
C  C137  1  0.02247000  0.80119000  0.37515000  1.0 -0.0912479735
C  C138  1  0.37515000  0.80119000  0.02247000  1.0 -0.0912479735
C  C139  1  0.80119000  0.02247000  0.80119000  1.0 -0.0912479735
C  C140  1  0.80119000  0.37515000  0.80119000  1.0 -0.0912479735
C  C141  1  0.80119000  0.02247000  0.37515000  1.0 -0.0912479735
C  C142  1  0.80119000  0.37515000  0.02247000  1.0 -0.0912479735
C  C143  1  0.37515000  0.80119000  0.80119000  1.0 -0.0912479735
C  C144  1  0.02247000  0.80119000  0.80119000  1.0 -0.0912479735
C  C145  1  0.10813000  0.28525000  0.98059000  1.0 0.5806199187
C  C146  1  0.28525000  0.10813000  0.62603000  1.0 0.5806199187
C  C147  1  0.98059000  0.62603000  0.10813000  1.0 0.5806199187
C  C148  1  0.62603000  0.98059000  0.28525000  1.0 0.5806199187
C  C149  1  0.98059000  0.10813000  0.28525000  1.0 0.5806199187
C  C150  1  0.62603000  0.28525000  0.10813000  1.0 0.5806199187
C  C151  1  0.10813000  0.98059000  0.62603000  1.0 0.5806199187
C  C152  1  0.28525000  0.62603000  0.98059000  1.0 0.5806199187
C  C153  1  0.28525000  0.98059000  0.10813000  1.0 0.5806199187
C  C154  1  0.10813000  0.62603000  0.28525000  1.0 0.5806199187
C  C155  1  0.62603000  0.10813000  0.98059000  1.0 0.5806199187
C  C156  1  0.98059000  0.28525000  0.62603000  1.0 0.5806199187
C  C157  1  0.89187000  0.71475000  0.37397000  1.0 0.5806199187
C  C158  1  0.71475000  0.89187000  0.01941000  1.0 0.5806199187
C  C159  1  0.01941000  0.37397000  0.71475000  1.0 0.5806199187
C  C160  1  0.37397000  0.01941000  0.89187000  1.0 0.5806199187
C  C161  1  0.01941000  0.89187000  0.37397000  1.0 0.5806199187
C  C162  1  0.37397000  0.71475000  0.01941000  1.0 0.5806199187
C  C163  1  0.89187000  0.01941000  0.71475000  1.0 0.5806199187
C  C164  1  0.71475000  0.37397000  0.89187000  1.0 0.5806199187
C  C165  1  0.71475000  0.01941000  0.37397000  1.0 0.5806199187
C  C166  1  0.89187000  0.37397000  0.01941000  1.0 0.5806199187
C  C167  1  0.37397000  0.89187000  0.71475000  1.0 0.5806199187
C  C168  1  0.01941000  0.71475000  0.89187000  1.0 0.5806199187
C  C169  1  0.89187000  0.71475000  0.01941000  1.0 0.5806199187
C  C170  1  0.71475000  0.89187000  0.37397000  1.0 0.5806199187
C  C171  1  0.01941000  0.37397000  0.89187000  1.0 0.5806199187
C  C172  1  0.37397000  0.01941000  0.71475000  1.0 0.5806199187
C  C173  1  0.01941000  0.89187000  0.71475000  1.0 0.5806199187
C  C174  1  0.37397000  0.71475000  0.89187000  1.0 0.5806199187
C  C175  1  0.89187000  0.01941000  0.37397000  1.0 0.5806199187
C  C176  1  0.71475000  0.37397000  0.01941000  1.0 0.5806199187
C  C177  1  0.71475000  0.01941000  0.89187000  1.0 0.5806199187
C  C178  1  0.89187000  0.37397000  0.71475000  1.0 0.5806199187
C  C179  1  0.37397000  0.89187000  0.01941000  1.0 0.5806199187
C  C180  1  0.01941000  0.71475000  0.37397000  1.0 0.5806199187
C  C181  1  0.10813000  0.28525000  0.62603000  1.0 0.5806199187
C  C182  1  0.28525000  0.10813000  0.98059000  1.0 0.5806199187
C  C183  1  0.98059000  0.62603000  0.28525000  1.0 0.5806199187
C  C184  1  0.62603000  0.98059000  0.10813000  1.0 0.5806199187
C  C185  1  0.98059000  0.10813000  0.62603000  1.0 0.5806199187
C  C186  1  0.62603000  0.28525000  0.98059000  1.0 0.5806199187
C  C187  1  0.10813000  0.98059000  0.28525000  1.0 0.5806199187
C  C188  1  0.28525000  0.62603000  0.10813000  1.0 0.5806199187
C  C189  1  0.28525000  0.98059000  0.62603000  1.0 0.5806199187
C  C190  1  0.10813000  0.62603000  0.98059000  1.0 0.5806199187
C  C191  1  0.62603000  0.10813000  0.28525000  1.0 0.5806199187
C  C192  1  0.98059000  0.28525000  0.10813000  1.0 0.5806199187
C  C193  1  0.30346000  0.30346000  0.90866000  1.0 0.5477067554
C  C194  1  0.30346000  0.30346000  0.48442000  1.0 0.5477067554
C  C195  1  0.90866000  0.48442000  0.30346000  1.0 0.5477067554
C  C196  1  0.48442000  0.90866000  0.30346000  1.0 0.5477067554
C  C197  1  0.90866000  0.30346000  0.30346000  1.0 0.5477067554
C  C198  1  0.48442000  0.30346000  0.30346000  1.0 0.5477067554
C  C199  1  0.30346000  0.90866000  0.48442000  1.0 0.5477067554
C  C200  1  0.30346000  0.48442000  0.90866000  1.0 0.5477067554
C  C201  1  0.30346000  0.90866000  0.30346000  1.0 0.5477067554
C  C202  1  0.30346000  0.48442000  0.30346000  1.0 0.5477067554
C  C203  1  0.48442000  0.30346000  0.90866000  1.0 0.5477067554
C  C204  1  0.90866000  0.30346000  0.48442000  1.0 0.5477067554
C  C205  1  0.69654000  0.69654000  0.51558000  1.0 0.5477067554
C  C206  1  0.69654000  0.69654000  0.09134000  1.0 0.5477067554
C  C207  1  0.09134000  0.51558000  0.69654000  1.0 0.5477067554
C  C208  1  0.51558000  0.09134000  0.69654000  1.0 0.5477067554
C  C209  1  0.09134000  0.69654000  0.51558000  1.0 0.5477067554
C  C210  1  0.51558000  0.69654000  0.09134000  1.0 0.5477067554
C  C211  1  0.69654000  0.09134000  0.69654000  1.0 0.5477067554
C  C212  1  0.69654000  0.51558000  0.69654000  1.0 0.5477067554
C  C213  1  0.69654000  0.09134000  0.51558000  1.0 0.5477067554
C  C214  1  0.69654000  0.51558000  0.09134000  1.0 0.5477067554
C  C215  1  0.51558000  0.69654000  0.69654000  1.0 0.5477067554
C  C216  1  0.09134000  0.69654000  0.69654000  1.0 0.5477067554
C  C217  1  0.28399000  0.43803000  0.75439000  1.0 -0.1172839012
C  C218  1  0.43803000  0.28399000  0.52359000  1.0 -0.1172839012
C  C219  1  0.75439000  0.52359000  0.28399000  1.0 -0.1172839012
C  C220  1  0.52359000  0.75439000  0.43803000  1.0 -0.1172839012
C  C221  1  0.75439000  0.28399000  0.43803000  1.0 -0.1172839012
C  C222  1  0.52359000  0.43803000  0.28399000  1.0 -0.1172839012
C  C223  1  0.28399000  0.75439000  0.52359000  1.0 -0.1172839012
C  C224  1  0.43803000  0.52359000  0.75439000  1.0 -0.1172839012
C  C225  1  0.43803000  0.75439000  0.28399000  1.0 -0.1172839012
C  C226  1  0.28399000  0.52359000  0.43803000  1.0 -0.1172839012
C  C227  1  0.52359000  0.28399000  0.75439000  1.0 -0.1172839012
C  C228  1  0.75439000  0.43803000  0.52359000  1.0 -0.1172839012
C  C229  1  0.71601000  0.56197000  0.47641000  1.0 -0.1172839012
C  C230  1  0.56197000  0.71601000  0.24561000  1.0 -0.1172839012
C  C231  1  0.24561000  0.47641000  0.56197000  1.0 -0.1172839012
C  C232  1  0.47641000  0.24561000  0.71601000  1.0 -0.1172839012
C  C233  1  0.24561000  0.71601000  0.47641000  1.0 -0.1172839012
C  C234  1  0.47641000  0.56197000  0.24561000  1.0 -0.1172839012
C  C235  1  0.71601000  0.24561000  0.56197000  1.0 -0.1172839012
C  C236  1  0.56197000  0.47641000  0.71601000  1.0 -0.1172839012
C  C237  1  0.56197000  0.24561000  0.47641000  1.0 -0.1172839012
C  C238  1  0.71601000  0.47641000  0.24561000  1.0 -0.1172839012
C  C239  1  0.47641000  0.71601000  0.56197000  1.0 -0.1172839012
C  C240  1  0.24561000  0.56197000  0.71601000  1.0 -0.1172839012
C  C241  1  0.71601000  0.56197000  0.24561000  1.0 -0.1172839012
C  C242  1  0.56197000  0.71601000  0.47641000  1.0 -0.1172839012
C  C243  1  0.24561000  0.47641000  0.71601000  1.0 -0.1172839012
C  C244  1  0.47641000  0.24561000  0.56197000  1.0 -0.1172839012
C  C245  1  0.24561000  0.71601000  0.56197000  1.0 -0.1172839012
C  C246  1  0.47641000  0.56197000  0.71601000  1.0 -0.1172839012
C  C247  1  0.71601000  0.24561000  0.47641000  1.0 -0.1172839012
C  C248  1  0.56197000  0.47641000  0.24561000  1.0 -0.1172839012
C  C249  1  0.56197000  0.24561000  0.71601000  1.0 -0.1172839012
C  C250  1  0.71601000  0.47641000  0.56197000  1.0 -0.1172839012
C  C251  1  0.47641000  0.71601000  0.24561000  1.0 -0.1172839012
C  C252  1  0.24561000  0.56197000  0.47641000  1.0 -0.1172839012
C  C253  1  0.28399000  0.43803000  0.52359000  1.0 -0.1172839012
C  C254  1  0.43803000  0.28399000  0.75439000  1.0 -0.1172839012
C  C255  1  0.75439000  0.52359000  0.43803000  1.0 -0.1172839012
C  C256  1  0.52359000  0.75439000  0.28399000  1.0 -0.1172839012
C  C257  1  0.75439000  0.28399000  0.52359000  1.0 -0.1172839012
C  C258  1  0.52359000  0.43803000  0.75439000  1.0 -0.1172839012
C  C259  1  0.28399000  0.75439000  0.43803000  1.0 -0.1172839012
C  C260  1  0.43803000  0.52359000  0.28399000  1.0 -0.1172839012
C  C261  1  0.43803000  0.75439000  0.52359000  1.0 -0.1172839012
C  C262  1  0.28399000  0.52359000  0.75439000  1.0 -0.1172839012
C  C263  1  0.52359000  0.28399000  0.43803000  1.0 -0.1172839012
C  C264  1  0.75439000  0.43803000  0.28399000  1.0 -0.1172839012
C  C265  1  0.21065000  0.48035000  0.82865000  1.0 -0.1041421777
C  C266  1  0.48035000  0.21065000  0.48035000  1.0 -0.1041421777
C  C267  1  0.82865000  0.48035000  0.21065000  1.0 -0.1041421777
C  C268  1  0.48035000  0.82865000  0.48035000  1.0 -0.1041421777
C  C269  1  0.82865000  0.21065000  0.48035000  1.0 -0.1041421777
C  C270  1  0.48035000  0.48035000  0.21065000  1.0 -0.1041421777
C  C271  1  0.21065000  0.82865000  0.48035000  1.0 -0.1041421777
C  C272  1  0.48035000  0.48035000  0.82865000  1.0 -0.1041421777
C  C273  1  0.48035000  0.82865000  0.21065000  1.0 -0.1041421777
C  C274  1  0.21065000  0.48035000  0.48035000  1.0 -0.1041421777
C  C275  1  0.48035000  0.21065000  0.82865000  1.0 -0.1041421777
C  C276  1  0.82865000  0.48035000  0.48035000  1.0 -0.1041421777
C  C277  1  0.78935000  0.51965000  0.51965000  1.0 -0.1041421777
C  C278  1  0.51965000  0.78935000  0.17135000  1.0 -0.1041421777
C  C279  1  0.17135000  0.51965000  0.51965000  1.0 -0.1041421777
C  C280  1  0.51965000  0.17135000  0.78935000  1.0 -0.1041421777
C  C281  1  0.17135000  0.78935000  0.51965000  1.0 -0.1041421777
C  C282  1  0.51965000  0.51965000  0.17135000  1.0 -0.1041421777
C  C283  1  0.78935000  0.17135000  0.51965000  1.0 -0.1041421777
C  C284  1  0.51965000  0.51965000  0.78935000  1.0 -0.1041421777
C  C285  1  0.51965000  0.17135000  0.51965000  1.0 -0.1041421777
C  C286  1  0.78935000  0.51965000  0.17135000  1.0 -0.1041421777
C  C287  1  0.51965000  0.78935000  0.51965000  1.0 -0.1041421777
C  C288  1  0.17135000  0.51965000  0.78935000  1.0 -0.1041421777
C  C289  1  0.05430000  0.43990000  0.00770000  1.0 0.0122858426
C  C290  1  0.43990000  0.05430000  0.49810000  1.0 0.0122858426
C  C291  1  0.00770000  0.49810000  0.05430000  1.0 0.0122858426
C  C292  1  0.49810000  0.00770000  0.43990000  1.0 0.0122858426
C  C293  1  0.00770000  0.05430000  0.43990000  1.0 0.0122858426
C  C294  1  0.49810000  0.43990000  0.05430000  1.0 0.0122858426
C  C295  1  0.05430000  0.00770000  0.49810000  1.0 0.0122858426
C  C296  1  0.43990000  0.49810000  0.00770000  1.0 0.0122858426
C  C297  1  0.43990000  0.00770000  0.05430000  1.0 0.0122858426
C  C298  1  0.05430000  0.49810000  0.43990000  1.0 0.0122858426
C  C299  1  0.49810000  0.05430000  0.00770000  1.0 0.0122858426
C  C300  1  0.00770000  0.43990000  0.49810000  1.0 0.0122858426
C  C301  1  0.94570000  0.56010000  0.50190000  1.0 0.0122858426
C  C302  1  0.56010000  0.94570000  0.99230000  1.0 0.0122858426
C  C303  1  0.99230000  0.50190000  0.56010000  1.0 0.0122858426
C  C304  1  0.50190000  0.99230000  0.94570000  1.0 0.0122858426
C  C305  1  0.99230000  0.94570000  0.50190000  1.0 0.0122858426
C  C306  1  0.50190000  0.56010000  0.99230000  1.0 0.0122858426
C  C307  1  0.94570000  0.99230000  0.56010000  1.0 0.0122858426
C  C308  1  0.56010000  0.50190000  0.94570000  1.0 0.0122858426
C  C309  1  0.56010000  0.99230000  0.50190000  1.0 0.0122858426
C  C310  1  0.94570000  0.50190000  0.99230000  1.0 0.0122858426
C  C311  1  0.50190000  0.94570000  0.56010000  1.0 0.0122858426
C  C312  1  0.99230000  0.56010000  0.94570000  1.0 0.0122858426
C  C313  1  0.94570000  0.56010000  0.99230000  1.0 0.0122858426
C  C314  1  0.56010000  0.94570000  0.50190000  1.0 0.0122858426
C  C315  1  0.99230000  0.50190000  0.94570000  1.0 0.0122858426
C  C316  1  0.50190000  0.99230000  0.56010000  1.0 0.0122858426
C  C317  1  0.99230000  0.94570000  0.56010000  1.0 0.0122858426
C  C318  1  0.50190000  0.56010000  0.94570000  1.0 0.0122858426
C  C319  1  0.94570000  0.99230000  0.50190000  1.0 0.0122858426
C  C320  1  0.56010000  0.50190000  0.99230000  1.0 0.0122858426
C  C321  1  0.56010000  0.99230000  0.94570000  1.0 0.0122858426
C  C322  1  0.94570000  0.50190000  0.56010000  1.0 0.0122858426
C  C323  1  0.50190000  0.94570000  0.99230000  1.0 0.0122858426
C  C324  1  0.99230000  0.56010000  0.50190000  1.0 0.0122858426
C  C325  1  0.05430000  0.43990000  0.49810000  1.0 0.0122858426
C  C326  1  0.43990000  0.05430000  0.00770000  1.0 0.0122858426
C  C327  1  0.00770000  0.49810000  0.43990000  1.0 0.0122858426
C  C328  1  0.49810000  0.00770000  0.05430000  1.0 0.0122858426
C  C329  1  0.00770000  0.05430000  0.49810000  1.0 0.0122858426
C  C330  1  0.49810000  0.43990000  0.00770000  1.0 0.0122858426
C  C331  1  0.05430000  0.00770000  0.43990000  1.0 0.0122858426
C  C332  1  0.43990000  0.49810000  0.05430000  1.0 0.0122858426
C  C333  1  0.43990000  0.00770000  0.49810000  1.0 0.0122858426
C  C334  1  0.05430000  0.49810000  0.00770000  1.0 0.0122858426
C  C335  1  0.49810000  0.05430000  0.43990000  1.0 0.0122858426
C  C336  1  0.00770000  0.43990000  0.05430000  1.0 0.0122858426
C  C337  1  0.04970000  0.47130000  0.95030000  1.0 0.0412947152
C  C338  1  0.47130000  0.04970000  0.52870000  1.0 0.0412947152
C  C339  1  0.95030000  0.52870000  0.04970000  1.0 0.0412947152
C  C340  1  0.52870000  0.95030000  0.47130000  1.0 0.0412947152
C  C341  1  0.95030000  0.04970000  0.47130000  1.0 0.0412947152
C  C342  1  0.52870000  0.47130000  0.04970000  1.0 0.0412947152
C  C343  1  0.04970000  0.95030000  0.52870000  1.0 0.0412947152
C  C344  1  0.47130000  0.52870000  0.95030000  1.0 0.0412947152
C  C345  1  0.47130000  0.95030000  0.04970000  1.0 0.0412947152
C  C346  1  0.04970000  0.52870000  0.47130000  1.0 0.0412947152
C  C347  1  0.52870000  0.04970000  0.95030000  1.0 0.0412947152
C  C348  1  0.95030000  0.47130000  0.52870000  1.0 0.0412947152
C  C349  1  0.95030000  0.52870000  0.47130000  1.0 0.0412947152
C  C350  1  0.52870000  0.95030000  0.04970000  1.0 0.0412947152
C  C351  1  0.04970000  0.47130000  0.52870000  1.0 0.0412947152
C  C352  1  0.47130000  0.04970000  0.95030000  1.0 0.0412947152
C  C353  1  0.04970000  0.95030000  0.47130000  1.0 0.0412947152
C  C354  1  0.47130000  0.52870000  0.04970000  1.0 0.0412947152
C  C355  1  0.95030000  0.04970000  0.52870000  1.0 0.0412947152
C  C356  1  0.52870000  0.47130000  0.95030000  1.0 0.0412947152
C  C357  1  0.52870000  0.04970000  0.47130000  1.0 0.0412947152
C  C358  1  0.95030000  0.47130000  0.04970000  1.0 0.0412947152
C  C359  1  0.47130000  0.95030000  0.52870000  1.0 0.0412947152
C  C360  1  0.04970000  0.52870000  0.95030000  1.0 0.0412947152
C  C361  1  0.40180000  0.40180000  0.79460000  1.0 -0.3675644747
C  C362  1  0.40180000  0.40180000  0.40180000  1.0 -0.3675644747
C  C363  1  0.79460000  0.40180000  0.40180000  1.0 -0.3675644747
C  C364  1  0.40180000  0.79460000  0.40180000  1.0 -0.3675644747
C  C365  1  0.59820000  0.59820000  0.59820000  1.0 -0.3675644747
C  C366  1  0.59820000  0.59820000  0.20540000  1.0 -0.3675644747
C  C367  1  0.20540000  0.59820000  0.59820000  1.0 -0.3675644747
C  C368  1  0.59820000  0.20540000  0.59820000  1.0 -0.3675644747
N  N1  1  0.27340000  0.46718000  0.79224000  1.0 -0.0610262238
N  N2  1  0.46718000  0.27340000  0.46718000  1.0 -0.0610262238
N  N3  1  0.79224000  0.46718000  0.27340000  1.0 -0.0610262238
N  N4  1  0.46718000  0.79224000  0.46718000  1.0 -0.0610262238
N  N5  1  0.79224000  0.27340000  0.46718000  1.0 -0.0610262238
N  N6  1  0.46718000  0.46718000  0.27340000  1.0 -0.0610262238
N  N7  1  0.27340000  0.79224000  0.46718000  1.0 -0.0610262238
N  N8  1  0.46718000  0.46718000  0.79224000  1.0 -0.0610262238
N  N9  1  0.46718000  0.79224000  0.27340000  1.0 -0.0610262238
N  N10  1  0.27340000  0.46718000  0.46718000  1.0 -0.0610262238
N  N11  1  0.46718000  0.27340000  0.79224000  1.0 -0.0610262238
N  N12  1  0.79224000  0.46718000  0.46718000  1.0 -0.0610262238
N  N13  1  0.72660000  0.53282000  0.53282000  1.0 -0.0610262238
N  N14  1  0.53282000  0.72660000  0.20776000  1.0 -0.0610262238
N  N15  1  0.20776000  0.53282000  0.53282000  1.0 -0.0610262238
N  N16  1  0.53282000  0.20776000  0.72660000  1.0 -0.0610262238
N  N17  1  0.20776000  0.72660000  0.53282000  1.0 -0.0610262238
N  N18  1  0.53282000  0.53282000  0.20776000  1.0 -0.0610262238
N  N19  1  0.72660000  0.20776000  0.53282000  1.0 -0.0610262238
N  N20  1  0.53282000  0.53282000  0.72660000  1.0 -0.0610262238
N  N21  1  0.53282000  0.20776000  0.53282000  1.0 -0.0610262238
N  N22  1  0.72660000  0.53282000  0.20776000  1.0 -0.0610262238
N  N23  1  0.53282000  0.72660000  0.53282000  1.0 -0.0610262238
N  N24  1  0.20776000  0.53282000  0.72660000  1.0 -0.0610262238
N  N25  1  0.00000000  0.45376000  0.00000000  1.0 0.0732944979
N  N26  1  0.45376000  0.00000000  0.54624000  1.0 0.0732944979
N  N27  1  0.00000000  0.54624000  0.00000000  1.0 0.0775174315
N  N28  1  0.54624000  0.00000000  0.45376000  1.0 0.0775174315
N  N29  1  0.00000000  0.00000000  0.45376000  1.0 0.0775174315
N  N30  1  0.54624000  0.45376000  0.00000000  1.0 0.0775174315
N  N31  1  0.00000000  0.00000000  0.54624000  1.0 0.0775174315
N  N32  1  0.45376000  0.54624000  0.00000000  1.0 0.0775174315
N  N33  1  0.45376000  0.00000000  0.00000000  1.0 0.0775174315
N  N34  1  0.00000000  0.54624000  0.45376000  1.0 0.0775174315
N  N35  1  0.54624000  0.00000000  0.00000000  1.0 0.0775174315
N  N36  1  0.00000000  0.45376000  0.54624000  1.0 0.0732944979
N  N37  1  0.41873000  0.41873000  0.74381000  1.0 -0.2782333619
N  N38  1  0.41873000  0.41873000  0.41873000  1.0 -0.2782333619
N  N39  1  0.74381000  0.41873000  0.41873000  1.0 -0.2782333619
N  N40  1  0.41873000  0.74381000  0.41873000  1.0 -0.2782333619
N  N41  1  0.58127000  0.58127000  0.58127000  1.0 -0.2782333619
N  N42  1  0.58127000  0.58127000  0.25619000  1.0 -0.2782333619
N  N43  1  0.25619000  0.58127000  0.58127000  1.0 -0.2782333619
N  N44  1  0.58127000  0.25619000  0.58127000  1.0 -0.2782333619
O  O1  1  0.08306000  0.25556000  0.98574000  1.0 -0.511985815
O  O2  1  0.25556000  0.08306000  0.67564000  1.0 -0.511985815
O  O3  1  0.98574000  0.67564000  0.08306000  1.0 -0.511985815
O  O4  1  0.67564000  0.98574000  0.25556000  1.0 -0.511985815
O  O5  1  0.98574000  0.08306000  0.25556000  1.0 -0.511985815
O  O6  1  0.67564000  0.25556000  0.08306000  1.0 -0.511985815
O  O7  1  0.08306000  0.98574000  0.67564000  1.0 -0.511985815
O  O8  1  0.25556000  0.67564000  0.98574000  1.0 -0.511985815
O  O9  1  0.25556000  0.98574000  0.08306000  1.0 -0.511985815
O  O10  1  0.08306000  0.67564000  0.25556000  1.0 -0.511985815
O  O11  1  0.67564000  0.08306000  0.98574000  1.0 -0.511985815
O  O12  1  0.98574000  0.25556000  0.67564000  1.0 -0.511985815
O  O13  1  0.91694000  0.74444000  0.32436000  1.0 -0.511985815
O  O14  1  0.74444000  0.91694000  0.01426000  1.0 -0.511985815
O  O15  1  0.01426000  0.32436000  0.74444000  1.0 -0.511985815
O  O16  1  0.32436000  0.01426000  0.91694000  1.0 -0.511985815
O  O17  1  0.01426000  0.91694000  0.32436000  1.0 -0.511985815
O  O18  1  0.32436000  0.74444000  0.01426000  1.0 -0.511985815
O  O19  1  0.91694000  0.01426000  0.74444000  1.0 -0.511985815
O  O20  1  0.74444000  0.32436000  0.91694000  1.0 -0.511985815
O  O21  1  0.74444000  0.01426000  0.32436000  1.0 -0.511985815
O  O22  1  0.91694000  0.32436000  0.01426000  1.0 -0.511985815
O  O23  1  0.32436000  0.91694000  0.74444000  1.0 -0.511985815
O  O24  1  0.01426000  0.74444000  0.91694000  1.0 -0.511985815
O  O25  1  0.91694000  0.74444000  0.01426000  1.0 -0.511985815
O  O26  1  0.74444000  0.91694000  0.32436000  1.0 -0.511985815
O  O27  1  0.01426000  0.32436000  0.91694000  1.0 -0.511985815
O  O28  1  0.32436000  0.01426000  0.74444000  1.0 -0.511985815
O  O29  1  0.01426000  0.91694000  0.74444000  1.0 -0.511985815
O  O30  1  0.32436000  0.74444000  0.91694000  1.0 -0.511985815
O  O31  1  0.91694000  0.01426000  0.32436000  1.0 -0.511985815
O  O32  1  0.74444000  0.32436000  0.01426000  1.0 -0.511985815
O  O33  1  0.74444000  0.01426000  0.91694000  1.0 -0.511985815
O  O34  1  0.91694000  0.32436000  0.74444000  1.0 -0.511985815
O  O35  1  0.32436000  0.91694000  0.01426000  1.0 -0.511985815
O  O36  1  0.01426000  0.74444000  0.32436000  1.0 -0.511985815
O  O37  1  0.08306000  0.25556000  0.67564000  1.0 -0.511985815
O  O38  1  0.25556000  0.08306000  0.98574000  1.0 -0.511985815
O  O39  1  0.98574000  0.67564000  0.25556000  1.0 -0.511985815
O  O40  1  0.67564000  0.98574000  0.08306000  1.0 -0.511985815
O  O41  1  0.98574000  0.08306000  0.67564000  1.0 -0.511985815
O  O42  1  0.67564000  0.25556000  0.98574000  1.0 -0.511985815
O  O43  1  0.08306000  0.98574000  0.25556000  1.0 -0.511985815
O  O44  1  0.25556000  0.67564000  0.08306000  1.0 -0.511985815
O  O45  1  0.25556000  0.98574000  0.67564000  1.0 -0.511985815
O  O46  1  0.08306000  0.67564000  0.98574000  1.0 -0.511985815
O  O47  1  0.67564000  0.08306000  0.25556000  1.0 -0.511985815
O  O48  1  0.98574000  0.25556000  0.08306000  1.0 -0.511985815
O  O49  1  0.08407000  0.33485000  0.98515000  1.0 -0.5255226742
O  O50  1  0.33485000  0.08407000  0.59593000  1.0 -0.5255226742
O  O51  1  0.98515000  0.59593000  0.08407000  1.0 -0.5255226742
O  O52  1  0.59593000  0.98515000  0.33485000  1.0 -0.5255226742
O  O53  1  0.98515000  0.08407000  0.33485000  1.0 -0.5255226742
O  O54  1  0.59593000  0.33485000  0.08407000  1.0 -0.5255226742
O  O55  1  0.08407000  0.98515000  0.59593000  1.0 -0.5255226742
O  O56  1  0.33485000  0.59593000  0.98515000  1.0 -0.5255226742
O  O57  1  0.33485000  0.98515000  0.08407000  1.0 -0.5255226742
O  O58  1  0.08407000  0.59593000  0.33485000  1.0 -0.5255226742
O  O59  1  0.59593000  0.08407000  0.98515000  1.0 -0.5255226742
O  O60  1  0.98515000  0.33485000  0.59593000  1.0 -0.5255226742
O  O61  1  0.91593000  0.66515000  0.40407000  1.0 -0.5255226742
O  O62  1  0.66515000  0.91593000  0.01485000  1.0 -0.5255226742
O  O63  1  0.01485000  0.40407000  0.66515000  1.0 -0.5255226742
O  O64  1  0.40407000  0.01485000  0.91593000  1.0 -0.5255226742
O  O65  1  0.01485000  0.91593000  0.40407000  1.0 -0.5255226742
O  O66  1  0.40407000  0.66515000  0.01485000  1.0 -0.5255226742
O  O67  1  0.91593000  0.01485000  0.66515000  1.0 -0.5255226742
O  O68  1  0.66515000  0.40407000  0.91593000  1.0 -0.5255226742
O  O69  1  0.66515000  0.01485000  0.40407000  1.0 -0.5255226742
O  O70  1  0.91593000  0.40407000  0.01485000  1.0 -0.5255226742
O  O71  1  0.40407000  0.91593000  0.66515000  1.0 -0.5255226742
O  O72  1  0.01485000  0.66515000  0.91593000  1.0 -0.5255226742
O  O73  1  0.91593000  0.66515000  0.01485000  1.0 -0.5255226742
O  O74  1  0.66515000  0.91593000  0.40407000  1.0 -0.5255226742
O  O75  1  0.01485000  0.40407000  0.91593000  1.0 -0.5255226742
O  O76  1  0.40407000  0.01485000  0.66515000  1.0 -0.5255226742
O  O77  1  0.01485000  0.91593000  0.66515000  1.0 -0.5255226742
O  O78  1  0.40407000  0.66515000  0.91593000  1.0 -0.5255226742
O  O79  1  0.91593000  0.01485000  0.40407000  1.0 -0.5255226742
O  O80  1  0.66515000  0.40407000  0.01485000  1.0 -0.5255226742
O  O81  1  0.66515000  0.01485000  0.91593000  1.0 -0.5255226742
O  O82  1  0.91593000  0.40407000  0.66515000  1.0 -0.5255226742
O  O83  1  0.40407000  0.91593000  0.01485000  1.0 -0.5255226742
O  O84  1  0.01485000  0.66515000  0.40407000  1.0 -0.5255226742
O  O85  1  0.08407000  0.33485000  0.59593000  1.0 -0.5255226742
O  O86  1  0.33485000  0.08407000  0.98515000  1.0 -0.5255226742
O  O87  1  0.98515000  0.59593000  0.33485000  1.0 -0.5255226742
O  O88  1  0.59593000  0.98515000  0.08407000  1.0 -0.5255226742
O  O89  1  0.98515000  0.08407000  0.59593000  1.0 -0.5255226742
O  O90  1  0.59593000  0.33485000  0.98515000  1.0 -0.5255226742
O  O91  1  0.08407000  0.98515000  0.33485000  1.0 -0.5255226742
O  O92  1  0.33485000  0.59593000  0.08407000  1.0 -0.5255226742
O  O93  1  0.33485000  0.98515000  0.59593000  1.0 -0.5255226742
O  O94  1  0.08407000  0.59593000  0.98515000  1.0 -0.5255226742
O  O95  1  0.59593000  0.08407000  0.33485000  1.0 -0.5255226742
O  O96  1  0.98515000  0.33485000  0.08407000  1.0 -0.5255226742
O  O97  1  0.27830000  0.35760000  0.89706000  1.0 -0.511985815
O  O98  1  0.35760000  0.27830000  0.46704000  1.0 -0.511985815
O  O99  1  0.89706000  0.46704000  0.27830000  1.0 -0.511985815
O  O100  1  0.46704000  0.89706000  0.35760000  1.0 -0.511985815
O  O101  1  0.89706000  0.27830000  0.35760000  1.0 -0.511985815
O  O102  1  0.46704000  0.35760000  0.27830000  1.0 -0.511985815
O  O103  1  0.27830000  0.89706000  0.46704000  1.0 -0.511985815
O  O104  1  0.35760000  0.46704000  0.89706000  1.0 -0.511985815
O  O105  1  0.35760000  0.89706000  0.27830000  1.0 -0.511985815
O  O106  1  0.27830000  0.46704000  0.35760000  1.0 -0.511985815
O  O107  1  0.46704000  0.27830000  0.89706000  1.0 -0.511985815
O  O108  1  0.89706000  0.35760000  0.46704000  1.0 -0.511985815
O  O109  1  0.72170000  0.64240000  0.53296000  1.0 -0.511985815
O  O110  1  0.64240000  0.72170000  0.10294000  1.0 -0.511985815
O  O111  1  0.10294000  0.53296000  0.64240000  1.0 -0.511985815
O  O112  1  0.53296000  0.10294000  0.72170000  1.0 -0.511985815
O  O113  1  0.10294000  0.72170000  0.53296000  1.0 -0.511985815
O  O114  1  0.53296000  0.64240000  0.10294000  1.0 -0.511985815
O  O115  1  0.72170000  0.10294000  0.64240000  1.0 -0.511985815
O  O116  1  0.64240000  0.53296000  0.72170000  1.0 -0.511985815
O  O117  1  0.64240000  0.10294000  0.53296000  1.0 -0.511985815
O  O118  1  0.72170000  0.53296000  0.10294000  1.0 -0.511985815
O  O119  1  0.53296000  0.72170000  0.64240000  1.0 -0.511985815
O  O120  1  0.10294000  0.64240000  0.72170000  1.0 -0.511985815
O  O121  1  0.72170000  0.64240000  0.10294000  1.0 -0.511985815
O  O122  1  0.64240000  0.72170000  0.53296000  1.0 -0.511985815
O  O123  1  0.10294000  0.53296000  0.72170000  1.0 -0.511985815
O  O124  1  0.53296000  0.10294000  0.64240000  1.0 -0.511985815
O  O125  1  0.10294000  0.72170000  0.64240000  1.0 -0.511985815
O  O126  1  0.53296000  0.64240000  0.72170000  1.0 -0.511985815
O  O127  1  0.72170000  0.10294000  0.53296000  1.0 -0.511985815
O  O128  1  0.64240000  0.53296000  0.10294000  1.0 -0.511985815
O  O129  1  0.64240000  0.10294000  0.72170000  1.0 -0.511985815
O  O130  1  0.72170000  0.53296000  0.64240000  1.0 -0.511985815
O  O131  1  0.53296000  0.72170000  0.10294000  1.0 -0.511985815
O  O132  1  0.10294000  0.64240000  0.53296000  1.0 -0.511985815
O  O133  1  0.27830000  0.35760000  0.46704000  1.0 -0.511985815
O  O134  1  0.35760000  0.27830000  0.89706000  1.0 -0.511985815
O  O135  1  0.89706000  0.46704000  0.35760000  1.0 -0.511985815
O  O136  1  0.46704000  0.89706000  0.27830000  1.0 -0.511985815
O  O137  1  0.89706000  0.27830000  0.46704000  1.0 -0.511985815
O  O138  1  0.46704000  0.35760000  0.89706000  1.0 -0.511985815
O  O139  1  0.27830000  0.89706000  0.35760000  1.0 -0.511985815
O  O140  1  0.35760000  0.46704000  0.27830000  1.0 -0.511985815
O  O141  1  0.35760000  0.89706000  0.46704000  1.0 -0.511985815
O  O142  1  0.27830000  0.46704000  0.89706000  1.0 -0.511985815
O  O143  1  0.46704000  0.27830000  0.35760000  1.0 -0.511985815
O  O144  1  0.89706000  0.35760000  0.27830000  1.0 -0.511985815
