# DDEC6 charges by PACMAN v1.1 (https://github.com/mtap-research/PACMAN-charge/)
data_LEPKID_ASR_pacman
_symmetry_space_group_name_H-M   'P 1'
_cell_length_a   21.47110000
_cell_length_b   21.47110000
_cell_length_c   23.74090000
_cell_angle_alpha   90.00000000
_cell_angle_beta   90.00000000
_cell_angle_gamma   90.94400000
_symmetry_Int_Tables_number   1
_chemical_formula_structural   Y2Cu3H20C52(NO4)4
_chemical_formula_sum   'Y8 Cu12 H80 C208 N16 O64'
_cell_volume   10943.26256452
_cell_formula_units_Z   4
loop_
 _symmetry_equiv_pos_site_id
 _symmetry_equiv_pos_as_xyz
  1  'x, y, z'
loop_
 _atom_site_type_symbol
 _atom_site_label
 _atom_site_symmetry_multiplicity
 _atom_site_fract_x
 _atom_site_fract_y
 _atom_site_fract_z
 _atom_site_occupancy
 _atom_site_charge
Y  Y1  1  0.37787000  0.13723000  0.94728000  1.0 1.7730265345
Y  Y2  1  0.12213000  0.36277000  0.44728000  1.0 1.7730265345
Y  Y3  1  0.36277000  0.12213000  0.55272000  1.0 1.7730265345
Y  Y4  1  0.13723000  0.37787000  0.05272000  1.0 1.7730265345
Y  Y5  1  0.62213000  0.86277000  0.05272000  1.0 1.7730265345
Y  Y6  1  0.87787000  0.63723000  0.55272000  1.0 1.7730265345
Y  Y7  1  0.63723000  0.87787000  0.44728000  1.0 1.7730265345
Y  Y8  1  0.86277000  0.62213000  0.94728000  1.0 1.7730265345
Cu  Cu1  1  0.72306000  0.00292000  0.26670000  1.0 0.9789708864
Cu  Cu2  1  0.77694000  0.49708000  0.76670000  1.0 0.9789708864
Cu  Cu3  1  0.49708000  0.77694000  0.23330000  1.0 0.9789708864
Cu  Cu4  1  0.00292000  0.72306000  0.73330000  1.0 0.9789708864
Cu  Cu5  1  0.27694000  0.99708000  0.73330000  1.0 0.9789708864
Cu  Cu6  1  0.22306000  0.50292000  0.23330000  1.0 0.9789708864
Cu  Cu7  1  0.50292000  0.22306000  0.76670000  1.0 0.9789708864
Cu  Cu8  1  0.99708000  0.27694000  0.26670000  1.0 0.9789708864
Cu  Cu9  1  0.62332000  0.37668000  0.26139000  1.0 0.5965252091
Cu  Cu10  1  0.87668000  0.12332000  0.76139000  1.0 0.5940511461
Cu  Cu11  1  0.12332000  0.87668000  0.23861000  1.0 0.5940511461
Cu  Cu12  1  0.37668000  0.62332000  0.73861000  1.0 0.5940511461
H  H1  1  0.47990000  0.43710000  0.10030000  1.0 0.1193494808
H  H2  1  0.43380000  0.23700000  0.22220000  1.0 0.1193494808
H  H3  1  0.48390000  0.18910000  0.30500000  1.0 0.1193494808
H  H4  1  0.68380000  0.23320000  0.42370000  1.0 0.1193494808
H  H5  1  0.38710000  0.40550000  0.17790000  1.0 0.1117317394
H  H6  1  0.29600000  0.30660000  0.06350000  1.0 0.1296539802
H  H7  1  0.46760000  0.26200000  0.10630000  1.0 0.1193494808
H  H8  1  0.51060000  0.22100000  0.41740000  1.0 0.1193494808
H  H9  1  0.54850000  0.04390000  0.45840000  1.0 0.1296539802
H  H10  1  0.64410000  0.13330000  0.33630000  1.0 0.1117317394
H  H11  1  0.02010000  0.06290000  0.60030000  1.0 0.1193494808
H  H12  1  0.06620000  0.26300000  0.72220000  1.0 0.1193494808
H  H13  1  0.01610000  0.31090000  0.80500000  1.0 0.1193494808
H  H14  1  0.81620000  0.26680000  0.92370000  1.0 0.1193494808
H  H15  1  0.11290000  0.09450000  0.67790000  1.0 0.1117317394
H  H16  1  0.20400000  0.19340000  0.56350000  1.0 0.1296539802
H  H17  1  0.03240000  0.23800000  0.60630000  1.0 0.1193494808
H  H18  1  0.98940000  0.27900000  0.91740000  1.0 0.1193494808
H  H19  1  0.95150000  0.45610000  0.95840000  1.0 0.1296539802
H  H20  1  0.85590000  0.36670000  0.83630000  1.0 0.1117317394
H  H21  1  0.06290000  0.02010000  0.39970000  1.0 0.1193494808
H  H22  1  0.26300000  0.06620000  0.27780000  1.0 0.1193494808
H  H23  1  0.31090000  0.01610000  0.19500000  1.0 0.1193494808
H  H24  1  0.26680000  0.81620000  0.07630000  1.0 0.1193494808
H  H25  1  0.09450000  0.11290000  0.32210000  1.0 0.1117317394
H  H26  1  0.19340000  0.20400000  0.43650000  1.0 0.1296539802
H  H27  1  0.23800000  0.03240000  0.39370000  1.0 0.1193494808
H  H28  1  0.27900000  0.98940000  0.08260000  1.0 0.1193494808
H  H29  1  0.45610000  0.95150000  0.04160000  1.0 0.1296539802
H  H30  1  0.36670000  0.85590000  0.16370000  1.0 0.1117317394
H  H31  1  0.43710000  0.47990000  0.89970000  1.0 0.1193494808
H  H32  1  0.23700000  0.43380000  0.77780000  1.0 0.1193494808
H  H33  1  0.18910000  0.48390000  0.69500000  1.0 0.1193494808
H  H34  1  0.23320000  0.68380000  0.57630000  1.0 0.1193494808
H  H35  1  0.40550000  0.38710000  0.82210000  1.0 0.1117317394
H  H36  1  0.30660000  0.29600000  0.93650000  1.0 0.1296539802
H  H37  1  0.26200000  0.46760000  0.89370000  1.0 0.1193494808
H  H38  1  0.22100000  0.51060000  0.58260000  1.0 0.1193494808
H  H39  1  0.04390000  0.54850000  0.54160000  1.0 0.1296539802
H  H40  1  0.13330000  0.64410000  0.66370000  1.0 0.1117317394
H  H41  1  0.52010000  0.56290000  0.89970000  1.0 0.1193494808
H  H42  1  0.56620000  0.76300000  0.77780000  1.0 0.1193494808
H  H43  1  0.51610000  0.81090000  0.69500000  1.0 0.1193494808
H  H44  1  0.31620000  0.76680000  0.57630000  1.0 0.1193494808
H  H45  1  0.61290000  0.59450000  0.82210000  1.0 0.1117317394
H  H46  1  0.70400000  0.69340000  0.93650000  1.0 0.1296539802
H  H47  1  0.53240000  0.73800000  0.89370000  1.0 0.1193494808
H  H48  1  0.48940000  0.77900000  0.58260000  1.0 0.1193494808
H  H49  1  0.45150000  0.95610000  0.54160000  1.0 0.1296539802
H  H50  1  0.35590000  0.86670000  0.66370000  1.0 0.1117317394
H  H51  1  0.97990000  0.93710000  0.39970000  1.0 0.1193494808
H  H52  1  0.93380000  0.73700000  0.27780000  1.0 0.1193494808
H  H53  1  0.98390000  0.68910000  0.19500000  1.0 0.1193494808
H  H54  1  0.18380000  0.73320000  0.07630000  1.0 0.1193494808
H  H55  1  0.88710000  0.90550000  0.32210000  1.0 0.1117317394
H  H56  1  0.79600000  0.80660000  0.43650000  1.0 0.1296539802
H  H57  1  0.96760000  0.76200000  0.39370000  1.0 0.1193494808
H  H58  1  0.01060000  0.72100000  0.08260000  1.0 0.1193494808
H  H59  1  0.04850000  0.54390000  0.04160000  1.0 0.1296539802
H  H60  1  0.14410000  0.63330000  0.16370000  1.0 0.1117317394
H  H61  1  0.93710000  0.97990000  0.60030000  1.0 0.1193494808
H  H62  1  0.73700000  0.93380000  0.72220000  1.0 0.1193494808
H  H63  1  0.68910000  0.98390000  0.80500000  1.0 0.1193494808
H  H64  1  0.73320000  0.18380000  0.92370000  1.0 0.1193494808
H  H65  1  0.90550000  0.88710000  0.67790000  1.0 0.1117317394
H  H66  1  0.80660000  0.79600000  0.56350000  1.0 0.1296539802
H  H67  1  0.76200000  0.96760000  0.60630000  1.0 0.1193494808
H  H68  1  0.72100000  0.01060000  0.91740000  1.0 0.1193494808
H  H69  1  0.54390000  0.04850000  0.95840000  1.0 0.1296539802
H  H70  1  0.63330000  0.14410000  0.83630000  1.0 0.1117317394
H  H71  1  0.56290000  0.52010000  0.10030000  1.0 0.1193494808
H  H72  1  0.76300000  0.56620000  0.22220000  1.0 0.1193494808
H  H73  1  0.81090000  0.51610000  0.30500000  1.0 0.1193494808
H  H74  1  0.76680000  0.31620000  0.42370000  1.0 0.1193494808
H  H75  1  0.59450000  0.61290000  0.17790000  1.0 0.1117317394
H  H76  1  0.69340000  0.70400000  0.06350000  1.0 0.1296539802
H  H77  1  0.73800000  0.53240000  0.10630000  1.0 0.1193494808
H  H78  1  0.77900000  0.48940000  0.41740000  1.0 0.1193494808
H  H79  1  0.95610000  0.45150000  0.45840000  1.0 0.1296539802
H  H80  1  0.86670000  0.35590000  0.33630000  1.0 0.1117317394
C  C1  1  0.51340000  0.44040000  0.12490000  1.0 -0.1968746919
C  C2  1  0.52790000  0.39910000  0.17010000  1.0 0.1747268971
C  C3  1  0.49170000  0.34630000  0.18440000  1.0 -0.0841184769
C  C4  1  0.50640000  0.30620000  0.22600000  1.0 0.1605848989
C  C5  1  0.46980000  0.25120000  0.24040000  1.0 -0.183587004
C  C6  1  0.49780000  0.22420000  0.28560000  1.0 -0.183587004
C  C7  1  0.55110000  0.25950000  0.29700000  1.0 0.1605848989
C  C8  1  0.59360000  0.24580000  0.33850000  1.0 -0.0933243807
C  C9  1  0.64654000  0.27874000  0.35130000  1.0 0.1792002704
C  C10  1  0.68760000  0.26600000  0.39830000  1.0 -0.183587004
C  C11  1  0.43400000  0.33400000  0.14990000  1.0 0.0539117951
C  C12  1  0.38470000  0.37090000  0.15430000  1.0 -0.1373156391
C  C13  1  0.32930000  0.35910000  0.12450000  1.0 -0.0672249671
C  C14  1  0.33110000  0.31290000  0.08590000  1.0 -0.119529343
C  C15  1  0.38070000  0.27450000  0.07720000  1.0 -0.0176771516
C  C16  1  0.43260000  0.28660000  0.11060000  1.0 -0.157164824
C  C17  1  0.58131000  0.18823000  0.37400000  1.0 0.0539117951
C  C18  1  0.53390000  0.18550000  0.41140000  1.0 -0.1526426941
C  C19  1  0.51816000  0.13024000  0.44190000  1.0 -0.0176771516
C  C20  1  0.55591000  0.07909000  0.43640000  1.0 -0.107072356
C  C21  1  0.60560000  0.08020000  0.39750000  1.0 -0.0492439804
C  C22  1  0.61470000  0.13390000  0.36510000  1.0 -0.157164824
C  C23  1  0.27430000  0.39670000  0.13070000  1.0 0.6096207585
C  C24  1  0.38080000  0.22280000  0.03530000  1.0 0.5496316787
C  C25  1  0.46570000  0.12890000  0.48280000  1.0 0.5496316787
C  C26  1  0.64490000  0.02470000  0.39050000  1.0 0.5965252091
C  C27  1  0.98660000  0.05960000  0.62490000  1.0 -0.1968746919
C  C28  1  0.97210000  0.10090000  0.67010000  1.0 0.1747268971
C  C29  1  0.00830000  0.15370000  0.68440000  1.0 -0.0841184769
C  C30  1  0.99360000  0.19380000  0.72600000  1.0 0.1605848989
C  C31  1  0.03020000  0.24880000  0.74040000  1.0 -0.183587004
C  C32  1  0.00220000  0.27580000  0.78560000  1.0 -0.1854852501
C  C33  1  0.94890000  0.24050000  0.79700000  1.0 0.1605848989
C  C34  1  0.90640000  0.25420000  0.83850000  1.0 -0.0933243807
C  C35  1  0.85346000  0.22126000  0.85130000  1.0 0.1792002704
C  C36  1  0.81240000  0.23400000  0.89830000  1.0 -0.183587004
C  C37  1  0.06600000  0.16600000  0.64990000  1.0 0.0539117951
C  C38  1  0.11530000  0.12910000  0.65430000  1.0 -0.1373156391
C  C39  1  0.17070000  0.14090000  0.62450000  1.0 -0.0672249671
C  C40  1  0.16890000  0.18710000  0.58590000  1.0 -0.119529343
C  C41  1  0.11930000  0.22550000  0.57720000  1.0 -0.0176771516
C  C42  1  0.06740000  0.21340000  0.61060000  1.0 -0.157164824
C  C43  1  0.91869000  0.31177000  0.87400000  1.0 0.0539117951
C  C44  1  0.96610000  0.31450000  0.91140000  1.0 -0.1526426941
C  C45  1  0.98184000  0.36976000  0.94190000  1.0 -0.0176771516
C  C46  1  0.94409000  0.42091000  0.93640000  1.0 -0.107072356
C  C47  1  0.89440000  0.41980000  0.89750000  1.0 -0.0492439804
C  C48  1  0.88530000  0.36610000  0.86510000  1.0 -0.157164824
C  C49  1  0.22570000  0.10330000  0.63070000  1.0 0.6096207585
C  C50  1  0.11920000  0.27720000  0.53530000  1.0 0.5496316787
C  C51  1  0.03430000  0.37110000  0.98280000  1.0 0.5496316787
C  C52  1  0.85510000  0.47530000  0.89050000  1.0 0.5965252091
C  C53  1  0.05960000  0.98660000  0.37510000  1.0 -0.1968746919
C  C54  1  0.10090000  0.97210000  0.32990000  1.0 0.1747268971
C  C55  1  0.15370000  0.00830000  0.31560000  1.0 -0.0841184769
C  C56  1  0.19380000  0.99360000  0.27400000  1.0 0.1605848989
C  C57  1  0.24880000  0.03020000  0.25960000  1.0 -0.1854852501
C  C58  1  0.27580000  0.00220000  0.21440000  1.0 -0.183587004
C  C59  1  0.24050000  0.94890000  0.20300000  1.0 0.1542766627
C  C60  1  0.25420000  0.90640000  0.16150000  1.0 -0.0933243807
C  C61  1  0.22126000  0.85346000  0.14870000  1.0 0.1792002704
C  C62  1  0.23400000  0.81240000  0.10170000  1.0 -0.183587004
C  C63  1  0.16600000  0.06600000  0.35010000  1.0 0.0539117951
C  C64  1  0.12910000  0.11530000  0.34570000  1.0 -0.1373156391
C  C65  1  0.14090000  0.17070000  0.37550000  1.0 -0.0672249671
C  C66  1  0.18710000  0.16890000  0.41410000  1.0 -0.119529343
C  C67  1  0.22550000  0.11930000  0.42280000  1.0 -0.0176771516
C  C68  1  0.21340000  0.06740000  0.38940000  1.0 -0.157164824
C  C69  1  0.31177000  0.91869000  0.12600000  1.0 0.0539117951
C  C70  1  0.31450000  0.96610000  0.08860000  1.0 -0.1526426941
C  C71  1  0.36976000  0.98184000  0.05810000  1.0 -0.0176771516
C  C72  1  0.42091000  0.94409000  0.06360000  1.0 -0.107072356
C  C73  1  0.41980000  0.89440000  0.10250000  1.0 -0.0492439804
C  C74  1  0.36610000  0.88530000  0.13490000  1.0 -0.157164824
C  C75  1  0.10330000  0.22570000  0.36930000  1.0 0.6096207585
C  C76  1  0.27720000  0.11920000  0.46470000  1.0 0.5496316787
C  C77  1  0.37110000  0.03430000  0.01720000  1.0 0.5496316787
C  C78  1  0.47530000  0.85510000  0.10950000  1.0 0.5965252091
C  C79  1  0.44040000  0.51340000  0.87510000  1.0 -0.1968746919
C  C80  1  0.39910000  0.52790000  0.82990000  1.0 0.1747268971
C  C81  1  0.34630000  0.49170000  0.81560000  1.0 -0.0841184769
C  C82  1  0.30620000  0.50640000  0.77400000  1.0 0.1605848989
C  C83  1  0.25120000  0.46980000  0.75960000  1.0 -0.183587004
C  C84  1  0.22420000  0.49780000  0.71440000  1.0 -0.183587004
C  C85  1  0.25950000  0.55110000  0.70300000  1.0 0.1605848989
C  C86  1  0.24580000  0.59360000  0.66150000  1.0 -0.0933243807
C  C87  1  0.27874000  0.64654000  0.64870000  1.0 0.1792002704
C  C88  1  0.26600000  0.68760000  0.60170000  1.0 -0.183587004
C  C89  1  0.33400000  0.43400000  0.85010000  1.0 0.0539117951
C  C90  1  0.37090000  0.38470000  0.84570000  1.0 -0.1373156391
C  C91  1  0.35910000  0.32930000  0.87550000  1.0 -0.0672249671
C  C92  1  0.31290000  0.33110000  0.91410000  1.0 -0.119529343
C  C93  1  0.27450000  0.38070000  0.92280000  1.0 -0.0176771516
C  C94  1  0.28660000  0.43260000  0.88940000  1.0 -0.157164824
C  C95  1  0.18823000  0.58131000  0.62600000  1.0 0.0539117951
C  C96  1  0.18550000  0.53390000  0.58860000  1.0 -0.1526426941
C  C97  1  0.13024000  0.51816000  0.55810000  1.0 -0.0176771516
C  C98  1  0.07909000  0.55591000  0.56360000  1.0 -0.107072356
C  C99  1  0.08020000  0.60560000  0.60250000  1.0 -0.0492439804
C  C100  1  0.13390000  0.61470000  0.63490000  1.0 -0.157164824
C  C101  1  0.39670000  0.27430000  0.86930000  1.0 0.6096207585
C  C102  1  0.22280000  0.38080000  0.96470000  1.0 0.5496316787
C  C103  1  0.12890000  0.46570000  0.51720000  1.0 0.5496316787
C  C104  1  0.02470000  0.64490000  0.60950000  1.0 0.5965252091
C  C105  1  0.48660000  0.55960000  0.87510000  1.0 -0.1968746919
C  C106  1  0.47210000  0.60090000  0.82990000  1.0 0.1747268971
C  C107  1  0.50830000  0.65370000  0.81560000  1.0 -0.0841184769
C  C108  1  0.49360000  0.69380000  0.77400000  1.0 0.1605848989
C  C109  1  0.53020000  0.74880000  0.75960000  1.0 -0.183587004
C  C110  1  0.50220000  0.77580000  0.71440000  1.0 -0.183587004
C  C111  1  0.44890000  0.74050000  0.70300000  1.0 0.1605848989
C  C112  1  0.40640000  0.75420000  0.66150000  1.0 -0.0933243807
C  C113  1  0.35346000  0.72126000  0.64870000  1.0 0.1792002704
C  C114  1  0.31240000  0.73400000  0.60170000  1.0 -0.183587004
C  C115  1  0.56600000  0.66600000  0.85010000  1.0 0.0539117951
C  C116  1  0.61530000  0.62910000  0.84570000  1.0 -0.1373156391
C  C117  1  0.67070000  0.64090000  0.87550000  1.0 -0.0672249671
C  C118  1  0.66890000  0.68710000  0.91410000  1.0 -0.119529343
C  C119  1  0.61930000  0.72550000  0.92280000  1.0 -0.0176771516
C  C120  1  0.56740000  0.71340000  0.88940000  1.0 -0.157164824
C  C121  1  0.41869000  0.81177000  0.62600000  1.0 0.0539117951
C  C122  1  0.46610000  0.81450000  0.58860000  1.0 -0.1526426941
C  C123  1  0.48184000  0.86976000  0.55810000  1.0 -0.0176771516
C  C124  1  0.44409000  0.92091000  0.56360000  1.0 -0.107072356
C  C125  1  0.39440000  0.91980000  0.60250000  1.0 -0.0492439804
C  C126  1  0.38530000  0.86610000  0.63490000  1.0 -0.157164824
C  C127  1  0.72570000  0.60330000  0.86930000  1.0 0.6096207585
C  C128  1  0.61920000  0.77720000  0.96470000  1.0 0.5496316787
C  C129  1  0.53430000  0.87110000  0.51720000  1.0 0.5496316787
C  C130  1  0.35510000  0.97530000  0.60950000  1.0 0.5965252091
C  C131  1  0.01340000  0.94040000  0.37510000  1.0 -0.1968746919
C  C132  1  0.02790000  0.89910000  0.32990000  1.0 0.1747268971
C  C133  1  0.99170000  0.84630000  0.31560000  1.0 -0.0841184769
C  C134  1  0.00640000  0.80620000  0.27400000  1.0 0.1605848989
C  C135  1  0.96980000  0.75120000  0.25960000  1.0 -0.183587004
C  C136  1  0.99780000  0.72420000  0.21440000  1.0 -0.183587004
C  C137  1  0.05110000  0.75950000  0.20300000  1.0 0.1605848989
C  C138  1  0.09360000  0.74580000  0.16150000  1.0 -0.0933243807
C  C139  1  0.14654000  0.77874000  0.14870000  1.0 0.1792002704
C  C140  1  0.18760000  0.76600000  0.10170000  1.0 -0.183587004
C  C141  1  0.93400000  0.83400000  0.35010000  1.0 0.0539117951
C  C142  1  0.88470000  0.87090000  0.34570000  1.0 -0.1373156391
C  C143  1  0.82930000  0.85910000  0.37550000  1.0 -0.0672249671
C  C144  1  0.83110000  0.81290000  0.41410000  1.0 -0.119529343
C  C145  1  0.88070000  0.77450000  0.42280000  1.0 -0.0176771516
C  C146  1  0.93260000  0.78660000  0.38940000  1.0 -0.157164824
C  C147  1  0.08131000  0.68823000  0.12600000  1.0 0.0539117951
C  C148  1  0.03390000  0.68550000  0.08860000  1.0 -0.1526426941
C  C149  1  0.01816000  0.63024000  0.05810000  1.0 -0.0176771516
C  C150  1  0.05591000  0.57909000  0.06360000  1.0 -0.107072356
C  C151  1  0.10560000  0.58020000  0.10250000  1.0 -0.0492439804
C  C152  1  0.11470000  0.63390000  0.13490000  1.0 -0.157164824
C  C153  1  0.77430000  0.89670000  0.36930000  1.0 0.6096207585
C  C154  1  0.88080000  0.72280000  0.46470000  1.0 0.5496316787
C  C155  1  0.96570000  0.62890000  0.01720000  1.0 0.5496316787
C  C156  1  0.14490000  0.52470000  0.10950000  1.0 0.5965252091
C  C157  1  0.94040000  0.01340000  0.62490000  1.0 -0.1968746919
C  C158  1  0.89910000  0.02790000  0.67010000  1.0 0.1747268971
C  C159  1  0.84630000  0.99170000  0.68440000  1.0 -0.0841184769
C  C160  1  0.80620000  0.00640000  0.72600000  1.0 0.1605848989
C  C161  1  0.75120000  0.96980000  0.74040000  1.0 -0.183587004
C  C162  1  0.72420000  0.99780000  0.78560000  1.0 -0.183587004
C  C163  1  0.75950000  0.05110000  0.79700000  1.0 0.1605848989
C  C164  1  0.74580000  0.09360000  0.83850000  1.0 -0.0933243807
C  C165  1  0.77874000  0.14654000  0.85130000  1.0 0.1792002704
C  C166  1  0.76600000  0.18760000  0.89830000  1.0 -0.183587004
C  C167  1  0.83400000  0.93400000  0.64990000  1.0 0.0539117951
C  C168  1  0.87090000  0.88470000  0.65430000  1.0 -0.1373156391
C  C169  1  0.85910000  0.82930000  0.62450000  1.0 -0.0672249671
C  C170  1  0.81290000  0.83110000  0.58590000  1.0 -0.119529343
C  C171  1  0.77450000  0.88070000  0.57720000  1.0 -0.0176771516
C  C172  1  0.78660000  0.93260000  0.61060000  1.0 -0.157164824
C  C173  1  0.68823000  0.08131000  0.87400000  1.0 0.0539117951
C  C174  1  0.68550000  0.03390000  0.91140000  1.0 -0.1526426941
C  C175  1  0.63024000  0.01816000  0.94190000  1.0 -0.0176771516
C  C176  1  0.57909000  0.05591000  0.93640000  1.0 -0.107072356
C  C177  1  0.58020000  0.10560000  0.89750000  1.0 -0.0492439804
C  C178  1  0.63390000  0.11470000  0.86510000  1.0 -0.157164824
C  C179  1  0.89670000  0.77430000  0.63070000  1.0 0.6096207585
C  C180  1  0.72280000  0.88080000  0.53530000  1.0 0.5496316787
C  C181  1  0.62890000  0.96570000  0.98280000  1.0 0.5496316787
C  C182  1  0.52470000  0.14490000  0.89050000  1.0 0.5965252091
C  C183  1  0.55960000  0.48660000  0.12490000  1.0 -0.1968746919
C  C184  1  0.60090000  0.47210000  0.17010000  1.0 0.1747268971
C  C185  1  0.65370000  0.50830000  0.18440000  1.0 -0.0841184769
C  C186  1  0.69380000  0.49360000  0.22600000  1.0 0.1605848989
C  C187  1  0.74880000  0.53020000  0.24040000  1.0 -0.1854852501
C  C188  1  0.77580000  0.50220000  0.28560000  1.0 -0.183587004
C  C189  1  0.74050000  0.44890000  0.29700000  1.0 0.1542766627
C  C190  1  0.75420000  0.40640000  0.33850000  1.0 -0.0933243807
C  C191  1  0.72126000  0.35346000  0.35130000  1.0 0.1792002704
C  C192  1  0.73400000  0.31240000  0.39830000  1.0 -0.183587004
C  C193  1  0.66600000  0.56600000  0.14990000  1.0 0.0539117951
C  C194  1  0.62910000  0.61530000  0.15430000  1.0 -0.1373156391
C  C195  1  0.64090000  0.67070000  0.12450000  1.0 -0.0672249671
C  C196  1  0.68710000  0.66890000  0.08590000  1.0 -0.119529343
C  C197  1  0.72550000  0.61930000  0.07720000  1.0 -0.0176771516
C  C198  1  0.71340000  0.56740000  0.11060000  1.0 -0.157164824
C  C199  1  0.81177000  0.41869000  0.37400000  1.0 0.0539117951
C  C200  1  0.81450000  0.46610000  0.41140000  1.0 -0.1526426941
C  C201  1  0.86976000  0.48184000  0.44190000  1.0 -0.0176771516
C  C202  1  0.92091000  0.44409000  0.43640000  1.0 -0.107072356
C  C203  1  0.91980000  0.39440000  0.39750000  1.0 -0.0492439804
C  C204  1  0.86610000  0.38530000  0.36510000  1.0 -0.157164824
C  C205  1  0.60330000  0.72570000  0.13070000  1.0 0.6096207585
C  C206  1  0.77720000  0.61920000  0.03530000  1.0 0.5496316787
C  C207  1  0.87110000  0.53430000  0.48280000  1.0 0.5496316787
C  C208  1  0.97530000  0.35510000  0.39050000  1.0 0.5965252091
N  N1  1  0.55778000  0.31176000  0.26160000  1.0 -0.3664493549
N  N2  1  0.94222000  0.18824000  0.76160000  1.0 -0.3664493549
N  N3  1  0.18824000  0.94222000  0.23840000  1.0 -0.3664493549
N  N4  1  0.31176000  0.55778000  0.73840000  1.0 -0.3664493549
N  N5  1  0.44222000  0.68824000  0.73840000  1.0 -0.3664493549
N  N6  1  0.05778000  0.81176000  0.23840000  1.0 -0.3664493549
N  N7  1  0.81176000  0.05778000  0.76160000  1.0 -0.3664493549
N  N8  1  0.68824000  0.44222000  0.26160000  1.0 -0.3664493549
N  N9  1  0.58220000  0.41780000  0.19700000  1.0 -0.3664493549
N  N10  1  0.66560000  0.33440000  0.32560000  1.0 -0.3553726438
N  N11  1  0.91780000  0.08220000  0.69700000  1.0 -0.3664493549
N  N12  1  0.83440000  0.16560000  0.82560000  1.0 -0.3543503944
N  N13  1  0.08220000  0.91780000  0.30300000  1.0 -0.3664493549
N  N14  1  0.16560000  0.83440000  0.17440000  1.0 -0.3543503944
N  N15  1  0.41780000  0.58220000  0.80300000  1.0 -0.3664493549
N  N16  1  0.33440000  0.66560000  0.67440000  1.0 -0.3543503944
O  O1  1  0.27560000  0.44740000  0.15780000  1.0 -0.5670054229
O  O2  1  0.22322000  0.38178000  0.10580000  1.0 -0.6255159739
O  O3  1  0.32818000  0.20824000  0.01029000  1.0 -0.6151519183
O  O4  1  0.42830000  0.19268000  0.02310000  1.0 -0.5670054229
O  O5  1  0.43314000  0.17684000  0.48980000  1.0 -0.613814104
O  O6  1  0.45056000  0.07712000  0.50670000  1.0 -0.6003593009
O  O7  1  0.63578000  0.98042000  0.41880000  1.0 -0.5122712318
O  O8  1  0.69120000  0.02780000  0.35550000  1.0 -0.6003593009
O  O9  1  0.22440000  0.05260000  0.65780000  1.0 -0.5670054229
O  O10  1  0.27678000  0.11822000  0.60580000  1.0 -0.6255159739
O  O11  1  0.17182000  0.29176000  0.51029000  1.0 -0.613814104
O  O12  1  0.07170000  0.30732000  0.52310000  1.0 -0.5647679929
O  O13  1  0.06686000  0.32316000  0.98980000  1.0 -0.613814104
O  O14  1  0.04944000  0.42288000  0.00670000  1.0 -0.6003593009
O  O15  1  0.86422000  0.51958000  0.91880000  1.0 -0.5122712318
O  O16  1  0.80880000  0.47220000  0.85550000  1.0 -0.6003593009
O  O17  1  0.05260000  0.22440000  0.34220000  1.0 -0.5670054229
O  O18  1  0.11822000  0.27678000  0.39420000  1.0 -0.6255159739
O  O19  1  0.29176000  0.17182000  0.48971000  1.0 -0.613814104
O  O20  1  0.30732000  0.07170000  0.47690000  1.0 -0.5647679929
O  O21  1  0.32316000  0.06686000  0.01020000  1.0 -0.613814104
O  O22  1  0.42288000  0.04944000  0.99330000  1.0 -0.6003593009
O  O23  1  0.51958000  0.86422000  0.08120000  1.0 -0.5122712318
O  O24  1  0.47220000  0.80880000  0.14450000  1.0 -0.6003593009
O  O25  1  0.44740000  0.27560000  0.84220000  1.0 -0.5670054229
O  O26  1  0.38178000  0.22322000  0.89420000  1.0 -0.6255159739
O  O27  1  0.20824000  0.32818000  0.98971000  1.0 -0.613814104
O  O28  1  0.19268000  0.42830000  0.97690000  1.0 -0.5647679929
O  O29  1  0.17684000  0.43314000  0.51020000  1.0 -0.613814104
O  O30  1  0.07712000  0.45056000  0.49330000  1.0 -0.6003593009
O  O31  1  0.98042000  0.63578000  0.58120000  1.0 -0.5122712318
O  O32  1  0.02780000  0.69120000  0.64450000  1.0 -0.6003593009
O  O33  1  0.72440000  0.55260000  0.84220000  1.0 -0.5670054229
O  O34  1  0.77678000  0.61822000  0.89420000  1.0 -0.6255159739
O  O35  1  0.67182000  0.79176000  0.98971000  1.0 -0.613814104
O  O36  1  0.57170000  0.80732000  0.97690000  1.0 -0.5670054229
O  O37  1  0.56686000  0.82316000  0.51020000  1.0 -0.613814104
O  O38  1  0.54944000  0.92288000  0.49330000  1.0 -0.6003593009
O  O39  1  0.36422000  0.01958000  0.58120000  1.0 -0.5122712318
O  O40  1  0.30880000  0.97220000  0.64450000  1.0 -0.6003593009
O  O41  1  0.77560000  0.94740000  0.34220000  1.0 -0.5670054229
O  O42  1  0.72322000  0.88178000  0.39420000  1.0 -0.6255159739
O  O43  1  0.82818000  0.70824000  0.48971000  1.0 -0.613814104
O  O44  1  0.92830000  0.69268000  0.47690000  1.0 -0.5670054229
O  O45  1  0.93314000  0.67684000  0.01020000  1.0 -0.613814104
O  O46  1  0.95056000  0.57712000  0.99330000  1.0 -0.6003593009
O  O47  1  0.13578000  0.48042000  0.08120000  1.0 -0.5122712318
O  O48  1  0.19120000  0.52780000  0.14450000  1.0 -0.6003593009
O  O49  1  0.94740000  0.77560000  0.65780000  1.0 -0.5670054229
O  O50  1  0.88178000  0.72322000  0.60580000  1.0 -0.6255159739
O  O51  1  0.70824000  0.82818000  0.51029000  1.0 -0.613814104
O  O52  1  0.69268000  0.92830000  0.52310000  1.0 -0.5670054229
O  O53  1  0.67684000  0.93314000  0.98980000  1.0 -0.613814104
O  O54  1  0.57712000  0.95056000  0.00670000  1.0 -0.6003593009
O  O55  1  0.48042000  0.13578000  0.91880000  1.0 -0.5122712318
O  O56  1  0.52780000  0.19120000  0.85550000  1.0 -0.6003593009
O  O57  1  0.55260000  0.72440000  0.15780000  1.0 -0.5670054229
O  O58  1  0.61822000  0.77678000  0.10580000  1.0 -0.6255159739
O  O59  1  0.79176000  0.67182000  0.01029000  1.0 -0.613814104
O  O60  1  0.80732000  0.57170000  0.02310000  1.0 -0.5670054229
O  O61  1  0.82316000  0.56686000  0.48980000  1.0 -0.613814104
O  O62  1  0.92288000  0.54944000  0.50670000  1.0 -0.6003593009
O  O63  1  0.01958000  0.36422000  0.41880000  1.0 -0.5122712318
O  O64  1  0.97220000  0.30880000  0.35550000  1.0 -0.6003593009
