# DDEC6 charges by PACMAN v1.1 (https://github.com/mtap-research/PACMAN-charge/)
data_LEPSIL_ASR_pacman
_symmetry_space_group_name_H-M   'P 1'
_cell_length_a   21.91790000
_cell_length_b   21.91790000
_cell_length_c   21.91790000
_cell_angle_alpha   93.63620000
_cell_angle_beta   93.63620000
_cell_angle_gamma   93.63620000
_symmetry_Int_Tables_number   1
_chemical_formula_structural   Fe3H9C24N3O13
_chemical_formula_sum   'Fe24 H72 C192 N24 O104'
_cell_volume   10462.81311967
_cell_formula_units_Z   8
loop_
 _symmetry_equiv_pos_site_id
 _symmetry_equiv_pos_as_xyz
  1  'x, y, z'
loop_
 _atom_site_type_symbol
 _atom_site_label
 _atom_site_symmetry_multiplicity
 _atom_site_fract_x
 _atom_site_fract_y
 _atom_site_fract_z
 _atom_site_occupancy
 _atom_site_charge
Fe  Fe1  1  0.76551000  0.31161000  0.80723000  1.0 1.2209254611
Fe  Fe2  1  0.31161000  0.80723000  0.76551000  1.0 1.2209254611
Fe  Fe3  1  0.80723000  0.76551000  0.31161000  1.0 1.2209254611
Fe  Fe4  1  0.73449000  0.69277000  0.18839000  1.0 1.2209254611
Fe  Fe5  1  0.18839000  0.73449000  0.69277000  1.0 1.2209254611
Fe  Fe6  1  0.69277000  0.18839000  0.73449000  1.0 1.2209254611
Fe  Fe7  1  0.23449000  0.68839000  0.19277000  1.0 1.2209254611
Fe  Fe8  1  0.68839000  0.19277000  0.23449000  1.0 1.2209254611
Fe  Fe9  1  0.19277000  0.23449000  0.68839000  1.0 1.2209254611
Fe  Fe10  1  0.26551000  0.30723000  0.81161000  1.0 1.2209254611
Fe  Fe11  1  0.81161000  0.26551000  0.30723000  1.0 1.2209254611
Fe  Fe12  1  0.30723000  0.81161000  0.26551000  1.0 1.2209254611
Fe  Fe13  1  0.75000000  0.69036000  0.80964000  1.0 1.2438703286
Fe  Fe14  1  0.69036000  0.80964000  0.75000000  1.0 1.2438703286
Fe  Fe15  1  0.80964000  0.75000000  0.69036000  1.0 1.2438703286
Fe  Fe16  1  0.25000000  0.30964000  0.19036000  1.0 1.2438703286
Fe  Fe17  1  0.30964000  0.19036000  0.25000000  1.0 1.2438703286
Fe  Fe18  1  0.19036000  0.25000000  0.30964000  1.0 1.2438703286
Fe  Fe19  1  0.81872000  0.25000000  0.68128000  1.0 1.2209254611
Fe  Fe20  1  0.25000000  0.68128000  0.81872000  1.0 1.2119179475
Fe  Fe21  1  0.68128000  0.81872000  0.25000000  1.0 1.2209254611
Fe  Fe22  1  0.18128000  0.75000000  0.31872000  1.0 1.2209254611
Fe  Fe23  1  0.75000000  0.31872000  0.18128000  1.0 1.2209254611
Fe  Fe24  1  0.31872000  0.18128000  0.75000000  1.0 1.2119179475
H  H1  1  0.78380000  0.50210000  0.74560000  1.0 0.1393483597
H  H2  1  0.79210000  0.58390000  0.58500000  1.0 0.1334500594
H  H3  1  0.80420000  0.40050000  0.58740000  1.0 0.1393483597
H  H4  1  0.80760000  0.42920000  0.41070000  1.0 0.1334500594
H  H5  1  0.77170000  0.51020000  0.25250000  1.0 0.1393483597
H  H6  1  0.79940000  0.61260000  0.41190000  1.0 0.1393483597
H  H7  1  0.50210000  0.74560000  0.78380000  1.0 0.1393483597
H  H8  1  0.58390000  0.58500000  0.79210000  1.0 0.1334500594
H  H9  1  0.40050000  0.58740000  0.80420000  1.0 0.1393483597
H  H10  1  0.42920000  0.41070000  0.80760000  1.0 0.1334500594
H  H11  1  0.51020000  0.25250000  0.77170000  1.0 0.1393483597
H  H12  1  0.61260000  0.41190000  0.79940000  1.0 0.1393483597
H  H13  1  0.74560000  0.78380000  0.50210000  1.0 0.1393483597
H  H14  1  0.58500000  0.79210000  0.58390000  1.0 0.1334500594
H  H15  1  0.58740000  0.80420000  0.40050000  1.0 0.1393483597
H  H16  1  0.41070000  0.80760000  0.42920000  1.0 0.1334500594
H  H17  1  0.25250000  0.77170000  0.51020000  1.0 0.1393483597
H  H18  1  0.41190000  0.79940000  0.61260000  1.0 0.1393483597
H  H19  1  0.71620000  0.75440000  0.99790000  1.0 0.1393483597
H  H20  1  0.70790000  0.91500000  0.91610000  1.0 0.1334500594
H  H21  1  0.69580000  0.91260000  0.09950000  1.0 0.1393483597
H  H22  1  0.69240000  0.08930000  0.07080000  1.0 0.1334500594
H  H23  1  0.72830000  0.24750000  0.98980000  1.0 0.1393483597
H  H24  1  0.70060000  0.08810000  0.88740000  1.0 0.1393483597
H  H25  1  0.99790000  0.71620000  0.75440000  1.0 0.1393483597
H  H26  1  0.91610000  0.70790000  0.91500000  1.0 0.1334500594
H  H27  1  0.09950000  0.69580000  0.91260000  1.0 0.1393483597
H  H28  1  0.07080000  0.69240000  0.08930000  1.0 0.1334500594
H  H29  1  0.98980000  0.72830000  0.24750000  1.0 0.1393483597
H  H30  1  0.88740000  0.70060000  0.08810000  1.0 0.1393483597
H  H31  1  0.75440000  0.99790000  0.71620000  1.0 0.1393483597
H  H32  1  0.91500000  0.91610000  0.70790000  1.0 0.1334500594
H  H33  1  0.91260000  0.09950000  0.69580000  1.0 0.1393483597
H  H34  1  0.08930000  0.07080000  0.69240000  1.0 0.1334500594
H  H35  1  0.24750000  0.98980000  0.72830000  1.0 0.1393483597
H  H36  1  0.08810000  0.88740000  0.70060000  1.0 0.1393483597
H  H37  1  0.21620000  0.49790000  0.25440000  1.0 0.1393483597
H  H38  1  0.20790000  0.41610000  0.41500000  1.0 0.1334500594
H  H39  1  0.19580000  0.59950000  0.41260000  1.0 0.1393483597
H  H40  1  0.19240000  0.57080000  0.58930000  1.0 0.1334500594
H  H41  1  0.22830000  0.48980000  0.74750000  1.0 0.1393483597
H  H42  1  0.20060000  0.38740000  0.58810000  1.0 0.1393483597
H  H43  1  0.49790000  0.25440000  0.21620000  1.0 0.1393483597
H  H44  1  0.41610000  0.41500000  0.20790000  1.0 0.1334500594
H  H45  1  0.59950000  0.41260000  0.19580000  1.0 0.1393483597
H  H46  1  0.57080000  0.58930000  0.19240000  1.0 0.1334500594
H  H47  1  0.48980000  0.74750000  0.22830000  1.0 0.1393483597
H  H48  1  0.38740000  0.58810000  0.20060000  1.0 0.1393483597
H  H49  1  0.25440000  0.21620000  0.49790000  1.0 0.1393483597
H  H50  1  0.41500000  0.20790000  0.41610000  1.0 0.1334500594
H  H51  1  0.41260000  0.19580000  0.59950000  1.0 0.1393483597
H  H52  1  0.58930000  0.19240000  0.57080000  1.0 0.1334500594
H  H53  1  0.74750000  0.22830000  0.48980000  1.0 0.1393483597
H  H54  1  0.58810000  0.20060000  0.38740000  1.0 0.1393483597
H  H55  1  0.28380000  0.24560000  0.00210000  1.0 0.1393483597
H  H56  1  0.29210000  0.08500000  0.08390000  1.0 0.1334500594
H  H57  1  0.30420000  0.08740000  0.90050000  1.0 0.1393483597
H  H58  1  0.30760000  0.91070000  0.92920000  1.0 0.1334500594
H  H59  1  0.27170000  0.75250000  0.01020000  1.0 0.1393483597
H  H60  1  0.29940000  0.91190000  0.11260000  1.0 0.1393483597
H  H61  1  0.00210000  0.28380000  0.24560000  1.0 0.1393483597
H  H62  1  0.08390000  0.29210000  0.08500000  1.0 0.1334500594
H  H63  1  0.90050000  0.30420000  0.08740000  1.0 0.1393483597
H  H64  1  0.92920000  0.30760000  0.91070000  1.0 0.1334500594
H  H65  1  0.01020000  0.27170000  0.75250000  1.0 0.1393483597
H  H66  1  0.11260000  0.29940000  0.91190000  1.0 0.1393483597
H  H67  1  0.24560000  0.00210000  0.28380000  1.0 0.1393483597
H  H68  1  0.08500000  0.08390000  0.29210000  1.0 0.1334500594
H  H69  1  0.08740000  0.90050000  0.30420000  1.0 0.1393483597
H  H70  1  0.91070000  0.92920000  0.30760000  1.0 0.1334500594
H  H71  1  0.75250000  0.01020000  0.27170000  1.0 0.1393483597
H  H72  1  0.91190000  0.11260000  0.29940000  1.0 0.1393483597
C  C1  1  0.79681000  0.38418000  0.70288000  1.0 0.6015179972
C  C2  1  0.79518000  0.44272000  0.67084000  1.0 -0.0098651843
C  C3  1  0.78816000  0.49954000  0.70270000  1.0 -0.1112217242
C  C4  1  0.78771000  0.55169000  0.66984000  1.0 -0.0098651843
C  C5  1  0.78262000  0.61440000  0.70003000  1.0 0.6015179972
C  C6  1  0.79347000  0.54813000  0.60728000  1.0 -0.1492856761
C  C7  1  0.80124000  0.49196000  0.57732000  1.0 0.1478390056
C  C8  1  0.80078000  0.43910000  0.60874000  1.0 -0.1492856761
C  C9  1  0.79926000  0.52198000  0.42172000  1.0 0.1393483597
C  C10  1  0.79962000  0.46460000  0.38952000  1.0 -0.1492856761
C  C11  1  0.78822000  0.46040000  0.32703000  1.0 -0.0047657476
C  C12  1  0.78003000  0.51333000  0.29567000  1.0 -0.1112217242
C  C13  1  0.78390000  0.56962000  0.32698000  1.0 -0.0098651843
C  C14  1  0.79484000  0.57350000  0.39019000  1.0 -0.1492856761
C  C15  1  0.77823000  0.62844000  0.29651000  1.0 0.6015179972
C  C16  1  0.78550000  0.39815000  0.29342000  1.0 0.6015179972
C  C17  1  0.38418000  0.70288000  0.79681000  1.0 0.6015179972
C  C18  1  0.44272000  0.67084000  0.79518000  1.0 -0.0098651843
C  C19  1  0.49954000  0.70270000  0.78816000  1.0 -0.1112217242
C  C20  1  0.55169000  0.66984000  0.78771000  1.0 -0.0098651843
C  C21  1  0.61440000  0.70003000  0.78262000  1.0 0.6015179972
C  C22  1  0.54813000  0.60728000  0.79347000  1.0 -0.1492856761
C  C23  1  0.49196000  0.57732000  0.80124000  1.0 0.1478390056
C  C24  1  0.43910000  0.60874000  0.80078000  1.0 -0.1492856761
C  C25  1  0.52198000  0.42172000  0.79926000  1.0 0.1393483597
C  C26  1  0.46460000  0.38952000  0.79962000  1.0 -0.1492856761
C  C27  1  0.46040000  0.32703000  0.78822000  1.0 -0.0047657476
C  C28  1  0.51333000  0.29567000  0.78003000  1.0 -0.1112217242
C  C29  1  0.56962000  0.32698000  0.78390000  1.0 -0.0098651843
C  C30  1  0.57350000  0.39019000  0.79484000  1.0 -0.1492856761
C  C31  1  0.62844000  0.29651000  0.77823000  1.0 0.6015179972
C  C32  1  0.39815000  0.29342000  0.78550000  1.0 0.6015179972
C  C33  1  0.70288000  0.79681000  0.38418000  1.0 0.6015179972
C  C34  1  0.67084000  0.79518000  0.44272000  1.0 -0.0098651843
C  C35  1  0.70270000  0.78816000  0.49954000  1.0 -0.1112217242
C  C36  1  0.66984000  0.78771000  0.55169000  1.0 -0.0098651843
C  C37  1  0.70003000  0.78262000  0.61440000  1.0 0.6015179972
C  C38  1  0.60728000  0.79347000  0.54813000  1.0 -0.1492856761
C  C39  1  0.57732000  0.80124000  0.49196000  1.0 0.1478390056
C  C40  1  0.60874000  0.80078000  0.43910000  1.0 -0.1492856761
C  C41  1  0.42172000  0.79926000  0.52198000  1.0 0.1393483597
C  C42  1  0.38952000  0.79962000  0.46460000  1.0 -0.1492856761
C  C43  1  0.32703000  0.78822000  0.46040000  1.0 -0.0047657476
C  C44  1  0.29567000  0.78003000  0.51333000  1.0 -0.1112217242
C  C45  1  0.32698000  0.78390000  0.56962000  1.0 -0.0098651843
C  C46  1  0.39019000  0.79484000  0.57350000  1.0 -0.1492856761
C  C47  1  0.29651000  0.77823000  0.62844000  1.0 0.6015179972
C  C48  1  0.29342000  0.78550000  0.39815000  1.0 0.6015179972
C  C49  1  0.70319000  0.79712000  0.11582000  1.0 0.6015179972
C  C50  1  0.70482000  0.82916000  0.05728000  1.0 -0.0098651843
C  C51  1  0.71184000  0.79730000  0.00046000  1.0 -0.1112217242
C  C52  1  0.71229000  0.83016000  0.94831000  1.0 -0.0098651843
C  C53  1  0.71738000  0.79997000  0.88560000  1.0 0.6015179972
C  C54  1  0.70653000  0.89272000  0.95187000  1.0 -0.1492856761
C  C55  1  0.69876000  0.92268000  0.00804000  1.0 0.1478390056
C  C56  1  0.69922000  0.89126000  0.06090000  1.0 -0.1492856761
C  C57  1  0.70074000  0.07828000  0.97802000  1.0 0.1393483597
C  C58  1  0.70038000  0.11048000  0.03540000  1.0 -0.1492856761
C  C59  1  0.71178000  0.17297000  0.03960000  1.0 -0.0047657476
C  C60  1  0.71997000  0.20433000  0.98667000  1.0 -0.1112217242
C  C61  1  0.71610000  0.17302000  0.93038000  1.0 -0.0098651843
C  C62  1  0.70516000  0.10981000  0.92650000  1.0 -0.1492856761
C  C63  1  0.72177000  0.20349000  0.87156000  1.0 0.6015179972
C  C64  1  0.71450000  0.20658000  0.10185000  1.0 0.6015179972
C  C65  1  0.11582000  0.70319000  0.79712000  1.0 0.6015179972
C  C66  1  0.05728000  0.70482000  0.82916000  1.0 -0.0098651843
C  C67  1  0.00046000  0.71184000  0.79730000  1.0 -0.1112217242
C  C68  1  0.94831000  0.71229000  0.83016000  1.0 -0.0098651843
C  C69  1  0.88560000  0.71738000  0.79997000  1.0 0.6015179972
C  C70  1  0.95187000  0.70653000  0.89272000  1.0 -0.1492856761
C  C71  1  0.00804000  0.69876000  0.92268000  1.0 0.1478390056
C  C72  1  0.06090000  0.69922000  0.89126000  1.0 -0.1492856761
C  C73  1  0.97802000  0.70074000  0.07828000  1.0 0.1393483597
C  C74  1  0.03540000  0.70038000  0.11048000  1.0 -0.1492856761
C  C75  1  0.03960000  0.71178000  0.17297000  1.0 -0.0047657476
C  C76  1  0.98667000  0.71997000  0.20433000  1.0 -0.1112217242
C  C77  1  0.93038000  0.71610000  0.17302000  1.0 -0.0098651843
C  C78  1  0.92650000  0.70516000  0.10981000  1.0 -0.1492856761
C  C79  1  0.87156000  0.72177000  0.20349000  1.0 0.6015179972
C  C80  1  0.10185000  0.71450000  0.20658000  1.0 0.6015179972
C  C81  1  0.79712000  0.11582000  0.70319000  1.0 0.6015179972
C  C82  1  0.82916000  0.05728000  0.70482000  1.0 -0.0098651843
C  C83  1  0.79730000  0.00046000  0.71184000  1.0 -0.1112217242
C  C84  1  0.83016000  0.94831000  0.71229000  1.0 -0.0098651843
C  C85  1  0.79997000  0.88560000  0.71738000  1.0 0.6015179972
C  C86  1  0.89272000  0.95187000  0.70653000  1.0 -0.1492856761
C  C87  1  0.92268000  0.00804000  0.69876000  1.0 0.1478390056
C  C88  1  0.89126000  0.06090000  0.69922000  1.0 -0.1492856761
C  C89  1  0.07828000  0.97802000  0.70074000  1.0 0.1393483597
C  C90  1  0.11048000  0.03540000  0.70038000  1.0 -0.1492856761
C  C91  1  0.17297000  0.03960000  0.71178000  1.0 -0.0047657476
C  C92  1  0.20433000  0.98667000  0.71997000  1.0 -0.1112217242
C  C93  1  0.17302000  0.93038000  0.71610000  1.0 -0.0098651843
C  C94  1  0.10981000  0.92650000  0.70516000  1.0 -0.1492856761
C  C95  1  0.20349000  0.87156000  0.72177000  1.0 0.6015179972
C  C96  1  0.20658000  0.10185000  0.71450000  1.0 0.6015179972
C  C97  1  0.20319000  0.61582000  0.29712000  1.0 0.6015179972
C  C98  1  0.20482000  0.55728000  0.32916000  1.0 -0.0098651843
C  C99  1  0.21184000  0.50046000  0.29730000  1.0 -0.1112217242
C  C100  1  0.21229000  0.44831000  0.33016000  1.0 -0.0098651843
C  C101  1  0.21738000  0.38560000  0.29997000  1.0 0.6015179972
C  C102  1  0.20653000  0.45187000  0.39272000  1.0 -0.1492856761
C  C103  1  0.19876000  0.50804000  0.42268000  1.0 0.1478390056
C  C104  1  0.19922000  0.56090000  0.39126000  1.0 -0.1492856761
C  C105  1  0.20074000  0.47802000  0.57828000  1.0 0.1393483597
C  C106  1  0.20038000  0.53540000  0.61048000  1.0 -0.1492856761
C  C107  1  0.21178000  0.53960000  0.67297000  1.0 -0.0047657476
C  C108  1  0.21997000  0.48667000  0.70433000  1.0 -0.1112217242
C  C109  1  0.21610000  0.43038000  0.67302000  1.0 -0.0098651843
C  C110  1  0.20516000  0.42650000  0.60981000  1.0 -0.1492856761
C  C111  1  0.22177000  0.37156000  0.70349000  1.0 0.6015179972
C  C112  1  0.21450000  0.60185000  0.70658000  1.0 0.6015179972
C  C113  1  0.61582000  0.29712000  0.20319000  1.0 0.6015179972
C  C114  1  0.55728000  0.32916000  0.20482000  1.0 -0.0098651843
C  C115  1  0.50046000  0.29730000  0.21184000  1.0 -0.1112217242
C  C116  1  0.44831000  0.33016000  0.21229000  1.0 -0.0098651843
C  C117  1  0.38560000  0.29997000  0.21738000  1.0 0.6015179972
C  C118  1  0.45187000  0.39272000  0.20653000  1.0 -0.1492856761
C  C119  1  0.50804000  0.42268000  0.19876000  1.0 0.1478390056
C  C120  1  0.56090000  0.39126000  0.19922000  1.0 -0.1492856761
C  C121  1  0.47802000  0.57828000  0.20074000  1.0 0.1393483597
C  C122  1  0.53540000  0.61048000  0.20038000  1.0 -0.1492856761
C  C123  1  0.53960000  0.67297000  0.21178000  1.0 -0.0047657476
C  C124  1  0.48667000  0.70433000  0.21997000  1.0 -0.1112217242
C  C125  1  0.43038000  0.67302000  0.21610000  1.0 -0.0098651843
C  C126  1  0.42650000  0.60981000  0.20516000  1.0 -0.1492856761
C  C127  1  0.37156000  0.70349000  0.22177000  1.0 0.6015179972
C  C128  1  0.60185000  0.70658000  0.21450000  1.0 0.6015179972
C  C129  1  0.29712000  0.20319000  0.61582000  1.0 0.6015179972
C  C130  1  0.32916000  0.20482000  0.55728000  1.0 -0.0098651843
C  C131  1  0.29730000  0.21184000  0.50046000  1.0 -0.1112217242
C  C132  1  0.33016000  0.21229000  0.44831000  1.0 -0.0098651843
C  C133  1  0.29997000  0.21738000  0.38560000  1.0 0.6015179972
C  C134  1  0.39272000  0.20653000  0.45187000  1.0 -0.1492856761
C  C135  1  0.42268000  0.19876000  0.50804000  1.0 0.1478390056
C  C136  1  0.39126000  0.19922000  0.56090000  1.0 -0.1492856761
C  C137  1  0.57828000  0.20074000  0.47802000  1.0 0.1393483597
C  C138  1  0.61048000  0.20038000  0.53540000  1.0 -0.1492856761
C  C139  1  0.67297000  0.21178000  0.53960000  1.0 -0.0047657476
C  C140  1  0.70433000  0.21997000  0.48667000  1.0 -0.1112217242
C  C141  1  0.67302000  0.21610000  0.43038000  1.0 -0.0098651843
C  C142  1  0.60981000  0.20516000  0.42650000  1.0 -0.1492856761
C  C143  1  0.70349000  0.22177000  0.37156000  1.0 0.6015179972
C  C144  1  0.70658000  0.21450000  0.60185000  1.0 0.6015179972
C  C145  1  0.29681000  0.20288000  0.88418000  1.0 0.6015179972
C  C146  1  0.29518000  0.17084000  0.94272000  1.0 -0.0098651843
C  C147  1  0.28816000  0.20270000  0.99954000  1.0 -0.1112217242
C  C148  1  0.28771000  0.16984000  0.05169000  1.0 -0.0098651843
C  C149  1  0.28262000  0.20003000  0.11440000  1.0 0.6015179972
C  C150  1  0.29347000  0.10728000  0.04813000  1.0 -0.1492856761
C  C151  1  0.30124000  0.07732000  0.99196000  1.0 0.1478390056
C  C152  1  0.30078000  0.10874000  0.93910000  1.0 -0.1492856761
C  C153  1  0.29926000  0.92172000  0.02198000  1.0 0.1393483597
C  C154  1  0.29962000  0.88952000  0.96460000  1.0 -0.1492856761
C  C155  1  0.28822000  0.82703000  0.96040000  1.0 -0.0047657476
C  C156  1  0.28003000  0.79567000  0.01333000  1.0 -0.1112217242
C  C157  1  0.28390000  0.82698000  0.06962000  1.0 -0.0098651843
C  C158  1  0.29484000  0.89019000  0.07350000  1.0 -0.1492856761
C  C159  1  0.27823000  0.79651000  0.12844000  1.0 0.6015179972
C  C160  1  0.28550000  0.79342000  0.89815000  1.0 0.6015179972
C  C161  1  0.88418000  0.29681000  0.20288000  1.0 0.6015179972
C  C162  1  0.94272000  0.29518000  0.17084000  1.0 -0.0098651843
C  C163  1  0.99954000  0.28816000  0.20270000  1.0 -0.1112217242
C  C164  1  0.05169000  0.28771000  0.16984000  1.0 -0.0098651843
C  C165  1  0.11440000  0.28262000  0.20003000  1.0 0.6015179972
C  C166  1  0.04813000  0.29347000  0.10728000  1.0 -0.1492856761
C  C167  1  0.99196000  0.30124000  0.07732000  1.0 0.1478390056
C  C168  1  0.93910000  0.30078000  0.10874000  1.0 -0.1492856761
C  C169  1  0.02198000  0.29926000  0.92172000  1.0 0.1393483597
C  C170  1  0.96460000  0.29962000  0.88952000  1.0 -0.1492856761
C  C171  1  0.96040000  0.28822000  0.82703000  1.0 -0.0047657476
C  C172  1  0.01333000  0.28003000  0.79567000  1.0 -0.1112217242
C  C173  1  0.06962000  0.28390000  0.82698000  1.0 -0.0098651843
C  C174  1  0.07350000  0.29484000  0.89019000  1.0 -0.1492856761
C  C175  1  0.12844000  0.27823000  0.79651000  1.0 0.6015179972
C  C176  1  0.89815000  0.28550000  0.79342000  1.0 0.6015179972
C  C177  1  0.20288000  0.88418000  0.29681000  1.0 0.6015179972
C  C178  1  0.17084000  0.94272000  0.29518000  1.0 -0.0098651843
C  C179  1  0.20270000  0.99954000  0.28816000  1.0 -0.1112217242
C  C180  1  0.16984000  0.05169000  0.28771000  1.0 -0.0098651843
C  C181  1  0.20003000  0.11440000  0.28262000  1.0 0.6015179972
C  C182  1  0.10728000  0.04813000  0.29347000  1.0 -0.1492856761
C  C183  1  0.07732000  0.99196000  0.30124000  1.0 0.1478390056
C  C184  1  0.10874000  0.93910000  0.30078000  1.0 -0.1492856761
C  C185  1  0.92172000  0.02198000  0.29926000  1.0 0.1393483597
C  C186  1  0.88952000  0.96460000  0.29962000  1.0 -0.1492856761
C  C187  1  0.82703000  0.96040000  0.28822000  1.0 -0.0047657476
C  C188  1  0.79567000  0.01333000  0.28003000  1.0 -0.1112217242
C  C189  1  0.82698000  0.06962000  0.28390000  1.0 -0.0098651843
C  C190  1  0.89019000  0.07350000  0.29484000  1.0 -0.1492856761
C  C191  1  0.79651000  0.12844000  0.27823000  1.0 0.6015179972
C  C192  1  0.79342000  0.89815000  0.28550000  1.0 0.6015179972
N  N1  1  0.80125000  0.48320000  0.51146000  1.0 -0.1112217242
N  N2  1  0.80499000  0.53025000  0.48677000  1.0 -0.1112217242
N  N3  1  0.48320000  0.51146000  0.80125000  1.0 -0.1112217242
N  N4  1  0.53025000  0.48677000  0.80499000  1.0 -0.1112217242
N  N5  1  0.51146000  0.80125000  0.48320000  1.0 -0.1112217242
N  N6  1  0.48677000  0.80499000  0.53025000  1.0 -0.1112217242
N  N7  1  0.69875000  0.98854000  0.01680000  1.0 -0.1112217242
N  N8  1  0.69501000  0.01323000  0.96975000  1.0 -0.1112217242
N  N9  1  0.01680000  0.69875000  0.98854000  1.0 -0.1112217242
N  N10  1  0.96975000  0.69501000  0.01323000  1.0 -0.1112217242
N  N11  1  0.98854000  0.01680000  0.69875000  1.0 -0.1112217242
N  N12  1  0.01323000  0.96975000  0.69501000  1.0 -0.1112217242
N  N13  1  0.19875000  0.51680000  0.48854000  1.0 -0.1112217242
N  N14  1  0.19501000  0.46975000  0.51323000  1.0 -0.1112217242
N  N15  1  0.51680000  0.48854000  0.19875000  1.0 -0.1112217242
N  N16  1  0.46975000  0.51323000  0.19501000  1.0 -0.1112217242
N  N17  1  0.48854000  0.19875000  0.51680000  1.0 -0.1112217242
N  N18  1  0.51323000  0.19501000  0.46975000  1.0 -0.1112217242
N  N19  1  0.30125000  0.01146000  0.98320000  1.0 -0.1112217242
N  N20  1  0.30499000  0.98677000  0.03025000  1.0 -0.1112217242
N  N21  1  0.98320000  0.30125000  0.01146000  1.0 -0.1112217242
N  N22  1  0.03025000  0.30499000  0.98677000  1.0 -0.1112217242
N  N23  1  0.01146000  0.98320000  0.30125000  1.0 -0.1112217242
N  N24  1  0.98677000  0.03025000  0.30499000  1.0 -0.1112217242
O  O1  1  0.81659000  0.34051000  0.67361000  1.0 -0.5315781615
O  O2  1  0.77918000  0.38376000  0.75627000  1.0 -0.5315781615
O  O3  1  0.76448000  0.61729000  0.75320000  1.0 -0.5404923153
O  O4  1  0.79671000  0.65913000  0.66998000  1.0 -0.5315781615
O  O5  1  0.80531000  0.35568000  0.32334000  1.0 -0.5404923153
O  O6  1  0.76325000  0.39296000  0.23962000  1.0 -0.5315781615
O  O7  1  0.80121000  0.67601000  0.32520000  1.0 -0.5315781615
O  O8  1  0.75038000  0.62512000  0.24392000  1.0 -0.5404923153
O  O9  1  0.34051000  0.67361000  0.81659000  1.0 -0.5315781615
O  O10  1  0.38376000  0.75627000  0.77918000  1.0 -0.5315781615
O  O11  1  0.61729000  0.75320000  0.76448000  1.0 -0.5404923153
O  O12  1  0.65913000  0.66998000  0.79671000  1.0 -0.5315781615
O  O13  1  0.35568000  0.32334000  0.80531000  1.0 -0.5404923153
O  O14  1  0.39296000  0.23962000  0.76325000  1.0 -0.5315781615
O  O15  1  0.67601000  0.32520000  0.80121000  1.0 -0.5315781615
O  O16  1  0.62512000  0.24392000  0.75038000  1.0 -0.5404923153
O  O17  1  0.67361000  0.81659000  0.34051000  1.0 -0.5315781615
O  O18  1  0.75627000  0.77918000  0.38376000  1.0 -0.5315781615
O  O19  1  0.75320000  0.76448000  0.61729000  1.0 -0.5404923153
O  O20  1  0.66998000  0.79671000  0.65913000  1.0 -0.5315781615
O  O21  1  0.32334000  0.80531000  0.35568000  1.0 -0.5404923153
O  O22  1  0.23962000  0.76325000  0.39296000  1.0 -0.5315781615
O  O23  1  0.32520000  0.80121000  0.67601000  1.0 -0.5315781615
O  O24  1  0.24392000  0.75038000  0.62512000  1.0 -0.5404923153
O  O25  1  0.68341000  0.82639000  0.15949000  1.0 -0.5315781615
O  O26  1  0.72082000  0.74373000  0.11624000  1.0 -0.5315781615
O  O27  1  0.73552000  0.74680000  0.88271000  1.0 -0.5404923153
O  O28  1  0.70329000  0.83002000  0.84087000  1.0 -0.5315781615
O  O29  1  0.69469000  0.17666000  0.14432000  1.0 -0.5404923153
O  O30  1  0.73675000  0.26038000  0.10704000  1.0 -0.5315781615
O  O31  1  0.69879000  0.17480000  0.82399000  1.0 -0.5315781615
O  O32  1  0.74962000  0.25608000  0.87488000  1.0 -0.5404923153
O  O33  1  0.15949000  0.68341000  0.82639000  1.0 -0.5315781615
O  O34  1  0.11624000  0.72082000  0.74373000  1.0 -0.5315781615
O  O35  1  0.88271000  0.73552000  0.74680000  1.0 -0.5404923153
O  O36  1  0.84087000  0.70329000  0.83002000  1.0 -0.5315781615
O  O37  1  0.14432000  0.69469000  0.17666000  1.0 -0.5404923153
O  O38  1  0.10704000  0.73675000  0.26038000  1.0 -0.5315781615
O  O39  1  0.82399000  0.69879000  0.17480000  1.0 -0.5315781615
O  O40  1  0.87488000  0.74962000  0.25608000  1.0 -0.5404923153
O  O41  1  0.82639000  0.15949000  0.68341000  1.0 -0.5315781615
O  O42  1  0.74373000  0.11624000  0.72082000  1.0 -0.5315781615
O  O43  1  0.74680000  0.88271000  0.73552000  1.0 -0.5404923153
O  O44  1  0.83002000  0.84087000  0.70329000  1.0 -0.5315781615
O  O45  1  0.17666000  0.14432000  0.69469000  1.0 -0.5404923153
O  O46  1  0.26038000  0.10704000  0.73675000  1.0 -0.5315781615
O  O47  1  0.17480000  0.82399000  0.69879000  1.0 -0.5315781615
O  O48  1  0.25608000  0.87488000  0.74962000  1.0 -0.5404923153
O  O49  1  0.18341000  0.65949000  0.32639000  1.0 -0.5315781615
O  O50  1  0.22082000  0.61624000  0.24373000  1.0 -0.5315781615
O  O51  1  0.23552000  0.38271000  0.24680000  1.0 -0.5404923153
O  O52  1  0.20329000  0.34087000  0.33002000  1.0 -0.5315781615
O  O53  1  0.19469000  0.64432000  0.67666000  1.0 -0.5404923153
O  O54  1  0.23675000  0.60704000  0.76038000  1.0 -0.5315781615
O  O55  1  0.19879000  0.32399000  0.67480000  1.0 -0.5315781615
O  O56  1  0.24962000  0.37488000  0.75608000  1.0 -0.5404923153
O  O57  1  0.65949000  0.32639000  0.18341000  1.0 -0.5315781615
O  O58  1  0.61624000  0.24373000  0.22082000  1.0 -0.5315781615
O  O59  1  0.38271000  0.24680000  0.23552000  1.0 -0.5404923153
O  O60  1  0.34087000  0.33002000  0.20329000  1.0 -0.5315781615
O  O61  1  0.64432000  0.67666000  0.19469000  1.0 -0.5404923153
O  O62  1  0.60704000  0.76038000  0.23675000  1.0 -0.5315781615
O  O63  1  0.32399000  0.67480000  0.19879000  1.0 -0.5315781615
O  O64  1  0.37488000  0.75608000  0.24962000  1.0 -0.5404923153
O  O65  1  0.32639000  0.18341000  0.65949000  1.0 -0.5315781615
O  O66  1  0.24373000  0.22082000  0.61624000  1.0 -0.5315781615
O  O67  1  0.24680000  0.23552000  0.38271000  1.0 -0.5404923153
O  O68  1  0.33002000  0.20329000  0.34087000  1.0 -0.5315781615
O  O69  1  0.67666000  0.19469000  0.64432000  1.0 -0.5404923153
O  O70  1  0.76038000  0.23675000  0.60704000  1.0 -0.5315781615
O  O71  1  0.67480000  0.19879000  0.32399000  1.0 -0.5315781615
O  O72  1  0.75608000  0.24962000  0.37488000  1.0 -0.5404923153
O  O73  1  0.31659000  0.17361000  0.84051000  1.0 -0.5315781615
O  O74  1  0.27918000  0.25627000  0.88376000  1.0 -0.5315781615
O  O75  1  0.26448000  0.25320000  0.11729000  1.0 -0.5404923153
O  O76  1  0.29671000  0.16998000  0.15913000  1.0 -0.5315781615
O  O77  1  0.30531000  0.82334000  0.85568000  1.0 -0.5404923153
O  O78  1  0.26325000  0.73962000  0.89296000  1.0 -0.5315781615
O  O79  1  0.30121000  0.82520000  0.17601000  1.0 -0.5315781615
O  O80  1  0.25038000  0.74392000  0.12512000  1.0 -0.5404923153
O  O81  1  0.84051000  0.31659000  0.17361000  1.0 -0.5315781615
O  O82  1  0.88376000  0.27918000  0.25627000  1.0 -0.5315781615
O  O83  1  0.11729000  0.26448000  0.25320000  1.0 -0.5404923153
O  O84  1  0.15913000  0.29671000  0.16998000  1.0 -0.5315781615
O  O85  1  0.85568000  0.30531000  0.82334000  1.0 -0.5404923153
O  O86  1  0.89296000  0.26325000  0.73962000  1.0 -0.5315781615
O  O87  1  0.17601000  0.30121000  0.82520000  1.0 -0.5315781615
O  O88  1  0.12512000  0.25038000  0.74392000  1.0 -0.5404923153
O  O89  1  0.17361000  0.84051000  0.31659000  1.0 -0.5315781615
O  O90  1  0.25627000  0.88376000  0.27918000  1.0 -0.5315781615
O  O91  1  0.25320000  0.11729000  0.26448000  1.0 -0.5404923153
O  O92  1  0.16998000  0.15913000  0.29671000  1.0 -0.5315781615
O  O93  1  0.82334000  0.85568000  0.30531000  1.0 -0.5404923153
O  O94  1  0.73962000  0.89296000  0.26325000  1.0 -0.5315781615
O  O95  1  0.82520000  0.17601000  0.30121000  1.0 -0.5315781615
O  O96  1  0.74392000  0.12512000  0.25038000  1.0 -0.5404923153
O  O97  1  0.75852000  0.25000000  0.74148000  1.0 -0.9204245401
O  O98  1  0.25000000  0.74148000  0.75852000  1.0 -0.9204245401
O  O99  1  0.74148000  0.75852000  0.25000000  1.0 -0.9204245401
O  O100  1  0.24148000  0.75000000  0.25852000  1.0 -0.9204245401
O  O101  1  0.75000000  0.25852000  0.24148000  1.0 -0.9204245401
O  O102  1  0.25852000  0.24148000  0.75000000  1.0 -0.9204245401
O  O103  1  0.75000000  0.75000000  0.75000000  1.0 -0.9204245401
O  O104  1  0.25000000  0.25000000  0.25000000  1.0 -0.9204245401
