# DDEC6 charges by PACMAN v1.1 (https://github.com/mtap-research/PACMAN-charge/)
data_LEPSEH_ASR_pacman
_symmetry_space_group_name_H-M   'P 1'
_cell_length_a   21.90900000
_cell_length_b   21.90900000
_cell_length_c   21.88800000
_cell_angle_alpha   86.70510000
_cell_angle_beta   93.29490000
_cell_angle_gamma   89.90750000
_symmetry_Int_Tables_number   1
_chemical_formula_structural   Fe3H12C29N4O13
_chemical_formula_sum   'Fe24 H96 C232 N32 O104'
_cell_volume   10471.49966995
_cell_formula_units_Z   8
loop_
 _symmetry_equiv_pos_site_id
 _symmetry_equiv_pos_as_xyz
  1  'x, y, z'
loop_
 _atom_site_type_symbol
 _atom_site_label
 _atom_site_symmetry_multiplicity
 _atom_site_fract_x
 _atom_site_fract_y
 _atom_site_fract_z
 _atom_site_occupancy
 _atom_site_charge
Fe  Fe1  1  0.24337000  0.80761000  0.69506000  1.0 1.2209241017
Fe  Fe2  1  0.30995000  0.68393000  0.76683000  1.0 1.1058055882
Fe  Fe3  1  0.18571000  0.74209000  0.82112000  1.0 1.1942478045
Fe  Fe4  1  0.24320000  0.18824000  0.68891000  1.0 1.1670834546
Fe  Fe5  1  0.80805000  0.74191000  0.81389000  1.0 1.1639698669
Fe  Fe6  1  0.80761000  0.24337000  0.80494000  1.0 1.2209241017
Fe  Fe7  1  0.68393000  0.30995000  0.73317000  1.0 1.102975957
Fe  Fe8  1  0.74209000  0.18571000  0.67888000  1.0 1.1942478045
Fe  Fe9  1  0.18824000  0.24320000  0.81109000  1.0 1.1670834546
Fe  Fe10  1  0.74191000  0.80805000  0.68611000  1.0 1.1670834546
Fe  Fe11  1  0.75663000  0.19239000  0.30494000  1.0 1.2209241017
Fe  Fe12  1  0.69005000  0.31607000  0.23317000  1.0 1.1058055882
Fe  Fe13  1  0.81429000  0.25791000  0.17888000  1.0 1.1942478045
Fe  Fe14  1  0.75680000  0.81176000  0.31109000  1.0 1.1670834546
Fe  Fe15  1  0.19195000  0.25809000  0.18611000  1.0 1.1670834546
Fe  Fe16  1  0.19239000  0.75663000  0.19506000  1.0 1.2209241017
Fe  Fe17  1  0.31607000  0.69005000  0.26683000  1.0 1.1058055882
Fe  Fe18  1  0.25791000  0.81429000  0.32112000  1.0 1.1942478045
Fe  Fe19  1  0.81176000  0.75680000  0.18891000  1.0 1.1639698669
Fe  Fe20  1  0.25809000  0.19195000  0.31389000  1.0 1.1670834546
Fe  Fe21  1  0.30833000  0.30833000  0.75000000  1.0 1.1828773543
Fe  Fe22  1  0.69167000  0.69167000  0.25000000  1.0 1.1828773543
Fe  Fe23  1  0.68259000  0.68259000  0.75000000  1.0 1.0876409337
Fe  Fe24  1  0.31741000  0.31741000  0.25000000  1.0 1.0876409337
H  H1  1  0.20900000  0.92180000  0.09140000  1.0 0.1310303553
H  H2  1  0.20770000  0.10530000  0.09110000  1.0 0.1399413881
H  H3  1  0.22920000  0.00460000  0.25030000  1.0 0.1399413881
H  H4  1  0.19930000  0.89470000  0.91310000  1.0 0.1399413881
H  H5  1  0.21560000  0.99440000  0.75500000  1.0 0.1399413881
H  H6  1  0.20660000  0.07800000  0.91300000  1.0 0.1399413881
H  H7  1  0.30870000  0.58710000  0.43130000  1.0 0.1310303553
H  H8  1  0.27250000  0.74230000  0.51200000  1.0 0.1399413881
H  H9  1  0.30880000  0.58720000  0.61490000  1.0 0.1399413881
H  H10  1  0.27620000  0.25680000  0.50550000  1.0 0.1310303553
H  H11  1  0.31600000  0.40860000  0.40380000  1.0 0.1399413881
H  H12  1  0.30280000  0.41580000  0.58560000  1.0 0.1310303553
H  H13  1  0.23610000  0.49630000  0.75790000  1.0 0.1213985389
H  H14  1  0.08270000  0.57750000  0.81650000  1.0 0.1006853515
H  H15  1  0.08670000  0.40130000  0.80050000  1.0 0.0835304688
H  H16  1  0.75710000  0.49350000  0.79330000  1.0 0.1213985389
H  H17  1  0.91230000  0.58090000  0.82500000  1.0 0.0889207037
H  H18  1  0.91360000  0.40800000  0.82770000  1.0 0.1006853515
H  H19  1  0.06220000  0.42600000  0.79100000  1.0 0.0889207037
H  H20  1  0.23710000  0.48130000  0.79800000  1.0 0.1310303553
H  H21  1  0.10140000  0.60420000  0.80230000  1.0 0.1132279336
H  H22  1  0.75700000  0.49820000  0.75550000  1.0 0.1213985389
H  H23  1  0.92030000  0.57950000  0.79690000  1.0 0.0889207037
H  H24  1  0.91060000  0.39720000  0.78600000  1.0 0.0889207037
H  H25  1  0.92180000  0.20900000  0.40860000  1.0 0.1310303553
H  H26  1  0.10530000  0.20770000  0.40890000  1.0 0.1399413881
H  H27  1  0.00460000  0.22920000  0.24970000  1.0 0.1399413881
H  H28  1  0.89470000  0.19930000  0.58690000  1.0 0.1399413881
H  H29  1  0.99440000  0.21560000  0.74500000  1.0 0.1399413881
H  H30  1  0.07800000  0.20660000  0.58700000  1.0 0.1399413881
H  H31  1  0.58710000  0.30870000  0.06870000  1.0 0.1310303553
H  H32  1  0.74230000  0.27250000  0.98800000  1.0 0.1399413881
H  H33  1  0.58720000  0.30880000  0.88510000  1.0 0.1399413881
H  H34  1  0.25680000  0.27620000  0.99450000  1.0 0.1310303553
H  H35  1  0.40860000  0.31600000  0.09620000  1.0 0.1399413881
H  H36  1  0.41580000  0.30280000  0.91440000  1.0 0.1310303553
H  H37  1  0.49630000  0.23610000  0.74210000  1.0 0.1213985389
H  H38  1  0.57750000  0.08270000  0.68350000  1.0 0.1006853515
H  H39  1  0.40130000  0.08670000  0.69950000  1.0 0.0835304688
H  H40  1  0.49350000  0.75710000  0.70670000  1.0 0.1213985389
H  H41  1  0.58090000  0.91230000  0.67500000  1.0 0.0889207037
H  H42  1  0.40800000  0.91360000  0.67230000  1.0 0.1006853515
H  H43  1  0.42600000  0.06220000  0.70900000  1.0 0.0889207037
H  H44  1  0.48130000  0.23710000  0.70200000  1.0 0.1310303553
H  H45  1  0.60420000  0.10140000  0.69770000  1.0 0.1132279336
H  H46  1  0.49820000  0.75700000  0.74450000  1.0 0.1213985389
H  H47  1  0.57950000  0.92030000  0.70310000  1.0 0.0889207037
H  H48  1  0.39720000  0.91060000  0.71400000  1.0 0.0889207037
H  H49  1  0.79100000  0.07820000  0.90860000  1.0 0.1310303553
H  H50  1  0.79230000  0.89470000  0.90890000  1.0 0.1399413881
H  H51  1  0.77080000  0.99540000  0.74970000  1.0 0.1399413881
H  H52  1  0.80070000  0.10530000  0.08690000  1.0 0.1399413881
H  H53  1  0.78440000  0.00560000  0.24500000  1.0 0.1399413881
H  H54  1  0.79340000  0.92200000  0.08700000  1.0 0.1399413881
H  H55  1  0.69130000  0.41290000  0.56870000  1.0 0.1310303553
H  H56  1  0.72750000  0.25770000  0.48800000  1.0 0.1399413881
H  H57  1  0.69120000  0.41280000  0.38510000  1.0 0.1399413881
H  H58  1  0.72380000  0.74320000  0.49450000  1.0 0.1310303553
H  H59  1  0.68400000  0.59140000  0.59620000  1.0 0.1399413881
H  H60  1  0.69720000  0.58420000  0.41440000  1.0 0.1310303553
H  H61  1  0.76390000  0.50370000  0.24210000  1.0 0.1213985389
H  H62  1  0.91730000  0.42250000  0.18350000  1.0 0.1006853515
H  H63  1  0.91330000  0.59870000  0.19950000  1.0 0.0835304688
H  H64  1  0.24290000  0.50650000  0.20670000  1.0 0.1213985389
H  H65  1  0.08770000  0.41910000  0.17500000  1.0 0.0889207037
H  H66  1  0.08640000  0.59200000  0.17230000  1.0 0.1006853515
H  H67  1  0.93780000  0.57400000  0.20900000  1.0 0.0889207037
H  H68  1  0.76290000  0.51870000  0.20200000  1.0 0.1310303553
H  H69  1  0.89860000  0.39580000  0.19770000  1.0 0.1132279336
H  H70  1  0.24300000  0.50180000  0.24450000  1.0 0.1213985389
H  H71  1  0.07970000  0.42050000  0.20310000  1.0 0.0889207037
H  H72  1  0.08940000  0.60280000  0.21400000  1.0 0.0889207037
H  H73  1  0.07820000  0.79100000  0.59140000  1.0 0.1310303553
H  H74  1  0.89470000  0.79230000  0.59110000  1.0 0.1399413881
H  H75  1  0.99540000  0.77080000  0.75030000  1.0 0.1399413881
H  H76  1  0.10530000  0.80070000  0.41310000  1.0 0.1399413881
H  H77  1  0.00560000  0.78440000  0.25500000  1.0 0.1399413881
H  H78  1  0.92200000  0.79340000  0.41300000  1.0 0.1399413881
H  H79  1  0.41290000  0.69130000  0.93130000  1.0 0.1310303553
H  H80  1  0.25770000  0.72750000  0.01200000  1.0 0.1399413881
H  H81  1  0.41280000  0.69120000  0.11490000  1.0 0.1399413881
H  H82  1  0.74320000  0.72380000  0.00550000  1.0 0.1310303553
H  H83  1  0.59140000  0.68400000  0.90380000  1.0 0.1399413881
H  H84  1  0.58420000  0.69720000  0.08560000  1.0 0.1310303553
H  H85  1  0.50370000  0.76390000  0.25790000  1.0 0.1213985389
H  H86  1  0.42250000  0.91730000  0.31650000  1.0 0.1006853515
H  H87  1  0.59870000  0.91330000  0.30050000  1.0 0.0835304688
H  H88  1  0.50650000  0.24290000  0.29330000  1.0 0.1213985389
H  H89  1  0.41910000  0.08770000  0.32500000  1.0 0.0889207037
H  H90  1  0.59200000  0.08640000  0.32770000  1.0 0.1006853515
H  H91  1  0.57400000  0.93780000  0.29100000  1.0 0.0889207037
H  H92  1  0.51870000  0.76290000  0.29800000  1.0 0.1310303553
H  H93  1  0.39580000  0.89860000  0.30230000  1.0 0.1132279336
H  H94  1  0.50180000  0.24300000  0.25550000  1.0 0.1213985389
H  H95  1  0.42050000  0.07970000  0.29690000  1.0 0.0889207037
H  H96  1  0.60280000  0.08940000  0.28600000  1.0 0.0889207037
C  C1  1  0.22210000  0.12410000  0.20610000  1.0 0.6086896931
C  C2  1  0.22090000  0.89390000  0.20760000  1.0 0.5845078304
C  C3  1  0.21150000  0.95730000  0.11260000  1.0 -0.1413407639
C  C4  1  0.20690000  0.01410000  0.08070000  1.0 0.1639678999
C  C5  1  0.21070000  0.06730000  0.11240000  1.0 -0.1592601181
C  C6  1  0.21910000  0.06370000  0.17600000  1.0 -0.0097317736
C  C7  1  0.22360000  0.00700000  0.20780000  1.0 -0.0901306286
C  C8  1  0.21990000  0.95390000  0.17610000  1.0 -0.0396939645
C  C9  1  0.20250000  0.93250000  0.89200000  1.0 -0.1413407639
C  C10  1  0.20750000  0.93570000  0.82890000  1.0 -0.0396939645
C  C11  1  0.21220000  0.99220000  0.79730000  1.0 -0.0794023079
C  C12  1  0.21180000  0.04560000  0.82880000  1.0 -0.0677658519
C  C13  1  0.20680000  0.04240000  0.89190000  1.0 -0.1306782119
C  C14  1  0.20210000  0.98590000  0.92350000  1.0 0.1651038452
C  C15  1  0.21400000  0.87720000  0.80050000  1.0 0.6086896931
C  C16  1  0.21350000  0.10570000  0.79950000  1.0 0.5925574302
C  C17  1  0.29220000  0.70160000  0.63180000  1.0 0.5925574302
C  C18  1  0.30390000  0.60790000  0.46660000  1.0 -0.1452981905
C  C19  1  0.28940000  0.66980000  0.46220000  1.0 -0.0396939645
C  C20  1  0.28220000  0.70080000  0.51500000  1.0 -0.1073796016
C  C21  1  0.28940000  0.66980000  0.57220000  1.0 -0.0097317736
C  C22  1  0.30390000  0.60790000  0.57660000  1.0 -0.1656901389
C  C23  1  0.31110000  0.57690000  0.52390000  1.0 0.1399413881
C  C24  1  0.29210000  0.70070000  0.40060000  1.0 0.6086896931
C  C25  1  0.28780000  0.33160000  0.55490000  1.0 -0.1003223534
C  C26  1  0.28510000  0.29830000  0.50260000  1.0 -0.052889091
C  C27  1  0.29570000  0.32710000  0.44600000  1.0 -0.0794023079
C  C28  1  0.30890000  0.38930000  0.44170000  1.0 -0.1592601181
C  C29  1  0.31160000  0.42240000  0.49400000  1.0 0.1469719708
C  C30  1  0.30100000  0.39360000  0.55060000  1.0 -0.1306782119
C  C31  1  0.29640000  0.30640000  0.38550000  1.0 0.5710233375
C  C32  1  0.28470000  0.30350000  0.61070000  1.0 0.5146031503
C  C33  1  0.19300000  0.38340000  0.78850000  1.0 0.3762524351
C  C34  1  0.17110000  0.44170000  0.79100000  1.0 -0.0235802224
C  C35  1  0.20060000  0.49540000  0.77900000  1.0 -0.0616875906
C  C36  1  0.10540000  0.54200000  0.81300000  1.0 -0.0396939645
C  C37  1  0.07650000  0.49050000  0.81800000  1.0 0.0588940083
C  C38  1  0.17630000  0.55050000  0.80080000  1.0 -0.0097317736
C  C39  1  0.10730000  0.43830000  0.80300000  1.0 -0.0396939645
C  C40  1  0.79540000  0.38280000  0.77800000  1.0 0.5453430935
C  C41  1  0.82790000  0.43830000  0.78660000  1.0 -0.0235802224
C  C42  1  0.79920000  0.49460000  0.78930000  1.0 -0.1223349963
C  C43  1  0.91500000  0.49140000  0.81400000  1.0 0.0541777371
C  C44  1  0.89010000  0.54770000  0.81100000  1.0 -0.0396939645
C  C45  1  0.82680000  0.55520000  0.78700000  1.0 0.0006866493
C  C46  1  0.89220000  0.44280000  0.81300000  1.0 -0.052889091
C  C47  1  0.79010000  0.60830000  0.79280000  1.0 0.4657176137
C  C48  1  0.21070000  0.60930000  0.80210000  1.0 0.5224681183
C  C49  1  0.09080000  0.45720000  0.79350000  1.0 -0.0677658519
C  C50  1  0.15290000  0.44370000  0.79400000  1.0 0.0588940083
C  C51  1  0.19550000  0.49030000  0.79770000  1.0 -0.0794023079
C  C52  1  0.11420000  0.56400000  0.80020000  1.0 -0.1073796016
C  C53  1  0.07150000  0.51730000  0.79660000  1.0 0.0889207037
C  C54  1  0.79630000  0.49470000  0.77400000  1.0 -0.0901306286
C  C55  1  0.83370000  0.54750000  0.79310000  1.0 0.0052213468
C  C56  1  0.89720000  0.54400000  0.79430000  1.0 -0.052889091
C  C57  1  0.92600000  0.48780000  0.79170000  1.0 0.0889207037
C  C58  1  0.89130000  0.43490000  0.78780000  1.0 -0.0677658519
C  C59  1  0.12410000  0.22210000  0.29390000  1.0 0.6086896931
C  C60  1  0.89390000  0.22090000  0.29240000  1.0 0.5845078304
C  C61  1  0.95730000  0.21150000  0.38740000  1.0 -0.1413407639
C  C62  1  0.01410000  0.20690000  0.41930000  1.0 0.1639678999
C  C63  1  0.06730000  0.21070000  0.38760000  1.0 -0.1592601181
C  C64  1  0.06370000  0.21910000  0.32400000  1.0 -0.0097317736
C  C65  1  0.00700000  0.22360000  0.29220000  1.0 -0.0901306286
C  C66  1  0.95390000  0.21990000  0.32390000  1.0 -0.0396939645
C  C67  1  0.93250000  0.20250000  0.60800000  1.0 -0.1413407639
C  C68  1  0.93570000  0.20750000  0.67110000  1.0 -0.0396939645
C  C69  1  0.99220000  0.21220000  0.70270000  1.0 -0.0794023079
C  C70  1  0.04560000  0.21180000  0.67120000  1.0 -0.0677658519
C  C71  1  0.04240000  0.20680000  0.60810000  1.0 -0.1306782119
C  C72  1  0.98590000  0.20210000  0.57650000  1.0 0.1651038452
C  C73  1  0.87720000  0.21400000  0.69950000  1.0 0.6086896931
C  C74  1  0.10570000  0.21350000  0.70050000  1.0 0.5925574302
C  C75  1  0.70160000  0.29220000  0.86820000  1.0 0.5925574302
C  C76  1  0.60790000  0.30390000  0.03340000  1.0 -0.1413407639
C  C77  1  0.66980000  0.28940000  0.03780000  1.0 -0.0396939645
C  C78  1  0.70080000  0.28220000  0.98500000  1.0 -0.1073796016
C  C79  1  0.66980000  0.28940000  0.92780000  1.0 -0.0097317736
C  C80  1  0.60790000  0.30390000  0.92340000  1.0 -0.1592601181
C  C81  1  0.57690000  0.31110000  0.97610000  1.0 0.1469719708
C  C82  1  0.70070000  0.29210000  0.09940000  1.0 0.6086896931
C  C83  1  0.33160000  0.28780000  0.94510000  1.0 -0.1003223534
C  C84  1  0.29830000  0.28510000  0.99740000  1.0 -0.052889091
C  C85  1  0.32710000  0.29570000  0.05400000  1.0 -0.0794023079
C  C86  1  0.38930000  0.30890000  0.05830000  1.0 -0.1592601181
C  C87  1  0.42240000  0.31160000  0.00600000  1.0 0.1469719708
C  C88  1  0.39360000  0.30100000  0.94940000  1.0 -0.1306782119
C  C89  1  0.30640000  0.29640000  0.11450000  1.0 0.5710233375
C  C90  1  0.30350000  0.28470000  0.88930000  1.0 0.5146031503
C  C91  1  0.38340000  0.19300000  0.71150000  1.0 0.3762524351
C  C92  1  0.44170000  0.17110000  0.70900000  1.0 -0.0235802224
C  C93  1  0.49540000  0.20060000  0.72100000  1.0 -0.0616875906
C  C94  1  0.54200000  0.10540000  0.68700000  1.0 -0.0396939645
C  C95  1  0.49050000  0.07650000  0.68200000  1.0 0.0588940083
C  C96  1  0.55050000  0.17630000  0.69920000  1.0 -0.0097317736
C  C97  1  0.43830000  0.10730000  0.69700000  1.0 -0.0396939645
C  C98  1  0.38280000  0.79540000  0.72200000  1.0 0.5453430935
C  C99  1  0.43830000  0.82790000  0.71340000  1.0 -0.0235802224
C  C100  1  0.49460000  0.79920000  0.71070000  1.0 -0.1223349963
C  C101  1  0.49140000  0.91500000  0.68600000  1.0 0.0541777371
C  C102  1  0.54770000  0.89010000  0.68900000  1.0 -0.0396939645
C  C103  1  0.55520000  0.82680000  0.71300000  1.0 0.0006866493
C  C104  1  0.44280000  0.89220000  0.68700000  1.0 -0.052889091
C  C105  1  0.60830000  0.79010000  0.70720000  1.0 0.4657176137
C  C106  1  0.60930000  0.21070000  0.69790000  1.0 0.5224681183
C  C107  1  0.45720000  0.09080000  0.70650000  1.0 -0.0677658519
C  C108  1  0.44370000  0.15290000  0.70600000  1.0 0.0588940083
C  C109  1  0.49030000  0.19550000  0.70230000  1.0 -0.0794023079
C  C110  1  0.56400000  0.11420000  0.69980000  1.0 -0.1073796016
C  C111  1  0.51730000  0.07150000  0.70340000  1.0 0.0889207037
C  C112  1  0.49470000  0.79630000  0.72600000  1.0 -0.0901306286
C  C113  1  0.54750000  0.83370000  0.70690000  1.0 0.0052213468
C  C114  1  0.54400000  0.89720000  0.70570000  1.0 -0.0616875906
C  C115  1  0.48780000  0.92600000  0.70830000  1.0 0.0889207037
C  C116  1  0.43490000  0.89130000  0.71220000  1.0 -0.0677658519
C  C117  1  0.77790000  0.87590000  0.79390000  1.0 0.6086896931
C  C118  1  0.77910000  0.10610000  0.79240000  1.0 0.5845078304
C  C119  1  0.78850000  0.04270000  0.88740000  1.0 -0.1413407639
C  C120  1  0.79310000  0.98590000  0.91930000  1.0 0.1639678999
C  C121  1  0.78930000  0.93270000  0.88760000  1.0 -0.1592601181
C  C122  1  0.78090000  0.93630000  0.82400000  1.0 -0.0097317736
C  C123  1  0.77640000  0.99300000  0.79220000  1.0 -0.0901306286
C  C124  1  0.78010000  0.04610000  0.82390000  1.0 -0.0396939645
C  C125  1  0.79750000  0.06750000  0.10800000  1.0 -0.1413407639
C  C126  1  0.79250000  0.06430000  0.17110000  1.0 -0.0396939645
C  C127  1  0.78780000  0.00780000  0.20270000  1.0 -0.0794023079
C  C128  1  0.78820000  0.95440000  0.17120000  1.0 -0.0677658519
C  C129  1  0.79320000  0.95760000  0.10810000  1.0 -0.1306782119
C  C130  1  0.79790000  0.01410000  0.07650000  1.0 0.1639678999
C  C131  1  0.78600000  0.12280000  0.19950000  1.0 0.6086896931
C  C132  1  0.78650000  0.89430000  0.20050000  1.0 0.5925574302
C  C133  1  0.70780000  0.29840000  0.36820000  1.0 0.5925574302
C  C134  1  0.69610000  0.39210000  0.53340000  1.0 -0.1413407639
C  C135  1  0.71060000  0.33020000  0.53780000  1.0 -0.0396939645
C  C136  1  0.71780000  0.29920000  0.48500000  1.0 -0.1073796016
C  C137  1  0.71060000  0.33020000  0.42780000  1.0 -0.0097317736
C  C138  1  0.69610000  0.39210000  0.42340000  1.0 -0.1592601181
C  C139  1  0.68890000  0.42310000  0.47610000  1.0 0.1399413881
C  C140  1  0.70790000  0.29930000  0.59940000  1.0 0.6086896931
C  C141  1  0.71220000  0.66840000  0.44510000  1.0 -0.1003223534
C  C142  1  0.71490000  0.70170000  0.49740000  1.0 -0.052889091
C  C143  1  0.70430000  0.67290000  0.55400000  1.0 -0.0794023079
C  C144  1  0.69110000  0.61070000  0.55830000  1.0 -0.1592601181
C  C145  1  0.68840000  0.57760000  0.50600000  1.0 0.1469719708
C  C146  1  0.69900000  0.60640000  0.44940000  1.0 -0.1306782119
C  C147  1  0.70360000  0.69360000  0.61450000  1.0 0.5710233375
C  C148  1  0.71530000  0.69650000  0.38930000  1.0 0.5146031503
C  C149  1  0.80700000  0.61660000  0.21150000  1.0 0.3762524351
C  C150  1  0.82890000  0.55830000  0.20900000  1.0 -0.0235802224
C  C151  1  0.79940000  0.50460000  0.22100000  1.0 -0.0616875906
C  C152  1  0.89460000  0.45800000  0.18700000  1.0 -0.0396939645
C  C153  1  0.92350000  0.50950000  0.18200000  1.0 0.0541777371
C  C154  1  0.82370000  0.44950000  0.19920000  1.0 -0.0097317736
C  C155  1  0.89270000  0.56170000  0.19700000  1.0 -0.0339294375
C  C156  1  0.20460000  0.61720000  0.22200000  1.0 0.5453430935
C  C157  1  0.17210000  0.56170000  0.21340000  1.0 -0.0235802224
C  C158  1  0.20080000  0.50540000  0.21070000  1.0 -0.1223349963
C  C159  1  0.08500000  0.50860000  0.18600000  1.0 0.0541777371
C  C160  1  0.10990000  0.45230000  0.18900000  1.0 -0.052889091
C  C161  1  0.17320000  0.44480000  0.21300000  1.0 0.0006866493
C  C162  1  0.10780000  0.55720000  0.18700000  1.0 -0.052889091
C  C163  1  0.20990000  0.39170000  0.20720000  1.0 0.4657176137
C  C164  1  0.78930000  0.39070000  0.19790000  1.0 0.5224681183
C  C165  1  0.90920000  0.54280000  0.20650000  1.0 -0.0677658519
C  C166  1  0.84710000  0.55630000  0.20600000  1.0 0.0588940083
C  C167  1  0.80450000  0.50970000  0.20230000  1.0 -0.0794023079
C  C168  1  0.88580000  0.43600000  0.19980000  1.0 -0.1073796016
C  C169  1  0.92850000  0.48270000  0.20340000  1.0 0.0889207037
C  C170  1  0.20370000  0.50530000  0.22600000  1.0 -0.0901306286
C  C171  1  0.16630000  0.45250000  0.20690000  1.0 0.0052213468
C  C172  1  0.10280000  0.45600000  0.20570000  1.0 -0.052889091
C  C173  1  0.07400000  0.51220000  0.20830000  1.0 0.0889207037
C  C174  1  0.10870000  0.56510000  0.21220000  1.0 -0.0677658519
C  C175  1  0.87590000  0.77790000  0.70610000  1.0 0.6086896931
C  C176  1  0.10610000  0.77910000  0.70760000  1.0 0.5845078304
C  C177  1  0.04270000  0.78850000  0.61260000  1.0 -0.1413407639
C  C178  1  0.98590000  0.79310000  0.58070000  1.0 0.1639678999
C  C179  1  0.93270000  0.78930000  0.61240000  1.0 -0.1592601181
C  C180  1  0.93630000  0.78090000  0.67600000  1.0 -0.0097317736
C  C181  1  0.99300000  0.77640000  0.70780000  1.0 -0.0901306286
C  C182  1  0.04610000  0.78010000  0.67610000  1.0 -0.0396939645
C  C183  1  0.06750000  0.79750000  0.39200000  1.0 -0.1413407639
C  C184  1  0.06430000  0.79250000  0.32890000  1.0 -0.0396939645
C  C185  1  0.00780000  0.78780000  0.29730000  1.0 -0.0794023079
C  C186  1  0.95440000  0.78820000  0.32880000  1.0 -0.0677658519
C  C187  1  0.95760000  0.79320000  0.39190000  1.0 -0.1306782119
C  C188  1  0.01410000  0.79790000  0.42350000  1.0 0.1651038452
C  C189  1  0.12280000  0.78600000  0.30050000  1.0 0.6086896931
C  C190  1  0.89430000  0.78650000  0.29950000  1.0 0.5925574302
C  C191  1  0.29840000  0.70780000  0.13180000  1.0 0.5925574302
C  C192  1  0.39210000  0.69610000  0.96660000  1.0 -0.1452981905
C  C193  1  0.33020000  0.71060000  0.96220000  1.0 -0.0396939645
C  C194  1  0.29920000  0.71780000  0.01500000  1.0 -0.1073796016
C  C195  1  0.33020000  0.71060000  0.07220000  1.0 -0.0097317736
C  C196  1  0.39210000  0.69610000  0.07660000  1.0 -0.1656901389
C  C197  1  0.42310000  0.68890000  0.02390000  1.0 0.1469719708
C  C198  1  0.29930000  0.70790000  0.90060000  1.0 0.6086896931
C  C199  1  0.66840000  0.71220000  0.05490000  1.0 -0.1003223534
C  C200  1  0.70170000  0.71490000  0.00260000  1.0 -0.052889091
C  C201  1  0.67290000  0.70430000  0.94600000  1.0 -0.0794023079
C  C202  1  0.61070000  0.69110000  0.94170000  1.0 -0.1592601181
C  C203  1  0.57760000  0.68840000  0.99400000  1.0 0.1469719708
C  C204  1  0.60640000  0.69900000  0.05060000  1.0 -0.1306782119
C  C205  1  0.69360000  0.70360000  0.88550000  1.0 0.5710233375
C  C206  1  0.69650000  0.71530000  0.11070000  1.0 0.5224681183
C  C207  1  0.61660000  0.80700000  0.28850000  1.0 0.3762524351
C  C208  1  0.55830000  0.82890000  0.29100000  1.0 -0.0235802224
C  C209  1  0.50460000  0.79940000  0.27900000  1.0 -0.0616875906
C  C210  1  0.45800000  0.89460000  0.31300000  1.0 -0.0396939645
C  C211  1  0.50950000  0.92350000  0.31800000  1.0 0.0588940083
C  C212  1  0.44950000  0.82370000  0.30080000  1.0 -0.0097317736
C  C213  1  0.56170000  0.89270000  0.30300000  1.0 -0.0396939645
C  C214  1  0.61720000  0.20460000  0.27800000  1.0 0.5453430935
C  C215  1  0.56170000  0.17210000  0.28660000  1.0 -0.0235802224
C  C216  1  0.50540000  0.20080000  0.28930000  1.0 -0.1223349963
C  C217  1  0.50860000  0.08500000  0.31400000  1.0 0.0588940083
C  C218  1  0.45230000  0.10990000  0.31100000  1.0 -0.052889091
C  C219  1  0.44480000  0.17320000  0.28700000  1.0 0.0006866493
C  C220  1  0.55720000  0.10780000  0.31300000  1.0 -0.052889091
C  C221  1  0.39170000  0.20990000  0.29280000  1.0 0.4657176137
C  C222  1  0.39070000  0.78930000  0.30210000  1.0 0.5224681183
C  C223  1  0.54280000  0.90920000  0.29350000  1.0 -0.0677658519
C  C224  1  0.55630000  0.84710000  0.29400000  1.0 0.0588940083
C  C225  1  0.50970000  0.80450000  0.29770000  1.0 -0.0794023079
C  C226  1  0.43600000  0.88580000  0.30020000  1.0 -0.1003223534
C  C227  1  0.48270000  0.92850000  0.29660000  1.0 0.0889207037
C  C228  1  0.50530000  0.20370000  0.27400000  1.0 -0.0901306286
C  C229  1  0.45250000  0.16630000  0.29310000  1.0 0.0052213468
C  C230  1  0.45600000  0.10280000  0.29430000  1.0 -0.0616875906
C  C231  1  0.51220000  0.07400000  0.29170000  1.0 0.0889207037
C  C232  1  0.56510000  0.10870000  0.28780000  1.0 -0.0677658519
N  N1  1  0.20100000  0.02500000  0.01680000  1.0 -0.1306782119
N  N2  1  0.20560000  0.97740000  0.98900000  1.0 -0.1223349963
N  N3  1  0.32180000  0.50940000  0.53440000  1.0 -0.0794023079
N  N4  1  0.31530000  0.48910000  0.48450000  1.0 -0.1223349963
N  N5  1  0.01510000  0.50530000  0.83210000  1.0 -0.0396939645
N  N6  1  0.98540000  0.46240000  0.81610000  1.0 -0.0794023079
N  N7  1  0.01270000  0.53130000  0.79610000  1.0 -0.1073796016
N  N8  1  0.98600000  0.48260000  0.79270000  1.0 0.0541777371
N  N9  1  0.02500000  0.20100000  0.48320000  1.0 -0.1306782119
N  N10  1  0.97740000  0.20560000  0.51100000  1.0 -0.1306782119
N  N11  1  0.50940000  0.32180000  0.96560000  1.0 -0.0901306286
N  N12  1  0.48910000  0.31530000  0.01550000  1.0 -0.1073796016
N  N13  1  0.50530000  0.01510000  0.66790000  1.0 -0.0396939645
N  N14  1  0.46240000  0.98540000  0.68390000  1.0 -0.0794023079
N  N15  1  0.53130000  0.01270000  0.70390000  1.0 -0.1073796016
N  N16  1  0.48260000  0.98600000  0.70730000  1.0 0.0541777371
N  N17  1  0.79900000  0.97500000  0.98320000  1.0 -0.1306782119
N  N18  1  0.79440000  0.02260000  0.01100000  1.0 -0.1223349963
N  N19  1  0.67820000  0.49060000  0.46560000  1.0 -0.0901306286
N  N20  1  0.68470000  0.51090000  0.51550000  1.0 -0.1073796016
N  N21  1  0.98490000  0.49470000  0.16790000  1.0 -0.0396939645
N  N22  1  0.01460000  0.53760000  0.18390000  1.0 -0.0794023079
N  N23  1  0.98730000  0.46870000  0.20390000  1.0 -0.1003223534
N  N24  1  0.01400000  0.51740000  0.20730000  1.0 0.0394169799
N  N25  1  0.97500000  0.79900000  0.51680000  1.0 -0.1306782119
N  N26  1  0.02260000  0.79440000  0.48900000  1.0 -0.1223349963
N  N27  1  0.49060000  0.67820000  0.03440000  1.0 -0.0901306286
N  N28  1  0.51090000  0.68470000  0.98450000  1.0 -0.1073796016
N  N29  1  0.49470000  0.98490000  0.33210000  1.0 -0.0396939645
N  N30  1  0.53760000  0.01460000  0.31610000  1.0 -0.0794023079
N  N31  1  0.46870000  0.98730000  0.29610000  1.0 -0.1073796016
N  N32  1  0.51740000  0.01400000  0.29270000  1.0 0.0541777371
O  O1  1  0.24390000  0.89050000  0.26120000  1.0 -0.539585578
O  O2  1  0.19650000  0.84550000  0.17800000  1.0 -0.6191462949
O  O3  1  0.19940000  0.16700000  0.17720000  1.0 -0.5020468847
O  O4  1  0.24370000  0.12090000  0.25730000  1.0 -0.4904273347
O  O5  1  0.20420000  0.14840000  0.82850000  1.0 -0.4683737532
O  O6  1  0.22710000  0.11170000  0.74600000  1.0 -0.5020468847
O  O7  1  0.22720000  0.87720000  0.74870000  1.0 -0.4834327971
O  O8  1  0.19110000  0.83230000  0.83010000  1.0 -0.5527518727
O  O9  1  0.25190000  0.74710000  0.76380000  1.0 -0.9036627289
O  O10  1  0.26190000  0.75110000  0.62790000  1.0 -0.539585578
O  O11  1  0.30340000  0.67360000  0.68200000  1.0 -0.5270274953
O  O12  1  0.25520000  0.61400000  0.78240000  1.0 -0.4022994377
O  O13  1  0.17270000  0.65070000  0.81730000  1.0 -0.5127222613
O  O14  1  0.27170000  0.75470000  0.39680000  1.0 -0.5527518727
O  O15  1  0.31100000  0.67620000  0.35390000  1.0 -0.5527518727
O  O16  1  0.31280000  0.32640000  0.33810000  1.0 -0.4470965639
O  O17  1  0.27260000  0.25020000  0.38510000  1.0 -0.5527518727
O  O18  1  0.25900000  0.24920000  0.61780000  1.0 -0.539585578
O  O19  1  0.29590000  0.32510000  0.66270000  1.0 -0.4904273347
O  O20  1  0.25290000  0.37850000  0.76490000  1.0 -0.5624097959
O  O21  1  0.17470000  0.33250000  0.79950000  1.0 -0.4022994377
O  O22  1  0.82260000  0.33320000  0.79580000  1.0 -0.5127222613
O  O23  1  0.74390000  0.37830000  0.74920000  1.0 -0.4904273347
O  O24  1  0.82140000  0.65240000  0.81170000  1.0 -0.5210847781
O  O25  1  0.74000000  0.61160000  0.76210000  1.0 -0.4904273347
O  O26  1  0.89050000  0.24390000  0.23880000  1.0 -0.539585578
O  O27  1  0.84550000  0.19650000  0.32200000  1.0 -0.6191462949
O  O28  1  0.16700000  0.19940000  0.32280000  1.0 -0.5020468847
O  O29  1  0.12090000  0.24370000  0.24270000  1.0 -0.4904273347
O  O30  1  0.14840000  0.20420000  0.67150000  1.0 -0.4683737532
O  O31  1  0.11170000  0.22710000  0.75400000  1.0 -0.5020468847
O  O32  1  0.87720000  0.22720000  0.75130000  1.0 -0.4834327971
O  O33  1  0.83230000  0.19110000  0.66990000  1.0 -0.5527518727
O  O34  1  0.74710000  0.25190000  0.73620000  1.0 -0.9036627289
O  O35  1  0.75110000  0.26190000  0.87210000  1.0 -0.539585578
O  O36  1  0.67360000  0.30340000  0.81800000  1.0 -0.5270274953
O  O37  1  0.61400000  0.25520000  0.71760000  1.0 -0.4022994377
O  O38  1  0.65070000  0.17270000  0.68270000  1.0 -0.5127222613
O  O39  1  0.75470000  0.27170000  0.10320000  1.0 -0.5527518727
O  O40  1  0.67620000  0.31100000  0.14610000  1.0 -0.5527518727
O  O41  1  0.32640000  0.31280000  0.16190000  1.0 -0.4470965639
O  O42  1  0.25020000  0.27260000  0.11490000  1.0 -0.5527518727
O  O43  1  0.24920000  0.25900000  0.88220000  1.0 -0.539585578
O  O44  1  0.32510000  0.29590000  0.83730000  1.0 -0.4904273347
O  O45  1  0.37850000  0.25290000  0.73510000  1.0 -0.5624097959
O  O46  1  0.33250000  0.17470000  0.70050000  1.0 -0.4022994377
O  O47  1  0.33320000  0.82260000  0.70420000  1.0 -0.5127222613
O  O48  1  0.37830000  0.74390000  0.75080000  1.0 -0.4904273347
O  O49  1  0.65240000  0.82140000  0.68830000  1.0 -0.5210847781
O  O50  1  0.61160000  0.74000000  0.73790000  1.0 -0.4904273347
O  O51  1  0.75610000  0.10950000  0.73880000  1.0 -0.539585578
O  O52  1  0.80350000  0.15450000  0.82200000  1.0 -0.6191462949
O  O53  1  0.80060000  0.83300000  0.82280000  1.0 -0.5020468847
O  O54  1  0.75630000  0.87910000  0.74270000  1.0 -0.4904273347
O  O55  1  0.79580000  0.85160000  0.17150000  1.0 -0.4683737532
O  O56  1  0.77290000  0.88830000  0.25400000  1.0 -0.5020468847
O  O57  1  0.77280000  0.12280000  0.25130000  1.0 -0.4904273347
O  O58  1  0.80890000  0.16770000  0.16990000  1.0 -0.5527518727
O  O59  1  0.74810000  0.25290000  0.23620000  1.0 -0.9036627289
O  O60  1  0.73810000  0.24890000  0.37210000  1.0 -0.539585578
O  O61  1  0.69660000  0.32640000  0.31800000  1.0 -0.5270274953
O  O62  1  0.74480000  0.38600000  0.21760000  1.0 -0.4022994377
O  O63  1  0.82730000  0.34930000  0.18270000  1.0 -0.5127222613
O  O64  1  0.72830000  0.24530000  0.60320000  1.0 -0.5527518727
O  O65  1  0.68900000  0.32380000  0.64610000  1.0 -0.5527518727
O  O66  1  0.68720000  0.67360000  0.66190000  1.0 -0.4470965639
O  O67  1  0.72740000  0.74980000  0.61490000  1.0 -0.5527518727
O  O68  1  0.74100000  0.75080000  0.38220000  1.0 -0.539585578
O  O69  1  0.70410000  0.67490000  0.33730000  1.0 -0.4904273347
O  O70  1  0.74710000  0.62150000  0.23510000  1.0 -0.5624097959
O  O71  1  0.82530000  0.66750000  0.20050000  1.0 -0.4022994377
O  O72  1  0.17740000  0.66680000  0.20420000  1.0 -0.5127222613
O  O73  1  0.25610000  0.62170000  0.25080000  1.0 -0.4904273347
O  O74  1  0.17860000  0.34760000  0.18830000  1.0 -0.5210847781
O  O75  1  0.26000000  0.38840000  0.23790000  1.0 -0.4904273347
O  O76  1  0.10950000  0.75610000  0.76120000  1.0 -0.539585578
O  O77  1  0.15450000  0.80350000  0.67800000  1.0 -0.6191462949
O  O78  1  0.83300000  0.80060000  0.67720000  1.0 -0.5020468847
O  O79  1  0.87910000  0.75630000  0.75730000  1.0 -0.5020468847
O  O80  1  0.85160000  0.79580000  0.32850000  1.0 -0.4683737532
O  O81  1  0.88830000  0.77290000  0.24600000  1.0 -0.5020468847
O  O82  1  0.12280000  0.77280000  0.24870000  1.0 -0.4834327971
O  O83  1  0.16770000  0.80890000  0.33010000  1.0 -0.5527518727
O  O84  1  0.25290000  0.74810000  0.26380000  1.0 -0.9054261521
O  O85  1  0.24890000  0.73810000  0.12790000  1.0 -0.539585578
O  O86  1  0.32640000  0.69660000  0.18200000  1.0 -0.5270274953
O  O87  1  0.38600000  0.74480000  0.28240000  1.0 -0.4022994377
O  O88  1  0.34930000  0.82730000  0.31730000  1.0 -0.5127222613
O  O89  1  0.24530000  0.72830000  0.89680000  1.0 -0.5527518727
O  O90  1  0.32380000  0.68900000  0.85390000  1.0 -0.5527518727
O  O91  1  0.67360000  0.68720000  0.83810000  1.0 -0.4470965639
O  O92  1  0.74980000  0.72740000  0.88510000  1.0 -0.5527518727
O  O93  1  0.75080000  0.74100000  0.11780000  1.0 -0.539585578
O  O94  1  0.67490000  0.70410000  0.16270000  1.0 -0.4904273347
O  O95  1  0.62150000  0.74710000  0.26490000  1.0 -0.5624097959
O  O96  1  0.66750000  0.82530000  0.29950000  1.0 -0.4022994377
O  O97  1  0.66680000  0.17740000  0.29580000  1.0 -0.5127222613
O  O98  1  0.62170000  0.25610000  0.24920000  1.0 -0.4904273347
O  O99  1  0.34760000  0.17860000  0.31170000  1.0 -0.5210847781
O  O100  1  0.38840000  0.26000000  0.26210000  1.0 -0.5020468847
O  O101  1  0.24700000  0.24700000  0.75000000  1.0 -0.8770915047
O  O102  1  0.75300000  0.75300000  0.25000000  1.0 -0.8770915047
O  O103  1  0.74200000  0.74200000  0.75000000  1.0 -0.892692484
O  O104  1  0.25800000  0.25800000  0.25000000  1.0 -0.892692484
