# DDEC6 charges by PACMAN v1.1 (https://github.com/mtap-research/PACMAN-charge/)
data_LEQQAA_FSR_pacman
_symmetry_space_group_name_H-M   'P 1'
_cell_length_a   21.43500000
_cell_length_b   21.43500000
_cell_length_c   11.38200000
_cell_angle_alpha   90.00000000
_cell_angle_beta   90.00000000
_cell_angle_gamma   90.00000000
_symmetry_Int_Tables_number   1
_chemical_formula_structural   CuH20C17(NO2)2
_chemical_formula_sum   'Cu8 H160 C136 N16 O32'
_cell_volume   5229.56489895
_cell_formula_units_Z   8
loop_
 _symmetry_equiv_pos_site_id
 _symmetry_equiv_pos_as_xyz
  1  'x, y, z'
loop_
 _atom_site_type_symbol
 _atom_site_label
 _atom_site_symmetry_multiplicity
 _atom_site_fract_x
 _atom_site_fract_y
 _atom_site_fract_z
 _atom_site_occupancy
 _atom_site_charge
Cu  Cu1  1  0.81194000  0.00000000  0.75000000  1.0 0.7836836891
Cu  Cu2  1  0.50000000  0.68806000  0.25000000  1.0 0.7836836891
Cu  Cu3  1  0.50000000  0.31194000  0.25000000  1.0 0.7836836891
Cu  Cu4  1  0.18806000  0.00000000  0.75000000  1.0 0.7836836891
Cu  Cu5  1  0.68806000  0.50000000  0.75000000  1.0 0.7836836891
Cu  Cu6  1  0.00000000  0.81194000  0.25000000  1.0 0.7836836891
Cu  Cu7  1  0.00000000  0.18806000  0.25000000  1.0 0.7836836891
Cu  Cu8  1  0.31194000  0.50000000  0.75000000  1.0 0.7836836891
H  H1  1  0.69110000  0.06720000  0.79190000  1.0 0.1160417887
H  H2  1  0.56720000  0.80890000  0.29190000  1.0 0.1160417887
H  H3  1  0.43280000  0.19110000  0.29190000  1.0 0.1160417887
H  H4  1  0.56720000  0.19110000  0.20810000  1.0 0.1160417887
H  H5  1  0.30890000  0.93280000  0.79190000  1.0 0.1160417887
H  H6  1  0.69110000  0.93280000  0.70810000  1.0 0.1160417887
H  H7  1  0.30890000  0.06720000  0.70810000  1.0 0.1160417887
H  H8  1  0.43280000  0.80890000  0.20810000  1.0 0.1160417887
H  H9  1  0.62060000  0.12730000  0.69210000  1.0 0.1401675882
H  H10  1  0.62730000  0.87940000  0.19210000  1.0 0.1401675882
H  H11  1  0.37270000  0.12060000  0.19210000  1.0 0.1401675882
H  H12  1  0.62730000  0.12060000  0.30790000  1.0 0.1401675882
H  H13  1  0.37940000  0.87270000  0.69210000  1.0 0.1401675882
H  H14  1  0.62060000  0.87270000  0.80790000  1.0 0.1401675882
H  H15  1  0.37940000  0.12730000  0.80790000  1.0 0.1401675882
H  H16  1  0.37270000  0.87940000  0.30790000  1.0 0.1401675882
H  H17  1  0.72270000  0.10030000  0.39910000  1.0 0.1401675882
H  H18  1  0.60030000  0.77730000  0.89910000  1.0 0.1401675882
H  H19  1  0.39970000  0.22270000  0.89910000  1.0 0.1401675882
H  H20  1  0.60030000  0.22270000  0.60090000  1.0 0.1401675882
H  H21  1  0.27730000  0.89970000  0.39910000  1.0 0.1401675882
H  H22  1  0.72270000  0.89970000  0.10090000  1.0 0.1401675882
H  H23  1  0.27730000  0.10030000  0.10090000  1.0 0.1401675882
H  H24  1  0.39970000  0.77730000  0.60090000  1.0 0.1401675882
H  H25  1  0.78890000  0.03980000  0.50890000  1.0 0.1259591
H  H26  1  0.53980000  0.71110000  0.00890000  1.0 0.1259591
H  H27  1  0.46020000  0.28890000  0.00890000  1.0 0.1259591
H  H28  1  0.53980000  0.28890000  0.49110000  1.0 0.1259591
H  H29  1  0.21110000  0.96020000  0.50890000  1.0 0.1259591
H  H30  1  0.78890000  0.96020000  0.99110000  1.0 0.1259591
H  H31  1  0.21110000  0.03980000  0.99110000  1.0 0.1259591
H  H32  1  0.46020000  0.71110000  0.49110000  1.0 0.1259591
H  H33  1  0.94520000  0.89940000  0.96130000  1.0 0.1638409214
H  H34  1  0.39940000  0.55480000  0.46130000  1.0 0.1638409214
H  H35  1  0.60060000  0.44520000  0.46130000  1.0 0.1638409214
H  H36  1  0.39940000  0.44520000  0.03870000  1.0 0.1638409214
H  H37  1  0.05480000  0.10060000  0.96130000  1.0 0.1638409214
H  H38  1  0.94520000  0.10060000  0.53870000  1.0 0.1638409214
H  H39  1  0.05480000  0.89940000  0.53870000  1.0 0.1638409214
H  H40  1  0.60060000  0.55480000  0.03870000  1.0 0.1638409214
H  H41  1  0.00880000  0.92510000  0.91360000  1.0 0.1476467981
H  H42  1  0.42510000  0.49120000  0.41360000  1.0 0.1476467981
H  H43  1  0.57490000  0.50880000  0.41360000  1.0 0.1476467981
H  H44  1  0.42510000  0.50880000  0.08640000  1.0 0.1476467981
H  H45  1  0.99120000  0.07490000  0.91360000  1.0 0.1476467981
H  H46  1  0.00880000  0.07490000  0.58640000  1.0 0.1476467981
H  H47  1  0.99120000  0.92510000  0.58640000  1.0 0.1476467981
H  H48  1  0.57490000  0.49120000  0.08640000  1.0 0.1476467981
H  H49  1  0.97440000  0.87120000  0.84670000  1.0 0.1476467981
H  H50  1  0.37120000  0.52560000  0.34670000  1.0 0.1476467981
H  H51  1  0.62880000  0.47440000  0.34670000  1.0 0.1476467981
H  H52  1  0.37120000  0.47440000  0.15330000  1.0 0.1476467981
H  H53  1  0.02560000  0.12880000  0.84670000  1.0 0.1476467981
H  H54  1  0.97440000  0.12880000  0.65330000  1.0 0.1476467981
H  H55  1  0.02560000  0.87120000  0.65330000  1.0 0.1476467981
H  H56  1  0.62880000  0.52560000  0.15330000  1.0 0.1476467981
H  H57  1  0.80630000  0.16200000  0.83050000  1.0 0.0918850022
H  H58  1  0.66200000  0.69370000  0.33050000  1.0 0.0918850022
H  H59  1  0.33800000  0.30630000  0.33050000  1.0 0.0918850022
H  H60  1  0.66200000  0.30630000  0.16950000  1.0 0.0918850022
H  H61  1  0.19370000  0.83800000  0.83050000  1.0 0.0918850022
H  H62  1  0.80630000  0.83800000  0.66950000  1.0 0.0918850022
H  H63  1  0.19370000  0.16200000  0.66950000  1.0 0.0918850022
H  H64  1  0.33800000  0.69370000  0.16950000  1.0 0.0918850022
H  H65  1  0.87180000  0.13860000  0.87310000  1.0 0.1086622475
H  H66  1  0.63860000  0.62820000  0.37310000  1.0 0.1086622475
H  H67  1  0.36140000  0.37180000  0.37310000  1.0 0.1086622475
H  H68  1  0.63860000  0.37180000  0.12690000  1.0 0.1086622475
H  H69  1  0.12820000  0.86140000  0.87310000  1.0 0.1086622475
H  H70  1  0.87180000  0.86140000  0.62690000  1.0 0.1086622475
H  H71  1  0.12820000  0.13860000  0.62690000  1.0 0.1086622475
H  H72  1  0.36140000  0.62820000  0.12690000  1.0 0.1086622475
H  H73  1  0.82300000  0.16320000  0.96460000  1.0 0.102078013
H  H74  1  0.66320000  0.67700000  0.46460000  1.0 0.102078013
H  H75  1  0.33680000  0.32300000  0.46460000  1.0 0.102078013
H  H76  1  0.66320000  0.32300000  0.03540000  1.0 0.102078013
H  H77  1  0.17700000  0.83680000  0.96460000  1.0 0.102078013
H  H78  1  0.82300000  0.83680000  0.53540000  1.0 0.102078013
H  H79  1  0.17700000  0.16320000  0.53540000  1.0 0.102078013
H  H80  1  0.33680000  0.67700000  0.03540000  1.0 0.102078013
H  H81  1  0.80890000  0.43280000  0.70810000  1.0 0.1160417887
H  H82  1  0.93280000  0.69110000  0.20810000  1.0 0.1160417887
H  H83  1  0.06720000  0.30890000  0.20810000  1.0 0.1160417887
H  H84  1  0.93280000  0.30890000  0.29190000  1.0 0.1160417887
H  H85  1  0.19110000  0.56720000  0.70810000  1.0 0.1160417887
H  H86  1  0.80890000  0.56720000  0.79190000  1.0 0.1160417887
H  H87  1  0.19110000  0.43280000  0.79190000  1.0 0.1160417887
H  H88  1  0.06720000  0.69110000  0.29190000  1.0 0.1160417887
H  H89  1  0.87940000  0.37270000  0.80790000  1.0 0.1401675882
H  H90  1  0.87270000  0.62060000  0.30790000  1.0 0.1401675882
H  H91  1  0.12730000  0.37940000  0.30790000  1.0 0.1401675882
H  H92  1  0.87270000  0.37940000  0.19210000  1.0 0.1401675882
H  H93  1  0.12060000  0.62730000  0.80790000  1.0 0.1401675882
H  H94  1  0.87940000  0.62730000  0.69210000  1.0 0.1401675882
H  H95  1  0.12060000  0.37270000  0.69210000  1.0 0.1401675882
H  H96  1  0.12730000  0.62060000  0.19210000  1.0 0.1401675882
H  H97  1  0.77730000  0.39970000  0.10090000  1.0 0.1401675882
H  H98  1  0.89970000  0.72270000  0.60090000  1.0 0.1401675882
H  H99  1  0.10030000  0.27730000  0.60090000  1.0 0.1401675882
H  H100  1  0.89970000  0.27730000  0.89910000  1.0 0.1401675882
H  H101  1  0.22270000  0.60030000  0.10090000  1.0 0.1401675882
H  H102  1  0.77730000  0.60030000  0.39910000  1.0 0.1401675882
H  H103  1  0.22270000  0.39970000  0.39910000  1.0 0.1401675882
H  H104  1  0.10030000  0.72270000  0.89910000  1.0 0.1401675882
H  H105  1  0.71110000  0.46020000  0.99110000  1.0 0.1259591
H  H106  1  0.96020000  0.78890000  0.49110000  1.0 0.1259591
H  H107  1  0.03980000  0.21110000  0.49110000  1.0 0.1259591
H  H108  1  0.96020000  0.21110000  0.00890000  1.0 0.1259591
H  H109  1  0.28890000  0.53980000  0.99110000  1.0 0.1259591
H  H110  1  0.71110000  0.53980000  0.50890000  1.0 0.1259591
H  H111  1  0.28890000  0.46020000  0.50890000  1.0 0.1259591
H  H112  1  0.03980000  0.78890000  0.00890000  1.0 0.1259591
H  H113  1  0.55480000  0.60060000  0.53870000  1.0 0.1638409214
H  H114  1  0.10060000  0.94520000  0.03870000  1.0 0.1638409214
H  H115  1  0.89940000  0.05480000  0.03870000  1.0 0.1638409214
H  H116  1  0.10060000  0.05480000  0.46130000  1.0 0.1638409214
H  H117  1  0.44520000  0.39940000  0.53870000  1.0 0.1638409214
H  H118  1  0.55480000  0.39940000  0.96130000  1.0 0.1638409214
H  H119  1  0.44520000  0.60060000  0.96130000  1.0 0.1638409214
H  H120  1  0.89940000  0.94520000  0.46130000  1.0 0.1638409214
H  H121  1  0.49120000  0.57490000  0.58640000  1.0 0.1476467981
H  H122  1  0.07490000  0.00880000  0.08640000  1.0 0.1476467981
H  H123  1  0.92510000  0.99120000  0.08640000  1.0 0.1476467981
H  H124  1  0.07490000  0.99120000  0.41360000  1.0 0.1476467981
H  H125  1  0.50880000  0.42510000  0.58640000  1.0 0.1476467981
H  H126  1  0.49120000  0.42510000  0.91360000  1.0 0.1476467981
H  H127  1  0.50880000  0.57490000  0.91360000  1.0 0.1476467981
H  H128  1  0.92510000  0.00880000  0.41360000  1.0 0.1476467981
H  H129  1  0.52560000  0.62880000  0.65330000  1.0 0.1476467981
H  H130  1  0.12880000  0.97440000  0.15330000  1.0 0.1476467981
H  H131  1  0.87120000  0.02560000  0.15330000  1.0 0.1476467981
H  H132  1  0.12880000  0.02560000  0.34670000  1.0 0.1476467981
H  H133  1  0.47440000  0.37120000  0.65330000  1.0 0.1476467981
H  H134  1  0.52560000  0.37120000  0.84670000  1.0 0.1476467981
H  H135  1  0.47440000  0.62880000  0.84670000  1.0 0.1476467981
H  H136  1  0.87120000  0.97440000  0.34670000  1.0 0.1476467981
H  H137  1  0.69370000  0.33800000  0.66950000  1.0 0.0918850022
H  H138  1  0.83800000  0.80630000  0.16950000  1.0 0.0918850022
H  H139  1  0.16200000  0.19370000  0.16950000  1.0 0.0918850022
H  H140  1  0.83800000  0.19370000  0.33050000  1.0 0.0918850022
H  H141  1  0.30630000  0.66200000  0.66950000  1.0 0.0918850022
H  H142  1  0.69370000  0.66200000  0.83050000  1.0 0.0918850022
H  H143  1  0.30630000  0.33800000  0.83050000  1.0 0.0918850022
H  H144  1  0.16200000  0.80630000  0.33050000  1.0 0.0918850022
H  H145  1  0.62820000  0.36140000  0.62690000  1.0 0.1086622475
H  H146  1  0.86140000  0.87180000  0.12690000  1.0 0.1086622475
H  H147  1  0.13860000  0.12820000  0.12690000  1.0 0.1086622475
H  H148  1  0.86140000  0.12820000  0.37310000  1.0 0.1086622475
H  H149  1  0.37180000  0.63860000  0.62690000  1.0 0.1086622475
H  H150  1  0.62820000  0.63860000  0.87310000  1.0 0.1086622475
H  H151  1  0.37180000  0.36140000  0.87310000  1.0 0.1086622475
H  H152  1  0.13860000  0.87180000  0.37310000  1.0 0.1086622475
H  H153  1  0.67700000  0.33680000  0.53540000  1.0 0.102078013
H  H154  1  0.83680000  0.82300000  0.03540000  1.0 0.102078013
H  H155  1  0.16320000  0.17700000  0.03540000  1.0 0.102078013
H  H156  1  0.83680000  0.17700000  0.46460000  1.0 0.102078013
H  H157  1  0.32300000  0.66320000  0.53540000  1.0 0.102078013
H  H158  1  0.67700000  0.66320000  0.96460000  1.0 0.102078013
H  H159  1  0.32300000  0.33680000  0.96460000  1.0 0.102078013
H  H160  1  0.16320000  0.82300000  0.46460000  1.0 0.102078013
C  C1  1  0.69710000  0.07400000  0.71210000  1.0 0.078330919
C  C2  1  0.57400000  0.80290000  0.21210000  1.0 0.078330919
C  C3  1  0.42600000  0.19710000  0.21210000  1.0 0.078330919
C  C4  1  0.57400000  0.19710000  0.28790000  1.0 0.078330919
C  C5  1  0.30290000  0.92600000  0.71210000  1.0 0.078330919
C  C6  1  0.69710000  0.92600000  0.78790000  1.0 0.078330919
C  C7  1  0.30290000  0.07400000  0.78790000  1.0 0.078330919
C  C8  1  0.42600000  0.80290000  0.28790000  1.0 0.078330919
C  C9  1  0.65480000  0.11050000  0.65310000  1.0 -0.1928187294
C  C10  1  0.61050000  0.84520000  0.15310000  1.0 -0.1928187294
C  C11  1  0.38950000  0.15480000  0.15310000  1.0 -0.1928187294
C  C12  1  0.61050000  0.15480000  0.34690000  1.0 -0.1928187294
C  C13  1  0.34520000  0.88950000  0.65310000  1.0 -0.1928187294
C  C14  1  0.65480000  0.88950000  0.84690000  1.0 -0.1928187294
C  C15  1  0.34520000  0.11050000  0.84690000  1.0 -0.1928187294
C  C16  1  0.38950000  0.84520000  0.34690000  1.0 -0.1928187294
C  C17  1  0.66410000  0.12220000  0.53380000  1.0 0.1086622475
C  C18  1  0.62220000  0.83590000  0.03380000  1.0 0.1086622475
C  C19  1  0.37780000  0.16410000  0.03380000  1.0 0.1086622475
C  C20  1  0.62220000  0.16410000  0.46620000  1.0 0.1086622475
C  C21  1  0.33590000  0.87780000  0.53380000  1.0 0.1086622475
C  C22  1  0.66410000  0.87780000  0.96620000  1.0 0.1086622475
C  C23  1  0.33590000  0.12220000  0.96620000  1.0 0.1086622475
C  C24  1  0.37780000  0.83590000  0.46620000  1.0 0.1086622475
C  C25  1  0.71540000  0.09440000  0.47880000  1.0 -0.1953807317
C  C26  1  0.59440000  0.78460000  0.97880000  1.0 -0.1953807317
C  C27  1  0.40560000  0.21540000  0.97880000  1.0 -0.1953807317
C  C28  1  0.59440000  0.21540000  0.52120000  1.0 -0.1953807317
C  C29  1  0.28460000  0.90560000  0.47880000  1.0 -0.1953807317
C  C30  1  0.71540000  0.90560000  0.02120000  1.0 -0.1953807317
C  C31  1  0.28460000  0.09440000  0.02120000  1.0 -0.1953807317
C  C32  1  0.40560000  0.78460000  0.52120000  1.0 -0.1953807317
C  C33  1  0.75480000  0.05800000  0.54570000  1.0 0.102078013
C  C34  1  0.55800000  0.74520000  0.04570000  1.0 0.102078013
C  C35  1  0.44200000  0.25480000  0.04570000  1.0 0.102078013
C  C36  1  0.55800000  0.25480000  0.45430000  1.0 0.102078013
C  C37  1  0.24520000  0.94200000  0.54570000  1.0 0.102078013
C  C38  1  0.75480000  0.94200000  0.95430000  1.0 0.102078013
C  C39  1  0.24520000  0.05800000  0.95430000  1.0 0.102078013
C  C40  1  0.44200000  0.74520000  0.45430000  1.0 0.102078013
C  C41  1  0.93380000  0.95660000  0.81860000  1.0 0.4144220313
C  C42  1  0.45660000  0.56620000  0.31860000  1.0 0.4144220313
C  C43  1  0.54340000  0.43380000  0.31860000  1.0 0.4144220313
C  C44  1  0.45660000  0.43380000  0.18140000  1.0 0.4144220313
C  C45  1  0.06620000  0.04340000  0.81860000  1.0 0.4144220313
C  C46  1  0.93380000  0.04340000  0.68140000  1.0 0.4144220313
C  C47  1  0.06620000  0.95660000  0.68140000  1.0 0.4144220313
C  C48  1  0.54340000  0.56620000  0.18140000  1.0 0.4144220313
C  C49  1  0.96460000  0.00000000  0.75000000  1.0 -0.229404634
C  C50  1  0.50000000  0.53540000  0.25000000  1.0 -0.229404634
C  C51  1  0.50000000  0.46460000  0.25000000  1.0 -0.229404634
C  C52  1  0.03540000  0.00000000  0.75000000  1.0 -0.229404634
C  C53  1  0.96870000  0.90870000  0.89180000  1.0 -0.5362499637
C  C54  1  0.40870000  0.53130000  0.39180000  1.0 -0.5362499637
C  C55  1  0.59130000  0.46870000  0.39180000  1.0 -0.5362499637
C  C56  1  0.40870000  0.46870000  0.10820000  1.0 -0.5362499637
C  C57  1  0.03130000  0.09130000  0.89180000  1.0 -0.5362499637
C  C58  1  0.96870000  0.09130000  0.60820000  1.0 -0.5362499637
C  C59  1  0.03130000  0.90870000  0.60820000  1.0 -0.5362499637
C  C60  1  0.59130000  0.53130000  0.10820000  1.0 -0.5362499637
C  C61  1  0.82820000  0.14080000  0.89230000  1.0 -0.1773034019
C  C62  1  0.64080000  0.67180000  0.39230000  1.0 -0.1773034019
C  C63  1  0.35920000  0.32820000  0.39230000  1.0 -0.1773034019
C  C64  1  0.64080000  0.32820000  0.10770000  1.0 -0.1773034019
C  C65  1  0.17180000  0.85920000  0.89230000  1.0 -0.1773034019
C  C66  1  0.82820000  0.85920000  0.60770000  1.0 -0.1773034019
C  C67  1  0.17180000  0.14080000  0.60770000  1.0 -0.1773034019
C  C68  1  0.35920000  0.67180000  0.10770000  1.0 -0.1773034019
C  C69  1  0.80290000  0.42600000  0.78790000  1.0 0.078330919
C  C70  1  0.92600000  0.69710000  0.28790000  1.0 0.078330919
C  C71  1  0.07400000  0.30290000  0.28790000  1.0 0.078330919
C  C72  1  0.92600000  0.30290000  0.21210000  1.0 0.078330919
C  C73  1  0.19710000  0.57400000  0.78790000  1.0 0.078330919
C  C74  1  0.80290000  0.57400000  0.71210000  1.0 0.078330919
C  C75  1  0.19710000  0.42600000  0.71210000  1.0 0.078330919
C  C76  1  0.07400000  0.69710000  0.21210000  1.0 0.078330919
C  C77  1  0.84520000  0.38950000  0.84690000  1.0 -0.1928187294
C  C78  1  0.88950000  0.65480000  0.34690000  1.0 -0.1928187294
C  C79  1  0.11050000  0.34520000  0.34690000  1.0 -0.1928187294
C  C80  1  0.88950000  0.34520000  0.15310000  1.0 -0.1928187294
C  C81  1  0.15480000  0.61050000  0.84690000  1.0 -0.1928187294
C  C82  1  0.84520000  0.61050000  0.65310000  1.0 -0.1928187294
C  C83  1  0.15480000  0.38950000  0.65310000  1.0 -0.1928187294
C  C84  1  0.11050000  0.65480000  0.15310000  1.0 -0.1928187294
C  C85  1  0.83590000  0.37780000  0.96620000  1.0 0.1086622475
C  C86  1  0.87780000  0.66410000  0.46620000  1.0 0.1086622475
C  C87  1  0.12220000  0.33590000  0.46620000  1.0 0.1086622475
C  C88  1  0.87780000  0.33590000  0.03380000  1.0 0.1086622475
C  C89  1  0.16410000  0.62220000  0.96620000  1.0 0.1086622475
C  C90  1  0.83590000  0.62220000  0.53380000  1.0 0.1086622475
C  C91  1  0.16410000  0.37780000  0.53380000  1.0 0.1086622475
C  C92  1  0.12220000  0.66410000  0.03380000  1.0 0.1086622475
C  C93  1  0.78460000  0.40560000  0.02120000  1.0 -0.1953807317
C  C94  1  0.90560000  0.71540000  0.52120000  1.0 -0.1953807317
C  C95  1  0.09440000  0.28460000  0.52120000  1.0 -0.1953807317
C  C96  1  0.90560000  0.28460000  0.97880000  1.0 -0.1953807317
C  C97  1  0.21540000  0.59440000  0.02120000  1.0 -0.1953807317
C  C98  1  0.78460000  0.59440000  0.47880000  1.0 -0.1953807317
C  C99  1  0.21540000  0.40560000  0.47880000  1.0 -0.1953807317
C  C100  1  0.09440000  0.71540000  0.97880000  1.0 -0.1953807317
C  C101  1  0.74520000  0.44200000  0.95430000  1.0 0.102078013
C  C102  1  0.94200000  0.75480000  0.45430000  1.0 0.102078013
C  C103  1  0.05800000  0.24520000  0.45430000  1.0 0.102078013
C  C104  1  0.94200000  0.24520000  0.04570000  1.0 0.102078013
C  C105  1  0.25480000  0.55800000  0.95430000  1.0 0.102078013
C  C106  1  0.74520000  0.55800000  0.54570000  1.0 0.102078013
C  C107  1  0.25480000  0.44200000  0.54570000  1.0 0.102078013
C  C108  1  0.05800000  0.75480000  0.04570000  1.0 0.102078013
C  C109  1  0.56620000  0.54340000  0.68140000  1.0 0.4144220313
C  C110  1  0.04340000  0.93380000  0.18140000  1.0 0.4144220313
C  C111  1  0.95660000  0.06620000  0.18140000  1.0 0.4144220313
C  C112  1  0.04340000  0.06620000  0.31860000  1.0 0.4144220313
C  C113  1  0.43380000  0.45660000  0.68140000  1.0 0.4144220313
C  C114  1  0.56620000  0.45660000  0.81860000  1.0 0.4144220313
C  C115  1  0.43380000  0.54340000  0.81860000  1.0 0.4144220313
C  C116  1  0.95660000  0.93380000  0.31860000  1.0 0.4144220313
C  C117  1  0.53540000  0.50000000  0.75000000  1.0 -0.229404634
C  C118  1  0.00000000  0.96460000  0.25000000  1.0 -0.229404634
C  C119  1  0.00000000  0.03540000  0.25000000  1.0 -0.229404634
C  C120  1  0.46460000  0.50000000  0.75000000  1.0 -0.229404634
C  C121  1  0.53130000  0.59130000  0.60820000  1.0 -0.5362499637
C  C122  1  0.09130000  0.96870000  0.10820000  1.0 -0.5362499637
C  C123  1  0.90870000  0.03130000  0.10820000  1.0 -0.5362499637
C  C124  1  0.09130000  0.03130000  0.39180000  1.0 -0.5362499637
C  C125  1  0.46870000  0.40870000  0.60820000  1.0 -0.5362499637
C  C126  1  0.53130000  0.40870000  0.89180000  1.0 -0.5362499637
C  C127  1  0.46870000  0.59130000  0.89180000  1.0 -0.5362499637
C  C128  1  0.90870000  0.96870000  0.39180000  1.0 -0.5362499637
C  C129  1  0.67180000  0.35920000  0.60770000  1.0 -0.1773034019
C  C130  1  0.85920000  0.82820000  0.10770000  1.0 -0.1773034019
C  C131  1  0.14080000  0.17180000  0.10770000  1.0 -0.1773034019
C  C132  1  0.85920000  0.17180000  0.39230000  1.0 -0.1773034019
C  C133  1  0.32820000  0.64080000  0.60770000  1.0 -0.1773034019
C  C134  1  0.67180000  0.64080000  0.89230000  1.0 -0.1773034019
C  C135  1  0.32820000  0.35920000  0.89230000  1.0 -0.1773034019
C  C136  1  0.14080000  0.82820000  0.39230000  1.0 -0.1773034019
N  N1  1  0.74680000  0.04760000  0.66000000  1.0 -0.2205673663
N  N2  1  0.54760000  0.75320000  0.16000000  1.0 -0.2205673663
N  N3  1  0.45240000  0.24680000  0.16000000  1.0 -0.2205673663
N  N4  1  0.54760000  0.24680000  0.34000000  1.0 -0.2205673663
N  N5  1  0.25320000  0.95240000  0.66000000  1.0 -0.2205673663
N  N6  1  0.74680000  0.95240000  0.84000000  1.0 -0.2205673663
N  N7  1  0.25320000  0.04760000  0.84000000  1.0 -0.2205673663
N  N8  1  0.45240000  0.75320000  0.34000000  1.0 -0.2205673663
N  N9  1  0.75320000  0.45240000  0.84000000  1.0 -0.2205673663
N  N10  1  0.95240000  0.74680000  0.34000000  1.0 -0.2205673663
N  N11  1  0.04760000  0.25320000  0.34000000  1.0 -0.2205673663
N  N12  1  0.95240000  0.25320000  0.16000000  1.0 -0.2205673663
N  N13  1  0.24680000  0.54760000  0.84000000  1.0 -0.2205673663
N  N14  1  0.75320000  0.54760000  0.66000000  1.0 -0.2205673663
N  N15  1  0.24680000  0.45240000  0.66000000  1.0 -0.2205673663
N  N16  1  0.04760000  0.74680000  0.16000000  1.0 -0.2205673663
O  O1  1  0.87378000  0.95130000  0.82930000  1.0 -0.4619092627
O  O2  1  0.45130000  0.62622000  0.32930000  1.0 -0.4619092627
O  O3  1  0.54870000  0.37378000  0.32930000  1.0 -0.4619092627
O  O4  1  0.45130000  0.37378000  0.17070000  1.0 -0.4619092627
O  O5  1  0.12622000  0.04870000  0.82930000  1.0 -0.4619092627
O  O6  1  0.87378000  0.04870000  0.67070000  1.0 -0.4619092627
O  O7  1  0.12622000  0.95130000  0.67070000  1.0 -0.4619092627
O  O8  1  0.54870000  0.62622000  0.17070000  1.0 -0.4619092627
O  O9  1  0.80480000  0.08150000  0.90450000  1.0 -0.4804991281
O  O10  1  0.58150000  0.69520000  0.40450000  1.0 -0.4804991281
O  O11  1  0.41850000  0.30480000  0.40450000  1.0 -0.4804991281
O  O12  1  0.58150000  0.30480000  0.09550000  1.0 -0.4804991281
O  O13  1  0.19520000  0.91850000  0.90450000  1.0 -0.4804991281
O  O14  1  0.80480000  0.91850000  0.59550000  1.0 -0.4804991281
O  O15  1  0.19520000  0.08150000  0.59550000  1.0 -0.4804991281
O  O16  1  0.41850000  0.69520000  0.09550000  1.0 -0.4804991281
O  O17  1  0.62622000  0.54870000  0.67070000  1.0 -0.4619092627
O  O18  1  0.04870000  0.87378000  0.17070000  1.0 -0.4619092627
O  O19  1  0.95130000  0.12622000  0.17070000  1.0 -0.4619092627
O  O20  1  0.04870000  0.12622000  0.32930000  1.0 -0.4619092627
O  O21  1  0.37378000  0.45130000  0.67070000  1.0 -0.4619092627
O  O22  1  0.62622000  0.45130000  0.82930000  1.0 -0.4619092627
O  O23  1  0.37378000  0.54870000  0.82930000  1.0 -0.4619092627
O  O24  1  0.95130000  0.87378000  0.32930000  1.0 -0.4619092627
O  O25  1  0.69520000  0.41850000  0.59550000  1.0 -0.4804991281
O  O26  1  0.91850000  0.80480000  0.09550000  1.0 -0.4804991281
O  O27  1  0.08150000  0.19520000  0.09550000  1.0 -0.4804991281
O  O28  1  0.91850000  0.19520000  0.40450000  1.0 -0.4804991281
O  O29  1  0.30480000  0.58150000  0.59550000  1.0 -0.4804991281
O  O30  1  0.69520000  0.58150000  0.90450000  1.0 -0.4804991281
O  O31  1  0.30480000  0.41850000  0.90450000  1.0 -0.4804991281
O  O32  1  0.08150000  0.80480000  0.40450000  1.0 -0.4804991281
