# DDEC6 charges by PACMAN v1.1 (https://github.com/mtap-research/PACMAN-charge/)
data_LERNEC_FSR_pacman
_symmetry_space_group_name_H-M   'P 1'
_cell_length_a   12.82820000
_cell_length_b   12.82820000
_cell_length_c   15.06000000
_cell_angle_alpha   55.06060000
_cell_angle_beta   124.93900000
_cell_angle_gamma   133.61500000
_symmetry_Int_Tables_number   1
_chemical_formula_structural   Co2H10C12NO7
_chemical_formula_sum   'Co8 H40 C48 N4 O28'
_cell_volume   1403.44045750
_cell_formula_units_Z   4
loop_
 _symmetry_equiv_pos_site_id
 _symmetry_equiv_pos_as_xyz
  1  'x, y, z'
loop_
 _atom_site_type_symbol
 _atom_site_label
 _atom_site_symmetry_multiplicity
 _atom_site_fract_x
 _atom_site_fract_y
 _atom_site_fract_z
 _atom_site_occupancy
 _atom_site_charge
Co  Co1  1  0.03244000  0.52038000  0.89725000  1.0 0.8885003391
Co  Co2  1  0.52038000  0.03244000  0.60275000  1.0 0.8885003391
Co  Co3  1  0.96756000  0.47962000  0.10275000  1.0 0.8885003391
Co  Co4  1  0.47962000  0.96756000  0.39725000  1.0 0.8885003391
Co  Co5  1  0.75090000  0.31902000  0.26526000  1.0 0.8747707072
Co  Co6  1  0.31902000  0.75090000  0.23474000  1.0 0.8747707072
Co  Co7  1  0.24910000  0.68098000  0.73474000  1.0 0.8747707072
Co  Co8  1  0.68098000  0.24910000  0.76526000  1.0 0.8747707072
H  H1  1  0.14820000  0.10600000  0.15970000  1.0 0.1293658677
H  H2  1  0.10600000  0.14820000  0.34030000  1.0 0.1293658677
H  H3  1  0.85180000  0.89400000  0.84030000  1.0 0.1293658677
H  H4  1  0.89400000  0.85180000  0.65970000  1.0 0.1293658677
H  H5  1  0.00480000  0.20840000  0.05040000  1.0 0.1137621801
H  H6  1  0.20840000  0.00480000  0.44960000  1.0 0.1137621801
H  H7  1  0.99520000  0.79160000  0.94960000  1.0 0.1137621801
H  H8  1  0.79160000  0.99520000  0.55040000  1.0 0.1137621801
H  H9  1  0.36210000  0.61350000  0.01070000  1.0 0.0967269752
H  H10  1  0.61350000  0.36210000  0.48930000  1.0 0.0967269752
H  H11  1  0.63790000  0.38650000  0.98930000  1.0 0.0967269752
H  H12  1  0.38650000  0.63790000  0.51070000  1.0 0.0967269752
H  H13  1  0.51320000  0.52100000  0.11610000  1.0 0.1360825512
H  H14  1  0.52100000  0.51320000  0.38390000  1.0 0.1360825512
H  H15  1  0.48680000  0.47900000  0.88390000  1.0 0.1360825512
H  H16  1  0.47900000  0.48680000  0.61610000  1.0 0.1360825512
H  H17  1  0.86300000  0.16840000  0.73770000  1.0 0.0874859274
H  H18  1  0.16840000  0.86300000  0.76230000  1.0 0.0874859274
H  H19  1  0.13700000  0.83160000  0.26230000  1.0 0.0874859274
H  H20  1  0.83160000  0.13700000  0.23770000  1.0 0.0874859274
H  H21  1  0.86120000  0.41020000  0.53870000  1.0 0.1137621801
H  H22  1  0.41020000  0.86120000  0.96130000  1.0 0.1137621801
H  H23  1  0.13880000  0.58980000  0.46130000  1.0 0.1137621801
H  H24  1  0.58980000  0.13880000  0.03870000  1.0 0.1137621801
H  H25  1  0.97940000  0.36840000  0.59510000  1.0 0.0874859274
H  H26  1  0.36840000  0.97940000  0.90490000  1.0 0.0874859274
H  H27  1  0.02060000  0.63160000  0.40490000  1.0 0.0874859274
H  H28  1  0.63160000  0.02060000  0.09510000  1.0 0.0874859274
H  H29  1  0.83010000  0.38430000  0.58610000  1.0 0.0874859274
H  H30  1  0.38430000  0.83010000  0.91390000  1.0 0.0874859274
H  H31  1  0.16990000  0.61570000  0.41390000  1.0 0.0874859274
H  H32  1  0.61570000  0.16990000  0.08610000  1.0 0.0874859274
H  H33  1  0.98460000  0.30380000  0.63030000  1.0 0.0874859274
H  H34  1  0.30380000  0.98460000  0.86970000  1.0 0.0874859274
H  H35  1  0.01540000  0.69620000  0.36970000  1.0 0.0874859274
H  H36  1  0.69620000  0.01540000  0.13030000  1.0 0.0874859274
H  H37  1  0.85700000  0.13900000  0.67710000  1.0 0.0967269752
H  H38  1  0.13900000  0.85700000  0.82290000  1.0 0.0967269752
H  H39  1  0.14300000  0.86100000  0.32290000  1.0 0.0967269752
H  H40  1  0.86100000  0.14300000  0.17710000  1.0 0.0967269752
C  C1  1  0.44780000  0.23900000  0.22190000  1.0 0.5698124233
C  C2  1  0.23900000  0.44780000  0.27810000  1.0 0.5698124233
C  C3  1  0.55220000  0.76100000  0.77810000  1.0 0.5698124233
C  C4  1  0.76100000  0.55220000  0.72190000  1.0 0.5698124233
C  C5  1  0.34690000  0.30110000  0.15050000  1.0 0.019584988
C  C6  1  0.30110000  0.34690000  0.34950000  1.0 0.019584988
C  C7  1  0.65310000  0.69890000  0.84950000  1.0 0.019584988
C  C8  1  0.69890000  0.65310000  0.65050000  1.0 0.019584988
C  C9  1  0.19440000  0.21020000  0.12940000  1.0 -0.1580692336
C  C10  1  0.21020000  0.19440000  0.37060000  1.0 -0.1580692336
C  C11  1  0.80560000  0.78980000  0.87060000  1.0 -0.1580692336
C  C12  1  0.78980000  0.80560000  0.62940000  1.0 -0.1580692336
C  C13  1  0.10860000  0.27280000  0.06330000  1.0 0.0483914975
C  C14  1  0.27280000  0.10860000  0.43670000  1.0 0.0483914975
C  C15  1  0.89140000  0.72720000  0.93670000  1.0 0.0483914975
C  C16  1  0.72720000  0.89140000  0.56330000  1.0 0.0483914975
C  C17  1  0.31770000  0.50950000  0.03980000  1.0 0.0483914975
C  C18  1  0.50950000  0.31770000  0.46020000  1.0 0.0483914975
C  C19  1  0.68230000  0.49050000  0.96020000  1.0 0.0483914975
C  C20  1  0.49050000  0.68230000  0.53980000  1.0 0.0483914975
C  C21  1  0.40960000  0.45500000  0.10400000  1.0 -0.1435961623
C  C22  1  0.45500000  0.40960000  0.39600000  1.0 -0.1435961623
C  C23  1  0.59040000  0.54500000  0.89600000  1.0 -0.1435961623
C  C24  1  0.54500000  0.59040000  0.60400000  1.0 -0.1435961623
C  C25  1  0.96580000  0.37540000  0.75240000  1.0 0.4324047032
C  C26  1  0.37540000  0.96580000  0.74760000  1.0 0.4324047032
C  C27  1  0.03420000  0.62460000  0.24760000  1.0 0.4324047032
C  C28  1  0.62460000  0.03420000  0.25240000  1.0 0.4324047032
C  C29  1  0.84720000  0.25200000  0.69280000  1.0 0.0834492284
C  C30  1  0.25200000  0.84720000  0.80720000  1.0 0.0834492284
C  C31  1  0.15280000  0.74800000  0.30720000  1.0 0.0834492284
C  C32  1  0.74800000  0.15280000  0.19280000  1.0 0.0834492284
C  C33  1  0.87450000  0.32630000  0.58000000  1.0 -0.1723831904
C  C34  1  0.32630000  0.87450000  0.92000000  1.0 -0.1723831904
C  C35  1  0.12550000  0.67370000  0.42000000  1.0 -0.1723831904
C  C36  1  0.67370000  0.12550000  0.08000000  1.0 -0.1723831904
C  C37  1  0.77890000  0.23130000  0.50230000  1.0 0.4865199241
C  C38  1  0.23130000  0.77890000  0.99770000  1.0 0.4865199241
C  C39  1  0.22110000  0.76870000  0.49770000  1.0 0.4865199241
C  C40  1  0.76870000  0.22110000  0.00230000  1.0 0.4865199241
C  C41  1  0.83930000  0.30270000  0.65390000  1.0 0.0567612413
C  C42  1  0.30270000  0.83930000  0.84610000  1.0 0.0567612413
C  C43  1  0.16070000  0.69730000  0.34610000  1.0 0.0567612413
C  C44  1  0.69730000  0.16070000  0.15390000  1.0 0.0567612413
C  C45  1  0.87840000  0.23880000  0.62520000  1.0 -0.1580692336
C  C46  1  0.23880000  0.87840000  0.87480000  1.0 -0.1580692336
C  C47  1  0.12160000  0.76120000  0.37480000  1.0 -0.1580692336
C  C48  1  0.76120000  0.12160000  0.12520000  1.0 -0.1580692336
N  N1  1  0.16720000  0.42140000  0.01660000  1.0 -0.250905731
N  N2  1  0.42140000  0.16720000  0.48340000  1.0 -0.250905731
N  N3  1  0.83280000  0.57860000  0.98340000  1.0 -0.250905731
N  N4  1  0.57860000  0.83280000  0.51660000  1.0 -0.250905731
O  O1  1  0.39005000  0.10355000  0.27960000  1.0 -0.5574287561
O  O2  1  0.10355000  0.39005000  0.22040000  1.0 -0.5574287561
O  O3  1  0.60995000  0.89645000  0.72040000  1.0 -0.5574287561
O  O4  1  0.89645000  0.60995000  0.77960000  1.0 -0.5574287561
O  O5  1  0.57960000  0.33160000  0.21590000  1.0 -0.5713319567
O  O6  1  0.33160000  0.57960000  0.28410000  1.0 -0.5713319567
O  O7  1  0.42040000  0.66840000  0.78410000  1.0 -0.5713319567
O  O8  1  0.66840000  0.42040000  0.71590000  1.0 -0.5713319567
O  O9  1  0.91760000  0.38700000  0.79630000  1.0 -0.5264795956
O  O10  1  0.38700000  0.91760000  0.70370000  1.0 -0.5264795956
O  O11  1  0.08240000  0.61300000  0.20370000  1.0 -0.5264795956
O  O12  1  0.61300000  0.08240000  0.29630000  1.0 -0.5264795956
O  O13  1  0.10070000  0.44990000  0.75880000  1.0 -0.4907056478
O  O14  1  0.44990000  0.10070000  0.74120000  1.0 -0.4907056478
O  O15  1  0.89930000  0.55010000  0.24120000  1.0 -0.4907056478
O  O16  1  0.55010000  0.89930000  0.25880000  1.0 -0.4907056478
O  O17  1  0.69860000  0.19780000  0.67740000  1.0 -0.4524292734
O  O18  1  0.19780000  0.69860000  0.82260000  1.0 -0.4524292734
O  O19  1  0.30140000  0.80220000  0.32260000  1.0 -0.4524292734
O  O20  1  0.80220000  0.30140000  0.17740000  1.0 -0.4524292734
O  O21  1  0.64177000  0.12063000  0.49870000  1.0 -0.5524755058
O  O22  1  0.12063000  0.64177000  0.00130000  1.0 -0.5524755058
O  O23  1  0.35823000  0.87937000  0.50130000  1.0 -0.5524755058
O  O24  1  0.87937000  0.35823000  0.99870000  1.0 -0.5524755058
O  O25  1  0.83970000  0.28530000  0.43300000  1.0 -0.5110827026
O  O26  1  0.28530000  0.83970000  0.06700000  1.0 -0.5110827026
O  O27  1  0.16030000  0.71470000  0.56700000  1.0 -0.5110827026
O  O28  1  0.71470000  0.16030000  0.93300000  1.0 -0.5110827026
