# DDEC6 charges by PACMAN v1.1 (https://github.com/mtap-research/PACMAN-charge/)
data_LERNEC01_ASR_pacman
_symmetry_space_group_name_H-M   'P 1'
_cell_length_a   12.87460000
_cell_length_b   12.87460000
_cell_length_c   15.02000000
_cell_angle_alpha   54.53820000
_cell_angle_beta   125.46200000
_cell_angle_gamma   133.99700000
_symmetry_Int_Tables_number   1
_chemical_formula_structural   Co2H10C12NO7
_chemical_formula_sum   'Co8 H40 C48 N4 O28'
_cell_volume   1390.48060075
_cell_formula_units_Z   4
loop_
 _symmetry_equiv_pos_site_id
 _symmetry_equiv_pos_as_xyz
  1  'x, y, z'
loop_
 _atom_site_type_symbol
 _atom_site_label
 _atom_site_symmetry_multiplicity
 _atom_site_fract_x
 _atom_site_fract_y
 _atom_site_fract_z
 _atom_site_occupancy
 _atom_site_charge
Co  Co1  1  0.03211000  0.52171000  0.89699000  1.0 0.8863319089
Co  Co2  1  0.52171000  0.03211000  0.60301000  1.0 0.8863319089
Co  Co3  1  0.96789000  0.47829000  0.10301000  1.0 0.8863319089
Co  Co4  1  0.47829000  0.96789000  0.39699000  1.0 0.8863319089
Co  Co5  1  0.74958000  0.31992000  0.26298000  1.0 0.877907448
Co  Co6  1  0.31992000  0.74958000  0.23702000  1.0 0.877907448
Co  Co7  1  0.25042000  0.68008000  0.73702000  1.0 0.877907448
Co  Co8  1  0.68008000  0.25042000  0.76298000  1.0 0.877907448
H  H1  1  0.14490000  0.10430000  0.16160000  1.0 0.1273802225
H  H2  1  0.10430000  0.14490000  0.33840000  1.0 0.1273802225
H  H3  1  0.85510000  0.89570000  0.83840000  1.0 0.1273802225
H  H4  1  0.89570000  0.85510000  0.66160000  1.0 0.1273802225
H  H5  1  0.00140000  0.20900000  0.04680000  1.0 0.1140335244
H  H6  1  0.20900000  0.00140000  0.45320000  1.0 0.1140335244
H  H7  1  0.99860000  0.79100000  0.95320000  1.0 0.1140335244
H  H8  1  0.79100000  0.99860000  0.54680000  1.0 0.1140335244
H  H9  1  0.36440000  0.61900000  0.01360000  1.0 0.0955082825
H  H10  1  0.61900000  0.36440000  0.48640000  1.0 0.0955082825
H  H11  1  0.63560000  0.38100000  0.98640000  1.0 0.0955082825
H  H12  1  0.38100000  0.63560000  0.51360000  1.0 0.0955082825
H  H13  1  0.51560000  0.52420000  0.11530000  1.0 0.1372471941
H  H14  1  0.52420000  0.51560000  0.38470000  1.0 0.1372471941
H  H15  1  0.48440000  0.47580000  0.88470000  1.0 0.1372471941
H  H16  1  0.47580000  0.48440000  0.61530000  1.0 0.1372471941
H  H17  1  0.86400000  0.16300000  0.74180000  1.0 0.0866053403
H  H18  1  0.16300000  0.86400000  0.75820000  1.0 0.0866053403
H  H19  1  0.13600000  0.83700000  0.25820000  1.0 0.0866053403
H  H20  1  0.83700000  0.13600000  0.24180000  1.0 0.0866053403
H  H21  1  0.98520000  0.37260000  0.59650000  1.0 0.0866053403
H  H22  1  0.37260000  0.98520000  0.90350000  1.0 0.0866053403
H  H23  1  0.01480000  0.62740000  0.40350000  1.0 0.0866053403
H  H24  1  0.62740000  0.01480000  0.09650000  1.0 0.0866053403
H  H25  1  0.86230000  0.41290000  0.53820000  1.0 0.1140335244
H  H26  1  0.41290000  0.86230000  0.96180000  1.0 0.1140335244
H  H27  1  0.13770000  0.58710000  0.46180000  1.0 0.1140335244
H  H28  1  0.58710000  0.13770000  0.03820000  1.0 0.1140335244
H  H29  1  0.83050000  0.37950000  0.58750000  1.0 0.0841947724
H  H30  1  0.37950000  0.83050000  0.91250000  1.0 0.0841947724
H  H31  1  0.16950000  0.62050000  0.41250000  1.0 0.0841947724
H  H32  1  0.62050000  0.16950000  0.08750000  1.0 0.0841947724
H  H33  1  0.99110000  0.31010000  0.63120000  1.0 0.0866053403
H  H34  1  0.31010000  0.99110000  0.86880000  1.0 0.0866053403
H  H35  1  0.00890000  0.68990000  0.36880000  1.0 0.0866053403
H  H36  1  0.68990000  0.00890000  0.13120000  1.0 0.0866053403
H  H37  1  0.86450000  0.13850000  0.68060000  1.0 0.0955082825
H  H38  1  0.13850000  0.86450000  0.81940000  1.0 0.0955082825
H  H39  1  0.13550000  0.86150000  0.31940000  1.0 0.0955082825
H  H40  1  0.86150000  0.13550000  0.18060000  1.0 0.0955082825
C  C1  1  0.44720000  0.24000000  0.22180000  1.0 0.5744120707
C  C2  1  0.24000000  0.44720000  0.27820000  1.0 0.5744120707
C  C3  1  0.55280000  0.76000000  0.77820000  1.0 0.5744120707
C  C4  1  0.76000000  0.55280000  0.72180000  1.0 0.5744120707
C  C5  1  0.34670000  0.30310000  0.15090000  1.0 0.0248679747
C  C6  1  0.30310000  0.34670000  0.34910000  1.0 0.0248679747
C  C7  1  0.65330000  0.69690000  0.84910000  1.0 0.0248679747
C  C8  1  0.69690000  0.65330000  0.65090000  1.0 0.0248679747
C  C9  1  0.19280000  0.21120000  0.12980000  1.0 -0.1573562245
C  C10  1  0.21120000  0.19280000  0.37020000  1.0 -0.1573562245
C  C11  1  0.80720000  0.78880000  0.87020000  1.0 -0.1573562245
C  C12  1  0.78880000  0.80720000  0.62980000  1.0 -0.1573562245
C  C13  1  0.10820000  0.27500000  0.06230000  1.0 0.0587814156
C  C14  1  0.27500000  0.10820000  0.43770000  1.0 0.0587814156
C  C15  1  0.89180000  0.72500000  0.93770000  1.0 0.0587814156
C  C16  1  0.72500000  0.89180000  0.56230000  1.0 0.0587814156
C  C17  1  0.31810000  0.51230000  0.04140000  1.0 0.0406582733
C  C18  1  0.51230000  0.31810000  0.45860000  1.0 0.0406582733
C  C19  1  0.68190000  0.48770000  0.95860000  1.0 0.0406582733
C  C20  1  0.48770000  0.68190000  0.54140000  1.0 0.0406582733
C  C21  1  0.40960000  0.45680000  0.10420000  1.0 -0.1367918249
C  C22  1  0.45680000  0.40960000  0.39580000  1.0 -0.1367918249
C  C23  1  0.59040000  0.54320000  0.89580000  1.0 -0.1367918249
C  C24  1  0.54320000  0.59040000  0.60420000  1.0 -0.1367918249
C  C25  1  0.96660000  0.37560000  0.75320000  1.0 0.4286547233
C  C26  1  0.37560000  0.96660000  0.74680000  1.0 0.4286547233
C  C27  1  0.03340000  0.62440000  0.24680000  1.0 0.4286547233
C  C28  1  0.62440000  0.03340000  0.25320000  1.0 0.4286547233
C  C29  1  0.84760000  0.24820000  0.69500000  1.0 0.0866053403
C  C30  1  0.24820000  0.84760000  0.80500000  1.0 0.0866053403
C  C31  1  0.15240000  0.75180000  0.30500000  1.0 0.0866053403
C  C32  1  0.75180000  0.15240000  0.19500000  1.0 0.0866053403
C  C33  1  0.87740000  0.32800000  0.58060000  1.0 -0.1699058669
C  C34  1  0.32800000  0.87740000  0.91940000  1.0 -0.1699058669
C  C35  1  0.12260000  0.67200000  0.41940000  1.0 -0.1699058669
C  C36  1  0.67200000  0.12260000  0.08060000  1.0 -0.1699058669
C  C37  1  0.78060000  0.23120000  0.50210000  1.0 0.4787588944
C  C38  1  0.23120000  0.78060000  0.99790000  1.0 0.4787588944
C  C39  1  0.21940000  0.76880000  0.49790000  1.0 0.4787588944
C  C40  1  0.76880000  0.21940000  0.00210000  1.0 0.4787588944
C  C41  1  0.84070000  0.29650000  0.65790000  1.0 0.0587814156
C  C42  1  0.29650000  0.84070000  0.84210000  1.0 0.0587814156
C  C43  1  0.15930000  0.70350000  0.34210000  1.0 0.0587814156
C  C44  1  0.70350000  0.15930000  0.15790000  1.0 0.0587814156
C  C45  1  0.88270000  0.23990000  0.62710000  1.0 -0.1524155582
C  C46  1  0.23990000  0.88270000  0.87290000  1.0 -0.1524155582
C  C47  1  0.11730000  0.76010000  0.37290000  1.0 -0.1524155582
C  C48  1  0.76010000  0.11730000  0.12710000  1.0 -0.1524155582
N  N1  1  0.16650000  0.42370000  0.01720000  1.0 -0.2505506049
N  N2  1  0.42370000  0.16650000  0.48280000  1.0 -0.2505506049
N  N3  1  0.83350000  0.57630000  0.98280000  1.0 -0.2505506049
N  N4  1  0.57630000  0.83350000  0.51720000  1.0 -0.2505506049
O  O1  1  0.38934000  0.10366000  0.27950000  1.0 -0.5596203278
O  O2  1  0.10366000  0.38934000  0.22050000  1.0 -0.5596203278
O  O3  1  0.61066000  0.89634000  0.72050000  1.0 -0.5596203278
O  O4  1  0.89634000  0.61066000  0.77950000  1.0 -0.5596203278
O  O5  1  0.58014000  0.33426000  0.21520000  1.0 -0.5777514945
O  O6  1  0.33426000  0.58014000  0.28480000  1.0 -0.5777514945
O  O7  1  0.41986000  0.66574000  0.78480000  1.0 -0.5777514945
O  O8  1  0.66574000  0.41986000  0.71520000  1.0 -0.5777514945
O  O9  1  0.91679000  0.39061000  0.79400000  1.0 -0.5408245097
O  O10  1  0.39061000  0.91679000  0.70600000  1.0 -0.5408245097
O  O11  1  0.08321000  0.60939000  0.20600000  1.0 -0.5408245097
O  O12  1  0.60939000  0.08321000  0.29400000  1.0 -0.5408245097
O  O13  1  0.10360000  0.44840000  0.76380000  1.0 -0.4923404525
O  O14  1  0.44840000  0.10360000  0.73620000  1.0 -0.4923404525
O  O15  1  0.89640000  0.55160000  0.23620000  1.0 -0.4923404525
O  O16  1  0.55160000  0.89640000  0.26380000  1.0 -0.4923404525
O  O17  1  0.70027000  0.19673000  0.67920000  1.0 -0.4453015993
O  O18  1  0.19673000  0.70027000  0.82080000  1.0 -0.4453015993
O  O19  1  0.29973000  0.80327000  0.32080000  1.0 -0.4453015993
O  O20  1  0.80327000  0.29973000  0.17920000  1.0 -0.4445653032
O  O21  1  0.64307000  0.12133000  0.49810000  1.0 -0.5475685368
O  O22  1  0.12133000  0.64307000  0.00190000  1.0 -0.5475685368
O  O23  1  0.35693000  0.87867000  0.50190000  1.0 -0.5475685368
O  O24  1  0.87867000  0.35693000  0.99810000  1.0 -0.5475685368
O  O25  1  0.84240000  0.28600000  0.43270000  1.0 -0.5132383625
O  O26  1  0.28600000  0.84240000  0.06730000  1.0 -0.5132383625
O  O27  1  0.15760000  0.71400000  0.56730000  1.0 -0.5132383625
O  O28  1  0.71400000  0.15760000  0.93270000  1.0 -0.5132383625
