# DDEC6 charges by PACMAN v1.1 (https://github.com/mtap-research/PACMAN-charge/)
data_LERNAY01_FSR_pacman
_symmetry_space_group_name_H-M   'P 1'
_cell_length_a   12.80860000
_cell_length_b   12.80860000
_cell_length_c   14.97810000
_cell_angle_alpha   55.12130000
_cell_angle_beta   124.87900000
_cell_angle_gamma   133.64900000
_symmetry_Int_Tables_number   1
_chemical_formula_structural   Co2H10C12NO7
_chemical_formula_sum   'Co8 H40 C48 N4 O28'
_cell_volume   1392.20018316
_cell_formula_units_Z   4
loop_
 _symmetry_equiv_pos_site_id
 _symmetry_equiv_pos_as_xyz
  1  'x, y, z'
loop_
 _atom_site_type_symbol
 _atom_site_label
 _atom_site_symmetry_multiplicity
 _atom_site_fract_x
 _atom_site_fract_y
 _atom_site_fract_z
 _atom_site_occupancy
 _atom_site_charge
Co  Co1  1  0.03339000  0.52155000  0.89703000  1.0 0.8918879869
Co  Co2  1  0.52155000  0.03339000  0.60297000  1.0 0.8918879869
Co  Co3  1  0.96661000  0.47845000  0.10297000  1.0 0.8918879869
Co  Co4  1  0.47845000  0.96661000  0.39703000  1.0 0.8918879869
Co  Co5  1  0.68248000  0.25178000  0.76372000  1.0 0.8754831645
Co  Co6  1  0.25178000  0.68248000  0.73628000  1.0 0.8754831645
Co  Co7  1  0.31752000  0.74822000  0.23628000  1.0 0.8754831645
Co  Co8  1  0.74822000  0.31752000  0.26372000  1.0 0.8754831645
H  H1  1  0.89760000  0.85640000  0.65040000  1.0 0.1299246492
H  H2  1  0.85640000  0.89760000  0.84960000  1.0 0.1299246492
H  H3  1  0.10240000  0.14360000  0.34960000  1.0 0.1299246492
H  H4  1  0.14360000  0.10240000  0.15040000  1.0 0.1299246492
H  H5  1  0.79170000  0.99770000  0.53840000  1.0 0.1138030643
H  H6  1  0.99770000  0.79170000  0.96160000  1.0 0.1138030643
H  H7  1  0.20830000  0.00230000  0.46160000  1.0 0.1138030643
H  H8  1  0.00230000  0.20830000  0.03840000  1.0 0.1138030643
H  H9  1  0.38800000  0.63840000  0.51950000  1.0 0.0979420784
H  H10  1  0.63840000  0.38800000  0.98050000  1.0 0.0979420784
H  H11  1  0.61200000  0.36160000  0.48050000  1.0 0.0979420784
H  H12  1  0.36160000  0.61200000  0.01950000  1.0 0.0979420784
H  H13  1  0.48160000  0.48700000  0.62460000  1.0 0.1395176741
H  H14  1  0.48700000  0.48160000  0.87540000  1.0 0.1395176741
H  H15  1  0.51840000  0.51300000  0.37540000  1.0 0.1395176741
H  H16  1  0.51300000  0.51840000  0.12460000  1.0 0.1395176741
H  H17  1  0.86500000  0.16880000  0.73900000  1.0 0.0881041371
H  H18  1  0.16880000  0.86500000  0.76100000  1.0 0.0881041371
H  H19  1  0.13500000  0.83120000  0.26100000  1.0 0.0881041371
H  H20  1  0.83120000  0.13500000  0.23900000  1.0 0.0881041371
H  H21  1  0.86060000  0.40940000  0.53800000  1.0 0.1138030643
H  H22  1  0.40940000  0.86060000  0.96200000  1.0 0.1138030643
H  H23  1  0.13940000  0.59060000  0.46200000  1.0 0.1138030643
H  H24  1  0.59060000  0.13940000  0.03800000  1.0 0.1138030643
H  H25  1  0.98040000  0.36960000  0.59420000  1.0 0.0844068731
H  H26  1  0.36960000  0.98040000  0.90580000  1.0 0.0844068731
H  H27  1  0.01960000  0.63040000  0.40580000  1.0 0.0844068731
H  H28  1  0.63040000  0.01960000  0.09420000  1.0 0.0844068731
H  H29  1  0.83180000  0.38400000  0.58440000  1.0 0.0844068731
H  H30  1  0.38400000  0.83180000  0.91560000  1.0 0.0844068731
H  H31  1  0.16820000  0.61600000  0.41560000  1.0 0.0844068731
H  H32  1  0.61600000  0.16820000  0.08440000  1.0 0.0844068731
H  H33  1  0.98730000  0.30850000  0.62680000  1.0 0.0881041371
H  H34  1  0.30850000  0.98730000  0.87320000  1.0 0.0881041371
H  H35  1  0.01270000  0.69150000  0.37320000  1.0 0.0881041371
H  H36  1  0.69150000  0.01270000  0.12680000  1.0 0.0881041371
H  H37  1  0.86360000  0.14240000  0.67730000  1.0 0.0979420784
H  H38  1  0.14240000  0.86360000  0.82270000  1.0 0.0979420784
H  H39  1  0.13640000  0.85760000  0.32270000  1.0 0.0979420784
H  H40  1  0.85760000  0.13640000  0.17730000  1.0 0.0979420784
C  C1  1  0.76340000  0.55460000  0.72140000  1.0 0.5718366297
C  C2  1  0.55460000  0.76340000  0.77860000  1.0 0.5718366297
C  C3  1  0.23660000  0.44540000  0.27860000  1.0 0.5718366297
C  C4  1  0.44540000  0.23660000  0.22140000  1.0 0.5718366297
C  C5  1  0.70080000  0.65440000  0.64980000  1.0 0.022183908
C  C6  1  0.65440000  0.70080000  0.85020000  1.0 0.022183908
C  C7  1  0.29920000  0.34560000  0.35020000  1.0 0.022183908
C  C8  1  0.34560000  0.29920000  0.14980000  1.0 0.022183908
C  C9  1  0.79320000  0.80960000  0.62280000  1.0 -0.1592820344
C  C10  1  0.80960000  0.79320000  0.87720000  1.0 -0.1592820344
C  C11  1  0.20680000  0.19040000  0.37720000  1.0 -0.1592820344
C  C12  1  0.19040000  0.20680000  0.12280000  1.0 -0.1592820344
C  C13  1  0.72790000  0.89310000  0.55610000  1.0 0.0559795399
C  C14  1  0.89310000  0.72790000  0.94390000  1.0 0.0559795399
C  C15  1  0.27210000  0.10690000  0.44390000  1.0 0.0559795399
C  C16  1  0.10690000  0.27210000  0.05610000  1.0 0.0559795399
C  C17  1  0.49200000  0.68300000  0.54530000  1.0 0.0432552787
C  C18  1  0.68300000  0.49200000  0.95470000  1.0 0.0432552787
C  C19  1  0.50800000  0.31700000  0.45470000  1.0 0.0432552787
C  C20  1  0.31700000  0.50800000  0.04530000  1.0 0.0432552787
C  C21  1  0.54760000  0.59120000  0.60930000  1.0 -0.1394807158
C  C22  1  0.59120000  0.54760000  0.89070000  1.0 -0.1394807158
C  C23  1  0.45240000  0.40880000  0.39070000  1.0 -0.1394807158
C  C24  1  0.40880000  0.45240000  0.10930000  1.0 -0.1394807158
C  C25  1  0.96780000  0.37820000  0.75000000  1.0 0.4210747572
C  C26  1  0.37820000  0.96780000  0.75000000  1.0 0.4210747572
C  C27  1  0.03220000  0.62180000  0.25000000  1.0 0.4210747572
C  C28  1  0.62180000  0.03220000  0.25000000  1.0 0.4210747572
C  C29  1  0.84920000  0.25260000  0.69330000  1.0 0.0844068731
C  C30  1  0.25260000  0.84920000  0.80670000  1.0 0.0844068731
C  C31  1  0.15080000  0.74740000  0.30670000  1.0 0.0844068731
C  C32  1  0.74740000  0.15080000  0.19330000  1.0 0.0844068731
C  C33  1  0.87530000  0.32630000  0.57970000  1.0 -0.1703924594
C  C34  1  0.32630000  0.87530000  0.92030000  1.0 -0.1703924594
C  C35  1  0.12470000  0.67370000  0.42030000  1.0 -0.1703924594
C  C36  1  0.67370000  0.12470000  0.07970000  1.0 -0.1703924594
C  C37  1  0.77870000  0.22890000  0.50160000  1.0 0.4794545265
C  C38  1  0.22890000  0.77870000  0.99840000  1.0 0.4794545265
C  C39  1  0.22130000  0.77110000  0.49840000  1.0 0.4794545265
C  C40  1  0.77110000  0.22130000  0.00160000  1.0 0.4794545265
C  C41  1  0.84120000  0.30280000  0.65280000  1.0 0.0559795399
C  C42  1  0.30280000  0.84120000  0.84720000  1.0 0.0559795399
C  C43  1  0.15880000  0.69720000  0.34720000  1.0 0.0559795399
C  C44  1  0.69720000  0.15880000  0.15280000  1.0 0.0559795399
C  C45  1  0.88160000  0.24100000  0.62390000  1.0 -0.1592820344
C  C46  1  0.24100000  0.88160000  0.87610000  1.0 -0.1592820344
C  C47  1  0.11840000  0.75900000  0.37610000  1.0 -0.1592820344
C  C48  1  0.75900000  0.11840000  0.12390000  1.0 -0.1592820344
N  N1  1  0.57963000  0.83417000  0.51570000  1.0 -0.250155924
N  N2  1  0.83417000  0.57963000  0.98430000  1.0 -0.250155924
N  N3  1  0.42037000  0.16583000  0.48430000  1.0 -0.250155924
N  N4  1  0.16583000  0.42037000  0.01570000  1.0 -0.250155924
O  O1  1  0.66934000  0.42126000  0.71750000  1.0 -0.5734957067
O  O2  1  0.42126000  0.66934000  0.78250000  1.0 -0.5734957067
O  O3  1  0.33066000  0.57874000  0.28250000  1.0 -0.5734957067
O  O4  1  0.57874000  0.33066000  0.21750000  1.0 -0.5734957067
O  O5  1  0.89915000  0.61225000  0.77900000  1.0 -0.5573344735
O  O6  1  0.61225000  0.89915000  0.72100000  1.0 -0.5573344735
O  O7  1  0.10085000  0.38775000  0.22100000  1.0 -0.5573344735
O  O8  1  0.38775000  0.10085000  0.27900000  1.0 -0.5573344735
O  O9  1  0.91920000  0.39060000  0.79380000  1.0 -0.5308345167
O  O10  1  0.39060000  0.91920000  0.70620000  1.0 -0.5308345167
O  O11  1  0.08080000  0.60940000  0.20620000  1.0 -0.5308345167
O  O12  1  0.60940000  0.08080000  0.29380000  1.0 -0.5308345167
O  O13  1  0.10274000  0.45146000  0.75840000  1.0 -0.4793434945
O  O14  1  0.45146000  0.10274000  0.74160000  1.0 -0.4793434945
O  O15  1  0.89726000  0.54854000  0.24160000  1.0 -0.4793434945
O  O16  1  0.54854000  0.89726000  0.25840000  1.0 -0.4793434945
O  O17  1  0.70020000  0.19980000  0.67620000  1.0 -0.4564374668
O  O18  1  0.19980000  0.70020000  0.82380000  1.0 -0.4564374668
O  O19  1  0.29980000  0.80020000  0.32380000  1.0 -0.4564374668
O  O20  1  0.80020000  0.29980000  0.17620000  1.0 -0.4564374668
O  O21  1  0.64148000  0.12092000  0.49700000  1.0 -0.5441380349
O  O22  1  0.12092000  0.64148000  0.00300000  1.0 -0.5441380349
O  O23  1  0.35852000  0.87908000  0.50300000  1.0 -0.5441380349
O  O24  1  0.87908000  0.35852000  0.99700000  1.0 -0.5441380349
O  O25  1  0.84130000  0.28070000  0.43310000  1.0 -0.5193199721
O  O26  1  0.28070000  0.84130000  0.06690000  1.0 -0.5193199721
O  O27  1  0.15870000  0.71930000  0.56690000  1.0 -0.5193199721
O  O28  1  0.71930000  0.15870000  0.93310000  1.0 -0.5193199721
