# DDEC6 charges by PACMAN v1.1 (https://github.com/mtap-research/PACMAN-charge/)
data_LERPAD_ASR_pacman
_symmetry_space_group_name_H-M   'P 1'
_cell_length_a   38.25960000
_cell_length_b   38.25960000
_cell_length_c   38.25960000
_cell_angle_alpha   152.10600000
_cell_angle_beta   148.90500000
_cell_angle_gamma   42.25780000
_symmetry_Int_Tables_number   1
_chemical_formula_structural   Cd2H9C31(NO7)2
_chemical_formula_sum   'Cd16 H72 C248 N16 O112'
_cell_volume   13499.33688812
_cell_formula_units_Z   8
loop_
 _symmetry_equiv_pos_site_id
 _symmetry_equiv_pos_as_xyz
  1  'x, y, z'
loop_
 _atom_site_type_symbol
 _atom_site_label
 _atom_site_symmetry_multiplicity
 _atom_site_fract_x
 _atom_site_fract_y
 _atom_site_fract_z
 _atom_site_occupancy
 _atom_site_charge
Cd  Cd1  1  0.31518000  0.31342000  0.44880000  1.0 1.011231199
Cd  Cd2  1  0.44095000  0.74908000  0.08593000  1.0 1.1265668124
Cd  Cd3  1  0.10098000  0.60427000  0.05261000  1.0 1.030775711
Cd  Cd4  1  0.25333000  0.66719000  0.19194000  1.0 1.1097530277
Cd  Cd5  1  0.86462000  0.86638000  0.55120000  1.0 1.011231199
Cd  Cd6  1  0.66315000  0.35502000  0.91407000  1.0 1.1265668124
Cd  Cd7  1  0.55166000  0.04837000  0.94739000  1.0 1.030775711
Cd  Cd8  1  0.47525000  0.06139000  0.80806000  1.0 1.1097530277
Cd  Cd9  1  0.36462000  0.81342000  0.99824000  1.0 1.011231199
Cd  Cd10  1  0.16315000  0.24908000  0.30813000  1.0 1.1265668124
Cd  Cd11  1  0.05166000  0.10427000  0.50329000  1.0 1.030775711
Cd  Cd12  1  0.97525000  0.16719000  0.41386000  1.0 1.1097530277
Cd  Cd13  1  0.81518000  0.36638000  0.00176000  1.0 1.011231199
Cd  Cd14  1  0.94095000  0.85502000  0.69187000  1.0 1.1265668124
Cd  Cd15  1  0.60098000  0.54837000  0.49671000  1.0 1.030775711
Cd  Cd16  1  0.75333000  0.56139000  0.58614000  1.0 1.1097530277
H  H1  1  0.54948000  0.35443000  0.72499000  1.0 0.1234558579
H  H2  1  0.34793000  0.04223000  0.23802000  1.0 0.1486753729
H  H3  1  0.25935000  0.11936000  0.31681000  1.0 0.1384670363
H  H4  1  0.31735000  0.90660000  0.17339000  1.0 0.1486753729
H  H5  1  0.51962000  0.38041000  0.61941000  1.0 0.1577768476
H  H6  1  0.70613000  0.40234000  0.83557000  1.0 0.1486753729
H  H7  1  0.13769000  0.86103000  0.08237000  1.0 0.1486753729
H  H8  1  0.27830000  0.05876000  0.42002000  1.0 0.1486753729
H  H9  1  0.09301000  0.00703000  0.31764000  1.0 0.1384670363
H  H10  1  0.06738000  0.87646000  0.26534000  1.0 0.1486753729
H  H11  1  0.15726000  0.79888000  0.18816000  1.0 0.1265722588
H  H12  1  0.70758000  0.50973000  0.65543000  1.0 0.1577768476
H  H13  1  0.86717000  0.56006000  0.77389000  1.0 0.1234558579
H  H14  1  0.89592000  0.52829000  0.87319000  1.0 0.1577768476
H  H15  1  0.75940000  0.56771000  0.91273000  1.0 0.1234558579
H  H16  1  0.64916000  0.35206000  0.58210000  1.0 0.1234558579
H  H17  1  0.62797000  0.55509000  0.75924000  1.0 0.1234558579
H  H18  1  0.77551000  0.36625000  0.73136000  1.0 0.1141758413
H  H19  1  0.62944000  0.82449000  0.27501000  1.0 0.1234558579
H  H20  1  0.80421000  0.10991000  0.76198000  1.0 0.1486753729
H  H21  1  0.80255000  0.94254000  0.68319000  1.0 0.1384670363
H  H22  1  0.73321000  0.14396000  0.82661000  1.0 0.1486753729
H  H23  1  0.76100000  0.90021000  0.38059000  1.0 0.1577768476
H  H24  1  0.56677000  0.87056000  0.16443000  1.0 0.1486753729
H  H25  1  0.77865000  0.05532000  0.91763000  1.0 0.1486753729
H  H26  1  0.63874000  0.85828000  0.57998000  1.0 0.1486753729
H  H27  1  0.68939000  0.77537000  0.68236000  1.0 0.1384670363
H  H28  1  0.61112000  0.80204000  0.73466000  1.0 0.1486753729
H  H29  1  0.61072000  0.96910000  0.81184000  1.0 0.1265722588
H  H30  1  0.85430000  0.05215000  0.34457000  1.0 0.1577768476
H  H31  1  0.78617000  0.09328000  0.22611000  1.0 0.1234558579
H  H32  1  0.65510000  0.02273000  0.12681000  1.0 0.1577768476
H  H33  1  0.65498000  0.84667000  0.08727000  1.0 0.1234558579
H  H34  1  0.76996000  0.06706000  0.41790000  1.0 0.1234558579
H  H35  1  0.79585000  0.86873000  0.24076000  1.0 0.1234558579
H  H36  1  0.63489000  0.04415000  0.26864000  1.0 0.1141758413
H  H37  1  0.12944000  0.85443000  0.80495000  1.0 0.1234558579
H  H38  1  0.30421000  0.54223000  0.69430000  1.0 0.1486753729
H  H39  1  0.30255000  0.61936000  0.86001000  1.0 0.1384670363
H  H40  1  0.23321000  0.40660000  0.58925000  1.0 0.1486753729
H  H41  1  0.26100000  0.88041000  0.86079000  1.0 0.1577768476
H  H42  1  0.06677000  0.90234000  0.69621000  1.0 0.1486753729
H  H43  1  0.27865000  0.36102000  0.72333000  1.0 0.1486753729
H  H44  1  0.13874000  0.55876000  0.78046000  1.0 0.1486753729
H  H45  1  0.18939000  0.50703000  0.91402000  1.0 0.1384670363
H  H46  1  0.11112000  0.37646000  0.80908000  1.0 0.1486753729
H  H47  1  0.11072000  0.29888000  0.64162000  1.0 0.1265722588
H  H48  1  0.35430000  0.00973000  0.80215000  1.0 0.1577768476
H  H49  1  0.28617000  0.06006000  0.69289000  1.0 0.1234558579
H  H50  1  0.15510000  0.02829000  0.63237000  1.0 0.1577768476
H  H51  1  0.15498000  0.06771000  0.80831000  1.0 0.1234558579
H  H52  1  0.26996000  0.85206000  0.70290000  1.0 0.1234558579
H  H53  1  0.29585000  0.05509000  0.92712000  1.0 0.1234558579
H  H54  1  0.13489000  0.86625000  0.59074000  1.0 0.1141758413
H  H55  1  0.04948000  0.32449000  0.19505000  1.0 0.1234558579
H  H56  1  0.84793000  0.60991000  0.30570000  1.0 0.1486753729
H  H57  1  0.75935000  0.44254000  0.13999000  1.0 0.1384670363
H  H58  1  0.81735000  0.64396000  0.41075000  1.0 0.1486753729
H  H59  1  0.01962000  0.40021000  0.13921000  1.0 0.1577768476
H  H60  1  0.20613000  0.37056000  0.30379000  1.0 0.1486753729
H  H61  1  0.63770000  0.55532000  0.27667000  1.0 0.1486753729
H  H62  1  0.77830000  0.35828000  0.21954000  1.0 0.1486753729
H  H63  1  0.59301000  0.27537000  0.08598000  1.0 0.1384670363
H  H64  1  0.56738000  0.30204000  0.19092000  1.0 0.1486753729
H  H65  1  0.65726000  0.46910000  0.35838000  1.0 0.1265722588
H  H66  1  0.20758000  0.55215000  0.19785000  1.0 0.1577768476
H  H67  1  0.36717000  0.59328000  0.30711000  1.0 0.1234558579
H  H68  1  0.39592000  0.52273000  0.36763000  1.0 0.1577768476
H  H69  1  0.25940000  0.34667000  0.19169000  1.0 0.1234558579
H  H70  1  0.14916000  0.56706000  0.29710000  1.0 0.1234558579
H  H71  1  0.12797000  0.36873000  0.07288000  1.0 0.1234558579
H  H72  1  0.27551000  0.54415000  0.40926000  1.0 0.1141758413
C  C1  1  0.33957000  0.96837000  0.20440000  1.0 -0.0019564825
C  C2  1  0.30501000  0.09601000  0.28920000  1.0 -0.0088091864
C  C3  1  0.56632000  0.36472000  0.72620000  1.0 -0.0980373657
C  C4  1  0.52192000  0.36512000  0.65880000  1.0 0.0287045666
C  C5  1  0.33326000  0.03566000  0.24260000  1.0 -0.0704187101
C  C6  1  0.28092000  0.08242000  0.29070000  1.0 -0.1499200006
C  C7  1  0.30320000  0.16950000  0.33550000  1.0 0.5814984292
C  C8  1  0.31609000  0.95389000  0.20420000  1.0 -0.1198821086
C  C9  1  0.37169000  0.90499000  0.15690000  1.0 0.6083216784
C  C10  1  0.68261000  0.38141000  0.86620000  1.0 0.6083216784
C  C11  1  0.54866000  0.38106000  0.66400000  1.0 -0.1377324461
C  C12  1  0.65972000  0.39482000  0.79310000  1.0 -0.1499200006
C  C13  1  0.63519000  0.38029000  0.79330000  1.0 0.0094778002
C  C14  1  0.44605000  0.34825000  0.58500000  1.0 0.5503504724
C  C15  1  0.28921000  0.01471000  0.25370000  1.0 0.2093798045
C  C16  1  0.61555000  0.39805000  0.73090000  1.0 0.1874085889
C  C17  1  0.28400000  0.03730000  0.33230000  1.0 0.4274793715
C  C18  1  0.21645000  0.93865000  0.16700000  1.0 0.4199225158
C  C19  1  0.11500000  0.74950000  0.16650000  1.0 0.5814984292
C  C20  1  0.16584000  0.90064000  0.15000000  1.0 -0.0578712304
C  C21  1  0.20614000  0.94464000  0.20050000  1.0 -0.0704187101
C  C22  1  0.24824000  0.00384000  0.30160000  1.0 -0.0704187101
C  C23  1  0.25015000  0.01915000  0.35240000  1.0 -0.0578712304
C  C24  1  0.20986000  0.97516000  0.30190000  1.0 -0.0402998204
C  C25  1  0.16776000  0.91596000  0.20080000  1.0 -0.0505823021
C  C26  1  0.20193000  0.97273000  0.33160000  1.0 0.4514906109
C  C27  1  0.96858000  0.57758000  0.92280000  1.0 0.5114254356
C  C28  1  0.09820000  0.96180000  0.29340000  1.0 -0.1305510103
C  C29  1  0.07508000  0.95118000  0.29830000  1.0 0.0094778002
C  C30  1  0.08277000  0.88357000  0.26200000  1.0 -0.0704187101
C  C31  1  0.11356000  0.82646000  0.22070000  1.0 -0.031344749
C  C32  1  0.13668000  0.83708000  0.21580000  1.0 -0.1499200006
C  C33  1  0.12899000  0.90469000  0.25210000  1.0 0.2093798045
C  C34  1  0.73680000  0.53750000  0.63850000  1.0 0.5743837059
C  C35  1  0.13178000  0.87518000  0.16340000  1.0 0.4428481013
C  C36  1  0.04290000  0.01560000  0.34710000  1.0 0.6041322798
C  C37  1  0.75413000  0.51903000  0.70050000  1.0 -0.1305510103
C  C38  1  0.78025000  0.53545000  0.70440000  1.0 -0.0578712304
C  C39  1  0.84971000  0.54911000  0.77140000  1.0 -0.0864687934
C  C40  1  0.89316000  0.54646000  0.83470000  1.0 0.0216059051
C  C41  1  0.86687000  0.53007000  0.83080000  1.0 -0.1499200006
C  C42  1  0.79731000  0.51631000  0.76360000  1.0 0.2360295058
C  C43  1  0.68060000  0.47950000  0.81730000  1.0 0.2093798045
C  C44  1  0.62690000  0.37530000  0.65760000  1.0 0.1669727863
C  C45  1  0.66447000  0.41227000  0.69280000  1.0 0.0287045666
C  C46  1  0.69747000  0.47697000  0.79190000  1.0 0.0287045666
C  C47  1  0.73727000  0.52447000  0.84640000  1.0 -0.0980373657
C  C48  1  0.74417000  0.50747000  0.80210000  1.0 0.0216059051
C  C49  1  0.71108000  0.44288000  0.70300000  1.0 0.0216059051
C  C50  1  0.67128000  0.39528000  0.64840000  1.0 -0.0402998204
C  C51  1  0.72560000  0.43630000  0.67230000  1.0 0.2093798045
C  C52  1  0.78000000  0.54400000  0.83720000  1.0 0.2093798045
C  C53  1  0.79050000  0.44260000  0.74730000  1.0 0.2093798045
C  C54  1  0.71320000  0.53810000  0.76150000  1.0 0.2224787065
C  C55  1  0.61610000  0.47170000  0.74180000  1.0 0.2093798045
C  C56  1  0.68780000  0.38330000  0.72930000  1.0 0.1577768476
C  C57  1  0.70130000  0.41720000  0.73550000  1.0 0.0287045666
C  C58  1  0.65520000  0.47250000  0.74290000  1.0 0.0216059051
C  C59  1  0.65710000  0.51690000  0.75320000  1.0 -0.1060583424
C  C60  1  0.70360000  0.50190000  0.75430000  1.0 0.0287045666
C  C61  1  0.74940000  0.44690000  0.74670000  1.0 0.0094778002
C  C62  1  0.74610000  0.40420000  0.73690000  1.0 -0.0505823021
C  C63  1  0.76397000  0.13517000  0.79560000  1.0 -0.0019564825
C  C64  1  0.80681000  0.01581000  0.71080000  1.0 -0.0088091864
C  C65  1  0.63852000  0.84012000  0.27380000  1.0 -0.0980373657
C  C66  1  0.70632000  0.86312000  0.34120000  1.0 0.0287045666
C  C67  1  0.79306000  0.09066000  0.75740000  1.0 -0.0704187101
C  C68  1  0.79172000  0.99022000  0.70930000  1.0 -0.1499200006
C  C69  1  0.83400000  0.96770000  0.66450000  1.0 0.5814984292
C  C70  1  0.74969000  0.11189000  0.79580000  1.0 -0.1198821086
C  C71  1  0.74809000  0.21479000  0.84310000  1.0 0.6083216784
C  C72  1  0.51521000  0.81641000  0.13380000  1.0 0.6083216784
C  C73  1  0.71706000  0.88466000  0.33600000  1.0 -0.1377324461
C  C74  1  0.60172000  0.86662000  0.20690000  1.0 -0.1499200006
C  C75  1  0.58699000  0.84189000  0.20670000  1.0 0.0094778002
C  C76  1  0.76325000  0.86105000  0.41500000  1.0 0.5503504724
C  C77  1  0.76101000  0.03551000  0.74630000  1.0 0.2093798045
C  C78  1  0.66715000  0.88465000  0.26910000  1.0 0.1874085889
C  C79  1  0.70500000  0.95170000  0.66770000  1.0 0.4274793715
C  C80  1  0.77165000  0.04945000  0.83300000  1.0 0.4199225158
C  C81  1  0.58300000  0.94850000  0.83350000  1.0 0.5814984292
C  C82  1  0.75064000  0.01584000  0.85000000  1.0 -0.0578712304
C  C83  1  0.74414000  0.00564000  0.79950000  1.0 -0.0704187101
C  C84  1  0.70224000  0.94664000  0.69840000  1.0 -0.0578712304
C  C85  1  0.66675000  0.89775000  0.64760000  1.0 -0.0578712304
C  C86  1  0.67326000  0.90796000  0.69810000  1.0 -0.0402998204
C  C87  1  0.71516000  0.96696000  0.79920000  1.0 -0.0505823021
C  C88  1  0.64113000  0.87033000  0.66840000  1.0 0.4514906109
C  C89  1  0.65478000  0.04578000  0.07720000  1.0 0.5114254356
C  C90  1  0.66840000  0.80480000  0.70660000  1.0 -0.1305510103
C  C91  1  0.65288000  0.77678000  0.70170000  1.0 0.0094778002
C  C92  1  0.62157000  0.82077000  0.73800000  1.0 -0.0704187101
C  C93  1  0.60576000  0.89286000  0.77930000  1.0 -0.031344749
C  C94  1  0.62128000  0.92088000  0.78420000  1.0 -0.1499200006
C  C95  1  0.65259000  0.87689000  0.74790000  1.0 0.2093798045
C  C96  1  0.89900000  0.09830000  0.36150000  1.0 0.5743837059
C  C97  1  0.71178000  0.96838000  0.83660000  1.0 0.4428481013
C  C98  1  0.66850000  0.69580000  0.65290000  1.0 0.6041322798
C  C99  1  0.81853000  0.05363000  0.29950000  1.0 -0.1305510103
C  C100  1  0.83105000  0.07585000  0.29560000  1.0 -0.0505823021
C  C101  1  0.77771000  0.07831000  0.22860000  1.0 -0.0864687934
C  C102  1  0.71176000  0.05846000  0.16530000  1.0 0.0216059051
C  C103  1  0.69927000  0.03607000  0.16920000  1.0 -0.1499200006
C  C104  1  0.75271000  0.03371000  0.23640000  1.0 0.2360295058
C  C105  1  0.66220000  0.86330000  0.18270000  1.0 0.2093798045
C  C106  1  0.71770000  0.96930000  0.34240000  1.0 0.1669727863
C  C107  1  0.71947000  0.97167000  0.30720000  1.0 0.0287045666
C  C108  1  0.68507000  0.90557000  0.20810000  1.0 0.0287045666
C  C109  1  0.67807000  0.89087000  0.15360000  1.0 -0.0980373657
C  C110  1  0.70537000  0.94207000  0.19790000  1.0 0.0216059051
C  C111  1  0.73988000  0.00808000  0.29700000  1.0 0.0216059051
C  C112  1  0.74688000  0.02288000  0.35160000  1.0 -0.0402998204
C  C113  1  0.76400000  0.05330000  0.32770000  1.0 0.2093798045
C  C114  1  0.70680000  0.94280000  0.16280000  1.0 0.2093798045
C  C115  1  0.69530000  0.04320000  0.25270000  1.0 0.2093798045
C  C116  1  0.77660000  0.95170000  0.23850000  1.0 0.2224787065
C  C117  1  0.72990000  0.87430000  0.25820000  1.0 0.2093798045
C  C118  1  0.65400000  0.95850000  0.27070000  1.0 0.1577768476
C  C119  1  0.68170000  0.96580000  0.26450000  1.0 0.0287045666
C  C120  1  0.72960000  0.91230000  0.25710000  1.0 0.0216059051
C  C121  1  0.76370000  0.90390000  0.24680000  1.0 -0.1060583424
C  C122  1  0.74760000  0.94930000  0.24570000  1.0 0.0287045666
C  C123  1  0.70020000  0.00270000  0.25330000  1.0 0.0094778002
C  C124  1  0.66730000  0.00920000  0.26310000  1.0 -0.0505823021
C  C125  1  0.26397000  0.46837000  0.62880000  1.0 -0.0019564825
C  C126  1  0.30681000  0.59601000  0.79100000  1.0 -0.0088091864
C  C127  1  0.13852000  0.86472000  0.79840000  1.0 -0.0980373657
C  C128  1  0.20632000  0.86512000  0.84320000  1.0 0.0287045666
C  C129  1  0.29306000  0.53566000  0.70240000  1.0 -0.0704187101
C  C130  1  0.29172000  0.58242000  0.80150000  1.0 -0.1499200006
C  C131  1  0.33400000  0.66950000  0.86630000  1.0 0.5814984292
C  C132  1  0.24969000  0.45389000  0.63780000  1.0 -0.1198821086
C  C133  1  0.24809000  0.40499000  0.53330000  1.0 0.6083216784
C  C134  1  0.01521000  0.88141000  0.69880000  1.0 0.6083216784
C  C135  1  0.21706000  0.88106000  0.83240000  1.0 -0.1377324461
C  C136  1  0.10172000  0.89482000  0.73510000  1.0 -0.1499200006
C  C137  1  0.08699000  0.88029000  0.74510000  1.0 0.0094778002
C  C138  1  0.26325000  0.84825000  0.90220000  1.0 0.5503504724
C  C139  1  0.26101000  0.51471000  0.72550000  1.0 0.2093798045
C  C140  1  0.16715000  0.89805000  0.78250000  1.0 0.1874085889
C  C141  1  0.20500000  0.53730000  0.75330000  1.0 0.4274793715
C  C142  1  0.27165000  0.43865000  0.72220000  1.0 0.4199225158
C  C143  1  0.08300000  0.24950000  0.63450000  1.0 0.5814984292
C  C144  1  0.25064000  0.40064000  0.73480000  1.0 -0.0578712304
C  C145  1  0.24414000  0.44464000  0.73850000  1.0 -0.0704187101
C  C146  1  0.20224000  0.50384000  0.75560000  1.0 -0.0578712304
C  C147  1  0.16675000  0.51915000  0.76900000  1.0 -0.0578712304
C  C148  1  0.17326000  0.47516000  0.76530000  1.0 -0.0402998204
C  C149  1  0.21516000  0.41596000  0.74820000  1.0 -0.0505823021
C  C150  1  0.14113000  0.47273000  0.77080000  1.0 0.4514906109
C  C151  1  0.15478000  0.07758000  0.60900000  1.0 0.5114254356
C  C152  1  0.16840000  0.46180000  0.86360000  1.0 -0.1305510103
C  C153  1  0.15288000  0.45118000  0.87610000  1.0 0.0094778002
C  C154  1  0.12157000  0.38357000  0.80080000  1.0 -0.0704187101
C  C155  1  0.10576000  0.32646000  0.71290000  1.0 -0.031344749
C  C156  1  0.12128000  0.33708000  0.70040000  1.0 -0.1499200006
C  C157  1  0.15259000  0.40469000  0.77570000  1.0 0.2093798045
C  C158  1  0.39900000  0.03750000  0.80070000  1.0 0.5743837059
C  C159  1  0.21178000  0.37518000  0.74340000  1.0 0.4428481013
C  C160  1  0.16850000  0.51560000  0.97270000  1.0 0.6083216784
C  C161  1  0.31853000  0.01903000  0.76490000  1.0 -0.1305510103
C  C162  1  0.33105000  0.03545000  0.75520000  1.0 -0.0578712304
C  C163  1  0.27771000  0.04911000  0.69940000  1.0 -0.0864687934
C  C164  1  0.21176000  0.04646000  0.65330000  1.0 0.0216059051
C  C165  1  0.19927000  0.03007000  0.66320000  1.0 -0.1499200006
C  C166  1  0.25271000  0.01631000  0.71900000  1.0 0.2360295058
C  C167  1  0.16220000  0.97950000  0.79890000  1.0 0.2093798045
C  C168  1  0.21770000  0.87530000  0.74840000  1.0 0.1669727863
C  C169  1  0.21947000  0.91227000  0.74780000  1.0 0.0287045666
C  C170  1  0.18507000  0.97697000  0.77950000  1.0 0.0287045666
C  C171  1  0.17807000  0.02447000  0.78720000  1.0 -0.0980373657
C  C172  1  0.20537000  0.00747000  0.76330000  1.0 0.0216059051
C  C173  1  0.23988000  0.94288000  0.73180000  1.0 0.0216059051
C  C174  1  0.24688000  0.89528000  0.72400000  1.0 -0.0505823021
C  C175  1  0.26400000  0.93630000  0.71070000  1.0 0.2093798045
C  C176  1  0.20680000  0.04400000  0.76400000  1.0 0.2093798045
C  C177  1  0.19530000  0.94260000  0.65210000  1.0 0.2093798045
C  C178  1  0.27660000  0.03810000  0.82490000  1.0 0.2224787065
C  C179  1  0.22990000  0.97170000  0.85560000  1.0 0.2093798045
C  C180  1  0.15400000  0.88330000  0.69550000  1.0 0.1577768476
C  C181  1  0.18170000  0.91720000  0.71590000  1.0 0.0287045666
C  C182  1  0.22960000  0.97250000  0.81730000  1.0 0.0216059051
C  C183  1  0.26370000  0.01690000  0.85980000  1.0 -0.1060583424
C  C184  1  0.24760000  0.00190000  0.79830000  1.0 0.0287045666
C  C185  1  0.20020000  0.94690000  0.69750000  1.0 0.0094778002
C  C186  1  0.16730000  0.90420000  0.65810000  1.0 -0.0505823021
C  C187  1  0.83957000  0.63517000  0.37120000  1.0 -0.0019564825
C  C188  1  0.80501000  0.51581000  0.20900000  1.0 -0.0088091864
C  C189  1  0.06632000  0.34012000  0.20160000  1.0 -0.0980373657
C  C190  1  0.02192000  0.36312000  0.15680000  1.0 0.0287045666
C  C191  1  0.83326000  0.59066000  0.29760000  1.0 -0.0704187101
C  C192  1  0.78092000  0.49022000  0.19850000  1.0 -0.1499200006
C  C193  1  0.80320000  0.46770000  0.13370000  1.0 0.5814984292
C  C194  1  0.81609000  0.61189000  0.36220000  1.0 -0.1198821086
C  C195  1  0.87169000  0.71479000  0.46670000  1.0 0.6083216784
C  C196  1  0.18261000  0.31641000  0.30120000  1.0 0.6083216784
C  C197  1  0.04866000  0.38466000  0.16760000  1.0 -0.1377324461
C  C198  1  0.15972000  0.36662000  0.26490000  1.0 -0.1499200006
C  C199  1  0.13519000  0.34189000  0.25490000  1.0 0.0094778002
C  C200  1  0.94605000  0.36105000  0.09780000  1.0 0.5503504724
C  C201  1  0.78921000  0.53551000  0.27450000  1.0 0.2093798045
C  C202  1  0.11555000  0.38465000  0.21750000  1.0 0.1874085889
C  C203  1  0.78400000  0.45170000  0.24670000  1.0 0.4274793715
C  C204  1  0.71645000  0.54945000  0.27780000  1.0 0.4199225158
C  C205  1  0.61500000  0.44850000  0.36550000  1.0 0.5814984292
C  C206  1  0.66584000  0.51584000  0.26520000  1.0 -0.0578712304
C  C207  1  0.70614000  0.50564000  0.26150000  1.0 -0.0704187101
C  C208  1  0.74824000  0.44664000  0.24440000  1.0 -0.0578712304
C  C209  1  0.75015000  0.39775000  0.23100000  1.0 -0.0578712304
C  C210  1  0.70986000  0.40796000  0.23470000  1.0 -0.0402998204
C  C211  1  0.66776000  0.46696000  0.25180000  1.0 -0.0505823021
C  C212  1  0.70193000  0.37033000  0.22920000  1.0 0.4514906109
C  C213  1  0.46858000  0.54578000  0.39100000  1.0 0.5114254356
C  C214  1  0.59820000  0.30480000  0.13640000  1.0 -0.1305510103
C  C215  1  0.57508000  0.27678000  0.12390000  1.0 0.0094778002
C  C216  1  0.58277000  0.32077000  0.19920000  1.0 -0.0704187101
C  C217  1  0.61356000  0.39286000  0.28710000  1.0 -0.031344749
C  C218  1  0.63668000  0.42088000  0.29960000  1.0 -0.1499200006
C  C219  1  0.62899000  0.37689000  0.22430000  1.0 0.2093798045
C  C220  1  0.23680000  0.59830000  0.19930000  1.0 0.5743837059
C  C221  1  0.63178000  0.46838000  0.25660000  1.0 0.4428481013
C  C222  1  0.54290000  0.19580000  0.02730000  1.0 0.6041322798
C  C223  1  0.25413000  0.55363000  0.23510000  1.0 -0.1305510103
C  C224  1  0.28025000  0.57585000  0.24480000  1.0 -0.0578712304
C  C225  1  0.34971000  0.57831000  0.30060000  1.0 -0.0864687934
C  C226  1  0.39316000  0.55846000  0.34670000  1.0 0.0216059051
C  C227  1  0.36687000  0.53607000  0.33680000  1.0 -0.1499200006
C  C228  1  0.29731000  0.53371000  0.28100000  1.0 0.2360295058
C  C229  1  0.18060000  0.36330000  0.20110000  1.0 0.2093798045
C  C230  1  0.12690000  0.46930000  0.25160000  1.0 0.1669727863
C  C231  1  0.16447000  0.47167000  0.25220000  1.0 0.0287045666
C  C232  1  0.19747000  0.40557000  0.22050000  1.0 0.0287045666
C  C233  1  0.23727000  0.39087000  0.21280000  1.0 -0.0980373657
C  C234  1  0.24417000  0.44207000  0.23670000  1.0 0.0216059051
C  C235  1  0.21108000  0.50808000  0.26820000  1.0 0.0216059051
C  C236  1  0.17128000  0.52288000  0.27600000  1.0 -0.0505823021
C  C237  1  0.22560000  0.55330000  0.28930000  1.0 0.2093798045
C  C238  1  0.28000000  0.44280000  0.23600000  1.0 0.2093798045
C  C239  1  0.29050000  0.54320000  0.34790000  1.0 0.2093798045
C  C240  1  0.21320000  0.45170000  0.17510000  1.0 0.2224787065
C  C241  1  0.11610000  0.37430000  0.14440000  1.0 0.2093798045
C  C242  1  0.18780000  0.45850000  0.30450000  1.0 0.1577768476
C  C243  1  0.20130000  0.46580000  0.28410000  1.0 0.0287045666
C  C244  1  0.15520000  0.41230000  0.18270000  1.0 0.0216059051
C  C245  1  0.15710000  0.40390000  0.14020000  1.0 -0.1060583424
C  C246  1  0.20360000  0.44930000  0.20170000  1.0 0.0287045666
C  C247  1  0.24940000  0.50270000  0.30250000  1.0 0.0094778002
C  C248  1  0.24610000  0.50920000  0.34190000  1.0 -0.0505823021
N  N1  1  0.26255000  0.00125000  0.25390000  1.0 -0.2095291241
N  N2  1  0.15360000  0.92090000  0.25290000  1.0 -0.2095291241
N  N3  1  0.63754000  0.41574000  0.73180000  1.0 -0.0704187101
N  N4  1  0.76659000  0.49939000  0.75720000  1.0 -0.1198821086
N  N5  1  0.74735000  0.00865000  0.74610000  1.0 -0.2095291241
N  N6  1  0.66800000  0.90070000  0.74710000  1.0 -0.2095291241
N  N7  1  0.68394000  0.90574000  0.26820000  1.0 -0.0704187101
N  N8  1  0.74219000  0.00939000  0.24280000  1.0 -0.1198821086
N  N9  1  0.24735000  0.50125000  0.73870000  1.0 -0.2095291241
N  N10  1  0.16800000  0.42090000  0.76730000  1.0 -0.2095291241
N  N11  1  0.18394000  0.91574000  0.77820000  1.0 -0.0704187101
N  N12  1  0.24219000  0.99939000  0.73280000  1.0 -0.1198821086
N  N13  1  0.76255000  0.50865000  0.26130000  1.0 -0.2095291241
N  N14  1  0.65360000  0.40070000  0.23270000  1.0 -0.2095291241
N  N15  1  0.13754000  0.40574000  0.22180000  1.0 -0.0704187101
N  N16  1  0.26659000  0.50939000  0.26720000  1.0 -0.1198821086
O  O1  1  0.27669000  0.22139000  0.37590000  1.0 -0.6120538934
O  O2  1  0.39085000  0.85485000  0.14660000  1.0 -0.5212541818
O  O3  1  0.32680000  0.18120000  0.33640000  1.0 -0.4926233142
O  O4  1  0.36949000  0.90609000  0.12340000  1.0 -0.5212541818
O  O5  1  0.65487000  0.37597000  0.86710000  1.0 -0.6120538934
O  O6  1  0.74357000  0.38587000  0.91550000  1.0 -0.5113881528
O  O7  1  0.13643000  0.69183000  0.11880000  1.0 -0.5993403941
O  O8  1  0.32324000  0.09654000  0.41850000  1.0 -0.4568699523
O  O9  1  0.18897000  0.89417000  0.08260000  1.0 -0.4298014417
O  O10  1  0.04493000  0.00993000  0.37960000  1.0 -0.6237030774
O  O11  1  0.22975000  0.02295000  0.41760000  1.0 -0.4298014417
O  O12  1  0.09749000  0.82669000  0.09180000  1.0 -0.3781178593
O  O13  1  0.67386000  0.52986000  0.58440000  1.0 -0.4926233142
O  O14  1  0.00966000  0.56346000  0.97140000  1.0 -0.4926233142
O  O15  1  0.08257000  0.73287000  0.15410000  1.0 -0.5262839943
O  O16  1  0.01529000  0.05649000  0.33880000  1.0 -0.5355727523
O  O17  1  0.75787000  0.54367000  0.63460000  1.0 -0.4926233142
O  O18  1  0.98678000  0.59058000  0.92400000  1.0 -0.4107946604
O  O19  1  0.42377000  0.33037000  0.57940000  1.0 -0.5113881528
O  O20  1  0.40963000  0.35403000  0.53260000  1.0 -0.5113881528
O  O21  1  0.70001000  0.52771000  0.89730000  1.0 -0.3587692156
O  O22  1  0.59380000  0.31780000  0.57380000  1.0 -0.3587692156
O  O23  1  0.70007000  0.38257000  0.58490000  1.0 -0.3687586138
O  O24  1  0.81751000  0.60271000  0.91940000  1.0 -0.3687586138
O  O25  1  0.68520000  0.58940000  0.76980000  1.0 -0.3587692156
O  O26  1  0.57170000  0.51490000  0.74780000  1.0 -0.3687586138
O  O27  1  0.72140000  0.33358000  0.72118000  1.0 -0.3422631174
O  O28  1  0.83530000  0.40370000  0.74080000  1.0 -0.3587692156
O  O29  1  0.84549000  0.90079000  0.62410000  1.0 -0.6120538934
O  O30  1  0.70825000  0.24425000  0.85340000  1.0 -0.5212541818
O  O31  1  0.84480000  0.99040000  0.66360000  1.0 -0.4956065267
O  O32  1  0.78269000  0.24609000  0.87660000  1.0 -0.5212541818
O  O33  1  0.50887000  0.78777000  0.13290000  1.0 -0.6120538934
O  O34  1  0.47037000  0.82807000  0.08450000  1.0 -0.5113881528
O  O35  1  0.57303000  0.01763000  0.88120000  1.0 -0.5993403941
O  O36  1  0.67804000  0.90474000  0.58150000  1.0 -0.4568699523
O  O37  1  0.81157000  0.10637000  0.91740000  1.0 -0.4298014417
O  O38  1  0.63033000  0.66533000  0.62040000  1.0 -0.6237030774
O  O39  1  0.60535000  0.81215000  0.58240000  1.0 -0.4298014417
O  O40  1  0.73489000  0.00569000  0.90820000  1.0 -0.3781178593
O  O41  1  0.94546000  0.08946000  0.41560000  1.0 -0.4926233142
O  O42  1  0.59206000  0.03826000  0.02860000  1.0 -0.4926233142
O  O43  1  0.57877000  0.92847000  0.84590000  1.0 -0.5262839943
O  O44  1  0.71769000  0.67649000  0.66120000  1.0 -0.5355727523
O  O45  1  0.90907000  0.12327000  0.36540000  1.0 -0.4926233142
O  O46  1  0.66658000  0.06278000  0.07600000  1.0 -0.4107946604
O  O47  1  0.75097000  0.84437000  0.42060000  1.0 -0.5113881528
O  O48  1  0.82143000  0.87703000  0.46740000  1.0 -0.5113881528
O  O49  1  0.63041000  0.80271000  0.10270000  1.0 -0.3587692156
O  O50  1  0.74400000  0.02000000  0.42620000  1.0 -0.3587692156
O  O51  1  0.79767000  0.11517000  0.41510000  1.0 -0.3687586138
O  O52  1  0.68331000  0.89811000  0.08060000  1.0 -0.3687586138
O  O53  1  0.81960000  0.91540000  0.23020000  1.0 -0.3587692156
O  O54  1  0.76710000  0.82390000  0.25220000  1.0 -0.3687586138
O  O55  1  0.61240000  0.00022000  0.27882000  1.0 -0.3422631174
O  O56  1  0.66290000  0.09450000  0.25920000  1.0 -0.3587692156
O  O57  1  0.34549000  0.72139000  0.94470000  1.0 -0.6120538934
O  O58  1  0.20825000  0.35485000  0.46400000  1.0 -0.5212541818
O  O59  1  0.34480000  0.68120000  0.85440000  1.0 -0.4926233142
O  O60  1  0.28269000  0.40609000  0.53660000  1.0 -0.5212541818
O  O61  1  0.00887000  0.87597000  0.72110000  1.0 -0.6120538934
O  O62  1  0.97037000  0.88587000  0.64230000  1.0 -0.5113881528
O  O63  1  0.07303000  0.19183000  0.55540000  1.0 -0.5993403941
O  O64  1  0.17804000  0.59654000  0.77330000  1.0 -0.4568699523
O  O65  1  0.31157000  0.39417000  0.70520000  1.0 -0.4298014417
O  O66  1  0.13033000  0.50993000  0.96500000  1.0 -0.6237030774
O  O67  1  0.10535000  0.52295000  0.79320000  1.0 -0.4298014417
O  O68  1  0.23489000  0.32669000  0.72920000  1.0 -0.3781178593
O  O69  1  0.44546000  0.02986000  0.85600000  1.0 -0.4926233142
O  O70  1  0.09206000  0.06346000  0.55380000  1.0 -0.4926233142
O  O71  1  0.07877000  0.23287000  0.65030000  1.0 -0.5262839943
O  O72  1  0.21769000  0.55649000  0.04120000  1.0 -0.5355727523
O  O73  1  0.40907000  0.04367000  0.78580000  1.0 -0.4926233142
O  O74  1  0.16658000  0.09058000  0.60380000  1.0 -0.4107946604
O  O75  1  0.25097000  0.83037000  0.90660000  1.0 -0.5113881528
O  O76  1  0.32143000  0.85403000  0.94440000  1.0 -0.5113881528
O  O77  1  0.13041000  0.02771000  0.82770000  1.0 -0.3587692156
O  O78  1  0.24400000  0.81780000  0.72400000  1.0 -0.3587692156
O  O79  1  0.29767000  0.88257000  0.68250000  1.0 -0.3687586138
O  O80  1  0.18331000  0.10271000  0.78520000  1.0 -0.3687586138
O  O81  1  0.31960000  0.08940000  0.90420000  1.0 -0.3587692156
O  O82  1  0.26710000  0.01490000  0.94320000  1.0 -0.3687586138
O  O83  1  0.11240000  0.83358000  0.61218000  1.0 -0.3422631174
O  O84  1  0.16290000  0.90370000  0.56840000  1.0 -0.3587692156
O  O85  1  0.77669000  0.40079000  0.05530000  1.0 -0.6120538934
O  O86  1  0.89085000  0.74425000  0.53600000  1.0 -0.5212541818
O  O87  1  0.82680000  0.49040000  0.14560000  1.0 -0.4956065267
O  O88  1  0.86949000  0.74609000  0.46340000  1.0 -0.5212541818
O  O89  1  0.15487000  0.28777000  0.27890000  1.0 -0.6120538934
O  O90  1  0.24357000  0.32807000  0.35770000  1.0 -0.5113881528
O  O91  1  0.63643000  0.51763000  0.44460000  1.0 -0.5993403941
O  O92  1  0.82324000  0.40474000  0.22670000  1.0 -0.4568699523
O  O93  1  0.68897000  0.60637000  0.29480000  1.0 -0.4298014417
O  O94  1  0.54493000  0.16533000  0.03500000  1.0 -0.6237030774
O  O95  1  0.72975000  0.31215000  0.20680000  1.0 -0.4298014417
O  O96  1  0.59749000  0.50569000  0.27080000  1.0 -0.3781178593
O  O97  1  0.17386000  0.58946000  0.14400000  1.0 -0.4926233142
O  O98  1  0.50966000  0.53826000  0.44620000  1.0 -0.4926233142
O  O99  1  0.58257000  0.42847000  0.34970000  1.0 -0.5262839943
O  O100  1  0.51529000  0.17649000  0.95880000  1.0 -0.5355727523
O  O101  1  0.25787000  0.62327000  0.21420000  1.0 -0.4926233142
O  O102  1  0.48678000  0.56278000  0.39620000  1.0 -0.4107946604
O  O103  1  0.92377000  0.34437000  0.09340000  1.0 -0.5113881528
O  O104  1  0.90963000  0.37703000  0.05560000  1.0 -0.5113881528
O  O105  1  0.20001000  0.30271000  0.17230000  1.0 -0.3587692156
O  O106  1  0.09380000  0.52000000  0.27600000  1.0 -0.3587692156
O  O107  1  0.20007000  0.61517000  0.31750000  1.0 -0.3687586138
O  O108  1  0.31751000  0.39811000  0.21480000  1.0 -0.3687586138
O  O109  1  0.18520000  0.41540000  0.09580000  1.0 -0.3587692156
O  O110  1  0.07170000  0.32390000  0.05680000  1.0 -0.3687586138
O  O111  1  0.22140000  0.50022000  0.38782000  1.0 -0.3422631174
O  O112  1  0.33530000  0.59450000  0.43160000  1.0 -0.3587692156
