# DDEC6 charges by PACMAN v1.1 (https://github.com/mtap-research/PACMAN-charge/)
data_LESLON_ASR_pacman
_symmetry_space_group_name_H-M   'P 1'
_cell_length_a   23.93480000
_cell_length_b   23.93480000
_cell_length_c   17.90790000
_cell_angle_alpha   86.01620000
_cell_angle_beta   93.98380000
_cell_angle_gamma   156.93300000
_symmetry_Int_Tables_number   1
_chemical_formula_structural   Co3H28C62(N3O10)2
_chemical_formula_sum   'Co6 H56 C124 N12 O40'
_cell_volume   4009.42651249
_cell_formula_units_Z   2
loop_
 _symmetry_equiv_pos_site_id
 _symmetry_equiv_pos_as_xyz
  1  'x, y, z'
loop_
 _atom_site_type_symbol
 _atom_site_label
 _atom_site_symmetry_multiplicity
 _atom_site_fract_x
 _atom_site_fract_y
 _atom_site_fract_z
 _atom_site_occupancy
 _atom_site_charge
Co  Co1  1  0.14668000  0.49758000  0.51302000  1.0 0.8895627993
Co  Co2  1  0.49758000  0.14668000  0.98698000  1.0 0.8895627993
Co  Co3  1  0.85332000  0.50242000  0.48698000  1.0 0.8895627993
Co  Co4  1  0.50242000  0.85332000  0.01302000  1.0 0.8895627993
Co  Co5  1  0.00000000  0.50000000  0.50000000  1.0 1.1004698414
Co  Co6  1  0.50000000  0.00000000  0.00000000  1.0 1.1004698414
H  H1  1  0.65341000  0.39829000  0.00643000  1.0 0.1208829097
H  H2  1  0.63667000  0.46391000  0.06824000  1.0 0.1389212373
H  H3  1  0.53440000  0.96306000  0.41491000  1.0 0.1298382919
H  H4  1  0.73318000  0.22260000  0.65428000  1.0 0.1298382919
H  H5  1  0.22940000  0.04812000  0.11625000  1.0 0.1298382919
H  H6  1  0.30466000  0.81486000  0.58101000  1.0 0.1298382919
H  H7  1  0.61056000  0.10512000  0.76817000  1.0 0.1298382919
H  H8  1  0.25821000  0.99427000  0.05183000  1.0 0.1208829097
H  H9  1  0.78255000  0.11271000  0.82502000  1.0 0.1208829097
H  H10  1  0.89706000  0.21986000  0.71060000  1.0 0.1298382919
H  H11  1  0.43117000  0.54529000  0.14163000  1.0 0.1389212373
H  H12  1  0.46469000  0.49865000  0.07100000  1.0 0.1298382919
H  H13  1  0.25645000  0.14291000  0.34987000  1.0 0.1208829097
H  H14  1  0.22292000  0.18956000  0.42050000  1.0 0.1208829097
H  H15  1  0.39829000  0.65341000  0.49357000  1.0 0.1208829097
H  H16  1  0.46391000  0.63667000  0.43176000  1.0 0.1389212373
H  H17  1  0.96306000  0.53440000  0.08509000  1.0 0.1298382919
H  H18  1  0.22260000  0.73318000  0.84572000  1.0 0.1298382919
H  H19  1  0.04812000  0.22940000  0.38375000  1.0 0.1298382919
H  H20  1  0.81486000  0.30466000  0.91899000  1.0 0.1298382919
H  H21  1  0.10512000  0.61056000  0.73183000  1.0 0.1298382919
H  H22  1  0.99427000  0.25821000  0.44817000  1.0 0.1208829097
H  H23  1  0.11271000  0.78255000  0.67498000  1.0 0.1208829097
H  H24  1  0.21986000  0.89706000  0.78940000  1.0 0.1298382919
H  H25  1  0.54529000  0.43117000  0.35837000  1.0 0.1389212373
H  H26  1  0.49865000  0.46469000  0.42900000  1.0 0.1298382919
H  H27  1  0.14291000  0.25645000  0.15013000  1.0 0.1208829097
H  H28  1  0.18956000  0.22292000  0.07950000  1.0 0.1208829097
H  H29  1  0.34659000  0.60171000  0.99357000  1.0 0.1208829097
H  H30  1  0.36333000  0.53609000  0.93176000  1.0 0.1389212373
H  H31  1  0.46560000  0.03694000  0.58509000  1.0 0.1298382919
H  H32  1  0.26682000  0.77740000  0.34572000  1.0 0.1298382919
H  H33  1  0.77060000  0.95188000  0.88375000  1.0 0.1298382919
H  H34  1  0.69534000  0.18514000  0.41899000  1.0 0.1298382919
H  H35  1  0.38944000  0.89488000  0.23183000  1.0 0.1298382919
H  H36  1  0.74179000  0.00573000  0.94817000  1.0 0.1208829097
H  H37  1  0.21745000  0.88729000  0.17498000  1.0 0.1208829097
H  H38  1  0.10294000  0.78014000  0.28940000  1.0 0.1298382919
H  H39  1  0.56883000  0.45471000  0.85837000  1.0 0.1389212373
H  H40  1  0.53531000  0.50135000  0.92900000  1.0 0.1298382919
H  H41  1  0.74355000  0.85709000  0.65013000  1.0 0.1208829097
H  H42  1  0.77708000  0.81044000  0.57950000  1.0 0.1208829097
H  H43  1  0.60171000  0.34659000  0.50643000  1.0 0.1208829097
H  H44  1  0.53609000  0.36333000  0.56824000  1.0 0.1389212373
H  H45  1  0.03694000  0.46560000  0.91491000  1.0 0.1298382919
H  H46  1  0.77740000  0.26682000  0.15428000  1.0 0.1298382919
H  H47  1  0.95188000  0.77060000  0.61625000  1.0 0.1298382919
H  H48  1  0.18514000  0.69534000  0.08101000  1.0 0.1298382919
H  H49  1  0.89488000  0.38944000  0.26817000  1.0 0.1298382919
H  H50  1  0.00573000  0.74179000  0.55183000  1.0 0.1208829097
H  H51  1  0.88729000  0.21745000  0.32502000  1.0 0.1208829097
H  H52  1  0.78014000  0.10294000  0.21060000  1.0 0.1298382919
H  H53  1  0.45471000  0.56883000  0.64163000  1.0 0.1389212373
H  H54  1  0.50135000  0.53531000  0.57100000  1.0 0.1298382919
H  H55  1  0.85709000  0.74355000  0.84987000  1.0 0.1208829097
H  H56  1  0.81044000  0.77708000  0.92050000  1.0 0.1208829097
C  C1  1  0.56550000  0.32570000  0.02900000  1.0 0.1083120319
C  C2  1  0.30513000  0.72787000  0.49760000  1.0 0.5788797277
C  C3  1  0.90150000  0.30290000  0.59630000  1.0 0.6076998251
C  C4  1  0.55730000  0.36630000  0.06600000  1.0 -0.2037720618
C  C5  1  0.40699000  0.86961000  0.49830000  1.0 0.0029888636
C  C6  1  0.82272000  0.22688000  0.67070000  1.0 0.0029888636
C  C7  1  0.43350000  0.26410000  0.09900000  1.0 0.2582880172
C  C8  1  0.52136000  0.97884000  0.44960000  1.0 -0.1088616055
C  C9  1  0.74075000  0.19725000  0.68810000  1.0 -0.0880559285
C  C10  1  0.31790000  0.12170000  0.09390000  1.0 -0.2316428226
C  C11  1  0.38417000  0.89023000  0.54870000  1.0 -0.0880559285
C  C12  1  0.66940000  0.12880000  0.75670000  1.0 -0.1009621133
C  C13  1  0.33610000  0.09110000  0.05530000  1.0 0.1083120319
C  C14  1  0.68192000  0.09548000  0.80720000  1.0 -0.0113477244
C  C15  1  0.76980000  0.13220000  0.78980000  1.0 -0.1088616055
C  C16  1  0.83846000  0.19654000  0.72190000  1.0 -0.1009621133
C  C17  1  0.60482000  0.02258000  0.88110000  1.0 0.6041348266
C  C18  1  0.33820000  0.46700000  0.27920000  1.0 0.2713459569
C  C19  1  0.36230000  0.43770000  0.23570000  1.0 0.0204720951
C  C20  1  0.41150000  0.49050000  0.16280000  1.0 -0.1738273513
C  C21  1  0.43130000  0.46270000  0.12080000  1.0 -0.1382145111
C  C22  1  0.40290000  0.38310000  0.15180000  1.0 0.0204720951
C  C23  1  0.33380000  0.35800000  0.26670000  1.0 0.0506807954
C  C24  1  0.42920000  0.36080000  0.10640000  1.0 0.2453017596
C  C25  1  0.33320000  0.20880000  0.21080000  1.0 0.1902288112
C  C26  1  0.32540000  0.25060000  0.25580000  1.0 0.0029888636
C  C27  1  0.27620000  0.19780000  0.32870000  1.0 -0.1382145111
C  C28  1  0.25640000  0.22560000  0.37070000  1.0 -0.1088616055
C  C29  1  0.25370000  0.32630000  0.38590000  1.0 0.2254265461
C  C30  1  0.28480000  0.30520000  0.33970000  1.0 0.0029888636
C  C31  1  0.35380000  0.33020000  0.22480000  1.0 0.0506807954
C  C32  1  0.32570000  0.56550000  0.47100000  1.0 0.1083120319
C  C33  1  0.72787000  0.30513000  0.00240000  1.0 0.5788797277
C  C34  1  0.30290000  0.90150000  0.90370000  1.0 0.6076998251
C  C35  1  0.36630000  0.55730000  0.43400000  1.0 -0.2037720618
C  C36  1  0.86961000  0.40699000  0.00170000  1.0 0.0029888636
C  C37  1  0.22688000  0.82272000  0.82930000  1.0 0.0029888636
C  C38  1  0.26410000  0.43350000  0.40100000  1.0 0.2582880172
C  C39  1  0.97884000  0.52136000  0.05040000  1.0 -0.1009621133
C  C40  1  0.19725000  0.74075000  0.81190000  1.0 -0.0880559285
C  C41  1  0.12170000  0.31790000  0.40610000  1.0 -0.2402873051
C  C42  1  0.89023000  0.38417000  0.95130000  1.0 -0.0880559285
C  C43  1  0.12880000  0.66940000  0.74330000  1.0 -0.1009621133
C  C44  1  0.09110000  0.33610000  0.44470000  1.0 0.1083120319
C  C45  1  0.09548000  0.68192000  0.69280000  1.0 -0.0113477244
C  C46  1  0.13220000  0.76980000  0.71020000  1.0 -0.1088616055
C  C47  1  0.19654000  0.83846000  0.77810000  1.0 -0.1009621133
C  C48  1  0.02258000  0.60482000  0.61890000  1.0 0.6041348266
C  C49  1  0.46700000  0.33820000  0.22080000  1.0 0.2713459569
C  C50  1  0.43770000  0.36230000  0.26430000  1.0 0.0204720951
C  C51  1  0.49050000  0.41150000  0.33720000  1.0 -0.1738273513
C  C52  1  0.46270000  0.43130000  0.37920000  1.0 -0.1382145111
C  C53  1  0.38310000  0.40290000  0.34820000  1.0 0.0204720951
C  C54  1  0.35800000  0.33380000  0.23330000  1.0 0.0506807954
C  C55  1  0.36080000  0.42920000  0.39360000  1.0 0.2453017596
C  C56  1  0.20880000  0.33320000  0.28920000  1.0 0.1902288112
C  C57  1  0.25060000  0.32540000  0.24420000  1.0 0.0029888636
C  C58  1  0.19780000  0.27620000  0.17130000  1.0 -0.1382145111
C  C59  1  0.22560000  0.25640000  0.12930000  1.0 -0.1088616055
C  C60  1  0.32630000  0.25370000  0.11410000  1.0 0.2254265461
C  C61  1  0.30520000  0.28480000  0.16030000  1.0 0.0029888636
C  C62  1  0.33020000  0.35380000  0.27520000  1.0 0.0506807954
C  C63  1  0.43450000  0.67430000  0.97100000  1.0 0.1083120319
C  C64  1  0.69487000  0.27213000  0.50240000  1.0 0.5788797277
C  C65  1  0.09850000  0.69710000  0.40370000  1.0 0.6076998251
C  C66  1  0.44270000  0.63370000  0.93400000  1.0 -0.2037720618
C  C67  1  0.59301000  0.13039000  0.50170000  1.0 0.0029888636
C  C68  1  0.17728000  0.77312000  0.32930000  1.0 0.0029888636
C  C69  1  0.56650000  0.73590000  0.90100000  1.0 0.2582880172
C  C70  1  0.47864000  0.02116000  0.55040000  1.0 -0.1088616055
C  C71  1  0.25925000  0.80275000  0.31190000  1.0 -0.0880559285
C  C72  1  0.68210000  0.87830000  0.90610000  1.0 -0.2402873051
C  C73  1  0.61583000  0.10977000  0.45130000  1.0 -0.0880559285
C  C74  1  0.33060000  0.87120000  0.24330000  1.0 -0.1009621133
C  C75  1  0.66390000  0.90890000  0.94470000  1.0 0.1083120319
C  C76  1  0.31808000  0.90452000  0.19280000  1.0 -0.0113477244
C  C77  1  0.23020000  0.86780000  0.21020000  1.0 -0.1088616055
C  C78  1  0.16154000  0.80346000  0.27810000  1.0 -0.1009621133
C  C79  1  0.39518000  0.97742000  0.11890000  1.0 0.6041348266
C  C80  1  0.66180000  0.53300000  0.72080000  1.0 0.2713459569
C  C81  1  0.63770000  0.56230000  0.76430000  1.0 0.0204720951
C  C82  1  0.58850000  0.50950000  0.83720000  1.0 -0.1738273513
C  C83  1  0.56870000  0.53730000  0.87920000  1.0 -0.1382145111
C  C84  1  0.59710000  0.61690000  0.84820000  1.0 0.0204720951
C  C85  1  0.66620000  0.64200000  0.73330000  1.0 0.0506807954
C  C86  1  0.57080000  0.63920000  0.89360000  1.0 0.2453017596
C  C87  1  0.66680000  0.79120000  0.78920000  1.0 0.1902288112
C  C88  1  0.67460000  0.74940000  0.74420000  1.0 0.0029888636
C  C89  1  0.72380000  0.80220000  0.67130000  1.0 -0.1382145111
C  C90  1  0.74360000  0.77440000  0.62930000  1.0 -0.1088616055
C  C91  1  0.74630000  0.67370000  0.61410000  1.0 0.2254265461
C  C92  1  0.71520000  0.69480000  0.66030000  1.0 0.0029888636
C  C93  1  0.64620000  0.66980000  0.77520000  1.0 0.0506807954
C  C94  1  0.67430000  0.43450000  0.52900000  1.0 0.1083120319
C  C95  1  0.27213000  0.69487000  0.99760000  1.0 0.5788797277
C  C96  1  0.69710000  0.09850000  0.09630000  1.0 0.6076998251
C  C97  1  0.63370000  0.44270000  0.56600000  1.0 -0.2037720618
C  C98  1  0.13039000  0.59301000  0.99830000  1.0 0.0029888636
C  C99  1  0.77312000  0.17728000  0.17070000  1.0 0.0029888636
C  C100  1  0.73590000  0.56650000  0.59900000  1.0 0.2582880172
C  C101  1  0.02116000  0.47864000  0.94960000  1.0 -0.1009621133
C  C102  1  0.80275000  0.25925000  0.18810000  1.0 -0.0880559285
C  C103  1  0.87830000  0.68210000  0.59390000  1.0 -0.2402873051
C  C104  1  0.10977000  0.61583000  0.04870000  1.0 -0.0880559285
C  C105  1  0.87120000  0.33060000  0.25670000  1.0 -0.1009621133
C  C106  1  0.90890000  0.66390000  0.55530000  1.0 0.1083120319
C  C107  1  0.90452000  0.31808000  0.30720000  1.0 -0.0113477244
C  C108  1  0.86780000  0.23020000  0.28980000  1.0 -0.1088616055
C  C109  1  0.80346000  0.16154000  0.22190000  1.0 -0.1009621133
C  C110  1  0.97742000  0.39518000  0.38110000  1.0 0.6041348266
C  C111  1  0.53300000  0.66180000  0.77920000  1.0 0.2713459569
C  C112  1  0.56230000  0.63770000  0.73570000  1.0 0.0204720951
C  C113  1  0.50950000  0.58850000  0.66280000  1.0 -0.1738273513
C  C114  1  0.53730000  0.56870000  0.62080000  1.0 -0.1382145111
C  C115  1  0.61690000  0.59710000  0.65180000  1.0 0.0204720951
C  C116  1  0.64200000  0.66620000  0.76670000  1.0 0.0506807954
C  C117  1  0.63920000  0.57080000  0.60640000  1.0 0.2453017596
C  C118  1  0.79120000  0.66680000  0.71080000  1.0 0.1902288112
C  C119  1  0.74940000  0.67460000  0.75580000  1.0 0.0029888636
C  C120  1  0.80220000  0.72380000  0.82870000  1.0 -0.1382145111
C  C121  1  0.77440000  0.74360000  0.87070000  1.0 -0.1088616055
C  C122  1  0.67370000  0.74630000  0.88590000  1.0 0.2254265461
C  C123  1  0.69480000  0.71520000  0.83970000  1.0 0.0029888636
C  C124  1  0.66980000  0.64620000  0.72480000  1.0 0.0506807954
N  N1  1  0.45865000  0.19155000  0.02260000  1.0 -0.2402873051
N  N2  1  0.39610000  0.27790000  0.14000000  1.0 -0.1293429223
N  N3  1  0.28880000  0.41160000  0.35310000  1.0 -0.1507438135
N  N4  1  0.19155000  0.45865000  0.47740000  1.0 -0.2402873051
N  N5  1  0.27790000  0.39610000  0.36000000  1.0 -0.1293429223
N  N6  1  0.41160000  0.28880000  0.14690000  1.0 -0.1507438135
N  N7  1  0.54135000  0.80845000  0.97740000  1.0 -0.2402873051
N  N8  1  0.60390000  0.72210000  0.86000000  1.0 -0.1293429223
N  N9  1  0.71120000  0.58840000  0.64690000  1.0 -0.1507438135
N  N10  1  0.80845000  0.54135000  0.52260000  1.0 -0.2402873051
N  N11  1  0.72210000  0.60390000  0.64000000  1.0 -0.1293429223
N  N12  1  0.58840000  0.71120000  0.85310000  1.0 -0.1507438135
O  O1  1  0.18384000  0.61876000  0.52950000  1.0 -0.5942590994
O  O2  1  0.98297000  0.33643000  0.58550000  1.0 -0.557877892
O  O3  1  0.33954000  0.71526000  0.46730000  1.0 -0.53528534
O  O4  1  0.88257000  0.32763000  0.55330000  1.0 -0.5526962144
O  O5  1  0.60246000  0.97374000  0.91780000  1.0 -0.5526962144
O  O6  1  0.55071000  0.01809000  0.89780000  1.0 -0.557877892
O  O7  1  0.35610000  0.53190000  0.25300000  1.0 -0.3282218066
O  O8  1  0.44130000  0.37470000  0.03750000  1.0 -0.2646144194
O  O9  1  0.32370000  0.15230000  0.24150000  1.0 -0.2815423248
O  O10  1  0.22210000  0.29190000  0.45290000  1.0 -0.2316428226
O  O11  1  0.61876000  0.18384000  0.97050000  1.0 -0.5942590994
O  O12  1  0.33643000  0.98297000  0.91450000  1.0 -0.557877892
O  O13  1  0.71526000  0.33954000  0.03270000  1.0 -0.53528534
O  O14  1  0.32763000  0.88257000  0.94670000  1.0 -0.5526962144
O  O15  1  0.97374000  0.60246000  0.58220000  1.0 -0.5526962144
O  O16  1  0.01809000  0.55071000  0.60220000  1.0 -0.557877892
O  O17  1  0.53190000  0.35610000  0.24700000  1.0 -0.3282218066
O  O18  1  0.37470000  0.44130000  0.46250000  1.0 -0.2646144194
O  O19  1  0.15230000  0.32370000  0.25850000  1.0 -0.2815423248
O  O20  1  0.29190000  0.22210000  0.04710000  1.0 -0.2316428226
O  O21  1  0.81616000  0.38124000  0.47050000  1.0 -0.5942590994
O  O22  1  0.01703000  0.66357000  0.41450000  1.0 -0.557877892
O  O23  1  0.66046000  0.28474000  0.53270000  1.0 -0.53528534
O  O24  1  0.11743000  0.67237000  0.44670000  1.0 -0.5526962144
O  O25  1  0.39754000  0.02626000  0.08220000  1.0 -0.5526962144
O  O26  1  0.44929000  0.98191000  0.10220000  1.0 -0.557877892
O  O27  1  0.64390000  0.46810000  0.74700000  1.0 -0.3282218066
O  O28  1  0.55870000  0.62530000  0.96250000  1.0 -0.268318401
O  O29  1  0.67630000  0.84770000  0.75850000  1.0 -0.2815423248
O  O30  1  0.77790000  0.70810000  0.54710000  1.0 -0.2316428226
O  O31  1  0.38124000  0.81616000  0.02950000  1.0 -0.5942590994
O  O32  1  0.66357000  0.01703000  0.08550000  1.0 -0.557877892
O  O33  1  0.28474000  0.66046000  0.96730000  1.0 -0.53528534
O  O34  1  0.67237000  0.11743000  0.05330000  1.0 -0.5526962144
O  O35  1  0.02626000  0.39754000  0.41780000  1.0 -0.5526962144
O  O36  1  0.98191000  0.44929000  0.39780000  1.0 -0.557877892
O  O37  1  0.46810000  0.64390000  0.75300000  1.0 -0.3282218066
O  O38  1  0.62530000  0.55870000  0.53750000  1.0 -0.268318401
O  O39  1  0.84770000  0.67630000  0.74150000  1.0 -0.2815423248
O  O40  1  0.70810000  0.77790000  0.95290000  1.0 -0.2316428226
