# DDEC6 charges by PACMAN v1.1 (https://github.com/mtap-research/PACMAN-charge/)
data_LETNUX_ASR_pacman
_symmetry_space_group_name_H-M   'P 1'
_cell_length_a   12.62060000
_cell_length_b   12.62060000
_cell_length_c   28.50600000
_cell_angle_alpha   73.44210000
_cell_angle_beta   106.55800000
_cell_angle_gamma   112.98100000
_symmetry_Int_Tables_number   1
_chemical_formula_structural   U3P8H32(C25O12)2
_chemical_formula_sum   'U6 P16 H64 C100 O48'
_cell_volume   3928.32579331
_cell_formula_units_Z   2
loop_
 _symmetry_equiv_pos_site_id
 _symmetry_equiv_pos_as_xyz
  1  'x, y, z'
loop_
 _atom_site_type_symbol
 _atom_site_label
 _atom_site_symmetry_multiplicity
 _atom_site_fract_x
 _atom_site_fract_y
 _atom_site_fract_z
 _atom_site_occupancy
 _atom_site_charge
U  U1  1  0.54737000  0.24563000  0.46727000  1.0 2.2429742396
U  U2  1  0.24563000  0.54737000  0.03273000  1.0 2.2429742396
U  U3  1  0.45263000  0.75437000  0.53273000  1.0 2.2429742396
U  U4  1  0.75437000  0.45263000  0.96727000  1.0 2.2461042782
U  U5  1  0.65802000  0.65802000  0.75000000  1.0 1.9452817818
U  U6  1  0.34198000  0.34198000  0.25000000  1.0 1.9415877243
P  P1  1  0.54500000  0.02560000  0.57930000  1.0 1.3611204406
P  P2  1  0.82830000  0.86810000  0.65720000  1.0 1.3195809504
P  P3  1  0.44930000  0.61550000  0.94820000  1.0 1.2896728893
P  P4  1  0.53100000  0.42120000  0.85020000  1.0 1.3481552979
P  P5  1  0.02560000  0.54500000  0.92070000  1.0 1.3611204406
P  P6  1  0.86810000  0.82830000  0.84280000  1.0 1.3195809504
P  P7  1  0.61550000  0.44930000  0.55180000  1.0 1.2896728893
P  P8  1  0.42120000  0.53100000  0.64980000  1.0 1.3481552979
P  P9  1  0.45500000  0.97440000  0.42070000  1.0 1.3611204406
P  P10  1  0.17170000  0.13190000  0.34280000  1.0 1.3195809504
P  P11  1  0.55070000  0.38450000  0.05180000  1.0 1.2896728893
P  P12  1  0.46900000  0.57880000  0.14980000  1.0 1.3481552979
P  P13  1  0.97440000  0.45500000  0.07930000  1.0 1.3611204406
P  P14  1  0.13190000  0.17170000  0.15720000  1.0 1.3195809504
P  P15  1  0.38450000  0.55070000  0.44820000  1.0 1.2896728893
P  P16  1  0.57880000  0.46900000  0.35020000  1.0 1.3481552979
H  H1  1  0.52050000  0.18078000  0.62584000  1.0 0.1472230149
H  H2  1  0.45121000  0.16665000  0.69480000  1.0 0.1405845483
H  H3  1  0.36778000  0.82092000  0.72118000  1.0 0.1213158393
H  H4  1  0.44234000  0.83820000  0.65368000  1.0 0.1405845483
H  H5  1  0.03112000  0.06210000  0.66014000  1.0 0.1405845483
H  H6  1  0.22189000  0.10599000  0.69706000  1.0 0.1213158393
H  H7  1  0.16087000  0.77377000  0.76604000  1.0 0.1290832754
H  H8  1  0.96746000  0.73464000  0.72632000  1.0 0.1290832754
H  H9  1  0.51330000  0.87144000  0.79071000  1.0 0.1213158393
H  H10  1  0.55024000  0.73548000  0.86156000  1.0 0.1551185143
H  H11  1  0.29219000  0.74177000  0.90995000  1.0 0.1405845483
H  H12  1  0.25270000  0.86668000  0.83973000  1.0 0.1472230149
H  H13  1  0.31129000  0.24521000  0.82853000  1.0 0.1405845483
H  H14  1  0.24133000  0.08355000  0.79270000  1.0 0.1213158393
H  H15  1  0.56403000  0.13023000  0.78509000  1.0 0.1290832754
H  H16  1  0.62736000  0.30054000  0.81437000  1.0 0.1290832754
H  H17  1  0.18078000  0.52050000  0.87416000  1.0 0.1472230149
H  H18  1  0.16665000  0.45121000  0.80520000  1.0 0.1405845483
H  H19  1  0.82092000  0.36778000  0.77882000  1.0 0.1213158393
H  H20  1  0.83820000  0.44234000  0.84632000  1.0 0.1405845483
H  H21  1  0.06210000  0.03112000  0.83986000  1.0 0.1405845483
H  H22  1  0.10599000  0.22189000  0.80294000  1.0 0.1213158393
H  H23  1  0.77377000  0.16087000  0.73396000  1.0 0.1290832754
H  H24  1  0.73464000  0.96746000  0.77368000  1.0 0.1290832754
H  H25  1  0.87144000  0.51330000  0.70929000  1.0 0.1213158393
H  H26  1  0.73548000  0.55024000  0.63844000  1.0 0.1551185143
H  H27  1  0.74177000  0.29219000  0.59005000  1.0 0.1405845483
H  H28  1  0.86668000  0.25270000  0.66027000  1.0 0.1472230149
H  H29  1  0.24521000  0.31129000  0.67147000  1.0 0.1405845483
H  H30  1  0.08355000  0.24133000  0.70730000  1.0 0.1213158393
H  H31  1  0.13023000  0.56403000  0.71491000  1.0 0.1290832754
H  H32  1  0.30054000  0.62736000  0.68563000  1.0 0.1290832754
H  H33  1  0.47950000  0.81922000  0.37416000  1.0 0.1472230149
H  H34  1  0.54879000  0.83335000  0.30520000  1.0 0.1405845483
H  H35  1  0.63222000  0.17908000  0.27882000  1.0 0.1213158393
H  H36  1  0.55766000  0.16180000  0.34632000  1.0 0.1405845483
H  H37  1  0.96888000  0.93790000  0.33986000  1.0 0.1405845483
H  H38  1  0.77811000  0.89401000  0.30294000  1.0 0.1213158393
H  H39  1  0.83913000  0.22623000  0.23396000  1.0 0.1290832754
H  H40  1  0.03254000  0.26536000  0.27368000  1.0 0.1290832754
H  H41  1  0.48670000  0.12856000  0.20929000  1.0 0.1213158393
H  H42  1  0.44976000  0.26452000  0.13844000  1.0 0.1551185143
H  H43  1  0.70781000  0.25823000  0.09005000  1.0 0.1405845483
H  H44  1  0.74730000  0.13332000  0.16027000  1.0 0.1472230149
H  H45  1  0.68871000  0.75479000  0.17147000  1.0 0.1405845483
H  H46  1  0.75867000  0.91645000  0.20730000  1.0 0.1213158393
H  H47  1  0.43597000  0.86977000  0.21491000  1.0 0.1290832754
H  H48  1  0.37264000  0.69946000  0.18563000  1.0 0.1290832754
H  H49  1  0.81922000  0.47950000  0.12584000  1.0 0.1472230149
H  H50  1  0.83335000  0.54879000  0.19480000  1.0 0.1405845483
H  H51  1  0.17908000  0.63222000  0.22118000  1.0 0.1213158393
H  H52  1  0.16180000  0.55766000  0.15368000  1.0 0.1405845483
H  H53  1  0.93790000  0.96888000  0.16014000  1.0 0.1405845483
H  H54  1  0.89401000  0.77811000  0.19706000  1.0 0.1213158393
H  H55  1  0.22623000  0.83913000  0.26604000  1.0 0.1290832754
H  H56  1  0.26536000  0.03254000  0.22632000  1.0 0.1290832754
H  H57  1  0.12856000  0.48670000  0.29071000  1.0 0.1213158393
H  H58  1  0.26452000  0.44976000  0.36156000  1.0 0.1551185143
H  H59  1  0.25823000  0.70781000  0.40995000  1.0 0.1405845483
H  H60  1  0.13332000  0.74730000  0.33973000  1.0 0.1472230149
H  H61  1  0.75479000  0.68871000  0.32853000  1.0 0.1405845483
H  H62  1  0.91645000  0.75867000  0.29270000  1.0 0.1213158393
H  H63  1  0.86977000  0.43597000  0.28509000  1.0 0.1290832754
H  H64  1  0.69946000  0.37264000  0.31437000  1.0 0.1290832754
C  C1  1  0.48650000  0.00950000  0.63160000  1.0 -0.1593821664
C  C2  1  0.48930000  0.10670000  0.64510000  1.0 -0.0467518824
C  C3  1  0.44860000  0.09940000  0.68680000  1.0 -0.1301464657
C  C4  1  0.40340000  0.99300000  0.71570000  1.0 0.0729037645
C  C5  1  0.39940000  0.89460000  0.70240000  1.0 -0.1414136091
C  C6  1  0.44280000  0.90520000  0.66120000  1.0 -0.0736086922
C  C7  1  0.97830000  0.89630000  0.68860000  1.0 -0.1593821664
C  C8  1  0.05630000  0.00210000  0.68170000  1.0 -0.0578906717
C  C9  1  0.17110000  0.02930000  0.70390000  1.0 -0.1301464657
C  C10  1  0.34700000  0.97760000  0.76000000  1.0 0.0214674329
C  C11  1  0.21280000  0.94500000  0.73650000  1.0 0.0729037645
C  C12  1  0.13570000  0.83390000  0.74450000  1.0 -0.1301464657
C  C13  1  0.01950000  0.81110000  0.72050000  1.0 -0.0796265178
C  C14  1  0.46600000  0.84400000  0.81440000  1.0 -0.1593821664
C  C15  1  0.48900000  0.76300000  0.85720000  1.0 -0.0420431117
C  C16  1  0.42280000  0.72320000  0.89270000  1.0 -0.1451209257
C  C17  1  0.33710000  0.76490000  0.88570000  1.0 -0.0578906717
C  C18  1  0.31500000  0.84100000  0.84360000  1.0 -0.1301464657
C  C19  1  0.37580000  0.88360000  0.80680000  1.0 0.0729037645
C  C20  1  0.36310000  0.22570000  0.81780000  1.0 -0.0578906717
C  C21  1  0.32100000  0.12700000  0.79650000  1.0 -0.1414136091
C  C22  1  0.50980000  0.15520000  0.79110000  1.0 -0.1301464657
C  C23  1  0.54790000  0.25610000  0.81030000  1.0 -0.0796265178
C  C24  1  0.39190000  0.09190000  0.78090000  1.0 0.0729037645
C  C25  1  0.47550000  0.29290000  0.82330000  1.0 -0.1593821664
C  C26  1  0.00950000  0.48650000  0.86840000  1.0 -0.1653074096
C  C27  1  0.10670000  0.48930000  0.85490000  1.0 -0.0467518824
C  C28  1  0.09940000  0.44860000  0.81320000  1.0 -0.1301464657
C  C29  1  0.99300000  0.40340000  0.78430000  1.0 0.0729037645
C  C30  1  0.89460000  0.39940000  0.79760000  1.0 -0.1414136091
C  C31  1  0.90520000  0.44280000  0.83880000  1.0 -0.0736086922
C  C32  1  0.89630000  0.97830000  0.81140000  1.0 -0.1593821664
C  C33  1  0.00210000  0.05630000  0.81830000  1.0 -0.0578906717
C  C34  1  0.02930000  0.17110000  0.79610000  1.0 -0.1301464657
C  C35  1  0.97760000  0.34700000  0.74000000  1.0 0.0214674329
C  C36  1  0.94500000  0.21280000  0.76350000  1.0 0.0729037645
C  C37  1  0.83390000  0.13570000  0.75550000  1.0 -0.1301464657
C  C38  1  0.81110000  0.01950000  0.77950000  1.0 -0.0796265178
C  C39  1  0.84400000  0.46600000  0.68560000  1.0 -0.1593821664
C  C40  1  0.76300000  0.48900000  0.64280000  1.0 -0.0420431117
C  C41  1  0.72320000  0.42280000  0.60730000  1.0 -0.1414136091
C  C42  1  0.76490000  0.33710000  0.61430000  1.0 -0.0578906717
C  C43  1  0.84100000  0.31500000  0.65640000  1.0 -0.1301464657
C  C44  1  0.88360000  0.37580000  0.69320000  1.0 0.0729037645
C  C45  1  0.22570000  0.36310000  0.68220000  1.0 -0.0578906717
C  C46  1  0.12700000  0.32100000  0.70350000  1.0 -0.1414136091
C  C47  1  0.15520000  0.50980000  0.70890000  1.0 -0.1301464657
C  C48  1  0.25610000  0.54790000  0.68970000  1.0 -0.0796265178
C  C49  1  0.09190000  0.39190000  0.71910000  1.0 0.0729037645
C  C50  1  0.29290000  0.47550000  0.67670000  1.0 -0.1593821664
C  C51  1  0.51350000  0.99050000  0.36840000  1.0 -0.1593821664
C  C52  1  0.51070000  0.89330000  0.35490000  1.0 -0.0467518824
C  C53  1  0.55140000  0.90060000  0.31320000  1.0 -0.1301464657
C  C54  1  0.59660000  0.00700000  0.28430000  1.0 0.0729037645
C  C55  1  0.60060000  0.10540000  0.29760000  1.0 -0.1414136091
C  C56  1  0.55720000  0.09480000  0.33880000  1.0 -0.0736086922
C  C57  1  0.02170000  0.10370000  0.31140000  1.0 -0.1593821664
C  C58  1  0.94370000  0.99790000  0.31830000  1.0 -0.0578906717
C  C59  1  0.82890000  0.97070000  0.29610000  1.0 -0.1301464657
C  C60  1  0.65300000  0.02240000  0.24000000  1.0 0.0214674329
C  C61  1  0.78720000  0.05500000  0.26350000  1.0 0.0729037645
C  C62  1  0.86430000  0.16610000  0.25550000  1.0 -0.1301464657
C  C63  1  0.98050000  0.18890000  0.27950000  1.0 -0.0796265178
C  C64  1  0.53400000  0.15600000  0.18560000  1.0 -0.1593821664
C  C65  1  0.51100000  0.23700000  0.14280000  1.0 -0.0420431117
C  C66  1  0.57720000  0.27680000  0.10730000  1.0 -0.1414136091
C  C67  1  0.66290000  0.23510000  0.11430000  1.0 -0.0578906717
C  C68  1  0.68500000  0.15900000  0.15640000  1.0 -0.1301464657
C  C69  1  0.62420000  0.11640000  0.19320000  1.0 0.0729037645
C  C70  1  0.63690000  0.77430000  0.18220000  1.0 -0.0578906717
C  C71  1  0.67900000  0.87300000  0.20350000  1.0 -0.1414136091
C  C72  1  0.49020000  0.84480000  0.20890000  1.0 -0.1301464657
C  C73  1  0.45210000  0.74390000  0.18970000  1.0 -0.0796265178
C  C74  1  0.60810000  0.90810000  0.21910000  1.0 0.0729037645
C  C75  1  0.52450000  0.70710000  0.17670000  1.0 -0.1593821664
C  C76  1  0.99050000  0.51350000  0.13160000  1.0 -0.1593821664
C  C77  1  0.89330000  0.51070000  0.14510000  1.0 -0.0467518824
C  C78  1  0.90060000  0.55140000  0.18680000  1.0 -0.1301464657
C  C79  1  0.00700000  0.59660000  0.21570000  1.0 0.0729037645
C  C80  1  0.10540000  0.60060000  0.20240000  1.0 -0.1414136091
C  C81  1  0.09480000  0.55720000  0.16120000  1.0 -0.0736086922
C  C82  1  0.10370000  0.02170000  0.18860000  1.0 -0.1593821664
C  C83  1  0.99790000  0.94370000  0.18170000  1.0 -0.0578906717
C  C84  1  0.97070000  0.82890000  0.20390000  1.0 -0.1301464657
C  C85  1  0.02240000  0.65300000  0.26000000  1.0 0.0214674329
C  C86  1  0.05500000  0.78720000  0.23650000  1.0 0.0729037645
C  C87  1  0.16610000  0.86430000  0.24450000  1.0 -0.1301464657
C  C88  1  0.18890000  0.98050000  0.22050000  1.0 -0.0796265178
C  C89  1  0.15600000  0.53400000  0.31440000  1.0 -0.1593821664
C  C90  1  0.23700000  0.51100000  0.35720000  1.0 -0.0420431117
C  C91  1  0.27680000  0.57720000  0.39270000  1.0 -0.1451209257
C  C92  1  0.23510000  0.66290000  0.38570000  1.0 -0.0578906717
C  C93  1  0.15900000  0.68500000  0.34360000  1.0 -0.1301464657
C  C94  1  0.11640000  0.62420000  0.30680000  1.0 0.0729037645
C  C95  1  0.77430000  0.63690000  0.31780000  1.0 -0.0578906717
C  C96  1  0.87300000  0.67900000  0.29650000  1.0 -0.1414136091
C  C97  1  0.84480000  0.49020000  0.29110000  1.0 -0.1301464657
C  C98  1  0.74390000  0.45210000  0.31030000  1.0 -0.0796265178
C  C99  1  0.90810000  0.60810000  0.28090000  1.0 0.0729037645
C  C100  1  0.70710000  0.52450000  0.32330000  1.0 -0.1593821664
O  O1  1  0.50400000  0.10940000  0.53730000  1.0 -0.8520768354
O  O2  1  0.50600000  0.90800000  0.56930000  1.0 -0.8355327467
O  O3  1  0.67990000  0.07810000  0.59270000  1.0 -0.6176853995
O  O4  1  0.74900000  0.80380000  0.68950000  1.0 -0.7792734722
O  O5  1  0.81120000  0.79940000  0.61810000  1.0 -0.7134917597
O  O6  1  0.81490000  0.98510000  0.62990000  1.0 -0.6070160488
O  O7  1  0.42400000  0.50400000  0.93870000  1.0 -0.6176853995
O  O8  1  0.37120000  0.61280000  0.98400000  1.0 -0.8338066439
O  O9  1  0.57430000  0.67590000  0.97420000  1.0 -0.6426038364
O  O10  1  0.57120000  0.52120000  0.81390000  1.0 -0.7718874732
O  O11  1  0.42170000  0.42530000  0.86270000  1.0 -0.6494119982
O  O12  1  0.62510000  0.40770000  0.89540000  1.0 -0.8699643234
O  O13  1  0.10940000  0.50400000  0.96270000  1.0 -0.8520768354
O  O14  1  0.90800000  0.50600000  0.93070000  1.0 -0.8338066439
O  O15  1  0.07810000  0.67990000  0.90730000  1.0 -0.6176853995
O  O16  1  0.80380000  0.74900000  0.81050000  1.0 -0.7792734722
O  O17  1  0.79940000  0.81120000  0.88190000  1.0 -0.7134917597
O  O18  1  0.98510000  0.81490000  0.87010000  1.0 -0.6070160488
O  O19  1  0.50400000  0.42400000  0.56130000  1.0 -0.6176853995
O  O20  1  0.61280000  0.37120000  0.51600000  1.0 -0.8338066439
O  O21  1  0.67590000  0.57430000  0.52580000  1.0 -0.6426038364
O  O22  1  0.52120000  0.57120000  0.68610000  1.0 -0.7718874732
O  O23  1  0.42530000  0.42170000  0.63730000  1.0 -0.6494119982
O  O24  1  0.40770000  0.62510000  0.60460000  1.0 -0.8699643234
O  O25  1  0.49600000  0.89060000  0.46270000  1.0 -0.8520768354
O  O26  1  0.49400000  0.09200000  0.43070000  1.0 -0.8355327467
O  O27  1  0.32010000  0.92190000  0.40730000  1.0 -0.6176853995
O  O28  1  0.25100000  0.19620000  0.31050000  1.0 -0.7792734722
O  O29  1  0.18880000  0.20060000  0.38190000  1.0 -0.7134917597
O  O30  1  0.18510000  0.01490000  0.37010000  1.0 -0.6070160488
O  O31  1  0.57600000  0.49600000  0.06130000  1.0 -0.6176853995
O  O32  1  0.62880000  0.38720000  0.01600000  1.0 -0.8338066439
O  O33  1  0.42570000  0.32410000  0.02580000  1.0 -0.6426038364
O  O34  1  0.42880000  0.47880000  0.18610000  1.0 -0.7718874732
O  O35  1  0.57830000  0.57470000  0.13730000  1.0 -0.6494119982
O  O36  1  0.37490000  0.59230000  0.10460000  1.0 -0.8699643234
O  O37  1  0.89060000  0.49600000  0.03730000  1.0 -0.8520768354
O  O38  1  0.09200000  0.49400000  0.06930000  1.0 -0.8355327467
O  O39  1  0.92190000  0.32010000  0.09270000  1.0 -0.6176853995
O  O40  1  0.19620000  0.25100000  0.18950000  1.0 -0.7792734722
O  O41  1  0.20060000  0.18880000  0.11810000  1.0 -0.7134917597
O  O42  1  0.01490000  0.18510000  0.12990000  1.0 -0.6070160488
O  O43  1  0.49600000  0.57600000  0.43870000  1.0 -0.6176853995
O  O44  1  0.38720000  0.62880000  0.48400000  1.0 -0.8338066439
O  O45  1  0.32410000  0.42570000  0.47420000  1.0 -0.6426038364
O  O46  1  0.47880000  0.42880000  0.31390000  1.0 -0.7718874732
O  O47  1  0.57470000  0.57830000  0.36270000  1.0 -0.6494119982
O  O48  1  0.59230000  0.37490000  0.39540000  1.0 -0.8699643234
