# DDEC6 charges by PACMAN v1.1 (https://github.com/mtap-research/PACMAN-charge/)
data_LETPUX01_ASR_pacman
_symmetry_space_group_name_H-M   'P 1'
_cell_length_a   34.58240000
_cell_length_b   34.58240000
_cell_length_c   34.58240000
_cell_angle_alpha   91.19770000
_cell_angle_beta   91.19770000
_cell_angle_gamma   163.37400000
_symmetry_Int_Tables_number   1
_chemical_formula_structural   Zn9Ga2P14H14(O21F)2
_chemical_formula_sum   'Zn36 Ga8 P56 H56 O168 F8'
_cell_volume   11709.32297995
_cell_formula_units_Z   4
loop_
 _symmetry_equiv_pos_site_id
 _symmetry_equiv_pos_as_xyz
  1  'x, y, z'
loop_
 _atom_site_type_symbol
 _atom_site_label
 _atom_site_symmetry_multiplicity
 _atom_site_fract_x
 _atom_site_fract_y
 _atom_site_fract_z
 _atom_site_occupancy
 _atom_site_charge
Zn  Zn1  1  0.82742000  0.68457000  0.60697000  1.0 1.0833997546
Zn  Zn2  1  0.07760000  0.22045000  0.39303000  1.0 1.0854604065
Zn  Zn3  1  0.47045000  0.57742000  0.64285000  1.0 1.0854604065
Zn  Zn4  1  0.93457000  0.82760000  0.35715000  1.0 1.0854604065
Zn  Zn5  1  0.42258000  0.52955000  0.35715000  1.0 1.0833997546
Zn  Zn6  1  0.17240000  0.06543000  0.64285000  1.0 1.0854604065
Zn  Zn7  1  0.77955000  0.92240000  0.60697000  1.0 1.0833997546
Zn  Zn8  1  0.31543000  0.17258000  0.39303000  1.0 1.0854604065
Zn  Zn9  1  0.42258000  0.06543000  0.89303000  1.0 1.0854604065
Zn  Zn10  1  0.17240000  0.52955000  0.10697000  1.0 1.0854604065
Zn  Zn11  1  0.77955000  0.17258000  0.85715000  1.0 1.0854604065
Zn  Zn12  1  0.31543000  0.92240000  0.14285000  1.0 1.0833997546
Zn  Zn13  1  0.82742000  0.22045000  0.14285000  1.0 1.0833997546
Zn  Zn14  1  0.07760000  0.68457000  0.85715000  1.0 1.0854604065
Zn  Zn15  1  0.47045000  0.82760000  0.89303000  1.0 1.0833997546
Zn  Zn16  1  0.93457000  0.57742000  0.10697000  1.0 1.0833997546
Zn  Zn17  1  0.12500000  0.87500000  0.75000000  1.0 1.103352489
Zn  Zn18  1  0.12500000  0.37500000  0.25000000  1.0 1.1056855737
Zn  Zn19  1  0.62500000  0.87500000  0.75000000  1.0 1.103352489
Zn  Zn20  1  0.12500000  0.87500000  0.25000000  1.0 1.103352489
Zn  Zn21  1  0.73384000  0.56726000  0.71082000  1.0 1.0274728878
Zn  Zn22  1  0.85644000  0.02302000  0.28918000  1.0 1.0274728878
Zn  Zn23  1  0.27302000  0.48384000  0.66658000  1.0 1.0274728878
Zn  Zn24  1  0.81726000  0.60644000  0.33342000  1.0 1.0274728878
Zn  Zn25  1  0.51616000  0.72698000  0.33342000  1.0 1.0274728878
Zn  Zn26  1  0.39356000  0.18274000  0.66658000  1.0 1.0274728878
Zn  Zn27  1  0.97698000  0.14356000  0.71082000  1.0 1.0274728878
Zn  Zn28  1  0.43274000  0.26616000  0.28918000  1.0 1.0274728878
Zn  Zn29  1  0.51616000  0.18274000  0.78918000  1.0 1.0274728878
Zn  Zn30  1  0.39356000  0.72698000  0.21082000  1.0 1.0274728878
Zn  Zn31  1  0.97698000  0.26616000  0.83342000  1.0 1.0274728878
Zn  Zn32  1  0.43274000  0.14356000  0.16658000  1.0 1.0274728878
Zn  Zn33  1  0.73384000  0.02302000  0.16658000  1.0 1.0274728878
Zn  Zn34  1  0.85644000  0.56726000  0.83342000  1.0 1.0274728878
Zn  Zn35  1  0.27302000  0.60644000  0.78918000  1.0 1.0274728878
Zn  Zn36  1  0.81726000  0.48384000  0.21082000  1.0 1.0274728878
Ga  Ga1  1  0.62500000  0.58790000  0.46290000  1.0 1.5002436905
Ga  Ga2  1  0.12500000  0.16210000  0.53710000  1.0 1.5002436905
Ga  Ga3  1  0.41210000  0.37500000  0.53710000  1.0 1.5002436905
Ga  Ga4  1  0.83790000  0.87500000  0.46290000  1.0 1.5002436905
Ga  Ga5  1  0.62500000  0.16210000  0.03710000  1.0 1.5002436905
Ga  Ga6  1  0.12500000  0.58790000  0.96290000  1.0 1.5002436905
Ga  Ga7  1  0.83790000  0.37500000  0.96290000  1.0 1.5002436905
Ga  Ga8  1  0.41210000  0.87500000  0.03710000  1.0 1.5002436905
P  P1  1  0.71774000  0.64121000  0.54519000  1.0 1.5002436905
P  P2  1  0.09602000  0.17255000  0.45481000  1.0 1.5002436905
P  P3  1  0.42255000  0.46774000  0.57653000  1.0 1.5002436905
P  P4  1  0.89121000  0.84602000  0.42347000  1.0 1.5002436905
P  P5  1  0.53226000  0.57745000  0.42347000  1.0 1.5002436905
P  P6  1  0.15398000  0.10879000  0.57653000  1.0 1.5002436905
P  P7  1  0.82745000  0.90398000  0.54519000  1.0 1.5002436905
P  P8  1  0.35879000  0.28226000  0.45481000  1.0 1.5002436905
P  P9  1  0.53226000  0.10879000  0.95481000  1.0 1.5002436905
P  P10  1  0.15398000  0.57745000  0.04519000  1.0 1.5002436905
P  P11  1  0.82745000  0.28226000  0.92347000  1.0 1.5002436905
P  P12  1  0.35879000  0.90398000  0.07653000  1.0 1.5002436905
P  P13  1  0.71774000  0.17255000  0.07653000  1.0 1.5002436905
P  P14  1  0.09602000  0.64121000  0.92347000  1.0 1.5002436905
P  P15  1  0.42255000  0.84602000  0.95481000  1.0 1.5002436905
P  P16  1  0.89121000  0.46774000  0.04519000  1.0 1.5002436905
P  P17  1  0.92438000  0.81312000  0.68952000  1.0 1.3969924588
P  P18  1  0.12360000  0.23486000  0.31048000  1.0 1.3969924588
P  P19  1  0.48486000  0.67438000  0.61126000  1.0 1.3969924588
P  P20  1  0.06312000  0.87360000  0.38874000  1.0 1.3969924588
P  P21  1  0.32562000  0.51514000  0.38874000  1.0 1.3969924588
P  P22  1  0.12640000  0.93688000  0.61126000  1.0 1.3969924588
P  P23  1  0.76514000  0.87640000  0.68952000  1.0 1.3969924588
P  P24  1  0.18688000  0.07562000  0.31048000  1.0 1.3969924588
P  P25  1  0.32562000  0.93688000  0.81048000  1.0 1.3969924588
P  P26  1  0.12640000  0.51514000  0.18952000  1.0 1.3969924588
P  P27  1  0.76514000  0.07562000  0.88874000  1.0 1.3969924588
P  P28  1  0.18688000  0.87640000  0.11126000  1.0 1.3969924588
P  P29  1  0.92438000  0.23486000  0.11126000  1.0 1.3943948566
P  P30  1  0.12360000  0.81312000  0.88874000  1.0 1.3969924588
P  P31  1  0.48486000  0.87360000  0.81048000  1.0 1.3969924588
P  P32  1  0.06312000  0.67438000  0.18952000  1.0 1.3969924588
P  P33  1  0.84015000  0.62494000  0.78479000  1.0 1.2591370015
P  P34  1  0.84015000  0.05536000  0.21521000  1.0 1.2591370015
P  P35  1  0.30536000  0.59015000  0.71521000  1.0 1.2591370015
P  P36  1  0.87494000  0.59015000  0.28479000  1.0 1.2591370015
P  P37  1  0.40985000  0.69464000  0.28479000  1.0 1.2591370015
P  P38  1  0.40985000  0.12506000  0.71521000  1.0 1.2591370015
P  P39  1  0.94464000  0.15985000  0.78479000  1.0 1.2591370015
P  P40  1  0.37506000  0.15985000  0.21521000  1.0 1.2591370015
P  P41  1  0.43128000  0.30288000  0.70350000  1.0 1.2860707163
P  P42  1  0.59938000  0.72778000  0.29650000  1.0 1.2849102288
P  P43  1  0.97778000  0.18128000  0.62840000  1.0 1.2849102288
P  P44  1  0.55288000  0.34938000  0.37160000  1.0 1.2860707163
P  P45  1  0.81872000  0.02222000  0.37160000  1.0 1.2849102288
P  P46  1  0.65062000  0.44712000  0.62840000  1.0 1.2849102288
P  P47  1  0.27222000  0.40062000  0.70350000  1.0 1.2860707163
P  P48  1  0.69712000  0.56872000  0.29650000  1.0 1.2860707163
P  P49  1  0.81872000  0.44712000  0.79650000  1.0 1.2849102288
P  P50  1  0.65062000  0.02222000  0.20350000  1.0 1.2849102288
P  P51  1  0.27222000  0.56872000  0.87160000  1.0 1.2860707163
P  P52  1  0.69712000  0.40062000  0.12840000  1.0 1.2860707163
P  P53  1  0.43128000  0.72778000  0.12840000  1.0 1.2860707163
P  P54  1  0.59938000  0.30288000  0.87160000  1.0 1.2849102288
P  P55  1  0.97778000  0.34938000  0.79650000  1.0 1.2849102288
P  P56  1  0.55288000  0.18128000  0.20350000  1.0 1.2860707163
H  H1  1  0.79810000  0.75780000  0.55950000  1.0 -0.1307032894
H  H2  1  0.19830000  0.23860000  0.44050000  1.0 -0.1307032894
H  H3  1  0.48860000  0.54810000  0.54030000  1.0 -0.1307032894
H  H4  1  0.00780000  0.94830000  0.45970000  1.0 -0.1307032894
H  H5  1  0.45190000  0.51140000  0.45970000  1.0 -0.1307032894
H  H6  1  0.05170000  0.99220000  0.54030000  1.0 -0.1307032894
H  H7  1  0.76140000  0.80170000  0.55950000  1.0 -0.1307032894
H  H8  1  0.24220000  0.20190000  0.44050000  1.0 -0.1307032894
H  H9  1  0.45190000  0.99220000  0.94050000  1.0 -0.1307032894
H  H10  1  0.05170000  0.51140000  0.05950000  1.0 -0.1307032894
H  H11  1  0.76140000  0.20190000  0.95970000  1.0 -0.1307032894
H  H12  1  0.24220000  0.80170000  0.04030000  1.0 -0.1307032894
H  H13  1  0.79810000  0.23860000  0.04030000  1.0 -0.1307032894
H  H14  1  0.19830000  0.75780000  0.95970000  1.0 -0.1307032894
H  H15  1  0.48860000  0.94830000  0.94050000  1.0 -0.1307032894
H  H16  1  0.00780000  0.54810000  0.05950000  1.0 -0.1307032894
H  H17  1  0.89160000  0.81760000  0.70980000  1.0 -0.1717511437
H  H18  1  0.10780000  0.18180000  0.29020000  1.0 -0.1717511437
H  H19  1  0.43180000  0.64160000  0.57400000  1.0 -0.1717511437
H  H20  1  0.06760000  0.85780000  0.42600000  1.0 -0.1717511437
H  H21  1  0.35840000  0.56820000  0.42600000  1.0 -0.1766572626
H  H22  1  0.14220000  0.93240000  0.57400000  1.0 -0.1717511437
H  H23  1  0.81820000  0.89220000  0.70980000  1.0 -0.1717511437
H  H24  1  0.18240000  0.10840000  0.29020000  1.0 -0.1717511437
H  H25  1  0.35840000  0.93240000  0.79020000  1.0 -0.1717511437
H  H26  1  0.14220000  0.56820000  0.20980000  1.0 -0.1717511437
H  H27  1  0.81820000  0.10840000  0.92600000  1.0 -0.1717511437
H  H28  1  0.18240000  0.89220000  0.07400000  1.0 -0.1717511437
H  H29  1  0.89160000  0.18180000  0.07400000  1.0 -0.1717511437
H  H30  1  0.10780000  0.81760000  0.92600000  1.0 -0.1717511437
H  H31  1  0.43180000  0.85780000  0.79020000  1.0 -0.1717511437
H  H32  1  0.06760000  0.64160000  0.20980000  1.0 -0.1717511437
H  H33  1  0.36760000  0.25740000  0.73240000  1.0 -0.1717511437
H  H34  1  0.52500000  0.63520000  0.26760000  1.0 -0.1717511437
H  H35  1  0.88520000  0.11760000  0.61020000  1.0 -0.1717511437
H  H36  1  0.50740000  0.27500000  0.38980000  1.0 -0.1717511437
H  H37  1  0.88240000  0.11480000  0.38980000  1.0 -0.1717511437
H  H38  1  0.72500000  0.49260000  0.61020000  1.0 -0.1717511437
H  H39  1  0.36480000  0.47500000  0.73240000  1.0 -0.1717511437
H  H40  1  0.74260000  0.63240000  0.26760000  1.0 -0.1717511437
H  H41  1  0.88240000  0.49260000  0.76760000  1.0 -0.1717511437
H  H42  1  0.72500000  0.11480000  0.23240000  1.0 -0.1717511437
H  H43  1  0.36480000  0.63240000  0.88980000  1.0 -0.1717511437
H  H44  1  0.74260000  0.47500000  0.11020000  1.0 -0.1717511437
H  H45  1  0.36760000  0.63520000  0.11020000  1.0 -0.1717511437
H  H46  1  0.52500000  0.25740000  0.88980000  1.0 -0.1717511437
H  H47  1  0.88520000  0.27500000  0.76760000  1.0 -0.1717511437
H  H48  1  0.50740000  0.11760000  0.23240000  1.0 -0.1717511437
H  H49  1  0.91310000  0.72080000  0.80770000  1.0 -0.296630077
H  H50  1  0.91310000  0.10540000  0.19230000  1.0 -0.296630077
H  H51  1  0.35540000  0.66310000  0.69230000  1.0 -0.296630077
H  H52  1  0.97080000  0.66310000  0.30770000  1.0 -0.3058386029
H  H53  1  0.33690000  0.64460000  0.30770000  1.0 -0.296630077
H  H54  1  0.33690000  0.02920000  0.69230000  1.0 -0.296630077
H  H55  1  0.89460000  0.08690000  0.80770000  1.0 -0.296630077
H  H56  1  0.27920000  0.08690000  0.19230000  1.0 -0.296630077
O  O1  1  0.71162000  0.63601000  0.50103000  1.0 -0.7021741451
O  O2  1  0.13498000  0.21059000  0.49897000  1.0 -0.7021741451
O  O3  1  0.46059000  0.46162000  0.57561000  1.0 -0.7021741451
O  O4  1  0.88601000  0.88498000  0.42439000  1.0 -0.7021741451
O  O5  1  0.53838000  0.53941000  0.42439000  1.0 -0.7021741451
O  O6  1  0.11502000  0.11399000  0.57561000  1.0 -0.7021741451
O  O7  1  0.78941000  0.86502000  0.50103000  1.0 -0.7021741451
O  O8  1  0.36399000  0.28838000  0.49897000  1.0 -0.7021741451
O  O9  1  0.53838000  0.11399000  0.99897000  1.0 -0.7021741451
O  O10  1  0.11502000  0.53941000  0.00103000  1.0 -0.7021741451
O  O11  1  0.78941000  0.28838000  0.92439000  1.0 -0.7021741451
O  O12  1  0.36399000  0.86502000  0.07561000  1.0 -0.7021741451
O  O13  1  0.71162000  0.21059000  0.07561000  1.0 -0.7021741451
O  O14  1  0.13498000  0.63601000  0.92439000  1.0 -0.7021741451
O  O15  1  0.46059000  0.88498000  0.99897000  1.0 -0.7021741451
O  O16  1  0.88601000  0.46162000  0.00103000  1.0 -0.7021741451
O  O17  1  0.57665000  0.50459000  0.55864000  1.0 -0.6909439584
O  O18  1  0.94595000  0.01801000  0.44136000  1.0 -0.6909439584
O  O19  1  0.26801000  0.32665000  0.57206000  1.0 -0.6909439584
O  O20  1  0.75459000  0.69595000  0.42794000  1.0 -0.6909439584
O  O21  1  0.67335000  0.73199000  0.42794000  1.0 -0.6909439584
O  O22  1  0.30405000  0.24541000  0.57206000  1.0 -0.6909439584
O  O23  1  0.98199000  0.05405000  0.55864000  1.0 -0.6909439584
O  O24  1  0.49541000  0.42335000  0.44136000  1.0 -0.6909439584
O  O25  1  0.67335000  0.24541000  0.94136000  1.0 -0.6909439584
O  O26  1  0.30405000  0.73199000  0.05864000  1.0 -0.6909439584
O  O27  1  0.98199000  0.42335000  0.92794000  1.0 -0.6909439584
O  O28  1  0.49541000  0.05405000  0.07206000  1.0 -0.6909439584
O  O29  1  0.57665000  0.01801000  0.07206000  1.0 -0.6909439584
O  O30  1  0.94595000  0.50459000  0.92794000  1.0 -0.6909439584
O  O31  1  0.26801000  0.69595000  0.94136000  1.0 -0.6909439584
O  O32  1  0.75459000  0.32665000  0.05864000  1.0 -0.6909439584
O  O33  1  0.80606000  0.69247000  0.56033000  1.0 -0.6580472545
O  O34  1  0.13214000  0.24573000  0.43967000  1.0 -0.6580472545
O  O35  1  0.49573000  0.55606000  0.61359000  1.0 -0.6580472545
O  O36  1  0.94247000  0.88214000  0.38641000  1.0 -0.6580472545
O  O37  1  0.44394000  0.50427000  0.38641000  1.0 -0.6580472545
O  O38  1  0.11786000  0.05753000  0.61359000  1.0 -0.6580472545
O  O39  1  0.75427000  0.86786000  0.56033000  1.0 -0.6580472545
O  O40  1  0.30753000  0.19394000  0.43967000  1.0 -0.6580472545
O  O41  1  0.44394000  0.05753000  0.93967000  1.0 -0.6580472545
O  O42  1  0.11786000  0.50427000  0.06033000  1.0 -0.6580472545
O  O43  1  0.75427000  0.19394000  0.88641000  1.0 -0.6580472545
O  O44  1  0.30753000  0.86786000  0.11359000  1.0 -0.6580472545
O  O45  1  0.80606000  0.24573000  0.11359000  1.0 -0.6580472545
O  O46  1  0.13214000  0.69247000  0.88641000  1.0 -0.6580472545
O  O47  1  0.49573000  0.88214000  0.93967000  1.0 -0.6580472545
O  O48  1  0.94247000  0.55606000  0.06033000  1.0 -0.6580472545
O  O49  1  0.90414000  0.75896000  0.71430000  1.0 -0.6795564608
O  O50  1  0.04466000  0.18984000  0.28570000  1.0 -0.6795564608
O  O51  1  0.43984000  0.65414000  0.64518000  1.0 -0.6795564608
O  O52  1  0.00896000  0.79466000  0.35482000  1.0 -0.6795564608
O  O53  1  0.34586000  0.56016000  0.35482000  1.0 -0.6795564608
O  O54  1  0.20534000  0.99104000  0.64518000  1.0 -0.6795564608
O  O55  1  0.81016000  0.95534000  0.71430000  1.0 -0.6795564608
O  O56  1  0.24104000  0.09586000  0.28570000  1.0 -0.6795564608
O  O57  1  0.34586000  0.99104000  0.78570000  1.0 -0.6795564608
O  O58  1  0.20534000  0.56016000  0.21430000  1.0 -0.6795564608
O  O59  1  0.81016000  0.09586000  0.85482000  1.0 -0.6795564608
O  O60  1  0.24104000  0.95534000  0.14518000  1.0 -0.6795564608
O  O61  1  0.90414000  0.18984000  0.14518000  1.0 -0.6795564608
O  O62  1  0.04466000  0.75896000  0.85482000  1.0 -0.6795564608
O  O63  1  0.43984000  0.79466000  0.78570000  1.0 -0.6795564608
O  O64  1  0.00896000  0.65414000  0.21430000  1.0 -0.6795564608
O  O65  1  0.82581000  0.71861000  0.65162000  1.0 -0.7237196904
O  O66  1  0.06699000  0.17419000  0.34838000  1.0 -0.7237196904
O  O67  1  0.42419000  0.57581000  0.60720000  1.0 -0.7237196904
O  O68  1  0.96861000  0.81699000  0.39280000  1.0 -0.7237196904
O  O69  1  0.42419000  0.57581000  0.39280000  1.0 -0.7237196904
O  O70  1  0.18301000  0.03139000  0.60720000  1.0 -0.7237196904
O  O71  1  0.82581000  0.93301000  0.65162000  1.0 -0.7237196904
O  O72  1  0.28139000  0.17419000  0.34838000  1.0 -0.7237196904
O  O73  1  0.42419000  0.03139000  0.84838000  1.0 -0.7237196904
O  O74  1  0.18301000  0.57581000  0.15162000  1.0 -0.7237196904
O  O75  1  0.82581000  0.17419000  0.89280000  1.0 -0.7237196904
O  O76  1  0.28139000  0.93301000  0.10720000  1.0 -0.7237196904
O  O77  1  0.82581000  0.17419000  0.10720000  1.0 -0.7237196904
O  O78  1  0.06699000  0.71861000  0.89280000  1.0 -0.7237196904
O  O79  1  0.42419000  0.81699000  0.84838000  1.0 -0.7237196904
O  O80  1  0.96861000  0.57581000  0.15162000  1.0 -0.7255687894
O  O81  1  0.07208000  0.95829000  0.68477000  1.0 -0.6909439584
O  O82  1  0.27352000  0.38731000  0.31523000  1.0 -0.6909439584
O  O83  1  0.63731000  0.82208000  0.61379000  1.0 -0.6909439584
O  O84  1  0.20829000  0.02352000  0.38621000  1.0 -0.6909439584
O  O85  1  0.17792000  0.36269000  0.38621000  1.0 -0.6909439584
O  O86  1  0.97648000  0.79171000  0.61379000  1.0 -0.6909439584
O  O87  1  0.61269000  0.72648000  0.68477000  1.0 -0.6909439584
O  O88  1  0.04171000  0.92792000  0.31523000  1.0 -0.6909439584
O  O89  1  0.17792000  0.79171000  0.81523000  1.0 -0.6909439584
O  O90  1  0.97648000  0.36269000  0.18477000  1.0 -0.6909439584
O  O91  1  0.61269000  0.92792000  0.88621000  1.0 -0.6909439584
O  O92  1  0.04171000  0.72648000  0.11379000  1.0 -0.6909439584
O  O93  1  0.07208000  0.38731000  0.11379000  1.0 -0.6909439584
O  O94  1  0.27352000  0.95829000  0.88621000  1.0 -0.6909439584
O  O95  1  0.63731000  0.02352000  0.81523000  1.0 -0.6909439584
O  O96  1  0.20829000  0.82208000  0.18477000  1.0 -0.6909439584
O  O97  1  0.93340000  0.69390000  0.76050000  1.0 -0.6909439584
O  O98  1  0.93340000  0.17290000  0.23950000  1.0 -0.6909439584
O  O99  1  0.42290000  0.68340000  0.73950000  1.0 -0.6909439584
O  O100  1  0.94390000  0.68340000  0.26050000  1.0 -0.6909439584
O  O101  1  0.31660000  0.57710000  0.26050000  1.0 -0.6909439584
O  O102  1  0.31660000  0.05610000  0.73950000  1.0 -0.6909439584
O  O103  1  0.82710000  0.06660000  0.76050000  1.0 -0.6909439584
O  O104  1  0.30610000  0.06660000  0.23950000  1.0 -0.6909439584
O  O105  1  0.72664000  0.53672000  0.76036000  1.0 -0.6105914668
O  O106  1  0.77636000  0.96628000  0.23964000  1.0 -0.6105914668
O  O107  1  0.21628000  0.47664000  0.68992000  1.0 -0.6105914668
O  O108  1  0.78672000  0.52636000  0.31008000  1.0 -0.6105914668
O  O109  1  0.52336000  0.78372000  0.31008000  1.0 -0.6105914668
O  O110  1  0.47364000  0.21328000  0.68992000  1.0 -0.6105914668
O  O111  1  0.03372000  0.22364000  0.76036000  1.0 -0.6105914668
O  O112  1  0.46328000  0.27336000  0.23964000  1.0 -0.6105914668
O  O113  1  0.52336000  0.21328000  0.73964000  1.0 -0.6105914668
O  O114  1  0.47364000  0.78372000  0.26036000  1.0 -0.6105914668
O  O115  1  0.03372000  0.27336000  0.81008000  1.0 -0.6105914668
O  O116  1  0.46328000  0.22364000  0.18992000  1.0 -0.6105914668
O  O117  1  0.72664000  0.96628000  0.18992000  1.0 -0.6105914668
O  O118  1  0.77636000  0.53672000  0.81008000  1.0 -0.6105914668
O  O119  1  0.21628000  0.52636000  0.73964000  1.0 -0.6105914668
O  O120  1  0.78672000  0.47664000  0.26036000  1.0 -0.6105914668
O  O121  1  0.35677000  0.25136000  0.66853000  1.0 -0.6256545217
O  O122  1  0.58283000  0.68824000  0.33147000  1.0 -0.6256545217
O  O123  1  0.93824000  0.10677000  0.60541000  1.0 -0.6256545217
O  O124  1  0.50136000  0.33283000  0.39459000  1.0 -0.6256545217
O  O125  1  0.89323000  0.06176000  0.39459000  1.0 -0.6256545217
O  O126  1  0.66717000  0.49864000  0.60541000  1.0 -0.6256545217
O  O127  1  0.31176000  0.41717000  0.66853000  1.0 -0.6256545217
O  O128  1  0.74864000  0.64323000  0.33147000  1.0 -0.6256545217
O  O129  1  0.89323000  0.49864000  0.83147000  1.0 -0.6256545217
O  O130  1  0.66717000  0.06176000  0.16853000  1.0 -0.6256545217
O  O131  1  0.31176000  0.64323000  0.89459000  1.0 -0.6256545217
O  O132  1  0.74864000  0.41717000  0.10541000  1.0 -0.6256545217
O  O133  1  0.35677000  0.68824000  0.10541000  1.0 -0.6256545217
O  O134  1  0.58283000  0.25136000  0.89459000  1.0 -0.6256545217
O  O135  1  0.93824000  0.33283000  0.83147000  1.0 -0.6256545217
O  O136  1  0.50136000  0.10677000  0.16853000  1.0 -0.6256545217
O  O137  1  0.58059000  0.45419000  0.70538000  1.0 -0.6474099488
O  O138  1  0.74881000  0.87521000  0.29462000  1.0 -0.6474099488
O  O139  1  0.12521000  0.33059000  0.62640000  1.0 -0.6474099488
O  O140  1  0.70419000  0.49881000  0.37360000  1.0 -0.6474099488
O  O141  1  0.66941000  0.87479000  0.37360000  1.0 -0.6474099488
O  O142  1  0.50119000  0.29581000  0.62640000  1.0 -0.6474099488
O  O143  1  0.12479000  0.25119000  0.70538000  1.0 -0.6474099488
O  O144  1  0.54581000  0.41941000  0.29462000  1.0 -0.6474099488
O  O145  1  0.66941000  0.29581000  0.79462000  1.0 -0.6474099488
O  O146  1  0.50119000  0.87479000  0.20538000  1.0 -0.6474099488
O  O147  1  0.12479000  0.41941000  0.87360000  1.0 -0.6474099488
O  O148  1  0.54581000  0.25119000  0.12640000  1.0 -0.6474099488
O  O149  1  0.58059000  0.87521000  0.12640000  1.0 -0.6474099488
O  O150  1  0.74881000  0.45419000  0.87360000  1.0 -0.6474099488
O  O151  1  0.12521000  0.49881000  0.79462000  1.0 -0.6474099488
O  O152  1  0.70419000  0.33059000  0.20538000  1.0 -0.6474099488
O  O153  1  0.39607000  0.22648000  0.70615000  1.0 -0.6795564608
O  O154  1  0.52033000  0.68992000  0.29385000  1.0 -0.6795564608
O  O155  1  0.93992000  0.14607000  0.66959000  1.0 -0.6795564608
O  O156  1  0.47648000  0.27033000  0.33041000  1.0 -0.6795564608
O  O157  1  0.85393000  0.06008000  0.33041000  1.0 -0.6795564608
O  O158  1  0.72967000  0.52352000  0.66959000  1.0 -0.6795564608
O  O159  1  0.31008000  0.47967000  0.70615000  1.0 -0.6795564608
O  O160  1  0.77352000  0.60393000  0.29385000  1.0 -0.6909439584
O  O161  1  0.85393000  0.52352000  0.79385000  1.0 -0.6795564608
O  O162  1  0.72967000  0.06008000  0.20615000  1.0 -0.6795564608
O  O163  1  0.31008000  0.60393000  0.83041000  1.0 -0.6795564608
O  O164  1  0.77352000  0.47967000  0.16959000  1.0 -0.6795564608
O  O165  1  0.39607000  0.68992000  0.16959000  1.0 -0.6795564608
O  O166  1  0.52033000  0.22648000  0.83041000  1.0 -0.6795564608
O  O167  1  0.93992000  0.27033000  0.79385000  1.0 -0.6795564608
O  O168  1  0.47648000  0.14607000  0.20615000  1.0 -0.6795564608
F  F1  1  0.74263000  0.74263000  0.48526000  1.0 -0.543940808
F  F2  1  0.25737000  0.25737000  0.51474000  1.0 -0.543940808
F  F3  1  0.50737000  0.49263000  0.50000000  1.0 -0.543940808
F  F4  1  0.99263000  0.00737000  0.50000000  1.0 -0.543940808
F  F5  1  0.50737000  0.00737000  0.01474000  1.0 -0.543940808
F  F6  1  0.99263000  0.49263000  0.98526000  1.0 -0.543940808
F  F7  1  0.74263000  0.25737000  0.00000000  1.0 -0.543940808
F  F8  1  0.25737000  0.74263000  0.00000000  1.0 -0.543940808
