# DDEC6 charges by PACMAN v1.1 (https://github.com/mtap-research/PACMAN-charge/)
data_LETPOR01_ASR_pacman
_symmetry_space_group_name_H-M   'P 1'
_cell_length_a   37.23200000
_cell_length_b   37.23200000
_cell_length_c   37.23200000
_cell_angle_alpha   91.03810000
_cell_angle_beta   91.03810000
_cell_angle_gamma   164.52900000
_symmetry_Int_Tables_number   1
_chemical_formula_structural   Zn7GaP10H10O30F
_chemical_formula_sum   'Zn56 Ga8 P80 H80 O240 F8'
_cell_volume   13642.19665970
_cell_formula_units_Z   8
loop_
 _symmetry_equiv_pos_site_id
 _symmetry_equiv_pos_as_xyz
  1  'x, y, z'
loop_
 _atom_site_type_symbol
 _atom_site_label
 _atom_site_symmetry_multiplicity
 _atom_site_fract_x
 _atom_site_fract_y
 _atom_site_fract_z
 _atom_site_occupancy
 _atom_site_charge
Zn  Zn1  1  0.08525000  0.58525000  0.67050000  1.0 1.1033365207
Zn  Zn2  1  0.91475000  0.41475000  0.32950000  1.0 1.1033365207
Zn  Zn3  1  0.66475000  0.83525000  0.00000000  1.0 1.1033365207
Zn  Zn4  1  0.83525000  0.66475000  0.00000000  1.0 1.1033365207
Zn  Zn5  1  0.16475000  0.16475000  0.82950000  1.0 1.1033365207
Zn  Zn6  1  0.33525000  0.33525000  0.17050000  1.0 1.1033365207
Zn  Zn7  1  0.58525000  0.91475000  0.50000000  1.0 1.1033365207
Zn  Zn8  1  0.41475000  0.08525000  0.50000000  1.0 1.1033365207
Zn  Zn9  1  0.69328000  0.22246000  0.59174000  1.0 1.0908025059
Zn  Zn10  1  0.63072000  0.10154000  0.40826000  1.0 1.0908025059
Zn  Zn11  1  0.35154000  0.44328000  0.97082000  1.0 1.0908025059
Zn  Zn12  1  0.47246000  0.38072000  0.02918000  1.0 1.0908025059
Zn  Zn13  1  0.05672000  0.14846000  0.02918000  1.0 1.0908025059
Zn  Zn14  1  0.11928000  0.02754000  0.97082000  1.0 1.0908025059
Zn  Zn15  1  0.39846000  0.86928000  0.59174000  1.0 1.0908025059
Zn  Zn16  1  0.27754000  0.80672000  0.40826000  1.0 1.0908025059
Zn  Zn17  1  0.55672000  0.52754000  0.90826000  1.0 1.0908025059
Zn  Zn18  1  0.61928000  0.64846000  0.09174000  1.0 1.0908025059
Zn  Zn19  1  0.89846000  0.30672000  0.52918000  1.0 1.0908025059
Zn  Zn20  1  0.77754000  0.36928000  0.47082000  1.0 1.0908025059
Zn  Zn21  1  0.19328000  0.60154000  0.47082000  1.0 1.0908025059
Zn  Zn22  1  0.13072000  0.72246000  0.52918000  1.0 1.0908025059
Zn  Zn23  1  0.85154000  0.88072000  0.90826000  1.0 1.0908025059
Zn  Zn24  1  0.97246000  0.94328000  0.09174000  1.0 1.0908025059
Zn  Zn25  1  0.78247000  0.31115000  0.75202000  1.0 1.0361378924
Zn  Zn26  1  0.55913000  0.03045000  0.24798000  1.0 1.0361378924
Zn  Zn27  1  0.28045000  0.53247000  0.97132000  1.0 1.0361378924
Zn  Zn28  1  0.56115000  0.30913000  0.02868000  1.0 1.0361378924
Zn  Zn29  1  0.96753000  0.21955000  0.02868000  1.0 1.0361378924
Zn  Zn30  1  0.19087000  0.93885000  0.97132000  1.0 1.0348207581
Zn  Zn31  1  0.46955000  0.94087000  0.75202000  1.0 1.0348207581
Zn  Zn32  1  0.18885000  0.71753000  0.24798000  1.0 1.0361378924
Zn  Zn33  1  0.46753000  0.43885000  0.74798000  1.0 1.0361378924
Zn  Zn34  1  0.69087000  0.71955000  0.25202000  1.0 1.0361378924
Zn  Zn35  1  0.96955000  0.21753000  0.52868000  1.0 1.0361378924
Zn  Zn36  1  0.68885000  0.44087000  0.47132000  1.0 1.0361378924
Zn  Zn37  1  0.28247000  0.53045000  0.47132000  1.0 1.0348207581
Zn  Zn38  1  0.05913000  0.81115000  0.52868000  1.0 1.0361378924
Zn  Zn39  1  0.78045000  0.80913000  0.74798000  1.0 1.0361378924
Zn  Zn40  1  0.06115000  0.03247000  0.25202000  1.0 1.0361378924
Zn  Zn41  1  0.00617000  0.48257000  0.83574000  1.0 1.0723479775
Zn  Zn42  1  0.64683000  0.17043000  0.16426000  1.0 1.0723479775
Zn  Zn43  1  0.42043000  0.75617000  0.02360000  1.0 1.0723479775
Zn  Zn44  1  0.73257000  0.39683000  0.97640000  1.0 1.0723479775
Zn  Zn45  1  0.74383000  0.07957000  0.97640000  1.0 1.0753121006
Zn  Zn46  1  0.10317000  0.76743000  0.02360000  1.0 1.0723479775
Zn  Zn47  1  0.32957000  0.85317000  0.83574000  1.0 1.0723479775
Zn  Zn48  1  0.01743000  0.49383000  0.16426000  1.0 1.0723479775
Zn  Zn49  1  0.24383000  0.26743000  0.66426000  1.0 1.0723479775
Zn  Zn50  1  0.60317000  0.57957000  0.33574000  1.0 1.0723479775
Zn  Zn51  1  0.82957000  0.99383000  0.47640000  1.0 1.0723479775
Zn  Zn52  1  0.51743000  0.35317000  0.52360000  1.0 1.0723479775
Zn  Zn53  1  0.50617000  0.67043000  0.52360000  1.0 1.0723479775
Zn  Zn54  1  0.14683000  0.98257000  0.47640000  1.0 1.0723479775
Zn  Zn55  1  0.92043000  0.89683000  0.66426000  1.0 1.0723479775
Zn  Zn56  1  0.23257000  0.25617000  0.33574000  1.0 1.0723479775
Ga  Ga1  1  0.02422000  0.47578000  0.00000000  1.0 1.4464423286
Ga  Ga2  1  0.47578000  0.02422000  0.00000000  1.0 1.4464423286
Ga  Ga3  1  0.27422000  0.77422000  0.04844000  1.0 1.4436765539
Ga  Ga4  1  0.72578000  0.22578000  0.95156000  1.0 1.4436765539
Ga  Ga5  1  0.22578000  0.27422000  0.50000000  1.0 1.4436765539
Ga  Ga6  1  0.77422000  0.72578000  0.50000000  1.0 1.4436765539
Ga  Ga7  1  0.97578000  0.97578000  0.45156000  1.0 1.4436765539
Ga  Ga8  1  0.52422000  0.52422000  0.54844000  1.0 1.4436765539
P  P1  1  0.00102000  0.48034000  0.91976000  1.0 1.2579282152
P  P2  1  0.56058000  0.08126000  0.08024000  1.0 1.2579282152
P  P3  1  0.33126000  0.75102000  0.02068000  1.0 1.2579282152
P  P4  1  0.73034000  0.31058000  0.97932000  1.0 1.2579282152
P  P5  1  0.74898000  0.16874000  0.97932000  1.0 1.2579282152
P  P6  1  0.18942000  0.76966000  0.02068000  1.0 1.2579282152
P  P7  1  0.41874000  0.93942000  0.91976000  1.0 1.2579282152
P  P8  1  0.01966000  0.49898000  0.08024000  1.0 1.2579282152
P  P9  1  0.24898000  0.26966000  0.58024000  1.0 1.2579282152
P  P10  1  0.68942000  0.66874000  0.41976000  1.0 1.2579282152
P  P11  1  0.91874000  0.99898000  0.47932000  1.0 1.2579282152
P  P12  1  0.51966000  0.43942000  0.52068000  1.0 1.2579282152
P  P13  1  0.50102000  0.58126000  0.52068000  1.0 1.2579282152
P  P14  1  0.06058000  0.98034000  0.47932000  1.0 1.2579282152
P  P15  1  0.83126000  0.81058000  0.58024000  1.0 1.2579282152
P  P16  1  0.23034000  0.25102000  0.41976000  1.0 1.2579282152
P  P17  1  0.77509000  0.32012000  0.67101000  1.0 1.1319080562
P  P18  1  0.64911000  0.10408000  0.32899000  1.0 1.1319080562
P  P19  1  0.35408000  0.52509000  0.95497000  1.0 1.1319080562
P  P20  1  0.57012000  0.39911000  0.04503000  1.0 1.1319080562
P  P21  1  0.97491000  0.14592000  0.04503000  1.0 1.1367966759
P  P22  1  0.10089000  0.92988000  0.95497000  1.0 1.1319080562
P  P23  1  0.39592000  0.85089000  0.67101000  1.0 1.1319080562
P  P24  1  0.17988000  0.72491000  0.32899000  1.0 1.1319080562
P  P25  1  0.47491000  0.42988000  0.82899000  1.0 1.1319080562
P  P26  1  0.60089000  0.64592000  0.17101000  1.0 1.1319080562
P  P27  1  0.89592000  0.22491000  0.54503000  1.0 1.1319080562
P  P28  1  0.67988000  0.35089000  0.45497000  1.0 1.1319080562
P  P29  1  0.27509000  0.60408000  0.45497000  1.0 1.1319080562
P  P30  1  0.14911000  0.82012000  0.54503000  1.0 1.1367966759
P  P31  1  0.85408000  0.89911000  0.82899000  1.0 1.1319080562
P  P32  1  0.07012000  0.02509000  0.17101000  1.0 1.1319080562
P  P33  1  0.39386000  0.93724000  0.55550000  1.0 1.1956791508
P  P34  1  0.38174000  0.83836000  0.44450000  1.0 1.1941214515
P  P35  1  0.08836000  0.14386000  0.95662000  1.0 1.1956791508
P  P36  1  0.18724000  0.13174000  0.04338000  1.0 1.1941214515
P  P37  1  0.35614000  0.41164000  0.04338000  1.0 1.1941214515
P  P38  1  0.36826000  0.31276000  0.95662000  1.0 1.1941214515
P  P39  1  0.66164000  0.11826000  0.55550000  1.0 1.1941214515
P  P40  1  0.56276000  0.10614000  0.44450000  1.0 1.1941214515
P  P41  1  0.85614000  0.81276000  0.94450000  1.0 1.1941214515
P  P42  1  0.86826000  0.91164000  0.05550000  1.0 1.1941214515
P  P43  1  0.16164000  0.60614000  0.54338000  1.0 1.1941214515
P  P44  1  0.06276000  0.61826000  0.45662000  1.0 1.1941214515
P  P45  1  0.89386000  0.33836000  0.45662000  1.0 1.1941214515
P  P46  1  0.88174000  0.43724000  0.54338000  1.0 1.1941214515
P  P47  1  0.58836000  0.63174000  0.94450000  1.0 1.1941214515
P  P48  1  0.68724000  0.64386000  0.05550000  1.0 1.1941214515
P  P49  1  0.02436000  0.57503000  0.80239000  1.0 1.3101438137
P  P50  1  0.77264000  0.22197000  0.19761000  1.0 1.3101438137
P  P51  1  0.47197000  0.77436000  0.94933000  1.0 1.3101438137
P  P52  1  0.82503000  0.52264000  0.05067000  1.0 1.3101438137
P  P53  1  0.72564000  0.02803000  0.05067000  1.0 1.3101438137
P  P54  1  0.97736000  0.67497000  0.94933000  1.0 1.3101438137
P  P55  1  0.27803000  0.72736000  0.80239000  1.0 1.3101438137
P  P56  1  0.92497000  0.47564000  0.19761000  1.0 1.3101438137
P  P57  1  0.22564000  0.17497000  0.69761000  1.0 1.3101438137
P  P58  1  0.47736000  0.52803000  0.30239000  1.0 1.3101438137
P  P59  1  0.77803000  0.97564000  0.55067000  1.0 1.3101438137
P  P60  1  0.42497000  0.22736000  0.44933000  1.0 1.3101438137
P  P61  1  0.52436000  0.72197000  0.44933000  1.0 1.3101438137
P  P62  1  0.27264000  0.07503000  0.55067000  1.0 1.3101438137
P  P63  1  0.97197000  0.02264000  0.69761000  1.0 1.3101438137
P  P64  1  0.32503000  0.27436000  0.30239000  1.0 1.3101438137
P  P65  1  0.77448000  0.22525000  0.78173000  1.0 1.3389119583
P  P66  1  0.44352000  0.99275000  0.21827000  1.0 1.3389119583
P  P67  1  0.24275000  0.52448000  0.04923000  1.0 1.3389119583
P  P68  1  0.47525000  0.19352000  0.95077000  1.0 1.3389119583
P  P69  1  0.97552000  0.25725000  0.95077000  1.0 1.3389119583
P  P70  1  0.30648000  0.02475000  0.04923000  1.0 1.3389119583
P  P71  1  0.50725000  0.05648000  0.78173000  1.0 1.3389119583
P  P72  1  0.27475000  0.72552000  0.21827000  1.0 1.3389119583
P  P73  1  0.47552000  0.52475000  0.71827000  1.0 1.3389119583
P  P74  1  0.80648000  0.75725000  0.28173000  1.0 1.3389119583
P  P75  1  0.00725000  0.22552000  0.45077000  1.0 1.3389119583
P  P76  1  0.77475000  0.55648000  0.54923000  1.0 1.3389119583
P  P77  1  0.27448000  0.49275000  0.54923000  1.0 1.3389119583
P  P78  1  0.94352000  0.72525000  0.45077000  1.0 1.3389119583
P  P79  1  0.74275000  0.69352000  0.71827000  1.0 1.3389119583
P  P80  1  0.97525000  0.02448000  0.28173000  1.0 1.3389119583
H  H1  1  0.06640000  0.57600000  0.92820000  1.0 -0.0637303774
H  H2  1  0.64780000  0.13820000  0.07180000  1.0 -0.0637303774
H  H3  1  0.38820000  0.81640000  0.99040000  1.0 -0.0637303774
H  H4  1  0.82600000  0.39780000  0.00960000  1.0 -0.0637303774
H  H5  1  0.68360000  0.11180000  0.00960000  1.0 -0.0637303774
H  H6  1  0.10220000  0.67400000  0.99040000  1.0 -0.0637303774
H  H7  1  0.36180000  0.85220000  0.92820000  1.0 -0.0637303774
H  H8  1  0.92400000  0.43360000  0.07180000  1.0 -0.0637303774
H  H9  1  0.18360000  0.17400000  0.57180000  1.0 -0.0637303774
H  H10  1  0.60220000  0.61180000  0.42820000  1.0 -0.0637303774
H  H11  1  0.86180000  0.93360000  0.50960000  1.0 -0.0637303774
H  H12  1  0.42400000  0.35220000  0.49040000  1.0 -0.0637303774
H  H13  1  0.56640000  0.63820000  0.49040000  1.0 -0.0637303774
H  H14  1  0.14780000  0.07600000  0.50960000  1.0 -0.0637303774
H  H15  1  0.88820000  0.89780000  0.57180000  1.0 -0.0637303774
H  H16  1  0.32600000  0.31640000  0.42820000  1.0 -0.0637303774
H  H17  1  0.84700000  0.40910000  0.65970000  1.0 -0.2038957388
H  H18  1  0.74940000  0.18730000  0.34030000  1.0 -0.2038957388
H  H19  1  0.43730000  0.59700000  0.93790000  1.0 -0.2038957388
H  H20  1  0.65910000  0.49940000  0.06210000  1.0 -0.2038957388
H  H21  1  0.90300000  0.06270000  0.06210000  1.0 -0.2168448416
H  H22  1  0.00060000  0.84090000  0.93790000  1.0 -0.2038957388
H  H23  1  0.31270000  0.75060000  0.65970000  1.0 -0.2038957388
H  H24  1  0.09090000  0.65300000  0.34030000  1.0 -0.2050236387
H  H25  1  0.40300000  0.34090000  0.84030000  1.0 -0.2038957388
H  H26  1  0.50060000  0.56270000  0.15970000  1.0 -0.2050236387
H  H27  1  0.81270000  0.15300000  0.56210000  1.0 -0.2038957388
H  H28  1  0.59090000  0.25060000  0.43790000  1.0 -0.2038957388
H  H29  1  0.34700000  0.68730000  0.43790000  1.0 -0.2038957388
H  H30  1  0.24940000  0.90910000  0.56210000  1.0 -0.2168448416
H  H31  1  0.93730000  0.99940000  0.84030000  1.0 -0.2038957388
H  H32  1  0.15910000  0.09700000  0.15970000  1.0 -0.2038957388
H  H33  1  0.86130000  0.27830000  0.78360000  1.0 -0.1891124311
H  H34  1  0.49470000  0.07770000  0.21640000  1.0 -0.1891124311
H  H35  1  0.32770000  0.61130000  0.08300000  1.0 -0.1891124311
H  H36  1  0.52830000  0.24470000  0.91700000  1.0 -0.1891124311
H  H37  1  0.88870000  0.17230000  0.91700000  1.0 -0.1891124311
H  H38  1  0.25530000  0.97170000  0.08300000  1.0 -0.2038957388
H  H39  1  0.42230000  0.00530000  0.78360000  1.0 -0.1891124311
H  H40  1  0.22170000  0.63870000  0.21640000  1.0 -0.1891124311
H  H41  1  0.38870000  0.47170000  0.71640000  1.0 -0.1891124311
H  H42  1  0.75530000  0.67230000  0.28360000  1.0 -0.1891124311
H  H43  1  0.92230000  0.13870000  0.41700000  1.0 -0.1891124311
H  H44  1  0.72170000  0.50530000  0.58300000  1.0 -0.1891124311
H  H45  1  0.36130000  0.57770000  0.58300000  1.0 -0.1891124311
H  H46  1  0.99470000  0.77830000  0.41700000  1.0 -0.1891124311
H  H47  1  0.82770000  0.74470000  0.71640000  1.0 -0.1891124311
H  H48  1  0.02830000  0.11130000  0.28360000  1.0 -0.1891124311
H  H49  1  0.00310000  0.58900000  0.81690000  1.0 -0.153296761
H  H50  1  0.77210000  0.18620000  0.18310000  1.0 -0.153296761
H  H51  1  0.43620000  0.75310000  0.91410000  1.0 -0.153296761
H  H52  1  0.83900000  0.52210000  0.08590000  1.0 -0.153296761
H  H53  1  0.74690000  0.06380000  0.08590000  1.0 -0.153296761
H  H54  1  0.97790000  0.66100000  0.91410000  1.0 -0.153296761
H  H55  1  0.31380000  0.72790000  0.81690000  1.0 -0.153296761
H  H56  1  0.91100000  0.49690000  0.18310000  1.0 -0.153296761
H  H57  1  0.24690000  0.16100000  0.68310000  1.0 -0.153296761
H  H58  1  0.47790000  0.56380000  0.31690000  1.0 -0.153296761
H  H59  1  0.81380000  0.99690000  0.58590000  1.0 -0.153296761
H  H60  1  0.41100000  0.22790000  0.41410000  1.0 -0.153296761
H  H61  1  0.50310000  0.68620000  0.41410000  1.0 -0.153296761
H  H62  1  0.27210000  0.08900000  0.58590000  1.0 -0.153296761
H  H63  1  0.93620000  0.02210000  0.68310000  1.0 -0.153296761
H  H64  1  0.33900000  0.25310000  0.31690000  1.0 -0.153296761
H  H65  1  0.36080000  0.89820000  0.51860000  1.0 -0.078544799
H  H66  1  0.37960000  0.84220000  0.48140000  1.0 -0.078544799
H  H67  1  0.09220000  0.11080000  0.96260000  1.0 -0.078544799
H  H68  1  0.14820000  0.12960000  0.03740000  1.0 -0.078544799
H  H69  1  0.38920000  0.40780000  0.03740000  1.0 -0.078544799
H  H70  1  0.37040000  0.35180000  0.96260000  1.0 -0.078544799
H  H71  1  0.65780000  0.12040000  0.51860000  1.0 -0.078544799
H  H72  1  0.60180000  0.13920000  0.48140000  1.0 -0.078544799
H  H73  1  0.88920000  0.85180000  0.98140000  1.0 -0.078544799
H  H74  1  0.87040000  0.90780000  0.01860000  1.0 -0.078544799
H  H75  1  0.15780000  0.63920000  0.53740000  1.0 -0.078544799
H  H76  1  0.10180000  0.62040000  0.46260000  1.0 -0.078544799
H  H77  1  0.86080000  0.34220000  0.46260000  1.0 -0.078544799
H  H78  1  0.87960000  0.39820000  0.53740000  1.0 -0.078544799
H  H79  1  0.59220000  0.62960000  0.98140000  1.0 -0.078544799
H  H80  1  0.64820000  0.61080000  0.01860000  1.0 -0.078544799
O  O1  1  0.04620000  0.49730000  0.94950000  1.0 -0.6489692179
O  O2  1  0.54780000  0.09670000  0.05050000  1.0 -0.6489692179
O  O3  1  0.34670000  0.79620000  0.04890000  1.0 -0.6489692179
O  O4  1  0.74730000  0.29780000  0.95110000  1.0 -0.6489692179
O  O5  1  0.70380000  0.15330000  0.95110000  1.0 -0.6489692179
O  O6  1  0.20220000  0.75270000  0.04890000  1.0 -0.6489692179
O  O7  1  0.40330000  0.95220000  0.94950000  1.0 -0.6489692179
O  O8  1  0.00270000  0.45380000  0.05050000  1.0 -0.6489692179
O  O9  1  0.20380000  0.25270000  0.55050000  1.0 -0.6489692179
O  O10  1  0.70220000  0.65330000  0.44950000  1.0 -0.6489692179
O  O11  1  0.90330000  0.95380000  0.45110000  1.0 -0.6489692179
O  O12  1  0.50270000  0.45220000  0.54890000  1.0 -0.6489692179
O  O13  1  0.54620000  0.59670000  0.54890000  1.0 -0.6489692179
O  O14  1  0.04780000  0.99730000  0.45110000  1.0 -0.6489692179
O  O15  1  0.84670000  0.79780000  0.55050000  1.0 -0.6489692179
O  O16  1  0.24730000  0.29620000  0.44950000  1.0 -0.6489692179
O  O17  1  0.84750000  0.33830000  0.91380000  1.0 -0.6292320206
O  O18  1  0.42450000  0.93370000  0.08620000  1.0 -0.6292320206
O  O19  1  0.18370000  0.59750000  0.00920000  1.0 -0.6292320206
O  O20  1  0.58830000  0.17450000  0.99080000  1.0 -0.6292320206
O  O21  1  0.90250000  0.31630000  0.99080000  1.0 -0.6292320206
O  O22  1  0.32550000  0.91170000  0.00920000  1.0 -0.6292320206
O  O23  1  0.56630000  0.07550000  0.91380000  1.0 -0.6292320206
O  O24  1  0.16170000  0.65250000  0.08620000  1.0 -0.6292320206
O  O25  1  0.40250000  0.41170000  0.58620000  1.0 -0.6292320206
O  O26  1  0.82550000  0.81630000  0.41380000  1.0 -0.6292320206
O  O27  1  0.06630000  0.15250000  0.49080000  1.0 -0.6292320206
O  O28  1  0.66170000  0.57550000  0.50920000  1.0 -0.6292320206
O  O29  1  0.34750000  0.43370000  0.50920000  1.0 -0.6292320206
O  O30  1  0.92450000  0.83830000  0.49080000  1.0 -0.6292320206
O  O31  1  0.68370000  0.67450000  0.58620000  1.0 -0.6292320206
O  O32  1  0.08830000  0.09750000  0.41380000  1.0 -0.6292320206
O  O33  1  0.04760000  0.51200000  0.88540000  1.0 -0.6102784261
O  O34  1  0.62660000  0.16220000  0.11460000  1.0 -0.6102784261
O  O35  1  0.41220000  0.79760000  0.03560000  1.0 -0.6102784261
O  O36  1  0.76200000  0.37660000  0.96440000  1.0 -0.6102784261
O  O37  1  0.70240000  0.08780000  0.96440000  1.0 -0.6102784261
O  O38  1  0.12340000  0.73800000  0.03560000  1.0 -0.6102784261
O  O39  1  0.33780000  0.87340000  0.88540000  1.0 -0.6102784261
O  O40  1  0.98800000  0.45240000  0.11460000  1.0 -0.6102784261
O  O41  1  0.20240000  0.23800000  0.61460000  1.0 -0.6102784261
O  O42  1  0.62340000  0.58780000  0.38540000  1.0 -0.6102784261
O  O43  1  0.83780000  0.95240000  0.46440000  1.0 -0.6102784261
O  O44  1  0.48800000  0.37340000  0.53560000  1.0 -0.6102784261
O  O45  1  0.54760000  0.66220000  0.53560000  1.0 -0.6102784261
O  O46  1  0.12660000  0.01200000  0.46440000  1.0 -0.6102784261
O  O47  1  0.91220000  0.87660000  0.61460000  1.0 -0.6102784261
O  O48  1  0.26200000  0.29760000  0.38540000  1.0 -0.6102784261
O  O49  1  0.66240000  0.20700000  0.63960000  1.0 -0.589800612
O  O50  1  0.56740000  0.02280000  0.36040000  1.0 -0.589800612
O  O51  1  0.27280000  0.41240000  0.95540000  1.0 -0.589800612
O  O52  1  0.45700000  0.31740000  0.04460000  1.0 -0.589800612
O  O53  1  0.08760000  0.22720000  0.04460000  1.0 -0.5956662866
O  O54  1  0.18260000  0.04300000  0.95540000  1.0 -0.5956662866
O  O55  1  0.47720000  0.93260000  0.63960000  1.0 -0.589800612
O  O56  1  0.29300000  0.83760000  0.36040000  1.0 -0.589800612
O  O57  1  0.58760000  0.54300000  0.86040000  1.0 -0.589800612
O  O58  1  0.68260000  0.72720000  0.13960000  1.0 -0.589800612
O  O59  1  0.97720000  0.33760000  0.54460000  1.0 -0.589800612
O  O60  1  0.79300000  0.43260000  0.45540000  1.0 -0.589800612
O  O61  1  0.16240000  0.52280000  0.45540000  1.0 -0.589800612
O  O62  1  0.06740000  0.70700000  0.54460000  1.0 -0.5956662866
O  O63  1  0.77280000  0.81740000  0.86040000  1.0 -0.589800612
O  O64  1  0.95700000  0.91240000  0.13960000  1.0 -0.589800612
O  O65  1  0.88560000  0.40070000  0.67010000  1.0 -0.6489692179
O  O66  1  0.73060000  0.21550000  0.32990000  1.0 -0.6489692179
O  O67  1  0.46550000  0.63560000  0.98490000  1.0 -0.6489692179
O  O68  1  0.65070000  0.48060000  0.01510000  1.0 -0.6489692179
O  O69  1  0.86440000  0.03450000  0.01510000  1.0 -0.6489692179
O  O70  1  0.01940000  0.84930000  0.98490000  1.0 -0.6489692179
O  O71  1  0.28450000  0.76940000  0.67010000  1.0 -0.6489692179
O  O72  1  0.09930000  0.61440000  0.32990000  1.0 -0.6489692179
O  O73  1  0.36440000  0.34930000  0.82990000  1.0 -0.6489692179
O  O74  1  0.51940000  0.53450000  0.17010000  1.0 -0.6489692179
O  O75  1  0.78450000  0.11440000  0.51510000  1.0 -0.6489692179
O  O76  1  0.59930000  0.26940000  0.48490000  1.0 -0.6489692179
O  O77  1  0.38560000  0.71550000  0.48490000  1.0 -0.6489692179
O  O78  1  0.23060000  0.90070000  0.51510000  1.0 -0.6489692179
O  O79  1  0.96550000  0.98060000  0.82990000  1.0 -0.6489692179
O  O80  1  0.15070000  0.13560000  0.17010000  1.0 -0.6489692179
O  O81  1  0.70920000  0.25580000  0.70380000  1.0 -0.589800612
O  O82  1  0.55200000  0.00540000  0.29620000  1.0 -0.589800612
O  O83  1  0.25540000  0.45920000  0.95340000  1.0 -0.589800612
O  O84  1  0.50580000  0.30200000  0.04660000  1.0 -0.589800612
O  O85  1  0.04080000  0.24460000  0.04660000  1.0 -0.589800612
O  O86  1  0.19800000  0.99420000  0.95340000  1.0 -0.589800612
O  O87  1  0.49460000  0.94800000  0.70380000  1.0 -0.589800612
O  O88  1  0.24420000  0.79080000  0.29620000  1.0 -0.589800612
O  O89  1  0.54080000  0.49420000  0.79620000  1.0 -0.589800612
O  O90  1  0.69800000  0.74460000  0.20380000  1.0 -0.589800612
O  O91  1  0.99460000  0.29080000  0.54660000  1.0 -0.589800612
O  O92  1  0.74420000  0.44800000  0.45340000  1.0 -0.589800612
O  O93  1  0.20920000  0.50540000  0.45340000  1.0 -0.589800612
O  O94  1  0.05200000  0.75580000  0.54660000  1.0 -0.589800612
O  O95  1  0.75540000  0.80200000  0.79620000  1.0 -0.589800612
O  O96  1  0.00580000  0.95920000  0.20380000  1.0 -0.5846099031
O  O97  1  0.54520000  0.09070000  0.55590000  1.0 -0.6794184728
O  O98  1  0.53480000  0.98930000  0.44410000  1.0 -0.6794184728
O  O99  1  0.23930000  0.29520000  0.95450000  1.0 -0.6794184728
O  O100  1  0.34070000  0.28480000  0.04550000  1.0 -0.6794184728
O  O101  1  0.20480000  0.26070000  0.04550000  1.0 -0.6794184728
O  O102  1  0.21520000  0.15930000  0.95450000  1.0 -0.6794184728
O  O103  1  0.51070000  0.96520000  0.55590000  1.0 -0.6723951838
O  O104  1  0.40930000  0.95480000  0.44410000  1.0 -0.6723951838
O  O105  1  0.70480000  0.65930000  0.94410000  1.0 -0.6794184728
O  O106  1  0.71520000  0.76070000  0.05590000  1.0 -0.6794184728
O  O107  1  0.01070000  0.45480000  0.54550000  1.0 -0.6723951838
O  O108  1  0.90930000  0.46520000  0.45450000  1.0 -0.6794184728
O  O109  1  0.04520000  0.48930000  0.45450000  1.0 -0.6794184728
O  O110  1  0.03480000  0.59070000  0.54550000  1.0 -0.6723951838
O  O111  1  0.73930000  0.78480000  0.94410000  1.0 -0.6794184728
O  O112  1  0.84070000  0.79520000  0.05590000  1.0 -0.6723951838
O  O113  1  0.35950000  0.88310000  0.58800000  1.0 -0.6794184728
O  O114  1  0.29510000  0.77150000  0.41200000  1.0 -0.6794184728
O  O115  1  0.02150000  0.10950000  0.97640000  1.0 -0.6794184728
O  O116  1  0.13310000  0.04510000  0.02360000  1.0 -0.6794184728
O  O117  1  0.39050000  0.47850000  0.02360000  1.0 -0.6794184728
O  O118  1  0.45490000  0.36690000  0.97640000  1.0 -0.6794184728
O  O119  1  0.72850000  0.20490000  0.58800000  1.0 -0.6794184728
O  O120  1  0.61690000  0.14050000  0.41200000  1.0 -0.6794184728
O  O121  1  0.89050000  0.86690000  0.91200000  1.0 -0.6794184728
O  O122  1  0.95490000  0.97850000  0.08800000  1.0 -0.6794184728
O  O123  1  0.22850000  0.64050000  0.52360000  1.0 -0.6794184728
O  O124  1  0.11690000  0.70490000  0.47640000  1.0 -0.6794184728
O  O125  1  0.85950000  0.27150000  0.47640000  1.0 -0.6794184728
O  O126  1  0.79510000  0.38310000  0.52360000  1.0 -0.6794184728
O  O127  1  0.52150000  0.54510000  0.91200000  1.0 -0.6794184728
O  O128  1  0.63310000  0.60950000  0.08800000  1.0 -0.6794184728
O  O129  1  0.31850000  0.89990000  0.55100000  1.0 -0.6151272428
O  O130  1  0.34890000  0.76750000  0.44900000  1.0 -0.6102784261
O  O131  1  0.01750000  0.06850000  0.91860000  1.0 -0.6102784261
O  O132  1  0.14990000  0.09890000  0.08140000  1.0 -0.6102784261
O  O133  1  0.43150000  0.48250000  0.08140000  1.0 -0.6102784261
O  O134  1  0.40110000  0.35010000  0.91860000  1.0 -0.6102784261
O  O135  1  0.73250000  0.15110000  0.55100000  1.0 -0.6102784261
O  O136  1  0.60010000  0.18150000  0.44900000  1.0 -0.6102784261
O  O137  1  0.93150000  0.85010000  0.94900000  1.0 -0.6102784261
O  O138  1  0.90110000  0.98250000  0.05100000  1.0 -0.6102784261
O  O139  1  0.23250000  0.68150000  0.58140000  1.0 -0.6102784261
O  O140  1  0.10010000  0.65110000  0.41860000  1.0 -0.6102784261
O  O141  1  0.81850000  0.26750000  0.41860000  1.0 -0.6102784261
O  O142  1  0.84890000  0.39990000  0.58140000  1.0 -0.6102784261
O  O143  1  0.51750000  0.59890000  0.94900000  1.0 -0.6102784261
O  O144  1  0.64990000  0.56850000  0.05100000  1.0 -0.6102784261
O  O145  1  0.97390000  0.50220000  0.83010000  1.0 -0.7014157248
O  O146  1  0.67210000  0.14380000  0.16990000  1.0 -0.7014157248
O  O147  1  0.39380000  0.72390000  0.97170000  1.0 -0.7014157248
O  O148  1  0.75220000  0.42210000  0.02830000  1.0 -0.7014157248
O  O149  1  0.77610000  0.10620000  0.02830000  1.0 -0.7014157248
O  O150  1  0.07790000  0.74780000  0.97170000  1.0 -0.7014157248
O  O151  1  0.35620000  0.82790000  0.83010000  1.0 -0.7014157248
O  O152  1  0.99780000  0.52610000  0.16990000  1.0 -0.7014157248
O  O153  1  0.27610000  0.24780000  0.66990000  1.0 -0.7014157248
O  O154  1  0.57790000  0.60620000  0.33010000  1.0 -0.7014157248
O  O155  1  0.85620000  0.02610000  0.52830000  1.0 -0.7014157248
O  O156  1  0.49780000  0.32790000  0.47170000  1.0 -0.7014157248
O  O157  1  0.47390000  0.64380000  0.47170000  1.0 -0.7014157248
O  O158  1  0.17210000  0.00220000  0.52830000  1.0 -0.7014157248
O  O159  1  0.89380000  0.92210000  0.66990000  1.0 -0.7014157248
O  O160  1  0.25220000  0.22390000  0.33010000  1.0 -0.7014157248
O  O161  1  0.96060000  0.50480000  0.76400000  1.0 -0.6630827228
O  O162  1  0.74080000  0.19660000  0.23600000  1.0 -0.6630827228
O  O163  1  0.44660000  0.71060000  0.95580000  1.0 -0.6630827228
O  O164  1  0.75480000  0.49080000  0.04420000  1.0 -0.6630827228
O  O165  1  0.78940000  0.05340000  0.04420000  1.0 -0.6630827228
O  O166  1  0.00920000  0.74520000  0.95580000  1.0 -0.6630827228
O  O167  1  0.30340000  0.75920000  0.76400000  1.0 -0.6630827228
O  O168  1  0.99520000  0.53940000  0.23600000  1.0 -0.6630827228
O  O169  1  0.28940000  0.24520000  0.73600000  1.0 -0.6630827228
O  O170  1  0.50920000  0.55340000  0.26400000  1.0 -0.6630827228
O  O171  1  0.80340000  0.03940000  0.54420000  1.0 -0.6723951838
O  O172  1  0.49520000  0.25920000  0.45580000  1.0 -0.6630827228
O  O173  1  0.46060000  0.69660000  0.45580000  1.0 -0.6630827228
O  O174  1  0.24080000  0.00480000  0.54420000  1.0 -0.6723951838
O  O175  1  0.94660000  0.99080000  0.73600000  1.0 -0.6630827228
O  O176  1  0.25480000  0.21060000  0.26400000  1.0 -0.6630827228
O  O177  1  0.17330000  0.72010000  0.80360000  1.0 -0.6630827228
O  O178  1  0.91650000  0.36970000  0.19640000  1.0 -0.6723951838
O  O179  1  0.61970000  0.92330000  0.95320000  1.0 -0.6630827228
O  O180  1  0.97010000  0.66650000  0.04680000  1.0 -0.6630827228
O  O181  1  0.57670000  0.88030000  0.04680000  1.0 -0.6630827228
O  O182  1  0.83350000  0.52990000  0.95320000  1.0 -0.6630827228
O  O183  1  0.13030000  0.58350000  0.80360000  1.0 -0.6630827228
O  O184  1  0.77990000  0.32670000  0.19640000  1.0 -0.6723951838
O  O185  1  0.07670000  0.02990000  0.69640000  1.0 -0.6630827228
O  O186  1  0.33350000  0.38030000  0.30360000  1.0 -0.6630827228
O  O187  1  0.63030000  0.82670000  0.54680000  1.0 -0.6630827228
O  O188  1  0.27990000  0.08350000  0.45320000  1.0 -0.6723951838
O  O189  1  0.67330000  0.86970000  0.45320000  1.0 -0.6630827228
O  O190  1  0.41650000  0.22010000  0.54680000  1.0 -0.6630827228
O  O191  1  0.11970000  0.16650000  0.69640000  1.0 -0.6630827228
O  O192  1  0.47010000  0.42330000  0.30360000  1.0 -0.6630827228
O  O193  1  0.80460000  0.28060000  0.75280000  1.0 -0.7207450513
O  O194  1  0.52780000  0.05180000  0.24720000  1.0 -0.7207450513
O  O195  1  0.30180000  0.55460000  0.02400000  1.0 -0.7207450513
O  O196  1  0.53060000  0.27780000  0.97600000  1.0 -0.7207450513
O  O197  1  0.94540000  0.19820000  0.97600000  1.0 -0.7207450513
O  O198  1  0.22220000  0.96940000  0.02400000  1.0 -0.7207450513
O  O199  1  0.44820000  0.97220000  0.75280000  1.0 -0.7207450513
O  O200  1  0.21940000  0.69540000  0.24720000  1.0 -0.7255723847
O  O201  1  0.44540000  0.46940000  0.74720000  1.0 -0.7207450513
O  O202  1  0.72220000  0.69820000  0.25280000  1.0 -0.7207450513
O  O203  1  0.94820000  0.19540000  0.47600000  1.0 -0.7207450513
O  O204  1  0.71940000  0.47220000  0.52400000  1.0 -0.7207450513
O  O205  1  0.30460000  0.55180000  0.52400000  1.0 -0.7207450513
O  O206  1  0.02780000  0.78060000  0.47600000  1.0 -0.7255723847
O  O207  1  0.80180000  0.77780000  0.74720000  1.0 -0.7207450513
O  O208  1  0.03060000  0.05460000  0.25280000  1.0 -0.7207450513
O  O209  1  0.62678000  0.07530000  0.78188000  1.0 -0.6723951838
O  O210  1  0.29342000  0.84490000  0.21812000  1.0 -0.6723951838
O  O211  1  0.09490000  0.37678000  0.05148000  1.0 -0.6723951838
O  O212  1  0.32530000  0.04342000  0.94852000  1.0 -0.6723951838
O  O213  1  0.12322000  0.40510000  0.94852000  1.0 -0.6723951838
O  O214  1  0.45658000  0.17470000  0.05148000  1.0 -0.6723951838
O  O215  1  0.65510000  0.20658000  0.78188000  1.0 -0.6723951838
O  O216  1  0.42470000  0.87322000  0.21812000  1.0 -0.6723951838
O  O217  1  0.62322000  0.67470000  0.71812000  1.0 -0.6723951838
O  O218  1  0.95658000  0.90510000  0.28188000  1.0 -0.6723951838
O  O219  1  0.15510000  0.37322000  0.44852000  1.0 -0.6723951838
O  O220  1  0.92470000  0.70658000  0.55148000  1.0 -0.6723951838
O  O221  1  0.12678000  0.34490000  0.55148000  1.0 -0.6723951838
O  O222  1  0.79342000  0.57530000  0.44852000  1.0 -0.6723951838
O  O223  1  0.59490000  0.54342000  0.71812000  1.0 -0.6723951838
O  O224  1  0.82530000  0.87678000  0.28188000  1.0 -0.6723951838
O  O225  1  0.83160000  0.29200000  0.81980000  1.0 -0.6292320206
O  O226  1  0.47220000  0.01180000  0.18020000  1.0 -0.6292320206
O  O227  1  0.26180000  0.58160000  0.03960000  1.0 -0.6292320206
O  O228  1  0.54200000  0.22220000  0.96040000  1.0 -0.6292320206
O  O229  1  0.91840000  0.23820000  0.96040000  1.0 -0.6292320206
O  O230  1  0.27780000  0.95800000  0.03960000  1.0 -0.6292320206
O  O231  1  0.48820000  0.02780000  0.81980000  1.0 -0.6292320206
O  O232  1  0.20800000  0.66840000  0.18020000  1.0 -0.6292320206
O  O233  1  0.41840000  0.45800000  0.68020000  1.0 -0.6292320206
O  O234  1  0.77780000  0.73820000  0.31980000  1.0 -0.6292320206
O  O235  1  0.98820000  0.16840000  0.46040000  1.0 -0.6292320206
O  O236  1  0.70800000  0.52780000  0.53960000  1.0 -0.6292320206
O  O237  1  0.33160000  0.51180000  0.53960000  1.0 -0.6351330054
O  O238  1  0.97220000  0.79200000  0.46040000  1.0 -0.6292320206
O  O239  1  0.76180000  0.72220000  0.68020000  1.0 -0.6292320206
O  O240  1  0.04200000  0.08160000  0.31980000  1.0 -0.6292320206
F  F1  1  0.87500000  0.36550000  0.99050000  1.0 -0.553499162
F  F2  1  0.37500000  0.88450000  0.00950000  1.0 -0.553499162
F  F3  1  0.13450000  0.62500000  0.00950000  1.0 -0.553499162
F  F4  1  0.61550000  0.12500000  0.99050000  1.0 -0.553499162
F  F5  1  0.37500000  0.38450000  0.50950000  1.0 -0.553499162
F  F6  1  0.87500000  0.86550000  0.49050000  1.0 -0.553499162
F  F7  1  0.11550000  0.12500000  0.49050000  1.0 -0.553499162
F  F8  1  0.63450000  0.62500000  0.50950000  1.0 -0.553499162
