# DDEC6 charges by PACMAN v1.1 (https://github.com/mtap-research/PACMAN-charge/)
data_LETQAE01_ASR_pacman
_symmetry_space_group_name_H-M   'P 1'
_cell_length_a   41.10710000
_cell_length_b   41.10710000
_cell_length_c   10.03760000
_cell_angle_alpha   90.00000000
_cell_angle_beta   90.00000000
_cell_angle_gamma   107.59200000
_symmetry_Int_Tables_number   1
_chemical_formula_structural   Zn27Ga4P38H26(O59F2)2
_chemical_formula_sum   'Zn54 Ga8 P76 H52 O236 F8'
_cell_volume   16168.23365971
_cell_formula_units_Z   2
loop_
 _symmetry_equiv_pos_site_id
 _symmetry_equiv_pos_as_xyz
  1  'x, y, z'
loop_
 _atom_site_type_symbol
 _atom_site_label
 _atom_site_symmetry_multiplicity
 _atom_site_fract_x
 _atom_site_fract_y
 _atom_site_fract_z
 _atom_site_occupancy
 _atom_site_charge
Zn  Zn1  1  0.35975000  0.17691000  0.92297000  1.0 1.0707154996
Zn  Zn2  1  0.14025000  0.32309000  0.42297000  1.0 1.0632440772
Zn  Zn3  1  0.32309000  0.14025000  0.57703000  1.0 1.0707154996
Zn  Zn4  1  0.17691000  0.35975000  0.07703000  1.0 1.0632440772
Zn  Zn5  1  0.64025000  0.82309000  0.07703000  1.0 1.0707154996
Zn  Zn6  1  0.85975000  0.67691000  0.57703000  1.0 1.0707154996
Zn  Zn7  1  0.67691000  0.85975000  0.42297000  1.0 1.0707154996
Zn  Zn8  1  0.82309000  0.64025000  0.92297000  1.0 1.0707154996
Zn  Zn9  1  0.45494000  0.42258000  0.82938000  1.0 1.025249454
Zn  Zn10  1  0.04506000  0.07742000  0.32938000  1.0 1.025249454
Zn  Zn11  1  0.07742000  0.04506000  0.67062000  1.0 1.025249454
Zn  Zn12  1  0.42258000  0.45494000  0.17062000  1.0 1.0240916934
Zn  Zn13  1  0.54506000  0.57742000  0.17062000  1.0 1.0240916934
Zn  Zn14  1  0.95494000  0.92258000  0.67062000  1.0 1.0240916934
Zn  Zn15  1  0.92258000  0.95494000  0.32938000  1.0 1.025249454
Zn  Zn16  1  0.57742000  0.54506000  0.82938000  1.0 1.0240916934
Zn  Zn17  1  0.41009000  0.13393000  0.42010000  1.0 1.0503075249
Zn  Zn18  1  0.08991000  0.36607000  0.92010000  1.0 1.0503075249
Zn  Zn19  1  0.36607000  0.08991000  0.07990000  1.0 1.0503075249
Zn  Zn20  1  0.13393000  0.41009000  0.57990000  1.0 1.0503075249
Zn  Zn21  1  0.58991000  0.86607000  0.57990000  1.0 1.0503075249
Zn  Zn22  1  0.91009000  0.63393000  0.07990000  1.0 1.0503075249
Zn  Zn23  1  0.63393000  0.91009000  0.92010000  1.0 1.0503075249
Zn  Zn24  1  0.86607000  0.58991000  0.42010000  1.0 1.0503075249
Zn  Zn25  1  0.50000000  0.50000000  0.50000000  1.0 1.0931787219
Zn  Zn26  1  0.00000000  0.00000000  0.00000000  1.0 1.0931787219
Zn  Zn27  1  0.43265000  0.06735000  0.75000000  1.0 1.0503075249
Zn  Zn28  1  0.06735000  0.43265000  0.25000000  1.0 1.0503075249
Zn  Zn29  1  0.56735000  0.93265000  0.25000000  1.0 1.0503075249
Zn  Zn30  1  0.93265000  0.56735000  0.75000000  1.0 1.0503075249
Zn  Zn31  1  0.36164000  0.38806000  0.67286000  1.0 1.0771183994
Zn  Zn32  1  0.13836000  0.11194000  0.17286000  1.0 1.0771183994
Zn  Zn33  1  0.11194000  0.13836000  0.82714000  1.0 1.0771183994
Zn  Zn34  1  0.38806000  0.36164000  0.32714000  1.0 1.0771183994
Zn  Zn35  1  0.63836000  0.61194000  0.32714000  1.0 1.0771183994
Zn  Zn36  1  0.86164000  0.88806000  0.82714000  1.0 1.0771183994
Zn  Zn37  1  0.88806000  0.86164000  0.17286000  1.0 1.0771183994
Zn  Zn38  1  0.61194000  0.63836000  0.67286000  1.0 1.0771183994
Zn  Zn39  1  0.49593000  0.04107000  0.40340000  1.0 0.4356464685
Zn  Zn40  1  0.00407000  0.45893000  0.90340000  1.0 0.4356464685
Zn  Zn41  1  0.45893000  0.00407000  0.09660000  1.0 0.4356464685
Zn  Zn42  1  0.04107000  0.49593000  0.59660000  1.0 0.4356464685
Zn  Zn43  1  0.50407000  0.95893000  0.59660000  1.0 0.4356464685
Zn  Zn44  1  0.99593000  0.54107000  0.09660000  1.0 0.4356464685
Zn  Zn45  1  0.54107000  0.99593000  0.90340000  1.0 0.4343563643
Zn  Zn46  1  0.95893000  0.50407000  0.40340000  1.0 0.4356464685
Zn  Zn47  1  0.99650000  0.45150000  0.93700000  1.0 0.4558360007
Zn  Zn48  1  0.50350000  0.04850000  0.43700000  1.0 0.4541410234
Zn  Zn49  1  0.04850000  0.50350000  0.56300000  1.0 0.4541410234
Zn  Zn50  1  0.45150000  0.99650000  0.06300000  1.0 0.4558360007
Zn  Zn51  1  0.00350000  0.54850000  0.06300000  1.0 0.4558360007
Zn  Zn52  1  0.49650000  0.95150000  0.56300000  1.0 0.4558360007
Zn  Zn53  1  0.95150000  0.49650000  0.43700000  1.0 0.4541410234
Zn  Zn54  1  0.54850000  0.00350000  0.93700000  1.0 0.4558360007
Ga  Ga1  1  0.22315000  0.27685000  0.75000000  1.0 1.43101612
Ga  Ga2  1  0.27685000  0.22315000  0.25000000  1.0 1.43101612
Ga  Ga3  1  0.77685000  0.72315000  0.25000000  1.0 1.43101612
Ga  Ga4  1  0.72315000  0.77685000  0.75000000  1.0 1.43101612
Ga  Ga5  1  0.28673000  0.28673000  0.00000000  1.0 1.43101612
Ga  Ga6  1  0.21327000  0.21327000  0.50000000  1.0 1.43101612
Ga  Ga7  1  0.71327000  0.71327000  0.00000000  1.0 1.43101612
Ga  Ga8  1  0.78673000  0.78673000  0.50000000  1.0 1.43101612
P  P1  1  0.29940000  0.32230000  0.71950000  1.0 1.2436528829
P  P2  1  0.20060000  0.17770000  0.21950000  1.0 1.2436528829
P  P3  1  0.17770000  0.20060000  0.78050000  1.0 1.2436528829
P  P4  1  0.32230000  0.29940000  0.28050000  1.0 1.2436528829
P  P5  1  0.70060000  0.67770000  0.28050000  1.0 1.2436528829
P  P6  1  0.79940000  0.82230000  0.78050000  1.0 1.2436528829
P  P7  1  0.82230000  0.79940000  0.21950000  1.0 1.2436528829
P  P8  1  0.67770000  0.70060000  0.71950000  1.0 1.2436528829
P  P9  1  0.31015000  0.22103000  0.96940000  1.0 1.2855031964
P  P10  1  0.18985000  0.27897000  0.46940000  1.0 1.2855031964
P  P11  1  0.27897000  0.18985000  0.53060000  1.0 1.2855031964
P  P12  1  0.22103000  0.31015000  0.03060000  1.0 1.2855031964
P  P13  1  0.68985000  0.77897000  0.03060000  1.0 1.2855031964
P  P14  1  0.81015000  0.72103000  0.53060000  1.0 1.2855031964
P  P15  1  0.72103000  0.81015000  0.46940000  1.0 1.2855031964
P  P16  1  0.77897000  0.68985000  0.96940000  1.0 1.2855031964
P  P17  1  0.42846000  0.37170000  0.60140000  1.0 1.122349104
P  P18  1  0.07154000  0.12830000  0.10140000  1.0 1.128384106
P  P19  1  0.12830000  0.07154000  0.89860000  1.0 1.128384106
P  P20  1  0.37170000  0.42846000  0.39860000  1.0 1.128384106
P  P21  1  0.57154000  0.62830000  0.39860000  1.0 1.122349104
P  P22  1  0.92846000  0.87170000  0.89860000  1.0 1.122349104
P  P23  1  0.87170000  0.92846000  0.10140000  1.0 1.122349104
P  P24  1  0.62830000  0.57154000  0.60140000  1.0 1.122349104
P  P25  1  0.39831000  0.17861000  0.64690000  1.0 1.122349104
P  P26  1  0.10169000  0.32139000  0.14690000  1.0 1.128384106
P  P27  1  0.32139000  0.10169000  0.85310000  1.0 1.122349104
P  P28  1  0.17861000  0.39831000  0.35310000  1.0 1.128384106
P  P29  1  0.60169000  0.82139000  0.35310000  1.0 1.128384106
P  P30  1  0.89831000  0.67861000  0.85310000  1.0 1.122349104
P  P31  1  0.67861000  0.89831000  0.14690000  1.0 1.122349104
P  P32  1  0.82139000  0.60169000  0.64690000  1.0 1.122349104
P  P33  1  0.40872000  0.16576000  0.14140000  1.0 1.2055952278
P  P34  1  0.09128000  0.33424000  0.64140000  1.0 1.1997541216
P  P35  1  0.33424000  0.09128000  0.35860000  1.0 1.1997541216
P  P36  1  0.16576000  0.40872000  0.85860000  1.0 1.1997541216
P  P37  1  0.59128000  0.83424000  0.85860000  1.0 1.1997541216
P  P38  1  0.90872000  0.66576000  0.35860000  1.0 1.1997541216
P  P39  1  0.66576000  0.90872000  0.64140000  1.0 1.1997541216
P  P40  1  0.83424000  0.59128000  0.14140000  1.0 1.1997541216
P  P41  1  0.46719000  0.10127000  0.46150000  1.0 1.1586966754
P  P42  1  0.03281000  0.39873000  0.96150000  1.0 1.1586966754
P  P43  1  0.39873000  0.03281000  0.03850000  1.0 1.1586966754
P  P44  1  0.10127000  0.46719000  0.53850000  1.0 1.1586966754
P  P45  1  0.53281000  0.89873000  0.53850000  1.0 1.1586966754
P  P46  1  0.96719000  0.60127000  0.03850000  1.0 1.1586966754
P  P47  1  0.60127000  0.96719000  0.96150000  1.0 1.1508008447
P  P48  1  0.89873000  0.53281000  0.46150000  1.0 1.1586966754
P  P49  1  0.38875000  0.44319000  0.89070000  1.0 1.1904306481
P  P50  1  0.11125000  0.05681000  0.39070000  1.0 1.1904306481
P  P51  1  0.05681000  0.11125000  0.60930000  1.0 1.1904306481
P  P52  1  0.44319000  0.38875000  0.10930000  1.0 1.1904306481
P  P53  1  0.61125000  0.55681000  0.10930000  1.0 1.1904306481
P  P54  1  0.88875000  0.94319000  0.60930000  1.0 1.1997541216
P  P55  1  0.94319000  0.88875000  0.39070000  1.0 1.1904306481
P  P56  1  0.55681000  0.61125000  0.89070000  1.0 1.1904306481
P  P57  1  0.52532000  0.47468000  0.78510000  1.0 1.1508008447
P  P58  1  0.97468000  0.02532000  0.28510000  1.0 1.1508008447
P  P59  1  0.02532000  0.97468000  0.71490000  1.0 1.1508008447
P  P60  1  0.47468000  0.52532000  0.21490000  1.0 1.1508008447
P  P61  1  0.45850000  0.96910000  0.37200000  1.0 0.270324177
P  P62  1  0.04150000  0.53090000  0.87200000  1.0 0.270324177
P  P63  1  0.53090000  0.04150000  0.12800000  1.0 0.270324177
P  P64  1  0.96910000  0.45850000  0.62800000  1.0 0.270324177
P  P65  1  0.54150000  0.03090000  0.62800000  1.0 0.270324177
P  P66  1  0.95850000  0.46910000  0.12800000  1.0 0.270324177
P  P67  1  0.46910000  0.95850000  0.87200000  1.0 0.270324177
P  P68  1  0.03090000  0.54150000  0.37200000  1.0 0.270324177
P  P69  1  0.95380000  0.46480000  0.16900000  1.0 0.3079998043
P  P70  1  0.54620000  0.03520000  0.66900000  1.0 0.3039996551
P  P71  1  0.03520000  0.54620000  0.33100000  1.0 0.3079998043
P  P72  1  0.46480000  0.95380000  0.83100000  1.0 0.3079998043
P  P73  1  0.04620000  0.53520000  0.83100000  1.0 0.3039996551
P  P74  1  0.45380000  0.96480000  0.33100000  1.0 0.3079998043
P  P75  1  0.96480000  0.45380000  0.66900000  1.0 0.3079998043
P  P76  1  0.53520000  0.04620000  0.16900000  1.0 0.3039996551
H  H1  1  0.30570000  0.29670000  0.64250000  1.0 -0.0686276469
H  H2  1  0.19430000  0.20330000  0.14250000  1.0 -0.0686276469
H  H3  1  0.20330000  0.19430000  0.85750000  1.0 -0.0686276469
H  H4  1  0.29670000  0.30570000  0.35750000  1.0 -0.0686276469
H  H5  1  0.69430000  0.70330000  0.35750000  1.0 -0.0686276469
H  H6  1  0.80570000  0.79670000  0.85750000  1.0 -0.0686276469
H  H7  1  0.79670000  0.80570000  0.14250000  1.0 -0.0686276469
H  H8  1  0.70330000  0.69430000  0.64250000  1.0 -0.0686276469
H  H9  1  0.28140000  0.20280000  0.89240000  1.0 -0.0686276469
H  H10  1  0.21860000  0.29720000  0.39240000  1.0 -0.0686276469
H  H11  1  0.29720000  0.21860000  0.60760000  1.0 -0.0686276469
H  H12  1  0.20280000  0.28140000  0.10760000  1.0 -0.0686276469
H  H13  1  0.71860000  0.79720000  0.10760000  1.0 -0.0686276469
H  H14  1  0.78140000  0.70280000  0.60760000  1.0 -0.0686276469
H  H15  1  0.70280000  0.78140000  0.39240000  1.0 -0.0686276469
H  H16  1  0.79720000  0.71860000  0.89240000  1.0 -0.0686276469
H  H17  1  0.44210000  0.34990000  0.63010000  1.0 -0.200863463
H  H18  1  0.05790000  0.15010000  0.13010000  1.0 -0.200863463
H  H19  1  0.15010000  0.05790000  0.86990000  1.0 -0.2079398919
H  H20  1  0.34990000  0.44210000  0.36990000  1.0 -0.2079398919
H  H21  1  0.55790000  0.65010000  0.36990000  1.0 -0.2079398919
H  H22  1  0.94210000  0.84990000  0.86990000  1.0 -0.200863463
H  H23  1  0.84990000  0.94210000  0.13010000  1.0 -0.200863463
H  H24  1  0.65010000  0.55790000  0.63010000  1.0 -0.2079398919
H  H25  1  0.41680000  0.20360000  0.62530000  1.0 -0.1147919593
H  H26  1  0.08320000  0.29640000  0.12530000  1.0 -0.1172640633
H  H27  1  0.29640000  0.08320000  0.87470000  1.0 -0.1271415773
H  H28  1  0.20360000  0.41680000  0.37470000  1.0 -0.1147919593
H  H29  1  0.58320000  0.79640000  0.37470000  1.0 -0.1271415773
H  H30  1  0.91680000  0.70360000  0.87470000  1.0 -0.1271415773
H  H31  1  0.70360000  0.91680000  0.12530000  1.0 -0.1147919593
H  H32  1  0.79640000  0.58320000  0.62530000  1.0 -0.1271415773
H  H33  1  0.43850000  0.18450000  0.10380000  1.0 -0.2079398919
H  H34  1  0.06150000  0.31550000  0.60380000  1.0 -0.200863463
H  H35  1  0.31550000  0.06150000  0.39620000  1.0 -0.200863463
H  H36  1  0.18450000  0.43850000  0.89620000  1.0 -0.2079398919
H  H37  1  0.56150000  0.81550000  0.89620000  1.0 -0.200863463
H  H38  1  0.93850000  0.68450000  0.39620000  1.0 -0.2079398919
H  H39  1  0.68450000  0.93850000  0.60380000  1.0 -0.200863463
H  H40  1  0.81550000  0.56150000  0.10380000  1.0 -0.2079398919
H  H41  1  0.37490000  0.46510000  0.83950000  1.0 -0.200863463
H  H42  1  0.12510000  0.03490000  0.33950000  1.0 -0.200863463
H  H43  1  0.03490000  0.12510000  0.66050000  1.0 -0.200863463
H  H44  1  0.46510000  0.37490000  0.16050000  1.0 -0.200863463
H  H45  1  0.62510000  0.53490000  0.16050000  1.0 -0.200863463
H  H46  1  0.87490000  0.96510000  0.66050000  1.0 -0.200863463
H  H47  1  0.96510000  0.87490000  0.33950000  1.0 -0.200863463
H  H48  1  0.53490000  0.62510000  0.83950000  1.0 -0.200863463
H  H49  1  0.54190000  0.45810000  0.72670000  1.0 -0.308157491
H  H50  1  0.95810000  0.04190000  0.22670000  1.0 -0.308157491
H  H51  1  0.04190000  0.95810000  0.77330000  1.0 -0.308157491
H  H52  1  0.45810000  0.54190000  0.27330000  1.0 -0.2970810208
O  O1  1  0.26140000  0.31548000  0.70200000  1.0 -0.6502269861
O  O2  1  0.23860000  0.18452000  0.20200000  1.0 -0.6502269861
O  O3  1  0.18452000  0.23860000  0.79800000  1.0 -0.6502269861
O  O4  1  0.31548000  0.26140000  0.29800000  1.0 -0.6502269861
O  O5  1  0.73860000  0.68452000  0.29800000  1.0 -0.6502269861
O  O6  1  0.76140000  0.81548000  0.79800000  1.0 -0.6502269861
O  O7  1  0.81548000  0.76140000  0.20200000  1.0 -0.6502269861
O  O8  1  0.68452000  0.73860000  0.70200000  1.0 -0.6502269861
O  O9  1  0.31744000  0.35644000  0.66100000  1.0 -0.6206106347
O  O10  1  0.18256000  0.14356000  0.16100000  1.0 -0.6206106347
O  O11  1  0.14356000  0.18256000  0.83900000  1.0 -0.6206106347
O  O12  1  0.35644000  0.31744000  0.33900000  1.0 -0.6206106347
O  O13  1  0.68256000  0.64356000  0.33900000  1.0 -0.6206106347
O  O14  1  0.81744000  0.85644000  0.83900000  1.0 -0.6206106347
O  O15  1  0.85644000  0.81744000  0.16100000  1.0 -0.6206106347
O  O16  1  0.64356000  0.68256000  0.66100000  1.0 -0.6206106347
O  O17  1  0.31019000  0.31995000  0.86420000  1.0 -0.6390960458
O  O18  1  0.18981000  0.18005000  0.36420000  1.0 -0.6390960458
O  O19  1  0.18005000  0.18981000  0.63580000  1.0 -0.6305598888
O  O20  1  0.31995000  0.31019000  0.13580000  1.0 -0.6305598888
O  O21  1  0.68981000  0.68005000  0.13580000  1.0 -0.6390960458
O  O22  1  0.81019000  0.81995000  0.63580000  1.0 -0.6390960458
O  O23  1  0.81995000  0.81019000  0.36420000  1.0 -0.6390960458
O  O24  1  0.68005000  0.68981000  0.86420000  1.0 -0.6390960458
O  O25  1  0.31482000  0.25860000  0.95130000  1.0 -0.6614572081
O  O26  1  0.18518000  0.24140000  0.45130000  1.0 -0.6614572081
O  O27  1  0.24140000  0.18518000  0.54870000  1.0 -0.6614572081
O  O28  1  0.25860000  0.31482000  0.04870000  1.0 -0.6614572081
O  O29  1  0.68518000  0.74140000  0.04870000  1.0 -0.6614572081
O  O30  1  0.81482000  0.75860000  0.54870000  1.0 -0.6614572081
O  O31  1  0.75860000  0.81482000  0.45130000  1.0 -0.6614572081
O  O32  1  0.74140000  0.68518000  0.95130000  1.0 -0.6614572081
O  O33  1  0.19582000  0.29086000  0.61580000  1.0 -0.6502269861
O  O34  1  0.30418000  0.20914000  0.11580000  1.0 -0.6502269861
O  O35  1  0.20914000  0.30418000  0.88420000  1.0 -0.6502269861
O  O36  1  0.29086000  0.19582000  0.38420000  1.0 -0.6502269861
O  O37  1  0.80418000  0.70914000  0.38420000  1.0 -0.6502269861
O  O38  1  0.69582000  0.79086000  0.88420000  1.0 -0.6502269861
O  O39  1  0.79086000  0.69582000  0.11580000  1.0 -0.6502269861
O  O40  1  0.70914000  0.80418000  0.61580000  1.0 -0.6502269861
O  O41  1  0.34053000  0.21341000  0.90970000  1.0 -0.6305598888
O  O42  1  0.15947000  0.28659000  0.40970000  1.0 -0.6305598888
O  O43  1  0.28659000  0.15947000  0.59030000  1.0 -0.6305598888
O  O44  1  0.21341000  0.34053000  0.09030000  1.0 -0.6305598888
O  O45  1  0.65947000  0.78659000  0.09030000  1.0 -0.6305598888
O  O46  1  0.84053000  0.71341000  0.59030000  1.0 -0.6305598888
O  O47  1  0.71341000  0.84053000  0.40970000  1.0 -0.6305598888
O  O48  1  0.78659000  0.65947000  0.90970000  1.0 -0.6305598888
O  O49  1  0.39553000  0.36329000  0.67900000  1.0 -0.6784853057
O  O50  1  0.10447000  0.13671000  0.17900000  1.0 -0.6784853057
O  O51  1  0.13671000  0.10447000  0.82100000  1.0 -0.6784853057
O  O52  1  0.36329000  0.39553000  0.32100000  1.0 -0.6784853057
O  O53  1  0.60447000  0.63671000  0.32100000  1.0 -0.6784853057
O  O54  1  0.89553000  0.86329000  0.82100000  1.0 -0.6742667827
O  O55  1  0.86329000  0.89553000  0.17900000  1.0 -0.6784853057
O  O56  1  0.63671000  0.60447000  0.67900000  1.0 -0.6784853057
O  O57  1  0.45452000  0.40440000  0.65050000  1.0 -0.6206106347
O  O58  1  0.04548000  0.09560000  0.15050000  1.0 -0.6206106347
O  O59  1  0.09560000  0.04548000  0.84950000  1.0 -0.6206106347
O  O60  1  0.40440000  0.45452000  0.34950000  1.0 -0.6206106347
O  O61  1  0.54548000  0.59560000  0.34950000  1.0 -0.6206106347
O  O62  1  0.95452000  0.90440000  0.84950000  1.0 -0.6206106347
O  O63  1  0.90440000  0.95452000  0.15050000  1.0 -0.6206106347
O  O64  1  0.59560000  0.54548000  0.65050000  1.0 -0.6206106347
O  O65  1  0.37323000  0.42493000  0.54550000  1.0 -0.6502269861
O  O66  1  0.12677000  0.07507000  0.04550000  1.0 -0.6502269861
O  O67  1  0.07507000  0.12677000  0.95450000  1.0 -0.6502269861
O  O68  1  0.42493000  0.37323000  0.45450000  1.0 -0.6502269861
O  O69  1  0.62677000  0.57507000  0.45450000  1.0 -0.6502269861
O  O70  1  0.87323000  0.92493000  0.95450000  1.0 -0.6502269861
O  O71  1  0.92493000  0.87323000  0.04550000  1.0 -0.6502269861
O  O72  1  0.57507000  0.62677000  0.54550000  1.0 -0.6502269861
O  O73  1  0.41567000  0.15301000  0.59990000  1.0 -0.6305598888
O  O74  1  0.08433000  0.34699000  0.09990000  1.0 -0.6305598888
O  O75  1  0.34699000  0.08433000  0.90010000  1.0 -0.6390960458
O  O76  1  0.15301000  0.41567000  0.40010000  1.0 -0.6305598888
O  O77  1  0.58433000  0.84699000  0.40010000  1.0 -0.6390960458
O  O78  1  0.91567000  0.65301000  0.90010000  1.0 -0.6305598888
O  O79  1  0.65301000  0.91567000  0.09990000  1.0 -0.6305598888
O  O80  1  0.84699000  0.58433000  0.59990000  1.0 -0.6305598888
O  O81  1  0.39428000  0.17578000  0.79370000  1.0 -0.6502269861
O  O82  1  0.10572000  0.32422000  0.29370000  1.0 -0.6502269861
O  O83  1  0.32422000  0.10572000  0.70630000  1.0 -0.6502269861
O  O84  1  0.17578000  0.39428000  0.20630000  1.0 -0.6502269861
O  O85  1  0.60572000  0.82422000  0.20630000  1.0 -0.6614572081
O  O86  1  0.89428000  0.67578000  0.70630000  1.0 -0.6502269861
O  O87  1  0.67578000  0.89428000  0.29370000  1.0 -0.6502269861
O  O88  1  0.82422000  0.60572000  0.79370000  1.0 -0.6502269861
O  O89  1  0.32245000  0.13339000  0.92970000  1.0 -0.6784853057
O  O90  1  0.17755000  0.36661000  0.42970000  1.0 -0.6742667827
O  O91  1  0.36661000  0.17755000  0.57030000  1.0 -0.6742667827
O  O92  1  0.13339000  0.32245000  0.07030000  1.0 -0.6784853057
O  O93  1  0.67755000  0.86661000  0.07030000  1.0 -0.6742667827
O  O94  1  0.82245000  0.63339000  0.57030000  1.0 -0.6784853057
O  O95  1  0.63339000  0.82245000  0.42970000  1.0 -0.6784853057
O  O96  1  0.86661000  0.67755000  0.92970000  1.0 -0.6784853057
O  O97  1  0.38177000  0.18103000  0.09470000  1.0 -0.6390960458
O  O98  1  0.11823000  0.31897000  0.59470000  1.0 -0.6390960458
O  O99  1  0.31897000  0.11823000  0.40530000  1.0 -0.6390960458
O  O100  1  0.18103000  0.38177000  0.90530000  1.0 -0.6390960458
O  O101  1  0.61823000  0.81897000  0.90530000  1.0 -0.6390960458
O  O102  1  0.88177000  0.68103000  0.40530000  1.0 -0.6390960458
O  O103  1  0.68103000  0.88177000  0.59470000  1.0 -0.6390960458
O  O104  1  0.81897000  0.61823000  0.09470000  1.0 -0.6390960458
O  O105  1  0.40969000  0.16741000  0.29070000  1.0 -0.6502269861
O  O106  1  0.09031000  0.33259000  0.79070000  1.0 -0.6502269861
O  O107  1  0.33259000  0.09031000  0.20930000  1.0 -0.6502269861
O  O108  1  0.16741000  0.40969000  0.70930000  1.0 -0.6502269861
O  O109  1  0.59031000  0.83259000  0.70930000  1.0 -0.6502269861
O  O110  1  0.90969000  0.66741000  0.20930000  1.0 -0.6502269861
O  O111  1  0.66741000  0.90969000  0.79070000  1.0 -0.6502269861
O  O112  1  0.83259000  0.59031000  0.29070000  1.0 -0.6502269861
O  O113  1  0.36971000  0.09461000  0.41890000  1.0 -0.6998010201
O  O114  1  0.13029000  0.40539000  0.91890000  1.0 -0.6998010201
O  O115  1  0.40539000  0.13029000  0.08110000  1.0 -0.7075251721
O  O116  1  0.09461000  0.36971000  0.58110000  1.0 -0.6998010201
O  O117  1  0.63029000  0.90539000  0.58110000  1.0 -0.6998010201
O  O118  1  0.86971000  0.59461000  0.08110000  1.0 -0.7075251721
O  O119  1  0.59461000  0.86971000  0.91890000  1.0 -0.6998010201
O  O120  1  0.90539000  0.63029000  0.41890000  1.0 -0.7075251721
O  O121  1  0.44307000  0.07745000  0.55520000  1.0 -0.7075251721
O  O122  1  0.05693000  0.42255000  0.05520000  1.0 -0.7075251721
O  O123  1  0.42255000  0.05693000  0.94480000  1.0 -0.7075251721
O  O124  1  0.07745000  0.44307000  0.44480000  1.0 -0.7075251721
O  O125  1  0.55693000  0.92255000  0.44480000  1.0 -0.7075251721
O  O126  1  0.94307000  0.57745000  0.94480000  1.0 -0.7075251721
O  O127  1  0.57745000  0.94307000  0.05520000  1.0 -0.7075251721
O  O128  1  0.92255000  0.55693000  0.55520000  1.0 -0.7075251721
O  O129  1  0.44963000  0.12017000  0.37550000  1.0 -0.6206106347
O  O130  1  0.05037000  0.37983000  0.87550000  1.0 -0.6206106347
O  O131  1  0.37983000  0.05037000  0.12450000  1.0 -0.6206106347
O  O132  1  0.12017000  0.44963000  0.62450000  1.0 -0.6206106347
O  O133  1  0.55037000  0.87983000  0.62450000  1.0 -0.6206106347
O  O134  1  0.94963000  0.62017000  0.12450000  1.0 -0.6206106347
O  O135  1  0.62017000  0.94963000  0.87550000  1.0 -0.6206106347
O  O136  1  0.87983000  0.55037000  0.37550000  1.0 -0.6206106347
O  O137  1  0.36444000  0.40962000  0.84510000  1.0 -0.6206106347
O  O138  1  0.13556000  0.09038000  0.34510000  1.0 -0.6305598888
O  O139  1  0.09038000  0.13556000  0.65490000  1.0 -0.6206106347
O  O140  1  0.40962000  0.36444000  0.15490000  1.0 -0.6206106347
O  O141  1  0.63556000  0.59038000  0.15490000  1.0 -0.6206106347
O  O142  1  0.86444000  0.90962000  0.65490000  1.0 -0.6305598888
O  O143  1  0.90962000  0.86444000  0.34510000  1.0 -0.6305598888
O  O144  1  0.59038000  0.63556000  0.84510000  1.0 -0.6305598888
O  O145  1  0.44438000  0.38776000  0.96050000  1.0 -0.6390960458
O  O146  1  0.05562000  0.11224000  0.46050000  1.0 -0.6390960458
O  O147  1  0.11224000  0.05562000  0.53950000  1.0 -0.6502269861
O  O148  1  0.38776000  0.44438000  0.03950000  1.0 -0.6390960458
O  O149  1  0.55562000  0.61224000  0.03950000  1.0 -0.6502269861
O  O150  1  0.94438000  0.88776000  0.53950000  1.0 -0.6502269861
O  O151  1  0.88776000  0.94438000  0.46050000  1.0 -0.6502269861
O  O152  1  0.61224000  0.55562000  0.96050000  1.0 -0.6390960458
O  O153  1  0.42467000  0.45085000  0.83300000  1.0 -0.6998010201
O  O154  1  0.07533000  0.04915000  0.33300000  1.0 -0.6998010201
O  O155  1  0.04915000  0.07533000  0.66700000  1.0 -0.6998010201
O  O156  1  0.45085000  0.42467000  0.16700000  1.0 -0.6998010201
O  O157  1  0.57533000  0.54915000  0.16700000  1.0 -0.6998010201
O  O158  1  0.92467000  0.95085000  0.66700000  1.0 -0.694225398
O  O159  1  0.95085000  0.92467000  0.33300000  1.0 -0.6998010201
O  O160  1  0.54915000  0.57533000  0.83300000  1.0 -0.6998010201
O  O161  1  0.50794000  0.49206000  0.69140000  1.0 -0.6742667827
O  O162  1  0.99206000  0.00794000  0.19140000  1.0 -0.6784853057
O  O163  1  0.00794000  0.99206000  0.80860000  1.0 -0.6784853057
O  O164  1  0.49206000  0.50794000  0.30860000  1.0 -0.6742667827
O  O165  1  0.50057000  0.45019000  0.87320000  1.0 -0.5799375299
O  O166  1  0.99943000  0.04981000  0.37320000  1.0 -0.5799375299
O  O167  1  0.04981000  0.99943000  0.62680000  1.0 -0.5799375299
O  O168  1  0.45019000  0.50057000  0.12680000  1.0 -0.5799375299
O  O169  1  0.49943000  0.54981000  0.12680000  1.0 -0.5799375299
O  O170  1  0.00057000  0.95019000  0.62680000  1.0 -0.5799375299
O  O171  1  0.95019000  0.00057000  0.37320000  1.0 -0.5799375299
O  O172  1  0.54981000  0.49943000  0.87320000  1.0 -0.5799375299
O  O173  1  0.48170000  0.07870000  0.35900000  1.0 -0.0986946748
O  O174  1  0.01830000  0.42130000  0.85900000  1.0 -0.0986946748
O  O175  1  0.42130000  0.01830000  0.14100000  1.0 -0.0986946748
O  O176  1  0.07870000  0.48170000  0.64100000  1.0 -0.0986946748
O  O177  1  0.51830000  0.92130000  0.64100000  1.0 -0.0986946748
O  O178  1  0.98170000  0.57870000  0.14100000  1.0 -0.0986946748
O  O179  1  0.57870000  0.98170000  0.85900000  1.0 -0.0986946748
O  O180  1  0.92130000  0.51830000  0.35900000  1.0 -0.0986946748
O  O181  1  0.45780000  0.00040000  0.42200000  1.0 -0.2079398919
O  O182  1  0.04220000  0.49960000  0.92200000  1.0 -0.200863463
O  O183  1  0.49960000  0.04220000  0.07800000  1.0 -0.200863463
O  O184  1  0.00040000  0.45780000  0.57800000  1.0 -0.200863463
O  O185  1  0.54220000  0.99960000  0.57800000  1.0 -0.200863463
O  O186  1  0.95780000  0.50040000  0.07800000  1.0 -0.200863463
O  O187  1  0.50040000  0.95780000  0.92200000  1.0 -0.200863463
O  O188  1  0.99960000  0.54220000  0.42200000  1.0 -0.2079398919
O  O189  1  0.53090000  0.03950000  0.28300000  1.0 -0.1529062773
O  O190  1  0.96910000  0.46050000  0.78300000  1.0 -0.1529062773
O  O191  1  0.46050000  0.96910000  0.21700000  1.0 -0.1529062773
O  O192  1  0.03950000  0.53090000  0.71700000  1.0 -0.1529062773
O  O193  1  0.46910000  0.96050000  0.71700000  1.0 -0.1529062773
O  O194  1  0.03090000  0.53950000  0.21700000  1.0 -0.1529062773
O  O195  1  0.53950000  0.03090000  0.78300000  1.0 -0.1529062773
O  O196  1  0.96050000  0.46910000  0.28300000  1.0 -0.1529062773
O  O197  1  0.51600000  0.04440000  0.59700000  1.0 -0.2784937445
O  O198  1  0.98400000  0.45560000  0.09700000  1.0 -0.2784937445
O  O199  1  0.45560000  0.98400000  0.90300000  1.0 -0.2784937445
O  O200  1  0.04440000  0.51600000  0.40300000  1.0 -0.2784937445
O  O201  1  0.48400000  0.95560000  0.40300000  1.0 -0.2784937445
O  O202  1  0.01600000  0.54440000  0.90300000  1.0 -0.2784937445
O  O203  1  0.54440000  0.01600000  0.09700000  1.0 -0.2784937445
O  O204  1  0.95560000  0.48400000  0.59700000  1.0 -0.2784937445
O  O205  1  0.00860000  0.40820000  0.89800000  1.0 -0.1408219479
O  O206  1  0.49140000  0.09180000  0.39800000  1.0 -0.1408219479
O  O207  1  0.09180000  0.49140000  0.60200000  1.0 -0.1408219479
O  O208  1  0.40820000  0.00860000  0.10200000  1.0 -0.1408219479
O  O209  1  0.99140000  0.59180000  0.10200000  1.0 -0.1408219479
O  O210  1  0.50860000  0.90820000  0.60200000  1.0 -0.1408219479
O  O211  1  0.90820000  0.50860000  0.39800000  1.0 -0.1408219479
O  O212  1  0.59180000  0.99140000  0.89800000  1.0 -0.1408219479
O  O213  1  0.51020000  0.96420000  0.89300000  1.0 -0.1172640633
O  O214  1  0.98980000  0.53580000  0.39300000  1.0 -0.1172640633
O  O215  1  0.53580000  0.98980000  0.60700000  1.0 -0.1147919593
O  O216  1  0.96420000  0.51020000  0.10700000  1.0 -0.1147919593
O  O217  1  0.48980000  0.03580000  0.10700000  1.0 -0.1147919593
O  O218  1  0.01020000  0.46420000  0.60700000  1.0 -0.1172640633
O  O219  1  0.46420000  0.01020000  0.39300000  1.0 -0.1172640633
O  O220  1  0.03580000  0.48980000  0.89300000  1.0 -0.1172640633
O  O221  1  0.95050000  0.46030000  0.31300000  1.0 -0.0686276469
O  O222  1  0.54950000  0.03970000  0.81300000  1.0 -0.0686276469
O  O223  1  0.03970000  0.54950000  0.18700000  1.0 -0.0686276469
O  O224  1  0.46030000  0.95050000  0.68700000  1.0 -0.0686276469
O  O225  1  0.04950000  0.53970000  0.68700000  1.0 -0.0686276469
O  O226  1  0.45050000  0.96030000  0.18700000  1.0 -0.0686276469
O  O227  1  0.96030000  0.45050000  0.81300000  1.0 -0.0686276469
O  O228  1  0.53970000  0.04950000  0.31300000  1.0 -0.0686276469
O  O229  1  0.98380000  0.44660000  0.07800000  1.0 -0.2164411053
O  O230  1  0.51620000  0.05340000  0.57800000  1.0 -0.2164411053
O  O231  1  0.05340000  0.51620000  0.42200000  1.0 -0.2164411053
O  O232  1  0.44660000  0.98380000  0.92200000  1.0 -0.2164411053
O  O233  1  0.01620000  0.55340000  0.92200000  1.0 -0.2164411053
O  O234  1  0.48380000  0.94660000  0.42200000  1.0 -0.2164411053
O  O235  1  0.94660000  0.48380000  0.57800000  1.0 -0.2164411053
O  O236  1  0.55340000  0.01620000  0.07800000  1.0 -0.2164411053
F  F1  1  0.23753000  0.24811000  0.62660000  1.0 -0.5579419631
F  F2  1  0.26247000  0.25189000  0.12660000  1.0 -0.5579419631
F  F3  1  0.25189000  0.26247000  0.87340000  1.0 -0.5579419631
F  F4  1  0.24811000  0.23753000  0.37340000  1.0 -0.5579419631
F  F5  1  0.76247000  0.75189000  0.37340000  1.0 -0.5579419631
F  F6  1  0.73753000  0.74811000  0.87340000  1.0 -0.5579419631
F  F7  1  0.74811000  0.73753000  0.12660000  1.0 -0.5579419631
F  F8  1  0.75189000  0.76247000  0.62660000  1.0 -0.5579419631
