# DDEC6 charges by PACMAN v1.1 (https://github.com/mtap-research/PACMAN-charge/)
data_LETZUJ_ASR_pacman
_symmetry_space_group_name_H-M   'P 1'
_cell_length_a   35.79780000
_cell_length_b   35.79780000
_cell_length_c   15.00570000
_cell_angle_alpha   90.00000000
_cell_angle_beta   90.00000000
_cell_angle_gamma   90.00000000
_symmetry_Int_Tables_number   1
_chemical_formula_structural   Cu3Ni2H39C39(NO3)6
_chemical_formula_sum   'Cu24 Ni16 H312 C312 N48 O144'
_cell_volume   19229.54172276
_cell_formula_units_Z   8
loop_
 _symmetry_equiv_pos_site_id
 _symmetry_equiv_pos_as_xyz
  1  'x, y, z'
loop_
 _atom_site_type_symbol
 _atom_site_label
 _atom_site_symmetry_multiplicity
 _atom_site_fract_x
 _atom_site_fract_y
 _atom_site_fract_z
 _atom_site_occupancy
 _atom_site_charge
Cu  Cu1  1  0.74055000  0.74055000  0.26592000  1.0 0.5379466097
Cu  Cu2  1  0.25945000  0.25945000  0.26592000  1.0 0.5379466097
Cu  Cu3  1  0.74055000  0.25945000  0.26592000  1.0 0.5379466097
Cu  Cu4  1  0.25945000  0.74055000  0.26592000  1.0 0.5379466097
Cu  Cu5  1  0.74055000  0.25945000  0.73408000  1.0 0.5379466097
Cu  Cu6  1  0.25945000  0.74055000  0.73408000  1.0 0.5379466097
Cu  Cu7  1  0.74055000  0.74055000  0.73408000  1.0 0.5379466097
Cu  Cu8  1  0.25945000  0.25945000  0.73408000  1.0 0.5379466097
Cu  Cu9  1  0.83057000  0.50000000  0.23130000  1.0 0.5787535141
Cu  Cu10  1  0.16943000  0.50000000  0.23130000  1.0 0.5787535141
Cu  Cu11  1  0.50000000  0.16943000  0.23130000  1.0 0.5787535141
Cu  Cu12  1  0.50000000  0.83057000  0.23130000  1.0 0.5787535141
Cu  Cu13  1  0.83057000  0.50000000  0.76870000  1.0 0.5787535141
Cu  Cu14  1  0.16943000  0.50000000  0.76870000  1.0 0.5787535141
Cu  Cu15  1  0.50000000  0.83057000  0.76870000  1.0 0.5787535141
Cu  Cu16  1  0.50000000  0.16943000  0.76870000  1.0 0.5787535141
Cu  Cu17  1  0.00000000  0.65216000  0.23589000  1.0 0.6680637876
Cu  Cu18  1  0.00000000  0.34784000  0.23589000  1.0 0.6614154259
Cu  Cu19  1  0.65216000  0.00000000  0.23589000  1.0 0.6680637876
Cu  Cu20  1  0.34784000  0.00000000  0.23589000  1.0 0.6614154259
Cu  Cu21  1  0.00000000  0.34784000  0.76411000  1.0 0.6614154259
Cu  Cu22  1  0.00000000  0.65216000  0.76411000  1.0 0.6680637876
Cu  Cu23  1  0.65216000  0.00000000  0.76411000  1.0 0.6680637876
Cu  Cu24  1  0.34784000  0.00000000  0.76411000  1.0 0.6614154259
Ni  Ni1  1  0.85235000  0.64561000  0.25303000  1.0 0.9327777269
Ni  Ni2  1  0.14765000  0.35439000  0.25303000  1.0 0.9327777269
Ni  Ni3  1  0.64561000  0.14765000  0.25303000  1.0 0.9327777269
Ni  Ni4  1  0.35439000  0.85235000  0.25303000  1.0 0.9327777269
Ni  Ni5  1  0.85235000  0.35439000  0.74697000  1.0 0.9327777269
Ni  Ni6  1  0.14765000  0.64561000  0.74697000  1.0 0.9327777269
Ni  Ni7  1  0.64561000  0.85235000  0.74697000  1.0 0.9327777269
Ni  Ni8  1  0.35439000  0.14765000  0.74697000  1.0 0.9327777269
Ni  Ni9  1  0.14765000  0.35439000  0.74697000  1.0 0.9327777269
Ni  Ni10  1  0.85235000  0.64561000  0.74697000  1.0 0.9327777269
Ni  Ni11  1  0.35439000  0.85235000  0.74697000  1.0 0.9327777269
Ni  Ni12  1  0.64561000  0.14765000  0.74697000  1.0 0.9327777269
Ni  Ni13  1  0.14765000  0.64561000  0.25303000  1.0 0.9327777269
Ni  Ni14  1  0.85235000  0.35439000  0.25303000  1.0 0.9327777269
Ni  Ni15  1  0.35439000  0.14765000  0.25303000  1.0 0.9327777269
Ni  Ni16  1  0.64561000  0.85235000  0.25303000  1.0 0.9327777269
H  H1  1  0.72839000  0.57374000  0.18569000  1.0 0.1523551785
H  H2  1  0.71111000  0.53395000  0.15987000  1.0 0.1296047062
H  H3  1  0.74943000  0.53619000  0.21450000  1.0 0.1389591585
H  H4  1  0.72967000  0.63558000  0.28908000  1.0 0.1523551785
H  H5  1  0.70135000  0.60965000  0.34369000  1.0 0.1296047062
H  H6  1  0.68799000  0.64963000  0.30816000  1.0 0.1296047062
H  H7  1  0.91943000  0.55334000  0.18113000  1.0 0.1523551785
H  H8  1  0.95496000  0.52809000  0.15741000  1.0 0.119174641
H  H9  1  0.95981000  0.56439000  0.21857000  1.0 0.1389591585
H  H10  1  0.78780000  0.74516000  0.54188000  1.0 0.0667806919
H  H11  1  0.81783000  0.71357000  0.51815000  1.0 0.0870851767
H  H12  1  0.79688000  0.73561000  0.43997000  1.0 0.0611746039
H  H13  1  0.95440000  0.68590000  0.93845000  1.0 0.0611746039
H  H14  1  0.97771000  0.68615000  0.02945000  1.0 0.0611746039
H  H15  1  0.93302000  0.68567000  0.03210000  1.0 0.0870851767
H  H16  1  0.86479000  0.54476000  0.93849000  1.0 0.0870851767
H  H17  1  0.86567000  0.56523000  0.03327000  1.0 0.1072847009
H  H18  1  0.86376000  0.52062000  0.02823000  1.0 0.0611746039
H  H19  1  0.27161000  0.42626000  0.18569000  1.0 0.1523551785
H  H20  1  0.28889000  0.46605000  0.15987000  1.0 0.1296047062
H  H21  1  0.25057000  0.46381000  0.21450000  1.0 0.1389591585
H  H22  1  0.27033000  0.36442000  0.28908000  1.0 0.1523551785
H  H23  1  0.29865000  0.39035000  0.34369000  1.0 0.1296047062
H  H24  1  0.31201000  0.35037000  0.30816000  1.0 0.1296047062
H  H25  1  0.08057000  0.44666000  0.18113000  1.0 0.1523551785
H  H26  1  0.04504000  0.47191000  0.15741000  1.0 0.119174641
H  H27  1  0.04019000  0.43561000  0.21857000  1.0 0.1389591585
H  H28  1  0.21220000  0.25484000  0.54188000  1.0 0.0667806919
H  H29  1  0.18217000  0.28643000  0.51815000  1.0 0.0870851767
H  H30  1  0.20312000  0.26439000  0.43997000  1.0 0.0611746039
H  H31  1  0.04560000  0.31410000  0.93845000  1.0 0.0611746039
H  H32  1  0.02229000  0.31385000  0.02945000  1.0 0.0611746039
H  H33  1  0.06698000  0.31433000  0.03210000  1.0 0.0870851767
H  H34  1  0.13521000  0.45524000  0.93849000  1.0 0.0870851767
H  H35  1  0.13433000  0.43477000  0.03327000  1.0 0.1072847009
H  H36  1  0.13624000  0.47938000  0.02823000  1.0 0.0611746039
H  H37  1  0.57374000  0.27161000  0.18569000  1.0 0.1523551785
H  H38  1  0.53395000  0.28889000  0.15987000  1.0 0.1296047062
H  H39  1  0.53619000  0.25057000  0.21450000  1.0 0.1389591585
H  H40  1  0.63558000  0.27033000  0.28908000  1.0 0.1523551785
H  H41  1  0.60965000  0.29865000  0.34369000  1.0 0.1296047062
H  H42  1  0.64963000  0.31201000  0.30816000  1.0 0.1296047062
H  H43  1  0.55334000  0.08057000  0.18113000  1.0 0.1523551785
H  H44  1  0.52809000  0.04504000  0.15741000  1.0 0.119174641
H  H45  1  0.56439000  0.04019000  0.21857000  1.0 0.1389591585
H  H46  1  0.74516000  0.21220000  0.54188000  1.0 0.0667806919
H  H47  1  0.71357000  0.18217000  0.51815000  1.0 0.0870851767
H  H48  1  0.73561000  0.20312000  0.43997000  1.0 0.0611746039
H  H49  1  0.68590000  0.04560000  0.93845000  1.0 0.0611746039
H  H50  1  0.68615000  0.02229000  0.02945000  1.0 0.0611746039
H  H51  1  0.68567000  0.06698000  0.03210000  1.0 0.0870851767
H  H52  1  0.54476000  0.13521000  0.93849000  1.0 0.0870851767
H  H53  1  0.56523000  0.13433000  0.03327000  1.0 0.1072847009
H  H54  1  0.52062000  0.13624000  0.02823000  1.0 0.0611746039
H  H55  1  0.42626000  0.72839000  0.18569000  1.0 0.1523551785
H  H56  1  0.46605000  0.71111000  0.15987000  1.0 0.1296047062
H  H57  1  0.46381000  0.74943000  0.21450000  1.0 0.1389591585
H  H58  1  0.36442000  0.72967000  0.28908000  1.0 0.1523551785
H  H59  1  0.39035000  0.70135000  0.34369000  1.0 0.1296047062
H  H60  1  0.35037000  0.68799000  0.30816000  1.0 0.1296047062
H  H61  1  0.44666000  0.91943000  0.18113000  1.0 0.1523551785
H  H62  1  0.47191000  0.95496000  0.15741000  1.0 0.119174641
H  H63  1  0.43561000  0.95981000  0.21857000  1.0 0.1389591585
H  H64  1  0.25484000  0.78780000  0.54188000  1.0 0.0667806919
H  H65  1  0.28643000  0.81783000  0.51815000  1.0 0.0870851767
H  H66  1  0.26439000  0.79688000  0.43997000  1.0 0.0611746039
H  H67  1  0.31410000  0.95440000  0.93845000  1.0 0.0611746039
H  H68  1  0.31385000  0.97771000  0.02945000  1.0 0.0611746039
H  H69  1  0.31433000  0.93302000  0.03210000  1.0 0.0870851767
H  H70  1  0.45524000  0.86479000  0.93849000  1.0 0.0870851767
H  H71  1  0.43477000  0.86567000  0.03327000  1.0 0.1072847009
H  H72  1  0.47938000  0.86376000  0.02823000  1.0 0.0611746039
H  H73  1  0.72839000  0.42626000  0.81431000  1.0 0.1523551785
H  H74  1  0.71111000  0.46605000  0.84013000  1.0 0.1296047062
H  H75  1  0.74943000  0.46381000  0.78550000  1.0 0.1389591585
H  H76  1  0.72967000  0.36442000  0.71092000  1.0 0.1523551785
H  H77  1  0.70135000  0.39035000  0.65631000  1.0 0.1296047062
H  H78  1  0.68799000  0.35037000  0.69184000  1.0 0.1296047062
H  H79  1  0.91943000  0.44666000  0.81887000  1.0 0.1523551785
H  H80  1  0.95496000  0.47191000  0.84259000  1.0 0.119174641
H  H81  1  0.95981000  0.43561000  0.78143000  1.0 0.1389591585
H  H82  1  0.78780000  0.25484000  0.45812000  1.0 0.0667806919
H  H83  1  0.81783000  0.28643000  0.48185000  1.0 0.0870851767
H  H84  1  0.79688000  0.26439000  0.56003000  1.0 0.0611746039
H  H85  1  0.95440000  0.31410000  0.06155000  1.0 0.0611746039
H  H86  1  0.97771000  0.31385000  0.97055000  1.0 0.0611746039
H  H87  1  0.93302000  0.31433000  0.96790000  1.0 0.0870851767
H  H88  1  0.86479000  0.45524000  0.06151000  1.0 0.0870851767
H  H89  1  0.86567000  0.43477000  0.96673000  1.0 0.1072847009
H  H90  1  0.86376000  0.47938000  0.97177000  1.0 0.0611746039
H  H91  1  0.27161000  0.57374000  0.81431000  1.0 0.1523551785
H  H92  1  0.28889000  0.53395000  0.84013000  1.0 0.1296047062
H  H93  1  0.25057000  0.53619000  0.78550000  1.0 0.1389591585
H  H94  1  0.27033000  0.63558000  0.71092000  1.0 0.1523551785
H  H95  1  0.29865000  0.60965000  0.65631000  1.0 0.1296047062
H  H96  1  0.31201000  0.64963000  0.69184000  1.0 0.1296047062
H  H97  1  0.08057000  0.55334000  0.81887000  1.0 0.1523551785
H  H98  1  0.04504000  0.52809000  0.84259000  1.0 0.119174641
H  H99  1  0.04019000  0.56439000  0.78143000  1.0 0.1389591585
H  H100  1  0.21220000  0.74516000  0.45812000  1.0 0.0667806919
H  H101  1  0.18217000  0.71357000  0.48185000  1.0 0.0870851767
H  H102  1  0.20312000  0.73561000  0.56003000  1.0 0.0611746039
H  H103  1  0.04560000  0.68590000  0.06155000  1.0 0.0611746039
H  H104  1  0.02229000  0.68615000  0.97055000  1.0 0.0611746039
H  H105  1  0.06698000  0.68567000  0.96790000  1.0 0.0870851767
H  H106  1  0.13521000  0.54476000  0.06151000  1.0 0.0870851767
H  H107  1  0.13433000  0.56523000  0.96673000  1.0 0.1072847009
H  H108  1  0.13624000  0.52062000  0.97177000  1.0 0.0611746039
H  H109  1  0.57374000  0.72839000  0.81431000  1.0 0.1523551785
H  H110  1  0.53395000  0.71111000  0.84013000  1.0 0.1296047062
H  H111  1  0.53619000  0.74943000  0.78550000  1.0 0.1389591585
H  H112  1  0.63558000  0.72967000  0.71092000  1.0 0.1523551785
H  H113  1  0.60965000  0.70135000  0.65631000  1.0 0.1296047062
H  H114  1  0.64963000  0.68799000  0.69184000  1.0 0.1296047062
H  H115  1  0.55334000  0.91943000  0.81887000  1.0 0.1523551785
H  H116  1  0.52809000  0.95496000  0.84259000  1.0 0.119174641
H  H117  1  0.56439000  0.95981000  0.78143000  1.0 0.1389591585
H  H118  1  0.74516000  0.78780000  0.45812000  1.0 0.0667806919
H  H119  1  0.71357000  0.81783000  0.48185000  1.0 0.0870851767
H  H120  1  0.73561000  0.79688000  0.56003000  1.0 0.0611746039
H  H121  1  0.68590000  0.95440000  0.06155000  1.0 0.0611746039
H  H122  1  0.68615000  0.97771000  0.97055000  1.0 0.0611746039
H  H123  1  0.68567000  0.93302000  0.96790000  1.0 0.0870851767
H  H124  1  0.54476000  0.86479000  0.06151000  1.0 0.0870851767
H  H125  1  0.56523000  0.86567000  0.96673000  1.0 0.1072847009
H  H126  1  0.52062000  0.86376000  0.97177000  1.0 0.0611746039
H  H127  1  0.42626000  0.27161000  0.81431000  1.0 0.1523551785
H  H128  1  0.46605000  0.28889000  0.84013000  1.0 0.1296047062
H  H129  1  0.46381000  0.25057000  0.78550000  1.0 0.1389591585
H  H130  1  0.36442000  0.27033000  0.71092000  1.0 0.1523551785
H  H131  1  0.39035000  0.29865000  0.65631000  1.0 0.1296047062
H  H132  1  0.35037000  0.31201000  0.69184000  1.0 0.1296047062
H  H133  1  0.44666000  0.08057000  0.81887000  1.0 0.1523551785
H  H134  1  0.47191000  0.04504000  0.84259000  1.0 0.119174641
H  H135  1  0.43561000  0.04019000  0.78143000  1.0 0.1389591585
H  H136  1  0.25484000  0.21220000  0.45812000  1.0 0.0667806919
H  H137  1  0.28643000  0.18217000  0.48185000  1.0 0.0870851767
H  H138  1  0.26439000  0.20312000  0.56003000  1.0 0.0611746039
H  H139  1  0.31410000  0.04560000  0.06155000  1.0 0.0611746039
H  H140  1  0.31385000  0.02229000  0.97055000  1.0 0.0611746039
H  H141  1  0.31433000  0.06698000  0.96790000  1.0 0.0870851767
H  H142  1  0.45524000  0.13521000  0.06151000  1.0 0.0870851767
H  H143  1  0.43477000  0.13433000  0.96673000  1.0 0.1072847009
H  H144  1  0.47938000  0.13624000  0.97177000  1.0 0.0611746039
H  H145  1  0.27161000  0.42626000  0.81431000  1.0 0.1523551785
H  H146  1  0.28889000  0.46605000  0.84013000  1.0 0.1296047062
H  H147  1  0.25057000  0.46381000  0.78550000  1.0 0.1389591585
H  H148  1  0.27033000  0.36442000  0.71092000  1.0 0.1523551785
H  H149  1  0.29865000  0.39035000  0.65631000  1.0 0.1296047062
H  H150  1  0.31201000  0.35037000  0.69184000  1.0 0.1296047062
H  H151  1  0.08057000  0.44666000  0.81887000  1.0 0.1523551785
H  H152  1  0.04504000  0.47191000  0.84259000  1.0 0.119174641
H  H153  1  0.04019000  0.43561000  0.78143000  1.0 0.1389591585
H  H154  1  0.21220000  0.25484000  0.45812000  1.0 0.0667806919
H  H155  1  0.18217000  0.28643000  0.48185000  1.0 0.0870851767
H  H156  1  0.20312000  0.26439000  0.56003000  1.0 0.0611746039
H  H157  1  0.04560000  0.31410000  0.06155000  1.0 0.0611746039
H  H158  1  0.02229000  0.31385000  0.97055000  1.0 0.0611746039
H  H159  1  0.06698000  0.31433000  0.96790000  1.0 0.0870851767
H  H160  1  0.13521000  0.45524000  0.06151000  1.0 0.0870851767
H  H161  1  0.13433000  0.43477000  0.96673000  1.0 0.1072847009
H  H162  1  0.13624000  0.47938000  0.97177000  1.0 0.0611746039
H  H163  1  0.72839000  0.57374000  0.81431000  1.0 0.1523551785
H  H164  1  0.71111000  0.53395000  0.84013000  1.0 0.1296047062
H  H165  1  0.74943000  0.53619000  0.78550000  1.0 0.1389591585
H  H166  1  0.72967000  0.63558000  0.71092000  1.0 0.1523551785
H  H167  1  0.70135000  0.60965000  0.65631000  1.0 0.1296047062
H  H168  1  0.68799000  0.64963000  0.69184000  1.0 0.1296047062
H  H169  1  0.91943000  0.55334000  0.81887000  1.0 0.1523551785
H  H170  1  0.95496000  0.52809000  0.84259000  1.0 0.119174641
H  H171  1  0.95981000  0.56439000  0.78143000  1.0 0.1389591585
H  H172  1  0.78780000  0.74516000  0.45812000  1.0 0.0667806919
H  H173  1  0.81783000  0.71357000  0.48185000  1.0 0.0870851767
H  H174  1  0.79688000  0.73561000  0.56003000  1.0 0.0611746039
H  H175  1  0.95440000  0.68590000  0.06155000  1.0 0.0611746039
H  H176  1  0.97771000  0.68615000  0.97055000  1.0 0.0611746039
H  H177  1  0.93302000  0.68567000  0.96790000  1.0 0.0870851767
H  H178  1  0.86479000  0.54476000  0.06151000  1.0 0.0870851767
H  H179  1  0.86567000  0.56523000  0.96673000  1.0 0.1072847009
H  H180  1  0.86376000  0.52062000  0.97177000  1.0 0.0611746039
H  H181  1  0.42626000  0.72839000  0.81431000  1.0 0.1523551785
H  H182  1  0.46605000  0.71111000  0.84013000  1.0 0.1296047062
H  H183  1  0.46381000  0.74943000  0.78550000  1.0 0.1389591585
H  H184  1  0.36442000  0.72967000  0.71092000  1.0 0.1523551785
H  H185  1  0.39035000  0.70135000  0.65631000  1.0 0.1296047062
H  H186  1  0.35037000  0.68799000  0.69184000  1.0 0.1296047062
H  H187  1  0.44666000  0.91943000  0.81887000  1.0 0.1523551785
H  H188  1  0.47191000  0.95496000  0.84259000  1.0 0.119174641
H  H189  1  0.43561000  0.95981000  0.78143000  1.0 0.1389591585
H  H190  1  0.25484000  0.78780000  0.45812000  1.0 0.0667806919
H  H191  1  0.28643000  0.81783000  0.48185000  1.0 0.0870851767
H  H192  1  0.26439000  0.79688000  0.56003000  1.0 0.0611746039
H  H193  1  0.31410000  0.95440000  0.06155000  1.0 0.0611746039
H  H194  1  0.31385000  0.97771000  0.97055000  1.0 0.0611746039
H  H195  1  0.31433000  0.93302000  0.96790000  1.0 0.0870851767
H  H196  1  0.45524000  0.86479000  0.06151000  1.0 0.0870851767
H  H197  1  0.43477000  0.86567000  0.96673000  1.0 0.1072847009
H  H198  1  0.47938000  0.86376000  0.97177000  1.0 0.0611746039
H  H199  1  0.57374000  0.27161000  0.81431000  1.0 0.1523551785
H  H200  1  0.53395000  0.28889000  0.84013000  1.0 0.1296047062
H  H201  1  0.53619000  0.25057000  0.78550000  1.0 0.1389591585
H  H202  1  0.63558000  0.27033000  0.71092000  1.0 0.1523551785
H  H203  1  0.60965000  0.29865000  0.65631000  1.0 0.1296047062
H  H204  1  0.64963000  0.31201000  0.69184000  1.0 0.1296047062
H  H205  1  0.55334000  0.08057000  0.81887000  1.0 0.1523551785
H  H206  1  0.52809000  0.04504000  0.84259000  1.0 0.119174641
H  H207  1  0.56439000  0.04019000  0.78143000  1.0 0.1389591585
H  H208  1  0.74516000  0.21220000  0.45812000  1.0 0.0667806919
H  H209  1  0.71357000  0.18217000  0.48185000  1.0 0.0870851767
H  H210  1  0.73561000  0.20312000  0.56003000  1.0 0.0611746039
H  H211  1  0.68590000  0.04560000  0.06155000  1.0 0.0611746039
H  H212  1  0.68615000  0.02229000  0.97055000  1.0 0.0611746039
H  H213  1  0.68567000  0.06698000  0.96790000  1.0 0.0870851767
H  H214  1  0.54476000  0.13521000  0.06151000  1.0 0.0870851767
H  H215  1  0.56523000  0.13433000  0.96673000  1.0 0.1072847009
H  H216  1  0.52062000  0.13624000  0.97177000  1.0 0.0611746039
H  H217  1  0.27161000  0.57374000  0.18569000  1.0 0.1523551785
H  H218  1  0.28889000  0.53395000  0.15987000  1.0 0.1296047062
H  H219  1  0.25057000  0.53619000  0.21450000  1.0 0.1389591585
H  H220  1  0.27033000  0.63558000  0.28908000  1.0 0.1523551785
H  H221  1  0.29865000  0.60965000  0.34369000  1.0 0.1296047062
H  H222  1  0.31201000  0.64963000  0.30816000  1.0 0.1296047062
H  H223  1  0.08057000  0.55334000  0.18113000  1.0 0.1523551785
H  H224  1  0.04504000  0.52809000  0.15741000  1.0 0.119174641
H  H225  1  0.04019000  0.56439000  0.21857000  1.0 0.1389591585
H  H226  1  0.21220000  0.74516000  0.54188000  1.0 0.0667806919
H  H227  1  0.18217000  0.71357000  0.51815000  1.0 0.0870851767
H  H228  1  0.20312000  0.73561000  0.43997000  1.0 0.0611746039
H  H229  1  0.04560000  0.68590000  0.93845000  1.0 0.0611746039
H  H230  1  0.02229000  0.68615000  0.02945000  1.0 0.0611746039
H  H231  1  0.06698000  0.68567000  0.03210000  1.0 0.0870851767
H  H232  1  0.13521000  0.54476000  0.93849000  1.0 0.0870851767
H  H233  1  0.13433000  0.56523000  0.03327000  1.0 0.1072847009
H  H234  1  0.13624000  0.52062000  0.02823000  1.0 0.0611746039
H  H235  1  0.72839000  0.42626000  0.18569000  1.0 0.1523551785
H  H236  1  0.71111000  0.46605000  0.15987000  1.0 0.1296047062
H  H237  1  0.74943000  0.46381000  0.21450000  1.0 0.1389591585
H  H238  1  0.72967000  0.36442000  0.28908000  1.0 0.1523551785
H  H239  1  0.70135000  0.39035000  0.34369000  1.0 0.1296047062
H  H240  1  0.68799000  0.35037000  0.30816000  1.0 0.1296047062
H  H241  1  0.91943000  0.44666000  0.18113000  1.0 0.1523551785
H  H242  1  0.95496000  0.47191000  0.15741000  1.0 0.119174641
H  H243  1  0.95981000  0.43561000  0.21857000  1.0 0.1389591585
H  H244  1  0.78780000  0.25484000  0.54188000  1.0 0.0667806919
H  H245  1  0.81783000  0.28643000  0.51815000  1.0 0.0870851767
H  H246  1  0.79688000  0.26439000  0.43997000  1.0 0.0611746039
H  H247  1  0.95440000  0.31410000  0.93845000  1.0 0.0611746039
H  H248  1  0.97771000  0.31385000  0.02945000  1.0 0.0611746039
H  H249  1  0.93302000  0.31433000  0.03210000  1.0 0.0870851767
H  H250  1  0.86479000  0.45524000  0.93849000  1.0 0.0870851767
H  H251  1  0.86567000  0.43477000  0.03327000  1.0 0.1072847009
H  H252  1  0.86376000  0.47938000  0.02823000  1.0 0.0611746039
H  H253  1  0.42626000  0.27161000  0.18569000  1.0 0.1523551785
H  H254  1  0.46605000  0.28889000  0.15987000  1.0 0.1296047062
H  H255  1  0.46381000  0.25057000  0.21450000  1.0 0.1389591585
H  H256  1  0.36442000  0.27033000  0.28908000  1.0 0.1523551785
H  H257  1  0.39035000  0.29865000  0.34369000  1.0 0.1296047062
H  H258  1  0.35037000  0.31201000  0.30816000  1.0 0.1296047062
H  H259  1  0.44666000  0.08057000  0.18113000  1.0 0.1523551785
H  H260  1  0.47191000  0.04504000  0.15741000  1.0 0.119174641
H  H261  1  0.43561000  0.04019000  0.21857000  1.0 0.1389591585
H  H262  1  0.25484000  0.21220000  0.54188000  1.0 0.0667806919
H  H263  1  0.28643000  0.18217000  0.51815000  1.0 0.0870851767
H  H264  1  0.26439000  0.20312000  0.43997000  1.0 0.0611746039
H  H265  1  0.31410000  0.04560000  0.93845000  1.0 0.0611746039
H  H266  1  0.31385000  0.02229000  0.02945000  1.0 0.0611746039
H  H267  1  0.31433000  0.06698000  0.03210000  1.0 0.0870851767
H  H268  1  0.45524000  0.13521000  0.93849000  1.0 0.0870851767
H  H269  1  0.43477000  0.13433000  0.03327000  1.0 0.1072847009
H  H270  1  0.47938000  0.13624000  0.02823000  1.0 0.0611746039
H  H271  1  0.57374000  0.72839000  0.18569000  1.0 0.1523551785
H  H272  1  0.53395000  0.71111000  0.15987000  1.0 0.1296047062
H  H273  1  0.53619000  0.74943000  0.21450000  1.0 0.1389591585
H  H274  1  0.63558000  0.72967000  0.28908000  1.0 0.1523551785
H  H275  1  0.60965000  0.70135000  0.34369000  1.0 0.1296047062
H  H276  1  0.64963000  0.68799000  0.30816000  1.0 0.1296047062
H  H277  1  0.55334000  0.91943000  0.18113000  1.0 0.1523551785
H  H278  1  0.52809000  0.95496000  0.15741000  1.0 0.119174641
H  H279  1  0.56439000  0.95981000  0.21857000  1.0 0.1389591585
H  H280  1  0.74516000  0.78780000  0.54188000  1.0 0.0667806919
H  H281  1  0.71357000  0.81783000  0.51815000  1.0 0.0870851767
H  H282  1  0.73561000  0.79688000  0.43997000  1.0 0.0611746039
H  H283  1  0.68590000  0.95440000  0.93845000  1.0 0.0611746039
H  H284  1  0.68615000  0.97771000  0.02945000  1.0 0.0611746039
H  H285  1  0.68567000  0.93302000  0.03210000  1.0 0.0870851767
H  H286  1  0.54476000  0.86479000  0.93849000  1.0 0.0870851767
H  H287  1  0.56523000  0.86567000  0.03327000  1.0 0.1072847009
H  H288  1  0.52062000  0.86376000  0.02823000  1.0 0.0611746039
H  H289  1  0.71000000  0.55067000  0.00000000  1.0 0.1389591585
H  H290  1  0.94977000  0.53345000  0.00000000  1.0 0.1296047062
H  H291  1  0.29000000  0.44933000  0.00000000  1.0 0.1389591585
H  H292  1  0.05023000  0.46655000  0.00000000  1.0 0.1296047062
H  H293  1  0.55067000  0.29000000  0.00000000  1.0 0.1389591585
H  H294  1  0.53345000  0.05023000  0.00000000  1.0 0.1296047062
H  H295  1  0.44933000  0.71000000  0.00000000  1.0 0.1389591585
H  H296  1  0.46655000  0.94977000  0.00000000  1.0 0.1296047062
H  H297  1  0.71000000  0.44933000  0.00000000  1.0 0.1389591585
H  H298  1  0.94977000  0.46655000  0.00000000  1.0 0.1296047062
H  H299  1  0.29000000  0.55067000  0.00000000  1.0 0.1389591585
H  H300  1  0.05023000  0.53345000  0.00000000  1.0 0.1296047062
H  H301  1  0.55067000  0.71000000  0.00000000  1.0 0.1389591585
H  H302  1  0.53345000  0.94977000  0.00000000  1.0 0.1296047062
H  H303  1  0.44933000  0.29000000  0.00000000  1.0 0.1389591585
H  H304  1  0.46655000  0.05023000  0.00000000  1.0 0.1296047062
H  H305  1  0.69576000  0.61784000  0.50000000  1.0 0.1571817677
H  H306  1  0.30424000  0.38216000  0.50000000  1.0 0.1571817677
H  H307  1  0.61784000  0.30424000  0.50000000  1.0 0.1571817677
H  H308  1  0.38216000  0.69576000  0.50000000  1.0 0.1571817677
H  H309  1  0.69576000  0.38216000  0.50000000  1.0 0.1571817677
H  H310  1  0.30424000  0.61784000  0.50000000  1.0 0.1571817677
H  H311  1  0.61784000  0.69576000  0.50000000  1.0 0.1571817677
H  H312  1  0.38216000  0.30424000  0.50000000  1.0 0.1571817677
C  C1  1  0.85270000  0.56840000  0.28260000  1.0 0.4614910091
C  C2  1  0.82630000  0.57650000  0.20370000  1.0 0.3532078991
C  C3  1  0.80340000  0.70500000  0.21470000  1.0 0.4614910091
C  C4  1  0.79270000  0.68730000  0.30620000  1.0 0.3397426232
C  C5  1  0.92460000  0.64550000  0.20230000  1.0 0.3038888852
C  C6  1  0.92890000  0.66440000  0.28880000  1.0 0.4614910091
C  C7  1  0.79420000  0.54720000  0.07710000  1.0 0.0995684964
C  C8  1  0.75680000  0.54850000  0.07830000  1.0 0.0870851767
C  C9  1  0.73430000  0.54810000  0.16800000  1.0 -0.4090511234
C  C10  1  0.74770000  0.68370000  0.41830000  1.0 0.119174641
C  C11  1  0.72210000  0.65330000  0.41890000  1.0 0.0995684964
C  C12  1  0.70910000  0.63550000  0.33220000  1.0 -0.4090511234
C  C13  1  0.95670000  0.61490000  0.08110000  1.0 0.1072847009
C  C14  1  0.95360000  0.57830000  0.08140000  1.0 0.0530975507
C  C15  1  0.94620000  0.55370000  0.16790000  1.0 -0.3971327675
C  C16  1  0.14730000  0.43160000  0.28260000  1.0 0.4614910091
C  C17  1  0.17370000  0.42350000  0.20370000  1.0 0.3532078991
C  C18  1  0.19660000  0.29500000  0.21470000  1.0 0.4614910091
C  C19  1  0.20730000  0.31270000  0.30620000  1.0 0.3397426232
C  C20  1  0.07540000  0.35450000  0.20230000  1.0 0.3038888852
C  C21  1  0.07110000  0.33560000  0.28880000  1.0 0.4614910091
C  C22  1  0.20580000  0.45280000  0.07710000  1.0 0.0995684964
C  C23  1  0.24320000  0.45150000  0.07830000  1.0 0.0870851767
C  C24  1  0.26570000  0.45190000  0.16800000  1.0 -0.4090511234
C  C25  1  0.25230000  0.31630000  0.41830000  1.0 0.119174641
C  C26  1  0.27790000  0.34670000  0.41890000  1.0 0.0995684964
C  C27  1  0.29090000  0.36450000  0.33220000  1.0 -0.4090511234
C  C28  1  0.04330000  0.38510000  0.08110000  1.0 0.1072847009
C  C29  1  0.04640000  0.42170000  0.08140000  1.0 0.0530975507
C  C30  1  0.05380000  0.44630000  0.16790000  1.0 -0.3971327675
C  C31  1  0.56840000  0.14730000  0.28260000  1.0 0.4614910091
C  C32  1  0.57650000  0.17370000  0.20370000  1.0 0.3532078991
C  C33  1  0.70500000  0.19660000  0.21470000  1.0 0.4614910091
C  C34  1  0.68730000  0.20730000  0.30620000  1.0 0.3397426232
C  C35  1  0.64550000  0.07540000  0.20230000  1.0 0.3038888852
C  C36  1  0.66440000  0.07110000  0.28880000  1.0 0.4614910091
C  C37  1  0.54720000  0.20580000  0.07710000  1.0 0.0995684964
C  C38  1  0.54850000  0.24320000  0.07830000  1.0 0.0870851767
C  C39  1  0.54810000  0.26570000  0.16800000  1.0 -0.4090511234
C  C40  1  0.68370000  0.25230000  0.41830000  1.0 0.119174641
C  C41  1  0.65330000  0.27790000  0.41890000  1.0 0.0995684964
C  C42  1  0.63550000  0.29090000  0.33220000  1.0 -0.4090511234
C  C43  1  0.61490000  0.04330000  0.08110000  1.0 0.1072847009
C  C44  1  0.57830000  0.04640000  0.08140000  1.0 0.0530975507
C  C45  1  0.55370000  0.05380000  0.16790000  1.0 -0.3971327675
C  C46  1  0.43160000  0.85270000  0.28260000  1.0 0.4614910091
C  C47  1  0.42350000  0.82630000  0.20370000  1.0 0.3532078991
C  C48  1  0.29500000  0.80340000  0.21470000  1.0 0.4614910091
C  C49  1  0.31270000  0.79270000  0.30620000  1.0 0.3397426232
C  C50  1  0.35450000  0.92460000  0.20230000  1.0 0.3038888852
C  C51  1  0.33560000  0.92890000  0.28880000  1.0 0.4614910091
C  C52  1  0.45280000  0.79420000  0.07710000  1.0 0.0995684964
C  C53  1  0.45150000  0.75680000  0.07830000  1.0 0.0870851767
C  C54  1  0.45190000  0.73430000  0.16800000  1.0 -0.4090511234
C  C55  1  0.31630000  0.74770000  0.41830000  1.0 0.119174641
C  C56  1  0.34670000  0.72210000  0.41890000  1.0 0.0995684964
C  C57  1  0.36450000  0.70910000  0.33220000  1.0 -0.4090511234
C  C58  1  0.38510000  0.95670000  0.08110000  1.0 0.1072847009
C  C59  1  0.42170000  0.95360000  0.08140000  1.0 0.0530975507
C  C60  1  0.44630000  0.94620000  0.16790000  1.0 -0.3971327675
C  C61  1  0.85270000  0.43160000  0.71740000  1.0 0.4614910091
C  C62  1  0.82630000  0.42350000  0.79630000  1.0 0.3532078991
C  C63  1  0.80340000  0.29500000  0.78530000  1.0 0.4614910091
C  C64  1  0.79270000  0.31270000  0.69380000  1.0 0.3397426232
C  C65  1  0.92460000  0.35450000  0.79770000  1.0 0.3038888852
C  C66  1  0.92890000  0.33560000  0.71120000  1.0 0.4614910091
C  C67  1  0.79420000  0.45280000  0.92290000  1.0 0.0995684964
C  C68  1  0.75680000  0.45150000  0.92170000  1.0 0.0870851767
C  C69  1  0.73430000  0.45190000  0.83200000  1.0 -0.4090511234
C  C70  1  0.74770000  0.31630000  0.58170000  1.0 0.119174641
C  C71  1  0.72210000  0.34670000  0.58110000  1.0 0.0995684964
C  C72  1  0.70910000  0.36450000  0.66780000  1.0 -0.4090511234
C  C73  1  0.95670000  0.38510000  0.91890000  1.0 0.1072847009
C  C74  1  0.95360000  0.42170000  0.91860000  1.0 0.0530975507
C  C75  1  0.94620000  0.44630000  0.83210000  1.0 -0.3971327675
C  C76  1  0.14730000  0.56840000  0.71740000  1.0 0.4614910091
C  C77  1  0.17370000  0.57650000  0.79630000  1.0 0.3532078991
C  C78  1  0.19660000  0.70500000  0.78530000  1.0 0.4614910091
C  C79  1  0.20730000  0.68730000  0.69380000  1.0 0.3397426232
C  C80  1  0.07540000  0.64550000  0.79770000  1.0 0.3038888852
C  C81  1  0.07110000  0.66440000  0.71120000  1.0 0.4614910091
C  C82  1  0.20580000  0.54720000  0.92290000  1.0 0.0995684964
C  C83  1  0.24320000  0.54850000  0.92170000  1.0 0.0870851767
C  C84  1  0.26570000  0.54810000  0.83200000  1.0 -0.4090511234
C  C85  1  0.25230000  0.68370000  0.58170000  1.0 0.119174641
C  C86  1  0.27790000  0.65330000  0.58110000  1.0 0.0995684964
C  C87  1  0.29090000  0.63550000  0.66780000  1.0 -0.4090511234
C  C88  1  0.04330000  0.61490000  0.91890000  1.0 0.1072847009
C  C89  1  0.04640000  0.57830000  0.91860000  1.0 0.0530975507
C  C90  1  0.05380000  0.55370000  0.83210000  1.0 -0.3971327675
C  C91  1  0.56840000  0.85270000  0.71740000  1.0 0.4614910091
C  C92  1  0.57650000  0.82630000  0.79630000  1.0 0.3532078991
C  C93  1  0.70500000  0.80340000  0.78530000  1.0 0.4614910091
C  C94  1  0.68730000  0.79270000  0.69380000  1.0 0.3397426232
C  C95  1  0.64550000  0.92460000  0.79770000  1.0 0.3038888852
C  C96  1  0.66440000  0.92890000  0.71120000  1.0 0.4614910091
C  C97  1  0.54720000  0.79420000  0.92290000  1.0 0.0995684964
C  C98  1  0.54850000  0.75680000  0.92170000  1.0 0.0870851767
C  C99  1  0.54810000  0.73430000  0.83200000  1.0 -0.4090511234
C  C100  1  0.68370000  0.74770000  0.58170000  1.0 0.119174641
C  C101  1  0.65330000  0.72210000  0.58110000  1.0 0.0995684964
C  C102  1  0.63550000  0.70910000  0.66780000  1.0 -0.4090511234
C  C103  1  0.61490000  0.95670000  0.91890000  1.0 0.1072847009
C  C104  1  0.57830000  0.95360000  0.91860000  1.0 0.0530975507
C  C105  1  0.55370000  0.94620000  0.83210000  1.0 -0.3971327675
C  C106  1  0.43160000  0.14730000  0.71740000  1.0 0.4614910091
C  C107  1  0.42350000  0.17370000  0.79630000  1.0 0.3532078991
C  C108  1  0.29500000  0.19660000  0.78530000  1.0 0.4614910091
C  C109  1  0.31270000  0.20730000  0.69380000  1.0 0.3397426232
C  C110  1  0.35450000  0.07540000  0.79770000  1.0 0.3038888852
C  C111  1  0.33560000  0.07110000  0.71120000  1.0 0.4614910091
C  C112  1  0.45280000  0.20580000  0.92290000  1.0 0.0995684964
C  C113  1  0.45150000  0.24320000  0.92170000  1.0 0.0870851767
C  C114  1  0.45190000  0.26570000  0.83200000  1.0 -0.4090511234
C  C115  1  0.31630000  0.25230000  0.58170000  1.0 0.119174641
C  C116  1  0.34670000  0.27790000  0.58110000  1.0 0.0995684964
C  C117  1  0.36450000  0.29090000  0.66780000  1.0 -0.4090511234
C  C118  1  0.38510000  0.04330000  0.91890000  1.0 0.1072847009
C  C119  1  0.42170000  0.04640000  0.91860000  1.0 0.0530975507
C  C120  1  0.44630000  0.05380000  0.83210000  1.0 -0.3971327675
C  C121  1  0.14730000  0.43160000  0.71740000  1.0 0.4614910091
C  C122  1  0.17370000  0.42350000  0.79630000  1.0 0.3532078991
C  C123  1  0.19660000  0.29500000  0.78530000  1.0 0.4614910091
C  C124  1  0.20730000  0.31270000  0.69380000  1.0 0.3397426232
C  C125  1  0.07540000  0.35450000  0.79770000  1.0 0.3038888852
C  C126  1  0.07110000  0.33560000  0.71120000  1.0 0.4614910091
C  C127  1  0.20580000  0.45280000  0.92290000  1.0 0.0995684964
C  C128  1  0.24320000  0.45150000  0.92170000  1.0 0.0870851767
C  C129  1  0.26570000  0.45190000  0.83200000  1.0 -0.4090511234
C  C130  1  0.25230000  0.31630000  0.58170000  1.0 0.119174641
C  C131  1  0.27790000  0.34670000  0.58110000  1.0 0.0995684964
C  C132  1  0.29090000  0.36450000  0.66780000  1.0 -0.4090511234
C  C133  1  0.04330000  0.38510000  0.91890000  1.0 0.1072847009
C  C134  1  0.04640000  0.42170000  0.91860000  1.0 0.0530975507
C  C135  1  0.05380000  0.44630000  0.83210000  1.0 -0.3971327675
C  C136  1  0.85270000  0.56840000  0.71740000  1.0 0.4614910091
C  C137  1  0.82630000  0.57650000  0.79630000  1.0 0.3532078991
C  C138  1  0.80340000  0.70500000  0.78530000  1.0 0.4614910091
C  C139  1  0.79270000  0.68730000  0.69380000  1.0 0.3397426232
C  C140  1  0.92460000  0.64550000  0.79770000  1.0 0.3038888852
C  C141  1  0.92890000  0.66440000  0.71120000  1.0 0.4614910091
C  C142  1  0.79420000  0.54720000  0.92290000  1.0 0.0995684964
C  C143  1  0.75680000  0.54850000  0.92170000  1.0 0.0870851767
C  C144  1  0.73430000  0.54810000  0.83200000  1.0 -0.4090511234
C  C145  1  0.74770000  0.68370000  0.58170000  1.0 0.119174641
C  C146  1  0.72210000  0.65330000  0.58110000  1.0 0.0995684964
C  C147  1  0.70910000  0.63550000  0.66780000  1.0 -0.4090511234
C  C148  1  0.95670000  0.61490000  0.91890000  1.0 0.1072847009
C  C149  1  0.95360000  0.57830000  0.91860000  1.0 0.0530975507
C  C150  1  0.94620000  0.55370000  0.83210000  1.0 -0.3971327675
C  C151  1  0.43160000  0.85270000  0.71740000  1.0 0.4614910091
C  C152  1  0.42350000  0.82630000  0.79630000  1.0 0.3532078991
C  C153  1  0.29500000  0.80340000  0.78530000  1.0 0.4614910091
C  C154  1  0.31270000  0.79270000  0.69380000  1.0 0.3397426232
C  C155  1  0.35450000  0.92460000  0.79770000  1.0 0.3038888852
C  C156  1  0.33560000  0.92890000  0.71120000  1.0 0.4614910091
C  C157  1  0.45280000  0.79420000  0.92290000  1.0 0.0995684964
C  C158  1  0.45150000  0.75680000  0.92170000  1.0 0.0870851767
C  C159  1  0.45190000  0.73430000  0.83200000  1.0 -0.4090511234
C  C160  1  0.31630000  0.74770000  0.58170000  1.0 0.119174641
C  C161  1  0.34670000  0.72210000  0.58110000  1.0 0.0995684964
C  C162  1  0.36450000  0.70910000  0.66780000  1.0 -0.4090511234
C  C163  1  0.38510000  0.95670000  0.91890000  1.0 0.1072847009
C  C164  1  0.42170000  0.95360000  0.91860000  1.0 0.0530975507
C  C165  1  0.44630000  0.94620000  0.83210000  1.0 -0.3971327675
C  C166  1  0.56840000  0.14730000  0.71740000  1.0 0.4614910091
C  C167  1  0.57650000  0.17370000  0.79630000  1.0 0.3532078991
C  C168  1  0.70500000  0.19660000  0.78530000  1.0 0.4614910091
C  C169  1  0.68730000  0.20730000  0.69380000  1.0 0.3397426232
C  C170  1  0.64550000  0.07540000  0.79770000  1.0 0.3038888852
C  C171  1  0.66440000  0.07110000  0.71120000  1.0 0.4614910091
C  C172  1  0.54720000  0.20580000  0.92290000  1.0 0.0995684964
C  C173  1  0.54850000  0.24320000  0.92170000  1.0 0.0870851767
C  C174  1  0.54810000  0.26570000  0.83200000  1.0 -0.4090511234
C  C175  1  0.68370000  0.25230000  0.58170000  1.0 0.119174641
C  C176  1  0.65330000  0.27790000  0.58110000  1.0 0.0995684964
C  C177  1  0.63550000  0.29090000  0.66780000  1.0 -0.4090511234
C  C178  1  0.61490000  0.04330000  0.91890000  1.0 0.1072847009
C  C179  1  0.57830000  0.04640000  0.91860000  1.0 0.0530975507
C  C180  1  0.55370000  0.05380000  0.83210000  1.0 -0.3971327675
C  C181  1  0.14730000  0.56840000  0.28260000  1.0 0.4614910091
C  C182  1  0.17370000  0.57650000  0.20370000  1.0 0.3532078991
C  C183  1  0.19660000  0.70500000  0.21470000  1.0 0.4614910091
C  C184  1  0.20730000  0.68730000  0.30620000  1.0 0.3397426232
C  C185  1  0.07540000  0.64550000  0.20230000  1.0 0.3038888852
C  C186  1  0.07110000  0.66440000  0.28880000  1.0 0.4614910091
C  C187  1  0.20580000  0.54720000  0.07710000  1.0 0.0995684964
C  C188  1  0.24320000  0.54850000  0.07830000  1.0 0.0870851767
C  C189  1  0.26570000  0.54810000  0.16800000  1.0 -0.4090511234
C  C190  1  0.25230000  0.68370000  0.41830000  1.0 0.119174641
C  C191  1  0.27790000  0.65330000  0.41890000  1.0 0.0995684964
C  C192  1  0.29090000  0.63550000  0.33220000  1.0 -0.4090511234
C  C193  1  0.04330000  0.61490000  0.08110000  1.0 0.1072847009
C  C194  1  0.04640000  0.57830000  0.08140000  1.0 0.0530975507
C  C195  1  0.05380000  0.55370000  0.16790000  1.0 -0.3971327675
C  C196  1  0.85270000  0.43160000  0.28260000  1.0 0.4614910091
C  C197  1  0.82630000  0.42350000  0.20370000  1.0 0.3532078991
C  C198  1  0.80340000  0.29500000  0.21470000  1.0 0.4614910091
C  C199  1  0.79270000  0.31270000  0.30620000  1.0 0.3397426232
C  C200  1  0.92460000  0.35450000  0.20230000  1.0 0.3038888852
C  C201  1  0.92890000  0.33560000  0.28880000  1.0 0.4614910091
C  C202  1  0.79420000  0.45280000  0.07710000  1.0 0.0995684964
C  C203  1  0.75680000  0.45150000  0.07830000  1.0 0.0870851767
C  C204  1  0.73430000  0.45190000  0.16800000  1.0 -0.4090511234
C  C205  1  0.74770000  0.31630000  0.41830000  1.0 0.119174641
C  C206  1  0.72210000  0.34670000  0.41890000  1.0 0.0995684964
C  C207  1  0.70910000  0.36450000  0.33220000  1.0 -0.4090511234
C  C208  1  0.95670000  0.38510000  0.08110000  1.0 0.1072847009
C  C209  1  0.95360000  0.42170000  0.08140000  1.0 0.0530975507
C  C210  1  0.94620000  0.44630000  0.16790000  1.0 -0.3971327675
C  C211  1  0.43160000  0.14730000  0.28260000  1.0 0.4614910091
C  C212  1  0.42350000  0.17370000  0.20370000  1.0 0.3532078991
C  C213  1  0.29500000  0.19660000  0.21470000  1.0 0.4614910091
C  C214  1  0.31270000  0.20730000  0.30620000  1.0 0.3397426232
C  C215  1  0.35450000  0.07540000  0.20230000  1.0 0.3038888852
C  C216  1  0.33560000  0.07110000  0.28880000  1.0 0.4614910091
C  C217  1  0.45280000  0.20580000  0.07710000  1.0 0.0995684964
C  C218  1  0.45150000  0.24320000  0.07830000  1.0 0.0870851767
C  C219  1  0.45190000  0.26570000  0.16800000  1.0 -0.4090511234
C  C220  1  0.31630000  0.25230000  0.41830000  1.0 0.119174641
C  C221  1  0.34670000  0.27790000  0.41890000  1.0 0.0995684964
C  C222  1  0.36450000  0.29090000  0.33220000  1.0 -0.4090511234
C  C223  1  0.38510000  0.04330000  0.08110000  1.0 0.1072847009
C  C224  1  0.42170000  0.04640000  0.08140000  1.0 0.0530975507
C  C225  1  0.44630000  0.05380000  0.16790000  1.0 -0.3971327675
C  C226  1  0.56840000  0.85270000  0.28260000  1.0 0.4614910091
C  C227  1  0.57650000  0.82630000  0.20370000  1.0 0.3532078991
C  C228  1  0.70500000  0.80340000  0.21470000  1.0 0.4614910091
C  C229  1  0.68730000  0.79270000  0.30620000  1.0 0.3397426232
C  C230  1  0.64550000  0.92460000  0.20230000  1.0 0.3038888852
C  C231  1  0.66440000  0.92890000  0.28880000  1.0 0.4614910091
C  C232  1  0.54720000  0.79420000  0.07710000  1.0 0.0995684964
C  C233  1  0.54850000  0.75680000  0.07830000  1.0 0.0870851767
C  C234  1  0.54810000  0.73430000  0.16800000  1.0 -0.4090511234
C  C235  1  0.68370000  0.74770000  0.41830000  1.0 0.119174641
C  C236  1  0.65330000  0.72210000  0.41890000  1.0 0.0995684964
C  C237  1  0.63550000  0.70910000  0.33220000  1.0 -0.4090511234
C  C238  1  0.61490000  0.95670000  0.08110000  1.0 0.1072847009
C  C239  1  0.57830000  0.95360000  0.08140000  1.0 0.0530975507
C  C240  1  0.55370000  0.94620000  0.16790000  1.0 -0.3971327675
C  C241  1  0.81660000  0.54560000  0.00000000  1.0 -0.0246823525
C  C242  1  0.73650000  0.54950000  0.00000000  1.0 -0.2407742621
C  C243  1  0.85560000  0.54390000  0.00000000  1.0 -0.3195690682
C  C244  1  0.95200000  0.55990000  0.00000000  1.0 -0.1937579234
C  C245  1  0.95560000  0.63900000  0.00000000  1.0 0.0611746039
C  C246  1  0.95510000  0.67680000  0.00000000  1.0 -0.2801629436
C  C247  1  0.18340000  0.45440000  0.00000000  1.0 -0.0246823525
C  C248  1  0.26350000  0.45050000  0.00000000  1.0 -0.2407742621
C  C249  1  0.14440000  0.45610000  0.00000000  1.0 -0.3195690682
C  C250  1  0.04800000  0.44010000  0.00000000  1.0 -0.1950260122
C  C251  1  0.04440000  0.36100000  0.00000000  1.0 0.0530975507
C  C252  1  0.04490000  0.32320000  0.00000000  1.0 -0.2801629436
C  C253  1  0.54560000  0.18340000  0.00000000  1.0 -0.0246823525
C  C254  1  0.54950000  0.26350000  0.00000000  1.0 -0.2407742621
C  C255  1  0.54390000  0.14440000  0.00000000  1.0 -0.3195690682
C  C256  1  0.55990000  0.04800000  0.00000000  1.0 -0.1937579234
C  C257  1  0.63900000  0.04440000  0.00000000  1.0 0.0611746039
C  C258  1  0.67680000  0.04490000  0.00000000  1.0 -0.2801629436
C  C259  1  0.45440000  0.81660000  0.00000000  1.0 -0.0246823525
C  C260  1  0.45050000  0.73650000  0.00000000  1.0 -0.2407742621
C  C261  1  0.45610000  0.85560000  0.00000000  1.0 -0.3195690682
C  C262  1  0.44010000  0.95200000  0.00000000  1.0 -0.1937579234
C  C263  1  0.36100000  0.95560000  0.00000000  1.0 0.0611746039
C  C264  1  0.32320000  0.95510000  0.00000000  1.0 -0.2801629436
C  C265  1  0.81660000  0.45440000  0.00000000  1.0 -0.0246823525
C  C266  1  0.73650000  0.45050000  0.00000000  1.0 -0.2407742621
C  C267  1  0.85560000  0.45610000  0.00000000  1.0 -0.3195690682
C  C268  1  0.95200000  0.44010000  0.00000000  1.0 -0.1937579234
C  C269  1  0.95560000  0.36100000  0.00000000  1.0 0.0611746039
C  C270  1  0.95510000  0.32320000  0.00000000  1.0 -0.2801629436
C  C271  1  0.18340000  0.54560000  0.00000000  1.0 -0.0246823525
C  C272  1  0.26350000  0.54950000  0.00000000  1.0 -0.2407742621
C  C273  1  0.14440000  0.54390000  0.00000000  1.0 -0.3195690682
C  C274  1  0.04800000  0.55990000  0.00000000  1.0 -0.1937579234
C  C275  1  0.04440000  0.63900000  0.00000000  1.0 0.0611746039
C  C276  1  0.04490000  0.67680000  0.00000000  1.0 -0.2801629436
C  C277  1  0.54560000  0.81660000  0.00000000  1.0 -0.0246823525
C  C278  1  0.54950000  0.73650000  0.00000000  1.0 -0.2407742621
C  C279  1  0.54390000  0.85560000  0.00000000  1.0 -0.3195690682
C  C280  1  0.55990000  0.95200000  0.00000000  1.0 -0.1937579234
C  C281  1  0.63900000  0.95560000  0.00000000  1.0 0.0611746039
C  C282  1  0.67680000  0.95510000  0.00000000  1.0 -0.2801629436
C  C283  1  0.45440000  0.18340000  0.00000000  1.0 -0.0246823525
C  C284  1  0.45050000  0.26350000  0.00000000  1.0 -0.2407742621
C  C285  1  0.45610000  0.14440000  0.00000000  1.0 -0.3195690682
C  C286  1  0.44010000  0.04800000  0.00000000  1.0 -0.1950260122
C  C287  1  0.36100000  0.04440000  0.00000000  1.0 0.0530975507
C  C288  1  0.32320000  0.04490000  0.00000000  1.0 -0.2801629436
C  C289  1  0.76360000  0.69610000  0.50000000  1.0 -0.0023073467
C  C290  1  0.71160000  0.63910000  0.50000000  1.0 -0.2407742621
C  C291  1  0.79420000  0.72520000  0.50000000  1.0 -0.2407742621
C  C292  1  0.23640000  0.30390000  0.50000000  1.0 -0.0023073467
C  C293  1  0.28840000  0.36090000  0.50000000  1.0 -0.2407742621
C  C294  1  0.20580000  0.27480000  0.50000000  1.0 -0.2407742621
C  C295  1  0.69610000  0.23640000  0.50000000  1.0 -0.0023073467
C  C296  1  0.63910000  0.28840000  0.50000000  1.0 -0.2407742621
C  C297  1  0.72520000  0.20580000  0.50000000  1.0 -0.2407742621
C  C298  1  0.30390000  0.76360000  0.50000000  1.0 -0.0023073467
C  C299  1  0.36090000  0.71160000  0.50000000  1.0 -0.2407742621
C  C300  1  0.27480000  0.79420000  0.50000000  1.0 -0.2407742621
C  C301  1  0.76360000  0.30390000  0.50000000  1.0 -0.0023073467
C  C302  1  0.71160000  0.36090000  0.50000000  1.0 -0.2407742621
C  C303  1  0.79420000  0.27480000  0.50000000  1.0 -0.2407742621
C  C304  1  0.23640000  0.69610000  0.50000000  1.0 -0.0023073467
C  C305  1  0.28840000  0.63910000  0.50000000  1.0 -0.2407742621
C  C306  1  0.20580000  0.72520000  0.50000000  1.0 -0.2407742621
C  C307  1  0.69610000  0.76360000  0.50000000  1.0 -0.0023073467
C  C308  1  0.63910000  0.71160000  0.50000000  1.0 -0.2407742621
C  C309  1  0.72520000  0.79420000  0.50000000  1.0 -0.2407742621
C  C310  1  0.30390000  0.23640000  0.50000000  1.0 -0.0023073467
C  C311  1  0.36090000  0.28840000  0.50000000  1.0 -0.2407742621
C  C312  1  0.27480000  0.20580000  0.50000000  1.0 -0.2407742621
N  N1  1  0.81537000  0.54540000  0.16480000  1.0 -0.4393350194
N  N2  1  0.76090000  0.69820000  0.33950000  1.0 -0.3795841803
N  N3  1  0.95845000  0.63560000  0.15920000  1.0 -0.350536434
N  N4  1  0.18463000  0.45460000  0.16480000  1.0 -0.4393350194
N  N5  1  0.23910000  0.30180000  0.33950000  1.0 -0.3795841803
N  N6  1  0.04155000  0.36440000  0.15920000  1.0 -0.350536434
N  N7  1  0.54540000  0.18463000  0.16480000  1.0 -0.4393350194
N  N8  1  0.69820000  0.23910000  0.33950000  1.0 -0.3795841803
N  N9  1  0.63560000  0.04155000  0.15920000  1.0 -0.350536434
N  N10  1  0.45460000  0.81537000  0.16480000  1.0 -0.4393350194
N  N11  1  0.30180000  0.76090000  0.33950000  1.0 -0.3795841803
N  N12  1  0.36440000  0.95845000  0.15920000  1.0 -0.350536434
N  N13  1  0.81537000  0.45460000  0.83520000  1.0 -0.4393350194
N  N14  1  0.76090000  0.30180000  0.66050000  1.0 -0.3795841803
N  N15  1  0.95845000  0.36440000  0.84080000  1.0 -0.350536434
N  N16  1  0.18463000  0.54540000  0.83520000  1.0 -0.4393350194
N  N17  1  0.23910000  0.69820000  0.66050000  1.0 -0.3795841803
N  N18  1  0.04155000  0.63560000  0.84080000  1.0 -0.350536434
N  N19  1  0.54540000  0.81537000  0.83520000  1.0 -0.4393350194
N  N20  1  0.69820000  0.76090000  0.66050000  1.0 -0.3795841803
N  N21  1  0.63560000  0.95845000  0.84080000  1.0 -0.350536434
N  N22  1  0.45460000  0.18463000  0.83520000  1.0 -0.4393350194
N  N23  1  0.30180000  0.23910000  0.66050000  1.0 -0.3795841803
N  N24  1  0.36440000  0.04155000  0.84080000  1.0 -0.350536434
N  N25  1  0.18463000  0.45460000  0.83520000  1.0 -0.4393350194
N  N26  1  0.23910000  0.30180000  0.66050000  1.0 -0.3795841803
N  N27  1  0.04155000  0.36440000  0.84080000  1.0 -0.350536434
N  N28  1  0.81537000  0.54540000  0.83520000  1.0 -0.4393350194
N  N29  1  0.76090000  0.69820000  0.66050000  1.0 -0.3795841803
N  N30  1  0.95845000  0.63560000  0.84080000  1.0 -0.350536434
N  N31  1  0.45460000  0.81537000  0.83520000  1.0 -0.4393350194
N  N32  1  0.30180000  0.76090000  0.66050000  1.0 -0.3795841803
N  N33  1  0.36440000  0.95845000  0.84080000  1.0 -0.350536434
N  N34  1  0.54540000  0.18463000  0.83520000  1.0 -0.4393350194
N  N35  1  0.69820000  0.23910000  0.66050000  1.0 -0.3795841803
N  N36  1  0.63560000  0.04155000  0.84080000  1.0 -0.350536434
N  N37  1  0.18463000  0.54540000  0.16480000  1.0 -0.4393350194
N  N38  1  0.23910000  0.69820000  0.33950000  1.0 -0.3795841803
N  N39  1  0.04155000  0.63560000  0.15920000  1.0 -0.350536434
N  N40  1  0.81537000  0.45460000  0.16480000  1.0 -0.4393350194
N  N41  1  0.76090000  0.30180000  0.33950000  1.0 -0.3795841803
N  N42  1  0.95845000  0.36440000  0.15920000  1.0 -0.350536434
N  N43  1  0.45460000  0.18463000  0.16480000  1.0 -0.4393350194
N  N44  1  0.30180000  0.23910000  0.33950000  1.0 -0.3795841803
N  N45  1  0.36440000  0.04155000  0.15920000  1.0 -0.350536434
N  N46  1  0.54540000  0.81537000  0.16480000  1.0 -0.4393350194
N  N47  1  0.69820000  0.76090000  0.33950000  1.0 -0.3795841803
N  N48  1  0.63560000  0.95845000  0.15920000  1.0 -0.350536434
O  O1  1  0.81842000  0.60890000  0.17890000  1.0 -0.4090511234
O  O2  1  0.86459000  0.59780000  0.31800000  1.0 -0.4547195416
O  O3  1  0.85747000  0.53610000  0.30500000  1.0 -0.4090511234
O  O4  1  0.81236000  0.66019000  0.33810000  1.0 -0.4090511234
O  O5  1  0.83336000  0.69270000  0.18630000  1.0 -0.4393350194
O  O6  1  0.78497000  0.73075000  0.19050000  1.0 -0.3971327675
O  O7  1  0.89645000  0.67360000  0.31950000  1.0 -0.4671749231
O  O8  1  0.89323000  0.63630000  0.16700000  1.0 -0.3971327675
O  O9  1  0.96010000  0.67301000  0.31400000  1.0 -0.3971327675
O  O10  1  0.18158000  0.39110000  0.17890000  1.0 -0.4090511234
O  O11  1  0.13541000  0.40220000  0.31800000  1.0 -0.4547195416
O  O12  1  0.14253000  0.46390000  0.30500000  1.0 -0.4090511234
O  O13  1  0.18764000  0.33981000  0.33810000  1.0 -0.4090511234
O  O14  1  0.16664000  0.30730000  0.18630000  1.0 -0.4393350194
O  O15  1  0.21503000  0.26925000  0.19050000  1.0 -0.3971327675
O  O16  1  0.10355000  0.32640000  0.31950000  1.0 -0.4671749231
O  O17  1  0.10677000  0.36370000  0.16700000  1.0 -0.3971327675
O  O18  1  0.03990000  0.32699000  0.31400000  1.0 -0.3971327675
O  O19  1  0.60890000  0.18158000  0.17890000  1.0 -0.4090511234
O  O20  1  0.59780000  0.13541000  0.31800000  1.0 -0.4547195416
O  O21  1  0.53610000  0.14253000  0.30500000  1.0 -0.4090511234
O  O22  1  0.66019000  0.18764000  0.33810000  1.0 -0.4090511234
O  O23  1  0.69270000  0.16664000  0.18630000  1.0 -0.4393350194
O  O24  1  0.73075000  0.21503000  0.19050000  1.0 -0.3971327675
O  O25  1  0.67360000  0.10355000  0.31950000  1.0 -0.4671749231
O  O26  1  0.63630000  0.10677000  0.16700000  1.0 -0.3971327675
O  O27  1  0.67301000  0.03990000  0.31400000  1.0 -0.3971327675
O  O28  1  0.39110000  0.81842000  0.17890000  1.0 -0.4090511234
O  O29  1  0.40220000  0.86459000  0.31800000  1.0 -0.4547195416
O  O30  1  0.46390000  0.85747000  0.30500000  1.0 -0.4090511234
O  O31  1  0.33981000  0.81236000  0.33810000  1.0 -0.4090511234
O  O32  1  0.30730000  0.83336000  0.18630000  1.0 -0.4393350194
O  O33  1  0.26925000  0.78497000  0.19050000  1.0 -0.3971327675
O  O34  1  0.32640000  0.89645000  0.31950000  1.0 -0.4671749231
O  O35  1  0.36370000  0.89323000  0.16700000  1.0 -0.3971327675
O  O36  1  0.32699000  0.96010000  0.31400000  1.0 -0.3971327675
O  O37  1  0.81842000  0.39110000  0.82110000  1.0 -0.4090511234
O  O38  1  0.86459000  0.40220000  0.68200000  1.0 -0.4547195416
O  O39  1  0.85747000  0.46390000  0.69500000  1.0 -0.4090511234
O  O40  1  0.81236000  0.33981000  0.66190000  1.0 -0.4090511234
O  O41  1  0.83336000  0.30730000  0.81370000  1.0 -0.4393350194
O  O42  1  0.78497000  0.26925000  0.80950000  1.0 -0.3971327675
O  O43  1  0.89645000  0.32640000  0.68050000  1.0 -0.4671749231
O  O44  1  0.89323000  0.36370000  0.83300000  1.0 -0.3971327675
O  O45  1  0.96010000  0.32699000  0.68600000  1.0 -0.3971327675
O  O46  1  0.18158000  0.60890000  0.82110000  1.0 -0.4090511234
O  O47  1  0.13541000  0.59780000  0.68200000  1.0 -0.4547195416
O  O48  1  0.14253000  0.53610000  0.69500000  1.0 -0.4090511234
O  O49  1  0.18764000  0.66019000  0.66190000  1.0 -0.4090511234
O  O50  1  0.16664000  0.69270000  0.81370000  1.0 -0.4393350194
O  O51  1  0.21503000  0.73075000  0.80950000  1.0 -0.3971327675
O  O52  1  0.10355000  0.67360000  0.68050000  1.0 -0.4671749231
O  O53  1  0.10677000  0.63630000  0.83300000  1.0 -0.3971327675
O  O54  1  0.03990000  0.67301000  0.68600000  1.0 -0.3971327675
O  O55  1  0.60890000  0.81842000  0.82110000  1.0 -0.4090511234
O  O56  1  0.59780000  0.86459000  0.68200000  1.0 -0.4547195416
O  O57  1  0.53610000  0.85747000  0.69500000  1.0 -0.4090511234
O  O58  1  0.66019000  0.81236000  0.66190000  1.0 -0.4090511234
O  O59  1  0.69270000  0.83336000  0.81370000  1.0 -0.4393350194
O  O60  1  0.73075000  0.78497000  0.80950000  1.0 -0.3971327675
O  O61  1  0.67360000  0.89645000  0.68050000  1.0 -0.4671749231
O  O62  1  0.63630000  0.89323000  0.83300000  1.0 -0.3971327675
O  O63  1  0.67301000  0.96010000  0.68600000  1.0 -0.3971327675
O  O64  1  0.39110000  0.18158000  0.82110000  1.0 -0.4090511234
O  O65  1  0.40220000  0.13541000  0.68200000  1.0 -0.4547195416
O  O66  1  0.46390000  0.14253000  0.69500000  1.0 -0.4090511234
O  O67  1  0.33981000  0.18764000  0.66190000  1.0 -0.4090511234
O  O68  1  0.30730000  0.16664000  0.81370000  1.0 -0.4393350194
O  O69  1  0.26925000  0.21503000  0.80950000  1.0 -0.3971327675
O  O70  1  0.32640000  0.10355000  0.68050000  1.0 -0.4671749231
O  O71  1  0.36370000  0.10677000  0.83300000  1.0 -0.3971327675
O  O72  1  0.32699000  0.03990000  0.68600000  1.0 -0.3971327675
O  O73  1  0.18158000  0.39110000  0.82110000  1.0 -0.4090511234
O  O74  1  0.13541000  0.40220000  0.68200000  1.0 -0.4547195416
O  O75  1  0.14253000  0.46390000  0.69500000  1.0 -0.4090511234
O  O76  1  0.18764000  0.33981000  0.66190000  1.0 -0.4090511234
O  O77  1  0.16664000  0.30730000  0.81370000  1.0 -0.4393350194
O  O78  1  0.21503000  0.26925000  0.80950000  1.0 -0.3971327675
O  O79  1  0.10355000  0.32640000  0.68050000  1.0 -0.4671749231
O  O80  1  0.10677000  0.36370000  0.83300000  1.0 -0.3971327675
O  O81  1  0.03990000  0.32699000  0.68600000  1.0 -0.3971327675
O  O82  1  0.81842000  0.60890000  0.82110000  1.0 -0.4090511234
O  O83  1  0.86459000  0.59780000  0.68200000  1.0 -0.4547195416
O  O84  1  0.85747000  0.53610000  0.69500000  1.0 -0.4090511234
O  O85  1  0.81236000  0.66019000  0.66190000  1.0 -0.4090511234
O  O86  1  0.83336000  0.69270000  0.81370000  1.0 -0.4393350194
O  O87  1  0.78497000  0.73075000  0.80950000  1.0 -0.3971327675
O  O88  1  0.89645000  0.67360000  0.68050000  1.0 -0.4671749231
O  O89  1  0.89323000  0.63630000  0.83300000  1.0 -0.3971327675
O  O90  1  0.96010000  0.67301000  0.68600000  1.0 -0.3971327675
O  O91  1  0.39110000  0.81842000  0.82110000  1.0 -0.4090511234
O  O92  1  0.40220000  0.86459000  0.68200000  1.0 -0.4547195416
O  O93  1  0.46390000  0.85747000  0.69500000  1.0 -0.4090511234
O  O94  1  0.33981000  0.81236000  0.66190000  1.0 -0.4090511234
O  O95  1  0.30730000  0.83336000  0.81370000  1.0 -0.4393350194
O  O96  1  0.26925000  0.78497000  0.80950000  1.0 -0.3971327675
O  O97  1  0.32640000  0.89645000  0.68050000  1.0 -0.4671749231
O  O98  1  0.36370000  0.89323000  0.83300000  1.0 -0.3971327675
O  O99  1  0.32699000  0.96010000  0.68600000  1.0 -0.3971327675
O  O100  1  0.60890000  0.18158000  0.82110000  1.0 -0.4090511234
O  O101  1  0.59780000  0.13541000  0.68200000  1.0 -0.4547195416
O  O102  1  0.53610000  0.14253000  0.69500000  1.0 -0.4090511234
O  O103  1  0.66019000  0.18764000  0.66190000  1.0 -0.4090511234
O  O104  1  0.69270000  0.16664000  0.81370000  1.0 -0.4393350194
O  O105  1  0.73075000  0.21503000  0.80950000  1.0 -0.3971327675
O  O106  1  0.67360000  0.10355000  0.68050000  1.0 -0.4671749231
O  O107  1  0.63630000  0.10677000  0.83300000  1.0 -0.3971327675
O  O108  1  0.67301000  0.03990000  0.68600000  1.0 -0.3971327675
O  O109  1  0.18158000  0.60890000  0.17890000  1.0 -0.4090511234
O  O110  1  0.13541000  0.59780000  0.31800000  1.0 -0.4547195416
O  O111  1  0.14253000  0.53610000  0.30500000  1.0 -0.4090511234
O  O112  1  0.18764000  0.66019000  0.33810000  1.0 -0.4090511234
O  O113  1  0.16664000  0.69270000  0.18630000  1.0 -0.4393350194
O  O114  1  0.21503000  0.73075000  0.19050000  1.0 -0.3971327675
O  O115  1  0.10355000  0.67360000  0.31950000  1.0 -0.4671749231
O  O116  1  0.10677000  0.63630000  0.16700000  1.0 -0.3971327675
O  O117  1  0.03990000  0.67301000  0.31400000  1.0 -0.3971327675
O  O118  1  0.81842000  0.39110000  0.17890000  1.0 -0.4090511234
O  O119  1  0.86459000  0.40220000  0.31800000  1.0 -0.4547195416
O  O120  1  0.85747000  0.46390000  0.30500000  1.0 -0.4090511234
O  O121  1  0.81236000  0.33981000  0.33810000  1.0 -0.4090511234
O  O122  1  0.83336000  0.30730000  0.18630000  1.0 -0.4393350194
O  O123  1  0.78497000  0.26925000  0.19050000  1.0 -0.3971327675
O  O124  1  0.89645000  0.32640000  0.31950000  1.0 -0.4671749231
O  O125  1  0.89323000  0.36370000  0.16700000  1.0 -0.3971327675
O  O126  1  0.96010000  0.32699000  0.31400000  1.0 -0.3971327675
O  O127  1  0.39110000  0.18158000  0.17890000  1.0 -0.4090511234
O  O128  1  0.40220000  0.13541000  0.31800000  1.0 -0.4547195416
O  O129  1  0.46390000  0.14253000  0.30500000  1.0 -0.4090511234
O  O130  1  0.33981000  0.18764000  0.33810000  1.0 -0.4090511234
O  O131  1  0.30730000  0.16664000  0.18630000  1.0 -0.4393350194
O  O132  1  0.26925000  0.21503000  0.19050000  1.0 -0.3971327675
O  O133  1  0.32640000  0.10355000  0.31950000  1.0 -0.4671749231
O  O134  1  0.36370000  0.10677000  0.16700000  1.0 -0.3971327675
O  O135  1  0.32699000  0.03990000  0.31400000  1.0 -0.3971327675
O  O136  1  0.60890000  0.81842000  0.17890000  1.0 -0.4090511234
O  O137  1  0.59780000  0.86459000  0.31800000  1.0 -0.4547195416
O  O138  1  0.53610000  0.85747000  0.30500000  1.0 -0.4090511234
O  O139  1  0.66019000  0.81236000  0.33810000  1.0 -0.4090511234
O  O140  1  0.69270000  0.83336000  0.18630000  1.0 -0.4393350194
O  O141  1  0.73075000  0.78497000  0.19050000  1.0 -0.3971327675
O  O142  1  0.67360000  0.89645000  0.31950000  1.0 -0.4671749231
O  O143  1  0.63630000  0.89323000  0.16700000  1.0 -0.3971327675
O  O144  1  0.67301000  0.96010000  0.31400000  1.0 -0.3971327675
