# DDEC6 charges by PACMAN v1.1 (https://github.com/mtap-research/PACMAN-charge/)
data_LETZOD_ASR_pacman
_symmetry_space_group_name_H-M   'P 1'
_cell_length_a   36.03700000
_cell_length_b   36.03700000
_cell_length_c   15.31100000
_cell_angle_alpha   90.00000000
_cell_angle_beta   90.00000000
_cell_angle_gamma   90.00000000
_symmetry_Int_Tables_number   1
_chemical_formula_structural   Na2Cu3Ni2Ag2H39C39(NO3)6
_chemical_formula_sum   'Na16 Cu24 Ni16 Ag16 H312 C312 N48 O144'
_cell_volume   19883.86546476
_cell_formula_units_Z   8
loop_
 _symmetry_equiv_pos_site_id
 _symmetry_equiv_pos_as_xyz
  1  'x, y, z'
loop_
 _atom_site_type_symbol
 _atom_site_label
 _atom_site_symmetry_multiplicity
 _atom_site_fract_x
 _atom_site_fract_y
 _atom_site_fract_z
 _atom_site_occupancy
 _atom_site_charge
Na  Na1  1  0.76900000  0.76900000  0.92850000  1.0 0.4769132071
Na  Na2  1  0.23100000  0.23100000  0.92850000  1.0 0.4737429255
Na  Na3  1  0.76900000  0.23100000  0.92850000  1.0 0.4769132071
Na  Na4  1  0.23100000  0.76900000  0.92850000  1.0 0.4737429255
Na  Na5  1  0.76900000  0.23100000  0.07150000  1.0 0.4769132071
Na  Na6  1  0.23100000  0.76900000  0.07150000  1.0 0.4769132071
Na  Na7  1  0.76900000  0.76900000  0.07150000  1.0 0.4769132071
Na  Na8  1  0.23100000  0.23100000  0.07150000  1.0 0.4769132071
Na  Na9  1  0.00000000  0.72520000  0.81580000  1.0 0.7045207554
Na  Na10  1  0.00000000  0.27480000  0.81580000  1.0 0.7045207554
Na  Na11  1  0.72520000  0.00000000  0.81580000  1.0 0.7045207554
Na  Na12  1  0.27480000  0.00000000  0.81580000  1.0 0.7045207554
Na  Na13  1  0.00000000  0.27480000  0.18420000  1.0 0.7045207554
Na  Na14  1  0.00000000  0.72520000  0.18420000  1.0 0.7045207554
Na  Na15  1  0.72520000  0.00000000  0.18420000  1.0 0.7045207554
Na  Na16  1  0.27480000  0.00000000  0.18420000  1.0 0.7045207554
Cu  Cu1  1  0.83378000  0.50000000  0.77682000  1.0 0.495718089
Cu  Cu2  1  0.16622000  0.50000000  0.77682000  1.0 0.495718089
Cu  Cu3  1  0.50000000  0.16622000  0.77682000  1.0 0.495718089
Cu  Cu4  1  0.50000000  0.83378000  0.77682000  1.0 0.495718089
Cu  Cu5  1  0.83378000  0.50000000  0.22318000  1.0 0.495718089
Cu  Cu6  1  0.16622000  0.50000000  0.22318000  1.0 0.4941096836
Cu  Cu7  1  0.50000000  0.83378000  0.22318000  1.0 0.495718089
Cu  Cu8  1  0.50000000  0.16622000  0.22318000  1.0 0.495718089
Cu  Cu9  1  0.74033000  0.74033000  0.73132000  1.0 0.6401058966
Cu  Cu10  1  0.25967000  0.25967000  0.73132000  1.0 0.6401058966
Cu  Cu11  1  0.74033000  0.25967000  0.73132000  1.0 0.6401058966
Cu  Cu12  1  0.25967000  0.74033000  0.73132000  1.0 0.6401058966
Cu  Cu13  1  0.74033000  0.25967000  0.26868000  1.0 0.6401058966
Cu  Cu14  1  0.25967000  0.74033000  0.26868000  1.0 0.6401058966
Cu  Cu15  1  0.74033000  0.74033000  0.26868000  1.0 0.6401058966
Cu  Cu16  1  0.25967000  0.25967000  0.26868000  1.0 0.6401058966
Cu  Cu17  1  0.00000000  0.65266000  0.76580000  1.0 0.5274699413
Cu  Cu18  1  0.00000000  0.34734000  0.76580000  1.0 0.5274699413
Cu  Cu19  1  0.65266000  0.00000000  0.76580000  1.0 0.5274699413
Cu  Cu20  1  0.34734000  0.00000000  0.76580000  1.0 0.5274699413
Cu  Cu21  1  0.00000000  0.34734000  0.23420000  1.0 0.5274699413
Cu  Cu22  1  0.00000000  0.65266000  0.23420000  1.0 0.5274699413
Cu  Cu23  1  0.65266000  0.00000000  0.23420000  1.0 0.5274699413
Cu  Cu24  1  0.34734000  0.00000000  0.23420000  1.0 0.5274699413
Ni  Ni1  1  0.85240000  0.64610000  0.74839000  1.0 0.911105045
Ni  Ni2  1  0.14760000  0.35390000  0.74839000  1.0 0.911105045
Ni  Ni3  1  0.64610000  0.14760000  0.74839000  1.0 0.911105045
Ni  Ni4  1  0.35390000  0.85240000  0.74839000  1.0 0.911105045
Ni  Ni5  1  0.85240000  0.35390000  0.25161000  1.0 0.911105045
Ni  Ni6  1  0.14760000  0.64610000  0.25161000  1.0 0.911105045
Ni  Ni7  1  0.64610000  0.85240000  0.25161000  1.0 0.911105045
Ni  Ni8  1  0.35390000  0.14760000  0.25161000  1.0 0.911105045
Ni  Ni9  1  0.14760000  0.35390000  0.25161000  1.0 0.911105045
Ni  Ni10  1  0.85240000  0.64610000  0.25161000  1.0 0.911105045
Ni  Ni11  1  0.35390000  0.85240000  0.25161000  1.0 0.911105045
Ni  Ni12  1  0.64610000  0.14760000  0.25161000  1.0 0.911105045
Ni  Ni13  1  0.14760000  0.64610000  0.74839000  1.0 0.911105045
Ni  Ni14  1  0.85240000  0.35390000  0.74839000  1.0 0.911105045
Ni  Ni15  1  0.35390000  0.14760000  0.74839000  1.0 0.911105045
Ni  Ni16  1  0.64610000  0.85240000  0.74839000  1.0 0.911105045
Ag  Ag1  1  0.85710000  0.65780000  0.00000000  1.0 0.6268875533
Ag  Ag2  1  0.78940000  0.71490000  0.00000000  1.0 -0.1984389894
Ag  Ag3  1  0.14290000  0.34220000  0.00000000  1.0 0.6268875533
Ag  Ag4  1  0.21060000  0.28510000  0.00000000  1.0 -0.1984389894
Ag  Ag5  1  0.65780000  0.14290000  0.00000000  1.0 0.6268875533
Ag  Ag6  1  0.71490000  0.21060000  0.00000000  1.0 -0.1984389894
Ag  Ag7  1  0.34220000  0.85710000  0.00000000  1.0 0.6268875533
Ag  Ag8  1  0.28510000  0.78940000  0.00000000  1.0 -0.1984389894
Ag  Ag9  1  0.85710000  0.34220000  0.00000000  1.0 0.6268875533
Ag  Ag10  1  0.78940000  0.28510000  0.00000000  1.0 -0.1984389894
Ag  Ag11  1  0.14290000  0.65780000  0.00000000  1.0 0.6268875533
Ag  Ag12  1  0.21060000  0.71490000  0.00000000  1.0 -0.1984389894
Ag  Ag13  1  0.65780000  0.85710000  0.00000000  1.0 0.6268875533
Ag  Ag14  1  0.71490000  0.78940000  0.00000000  1.0 -0.1984389894
Ag  Ag15  1  0.34220000  0.14290000  0.00000000  1.0 0.6268875533
Ag  Ag16  1  0.28510000  0.21060000  0.00000000  1.0 -0.1984389894
H  H1  1  0.75504000  0.53929000  0.78579000  1.0 0.1296532119
H  H2  1  0.71645000  0.53056000  0.83326000  1.0 0.1207240828
H  H3  1  0.72872000  0.57263000  0.81631000  1.0 0.1472403359
H  H4  1  0.69822000  0.65362000  0.71012000  1.0 0.1296532119
H  H5  1  0.69135000  0.61687000  0.65368000  1.0 0.1207240828
H  H6  1  0.73110000  0.62431000  0.69687000  1.0 0.1472403359
H  H7  1  0.95548000  0.57123000  0.78568000  1.0 0.1472403359
H  H8  1  0.96541000  0.53437000  0.83909000  1.0 0.1296532119
H  H9  1  0.92312000  0.54733000  0.82993000  1.0 0.1472403359
H  H10  1  0.81595000  0.71622000  0.51503000  1.0 0.0901155629
H  H11  1  0.79389000  0.73901000  0.44187000  1.0 0.0580639563
H  H12  1  0.78620000  0.74696000  0.54310000  1.0 0.0580639563
H  H13  1  0.86813000  0.54792000  0.06034000  1.0 0.0715924954
H  H14  1  0.86796000  0.57083000  0.97080000  1.0 0.0901155629
H  H15  1  0.86830000  0.52643000  0.96887000  1.0 0.0766512201
H  H16  1  0.95330000  0.68549000  0.06023000  1.0 0.0349944838
H  H17  1  0.92881000  0.68336000  0.97318000  1.0 0.0580639563
H  H18  1  0.97296000  0.68720000  0.96660000  1.0 0.0372902624
H  H19  1  0.24496000  0.46071000  0.78579000  1.0 0.1296532119
H  H20  1  0.28355000  0.46944000  0.83326000  1.0 0.1207240828
H  H21  1  0.27128000  0.42737000  0.81631000  1.0 0.1472403359
H  H22  1  0.30178000  0.34638000  0.71012000  1.0 0.1296532119
H  H23  1  0.30865000  0.38313000  0.65368000  1.0 0.1207240828
H  H24  1  0.26890000  0.37569000  0.69687000  1.0 0.1472403359
H  H25  1  0.04452000  0.42877000  0.78568000  1.0 0.1472403359
H  H26  1  0.03459000  0.46563000  0.83909000  1.0 0.1296532119
H  H27  1  0.07688000  0.45267000  0.82993000  1.0 0.1472403359
H  H28  1  0.18405000  0.28378000  0.51503000  1.0 0.0901155629
H  H29  1  0.20611000  0.26099000  0.44187000  1.0 0.0580639563
H  H30  1  0.21380000  0.25304000  0.54310000  1.0 0.0580639563
H  H31  1  0.13187000  0.45208000  0.06034000  1.0 0.0715924954
H  H32  1  0.13204000  0.42917000  0.97080000  1.0 0.0901155629
H  H33  1  0.13170000  0.47357000  0.96887000  1.0 0.0766512201
H  H34  1  0.04670000  0.31451000  0.06023000  1.0 0.0349944838
H  H35  1  0.07119000  0.31664000  0.97318000  1.0 0.0580639563
H  H36  1  0.02704000  0.31280000  0.96660000  1.0 0.0372902624
H  H37  1  0.53929000  0.24496000  0.78579000  1.0 0.1296532119
H  H38  1  0.53056000  0.28355000  0.83326000  1.0 0.1207240828
H  H39  1  0.57263000  0.27128000  0.81631000  1.0 0.1472403359
H  H40  1  0.65362000  0.30178000  0.71012000  1.0 0.1296532119
H  H41  1  0.61687000  0.30865000  0.65368000  1.0 0.1207240828
H  H42  1  0.62431000  0.26890000  0.69687000  1.0 0.1472403359
H  H43  1  0.57123000  0.04452000  0.78568000  1.0 0.1472403359
H  H44  1  0.53437000  0.03459000  0.83909000  1.0 0.1296532119
H  H45  1  0.54733000  0.07688000  0.82993000  1.0 0.1472403359
H  H46  1  0.71622000  0.18405000  0.51503000  1.0 0.0901155629
H  H47  1  0.73901000  0.20611000  0.44187000  1.0 0.0580639563
H  H48  1  0.74696000  0.21380000  0.54310000  1.0 0.0580639563
H  H49  1  0.54792000  0.13187000  0.06034000  1.0 0.0715924954
H  H50  1  0.57083000  0.13204000  0.97080000  1.0 0.0901155629
H  H51  1  0.52643000  0.13170000  0.96887000  1.0 0.0766512201
H  H52  1  0.68549000  0.04670000  0.06023000  1.0 0.0349944838
H  H53  1  0.68336000  0.07119000  0.97318000  1.0 0.0580639563
H  H54  1  0.68720000  0.02704000  0.96660000  1.0 0.0372902624
H  H55  1  0.46071000  0.75504000  0.78579000  1.0 0.1296532119
H  H56  1  0.46944000  0.71645000  0.83326000  1.0 0.1207240828
H  H57  1  0.42737000  0.72872000  0.81631000  1.0 0.1472403359
H  H58  1  0.34638000  0.69822000  0.71012000  1.0 0.1296532119
H  H59  1  0.38313000  0.69135000  0.65368000  1.0 0.1207240828
H  H60  1  0.37569000  0.73110000  0.69687000  1.0 0.1472403359
H  H61  1  0.42877000  0.95548000  0.78568000  1.0 0.1472403359
H  H62  1  0.46563000  0.96541000  0.83909000  1.0 0.1296532119
H  H63  1  0.45267000  0.92312000  0.82993000  1.0 0.1472403359
H  H64  1  0.28378000  0.81595000  0.51503000  1.0 0.0901155629
H  H65  1  0.26099000  0.79389000  0.44187000  1.0 0.0580639563
H  H66  1  0.25304000  0.78620000  0.54310000  1.0 0.0580639563
H  H67  1  0.45208000  0.86813000  0.06034000  1.0 0.0715924954
H  H68  1  0.42917000  0.86796000  0.97080000  1.0 0.0901155629
H  H69  1  0.47357000  0.86830000  0.96887000  1.0 0.0766512201
H  H70  1  0.31451000  0.95330000  0.06023000  1.0 0.0349944838
H  H71  1  0.31664000  0.92881000  0.97318000  1.0 0.0580639563
H  H72  1  0.31280000  0.97296000  0.96660000  1.0 0.0372902624
H  H73  1  0.75504000  0.46071000  0.21421000  1.0 0.1296532119
H  H74  1  0.71645000  0.46944000  0.16674000  1.0 0.1207240828
H  H75  1  0.72872000  0.42737000  0.18369000  1.0 0.1472403359
H  H76  1  0.69822000  0.34638000  0.28988000  1.0 0.1296532119
H  H77  1  0.69135000  0.38313000  0.34632000  1.0 0.1207240828
H  H78  1  0.73110000  0.37569000  0.30313000  1.0 0.1472403359
H  H79  1  0.95548000  0.42877000  0.21432000  1.0 0.1472403359
H  H80  1  0.96541000  0.46563000  0.16091000  1.0 0.1296532119
H  H81  1  0.92312000  0.45267000  0.17007000  1.0 0.1472403359
H  H82  1  0.81595000  0.28378000  0.48497000  1.0 0.0901155629
H  H83  1  0.79389000  0.26099000  0.55813000  1.0 0.0580639563
H  H84  1  0.78620000  0.25304000  0.45690000  1.0 0.0580639563
H  H85  1  0.86813000  0.45208000  0.93966000  1.0 0.0715924954
H  H86  1  0.86796000  0.42917000  0.02920000  1.0 0.0901155629
H  H87  1  0.86830000  0.47357000  0.03113000  1.0 0.0766512201
H  H88  1  0.95330000  0.31451000  0.93977000  1.0 0.0349944838
H  H89  1  0.92881000  0.31664000  0.02682000  1.0 0.0580639563
H  H90  1  0.97296000  0.31280000  0.03340000  1.0 0.0372902624
H  H91  1  0.24496000  0.53929000  0.21421000  1.0 0.1296532119
H  H92  1  0.28355000  0.53056000  0.16674000  1.0 0.1207240828
H  H93  1  0.27128000  0.57263000  0.18369000  1.0 0.1472403359
H  H94  1  0.30178000  0.65362000  0.28988000  1.0 0.1296532119
H  H95  1  0.30865000  0.61687000  0.34632000  1.0 0.1207240828
H  H96  1  0.26890000  0.62431000  0.30313000  1.0 0.1472403359
H  H97  1  0.04452000  0.57123000  0.21432000  1.0 0.1472403359
H  H98  1  0.03459000  0.53437000  0.16091000  1.0 0.1296532119
H  H99  1  0.07688000  0.54733000  0.17007000  1.0 0.1472403359
H  H100  1  0.18405000  0.71622000  0.48497000  1.0 0.0901155629
H  H101  1  0.20611000  0.73901000  0.55813000  1.0 0.0580639563
H  H102  1  0.21380000  0.74696000  0.45690000  1.0 0.0580639563
H  H103  1  0.13187000  0.54792000  0.93966000  1.0 0.0715924954
H  H104  1  0.13204000  0.57083000  0.02920000  1.0 0.0901155629
H  H105  1  0.13170000  0.52643000  0.03113000  1.0 0.0766512201
H  H106  1  0.04670000  0.68549000  0.93977000  1.0 0.0349944838
H  H107  1  0.07119000  0.68336000  0.02682000  1.0 0.0580639563
H  H108  1  0.02704000  0.68720000  0.03340000  1.0 0.0372902624
H  H109  1  0.53929000  0.75504000  0.21421000  1.0 0.1296532119
H  H110  1  0.53056000  0.71645000  0.16674000  1.0 0.1207240828
H  H111  1  0.57263000  0.72872000  0.18369000  1.0 0.1472403359
H  H112  1  0.65362000  0.69822000  0.28988000  1.0 0.1296532119
H  H113  1  0.61687000  0.69135000  0.34632000  1.0 0.1207240828
H  H114  1  0.62431000  0.73110000  0.30313000  1.0 0.1472403359
H  H115  1  0.57123000  0.95548000  0.21432000  1.0 0.1472403359
H  H116  1  0.53437000  0.96541000  0.16091000  1.0 0.1296532119
H  H117  1  0.54733000  0.92312000  0.17007000  1.0 0.1472403359
H  H118  1  0.71622000  0.81595000  0.48497000  1.0 0.0901155629
H  H119  1  0.73901000  0.79389000  0.55813000  1.0 0.0580639563
H  H120  1  0.74696000  0.78620000  0.45690000  1.0 0.0580639563
H  H121  1  0.54792000  0.86813000  0.93966000  1.0 0.0715924954
H  H122  1  0.57083000  0.86796000  0.02920000  1.0 0.0901155629
H  H123  1  0.52643000  0.86830000  0.03113000  1.0 0.0766512201
H  H124  1  0.68549000  0.95330000  0.93977000  1.0 0.0349944838
H  H125  1  0.68336000  0.92881000  0.02682000  1.0 0.0580639563
H  H126  1  0.68720000  0.97296000  0.03340000  1.0 0.0372902624
H  H127  1  0.46071000  0.24496000  0.21421000  1.0 0.1296532119
H  H128  1  0.46944000  0.28355000  0.16674000  1.0 0.1207240828
H  H129  1  0.42737000  0.27128000  0.18369000  1.0 0.1472403359
H  H130  1  0.34638000  0.30178000  0.28988000  1.0 0.1296532119
H  H131  1  0.38313000  0.30865000  0.34632000  1.0 0.1207240828
H  H132  1  0.37569000  0.26890000  0.30313000  1.0 0.1472403359
H  H133  1  0.42877000  0.04452000  0.21432000  1.0 0.1472403359
H  H134  1  0.46563000  0.03459000  0.16091000  1.0 0.1296532119
H  H135  1  0.45267000  0.07688000  0.17007000  1.0 0.1472403359
H  H136  1  0.28378000  0.18405000  0.48497000  1.0 0.0901155629
H  H137  1  0.26099000  0.20611000  0.55813000  1.0 0.0580639563
H  H138  1  0.25304000  0.21380000  0.45690000  1.0 0.0580639563
H  H139  1  0.45208000  0.13187000  0.93966000  1.0 0.0715924954
H  H140  1  0.42917000  0.13204000  0.02920000  1.0 0.0901155629
H  H141  1  0.47357000  0.13170000  0.03113000  1.0 0.0766512201
H  H142  1  0.31451000  0.04670000  0.93977000  1.0 0.0349944838
H  H143  1  0.31664000  0.07119000  0.02682000  1.0 0.0580639563
H  H144  1  0.31280000  0.02704000  0.03340000  1.0 0.0372902624
H  H145  1  0.24496000  0.46071000  0.21421000  1.0 0.1296532119
H  H146  1  0.28355000  0.46944000  0.16674000  1.0 0.1207240828
H  H147  1  0.27128000  0.42737000  0.18369000  1.0 0.1472403359
H  H148  1  0.30178000  0.34638000  0.28988000  1.0 0.1296532119
H  H149  1  0.30865000  0.38313000  0.34632000  1.0 0.1207240828
H  H150  1  0.26890000  0.37569000  0.30313000  1.0 0.1472403359
H  H151  1  0.04452000  0.42877000  0.21432000  1.0 0.1472403359
H  H152  1  0.03459000  0.46563000  0.16091000  1.0 0.1296532119
H  H153  1  0.07688000  0.45267000  0.17007000  1.0 0.1472403359
H  H154  1  0.18405000  0.28378000  0.48497000  1.0 0.0901155629
H  H155  1  0.20611000  0.26099000  0.55813000  1.0 0.0580639563
H  H156  1  0.21380000  0.25304000  0.45690000  1.0 0.0580639563
H  H157  1  0.13187000  0.45208000  0.93966000  1.0 0.0715924954
H  H158  1  0.13204000  0.42917000  0.02920000  1.0 0.0901155629
H  H159  1  0.13170000  0.47357000  0.03113000  1.0 0.0766512201
H  H160  1  0.04670000  0.31451000  0.93977000  1.0 0.0349944838
H  H161  1  0.07119000  0.31664000  0.02682000  1.0 0.0580639563
H  H162  1  0.02704000  0.31280000  0.03340000  1.0 0.0372902624
H  H163  1  0.75504000  0.53929000  0.21421000  1.0 0.1296532119
H  H164  1  0.71645000  0.53056000  0.16674000  1.0 0.1207240828
H  H165  1  0.72872000  0.57263000  0.18369000  1.0 0.1472403359
H  H166  1  0.69822000  0.65362000  0.28988000  1.0 0.1296532119
H  H167  1  0.69135000  0.61687000  0.34632000  1.0 0.1207240828
H  H168  1  0.73110000  0.62431000  0.30313000  1.0 0.1472403359
H  H169  1  0.95548000  0.57123000  0.21432000  1.0 0.1472403359
H  H170  1  0.96541000  0.53437000  0.16091000  1.0 0.1296532119
H  H171  1  0.92312000  0.54733000  0.17007000  1.0 0.1472403359
H  H172  1  0.81595000  0.71622000  0.48497000  1.0 0.0901155629
H  H173  1  0.79389000  0.73901000  0.55813000  1.0 0.0580639563
H  H174  1  0.78620000  0.74696000  0.45690000  1.0 0.0580639563
H  H175  1  0.86813000  0.54792000  0.93966000  1.0 0.0715924954
H  H176  1  0.86796000  0.57083000  0.02920000  1.0 0.0901155629
H  H177  1  0.86830000  0.52643000  0.03113000  1.0 0.0766512201
H  H178  1  0.95330000  0.68549000  0.93977000  1.0 0.0349944838
H  H179  1  0.92881000  0.68336000  0.02682000  1.0 0.0580639563
H  H180  1  0.97296000  0.68720000  0.03340000  1.0 0.0372902624
H  H181  1  0.46071000  0.75504000  0.21421000  1.0 0.1296532119
H  H182  1  0.46944000  0.71645000  0.16674000  1.0 0.1207240828
H  H183  1  0.42737000  0.72872000  0.18369000  1.0 0.1472403359
H  H184  1  0.34638000  0.69822000  0.28988000  1.0 0.1296532119
H  H185  1  0.38313000  0.69135000  0.34632000  1.0 0.1207240828
H  H186  1  0.37569000  0.73110000  0.30313000  1.0 0.1472403359
H  H187  1  0.42877000  0.95548000  0.21432000  1.0 0.1472403359
H  H188  1  0.46563000  0.96541000  0.16091000  1.0 0.1296532119
H  H189  1  0.45267000  0.92312000  0.17007000  1.0 0.1472403359
H  H190  1  0.28378000  0.81595000  0.48497000  1.0 0.0901155629
H  H191  1  0.26099000  0.79389000  0.55813000  1.0 0.0580639563
H  H192  1  0.25304000  0.78620000  0.45690000  1.0 0.0580639563
H  H193  1  0.45208000  0.86813000  0.93966000  1.0 0.0715924954
H  H194  1  0.42917000  0.86796000  0.02920000  1.0 0.0901155629
H  H195  1  0.47357000  0.86830000  0.03113000  1.0 0.0766512201
H  H196  1  0.31451000  0.95330000  0.93977000  1.0 0.0349944838
H  H197  1  0.31664000  0.92881000  0.02682000  1.0 0.0580639563
H  H198  1  0.31280000  0.97296000  0.03340000  1.0 0.0372902624
H  H199  1  0.53929000  0.24496000  0.21421000  1.0 0.1296532119
H  H200  1  0.53056000  0.28355000  0.16674000  1.0 0.1207240828
H  H201  1  0.57263000  0.27128000  0.18369000  1.0 0.1472403359
H  H202  1  0.65362000  0.30178000  0.28988000  1.0 0.1296532119
H  H203  1  0.61687000  0.30865000  0.34632000  1.0 0.1207240828
H  H204  1  0.62431000  0.26890000  0.30313000  1.0 0.1472403359
H  H205  1  0.57123000  0.04452000  0.21432000  1.0 0.1472403359
H  H206  1  0.53437000  0.03459000  0.16091000  1.0 0.1296532119
H  H207  1  0.54733000  0.07688000  0.17007000  1.0 0.1472403359
H  H208  1  0.71622000  0.18405000  0.48497000  1.0 0.0901155629
H  H209  1  0.73901000  0.20611000  0.55813000  1.0 0.0580639563
H  H210  1  0.74696000  0.21380000  0.45690000  1.0 0.0580639563
H  H211  1  0.54792000  0.13187000  0.93966000  1.0 0.0715924954
H  H212  1  0.57083000  0.13204000  0.02920000  1.0 0.0901155629
H  H213  1  0.52643000  0.13170000  0.03113000  1.0 0.0766512201
H  H214  1  0.68549000  0.04670000  0.93977000  1.0 0.0349944838
H  H215  1  0.68336000  0.07119000  0.02682000  1.0 0.0580639563
H  H216  1  0.68720000  0.02704000  0.03340000  1.0 0.0372902624
H  H217  1  0.24496000  0.53929000  0.78579000  1.0 0.1296532119
H  H218  1  0.28355000  0.53056000  0.83326000  1.0 0.1207240828
H  H219  1  0.27128000  0.57263000  0.81631000  1.0 0.1472403359
H  H220  1  0.30178000  0.65362000  0.71012000  1.0 0.1296532119
H  H221  1  0.30865000  0.61687000  0.65368000  1.0 0.1207240828
H  H222  1  0.26890000  0.62431000  0.69687000  1.0 0.1472403359
H  H223  1  0.04452000  0.57123000  0.78568000  1.0 0.1472403359
H  H224  1  0.03459000  0.53437000  0.83909000  1.0 0.1296532119
H  H225  1  0.07688000  0.54733000  0.82993000  1.0 0.1472403359
H  H226  1  0.18405000  0.71622000  0.51503000  1.0 0.0901155629
H  H227  1  0.20611000  0.73901000  0.44187000  1.0 0.0580639563
H  H228  1  0.21380000  0.74696000  0.54310000  1.0 0.0580639563
H  H229  1  0.13187000  0.54792000  0.06034000  1.0 0.0715924954
H  H230  1  0.13204000  0.57083000  0.97080000  1.0 0.0901155629
H  H231  1  0.13170000  0.52643000  0.96887000  1.0 0.0766512201
H  H232  1  0.04670000  0.68549000  0.06023000  1.0 0.0349944838
H  H233  1  0.07119000  0.68336000  0.97318000  1.0 0.0580639563
H  H234  1  0.02704000  0.68720000  0.96660000  1.0 0.0372902624
H  H235  1  0.75504000  0.46071000  0.78579000  1.0 0.1296532119
H  H236  1  0.71645000  0.46944000  0.83326000  1.0 0.1207240828
H  H237  1  0.72872000  0.42737000  0.81631000  1.0 0.1472403359
H  H238  1  0.69822000  0.34638000  0.71012000  1.0 0.1296532119
H  H239  1  0.69135000  0.38313000  0.65368000  1.0 0.1207240828
H  H240  1  0.73110000  0.37569000  0.69687000  1.0 0.1472403359
H  H241  1  0.95548000  0.42877000  0.78568000  1.0 0.1472403359
H  H242  1  0.96541000  0.46563000  0.83909000  1.0 0.1296532119
H  H243  1  0.92312000  0.45267000  0.82993000  1.0 0.1472403359
H  H244  1  0.81595000  0.28378000  0.51503000  1.0 0.0901155629
H  H245  1  0.79389000  0.26099000  0.44187000  1.0 0.0580639563
H  H246  1  0.78620000  0.25304000  0.54310000  1.0 0.0580639563
H  H247  1  0.86813000  0.45208000  0.06034000  1.0 0.0715924954
H  H248  1  0.86796000  0.42917000  0.97080000  1.0 0.0901155629
H  H249  1  0.86830000  0.47357000  0.96887000  1.0 0.0766512201
H  H250  1  0.95330000  0.31451000  0.06023000  1.0 0.0349944838
H  H251  1  0.92881000  0.31664000  0.97318000  1.0 0.0580639563
H  H252  1  0.97296000  0.31280000  0.96660000  1.0 0.0372902624
H  H253  1  0.46071000  0.24496000  0.78579000  1.0 0.1296532119
H  H254  1  0.46944000  0.28355000  0.83326000  1.0 0.1207240828
H  H255  1  0.42737000  0.27128000  0.81631000  1.0 0.1472403359
H  H256  1  0.34638000  0.30178000  0.71012000  1.0 0.1296532119
H  H257  1  0.38313000  0.30865000  0.65368000  1.0 0.1207240828
H  H258  1  0.37569000  0.26890000  0.69687000  1.0 0.1472403359
H  H259  1  0.42877000  0.04452000  0.78568000  1.0 0.1472403359
H  H260  1  0.46563000  0.03459000  0.83909000  1.0 0.1296532119
H  H261  1  0.45267000  0.07688000  0.82993000  1.0 0.1472403359
H  H262  1  0.28378000  0.18405000  0.51503000  1.0 0.0901155629
H  H263  1  0.26099000  0.20611000  0.44187000  1.0 0.0580639563
H  H264  1  0.25304000  0.21380000  0.54310000  1.0 0.0580639563
H  H265  1  0.45208000  0.13187000  0.06034000  1.0 0.0715924954
H  H266  1  0.42917000  0.13204000  0.97080000  1.0 0.0901155629
H  H267  1  0.47357000  0.13170000  0.96887000  1.0 0.0766512201
H  H268  1  0.31451000  0.04670000  0.06023000  1.0 0.0349944838
H  H269  1  0.31664000  0.07119000  0.97318000  1.0 0.0580639563
H  H270  1  0.31280000  0.02704000  0.96660000  1.0 0.0372902624
H  H271  1  0.53929000  0.75504000  0.78579000  1.0 0.1296532119
H  H272  1  0.53056000  0.71645000  0.83326000  1.0 0.1207240828
H  H273  1  0.57263000  0.72872000  0.81631000  1.0 0.1472403359
H  H274  1  0.65362000  0.69822000  0.71012000  1.0 0.1296532119
H  H275  1  0.61687000  0.69135000  0.65368000  1.0 0.1207240828
H  H276  1  0.62431000  0.73110000  0.69687000  1.0 0.1472403359
H  H277  1  0.57123000  0.95548000  0.78568000  1.0 0.1472403359
H  H278  1  0.53437000  0.96541000  0.83909000  1.0 0.1296532119
H  H279  1  0.54733000  0.92312000  0.82993000  1.0 0.1472403359
H  H280  1  0.71622000  0.81595000  0.51503000  1.0 0.0901155629
H  H281  1  0.73901000  0.79389000  0.44187000  1.0 0.0580639563
H  H282  1  0.74696000  0.78620000  0.54310000  1.0 0.0580639563
H  H283  1  0.54792000  0.86813000  0.06034000  1.0 0.0715924954
H  H284  1  0.57083000  0.86796000  0.97080000  1.0 0.0901155629
H  H285  1  0.52643000  0.86830000  0.96887000  1.0 0.0766512201
H  H286  1  0.68549000  0.95330000  0.06023000  1.0 0.0349944838
H  H287  1  0.68336000  0.92881000  0.97318000  1.0 0.0580639563
H  H288  1  0.68720000  0.97296000  0.96660000  1.0 0.0372902624
H  H289  1  0.71272000  0.54695000  0.00000000  1.0 0.1355733061
H  H290  1  0.95360000  0.53390000  0.00000000  1.0 0.1207240828
H  H291  1  0.28728000  0.45305000  0.00000000  1.0 0.1355733061
H  H292  1  0.04640000  0.46610000  0.00000000  1.0 0.1207240828
H  H293  1  0.54695000  0.28728000  0.00000000  1.0 0.1355733061
H  H294  1  0.53390000  0.04640000  0.00000000  1.0 0.1207240828
H  H295  1  0.45305000  0.71272000  0.00000000  1.0 0.1355733061
H  H296  1  0.46610000  0.95360000  0.00000000  1.0 0.1207240828
H  H297  1  0.71272000  0.45305000  0.00000000  1.0 0.1355733061
H  H298  1  0.95360000  0.46610000  0.00000000  1.0 0.1207240828
H  H299  1  0.28728000  0.54695000  0.00000000  1.0 0.1355733061
H  H300  1  0.04640000  0.53390000  0.00000000  1.0 0.1207240828
H  H301  1  0.54695000  0.71272000  0.00000000  1.0 0.1355733061
H  H302  1  0.53390000  0.95360000  0.00000000  1.0 0.1207240828
H  H303  1  0.45305000  0.28728000  0.00000000  1.0 0.1355733061
H  H304  1  0.46610000  0.04640000  0.00000000  1.0 0.1207240828
H  H305  1  0.69189000  0.62133000  0.50000000  1.0 0.1207240828
H  H306  1  0.30811000  0.37867000  0.50000000  1.0 0.1207240828
H  H307  1  0.62133000  0.30811000  0.50000000  1.0 0.1207240828
H  H308  1  0.37867000  0.69189000  0.50000000  1.0 0.1207240828
H  H309  1  0.69189000  0.37867000  0.50000000  1.0 0.1207240828
H  H310  1  0.30811000  0.62133000  0.50000000  1.0 0.1207240828
H  H311  1  0.62133000  0.69189000  0.50000000  1.0 0.1207240828
H  H312  1  0.37867000  0.30811000  0.50000000  1.0 0.1207240828
C  C1  1  0.85330000  0.56620000  0.72700000  1.0 0.4483568006
C  C2  1  0.82570000  0.57600000  0.80300000  1.0 0.3533931439
C  C3  1  0.80430000  0.70130000  0.77680000  1.0 0.4321022265
C  C4  1  0.79210000  0.68600000  0.68810000  1.0 0.3426787415
C  C5  1  0.92710000  0.64620000  0.80570000  1.0 0.3065259967
C  C6  1  0.92830000  0.66440000  0.70930000  1.0 0.495718089
C  C7  1  0.79670000  0.54850000  0.92170000  1.0 0.1033175382
C  C8  1  0.75780000  0.54840000  0.92280000  1.0 0.1033175382
C  C9  1  0.73760000  0.54770000  0.83070000  1.0 -0.4168760116
C  C10  1  0.74830000  0.68440000  0.57900000  1.0 0.0766512201
C  C11  1  0.72190000  0.65660000  0.58650000  1.0 0.1033175382
C  C12  1  0.70950000  0.63600000  0.66930000  1.0 -0.4318480649
C  C13  1  0.95560000  0.61550000  0.91890000  1.0 0.0715924954
C  C14  1  0.95230000  0.57730000  0.91440000  1.0 0.0715924954
C  C15  1  0.94880000  0.55590000  0.83610000  1.0 -0.4318480649
C  C16  1  0.14670000  0.43380000  0.72700000  1.0 0.4483568006
C  C17  1  0.17430000  0.42400000  0.80300000  1.0 0.3533931439
C  C18  1  0.19570000  0.29870000  0.77680000  1.0 0.4321022265
C  C19  1  0.20790000  0.31400000  0.68810000  1.0 0.3426787415
C  C20  1  0.07290000  0.35380000  0.80570000  1.0 0.3065259967
C  C21  1  0.07170000  0.33560000  0.70930000  1.0 0.495718089
C  C22  1  0.20330000  0.45150000  0.92170000  1.0 0.1033175382
C  C23  1  0.24220000  0.45160000  0.92280000  1.0 0.1033175382
C  C24  1  0.26240000  0.45230000  0.83070000  1.0 -0.4168760116
C  C25  1  0.25170000  0.31560000  0.57900000  1.0 0.0766512201
C  C26  1  0.27810000  0.34340000  0.58650000  1.0 0.1033175382
C  C27  1  0.29050000  0.36400000  0.66930000  1.0 -0.4318480649
C  C28  1  0.04440000  0.38450000  0.91890000  1.0 0.0715924954
C  C29  1  0.04770000  0.42270000  0.91440000  1.0 0.0715924954
C  C30  1  0.05120000  0.44410000  0.83610000  1.0 -0.4318480649
C  C31  1  0.56620000  0.14670000  0.72700000  1.0 0.4483568006
C  C32  1  0.57600000  0.17430000  0.80300000  1.0 0.3533931439
C  C33  1  0.70130000  0.19570000  0.77680000  1.0 0.4321022265
C  C34  1  0.68600000  0.20790000  0.68810000  1.0 0.3426787415
C  C35  1  0.64620000  0.07290000  0.80570000  1.0 0.3065259967
C  C36  1  0.66440000  0.07170000  0.70930000  1.0 0.495718089
C  C37  1  0.54850000  0.20330000  0.92170000  1.0 0.1033175382
C  C38  1  0.54840000  0.24220000  0.92280000  1.0 0.1033175382
C  C39  1  0.54770000  0.26240000  0.83070000  1.0 -0.4168760116
C  C40  1  0.68440000  0.25170000  0.57900000  1.0 0.0766512201
C  C41  1  0.65660000  0.27810000  0.58650000  1.0 0.1033175382
C  C42  1  0.63600000  0.29050000  0.66930000  1.0 -0.4318480649
C  C43  1  0.61550000  0.04440000  0.91890000  1.0 0.0715924954
C  C44  1  0.57730000  0.04770000  0.91440000  1.0 0.0715924954
C  C45  1  0.55590000  0.05120000  0.83610000  1.0 -0.4318480649
C  C46  1  0.43380000  0.85330000  0.72700000  1.0 0.4483568006
C  C47  1  0.42400000  0.82570000  0.80300000  1.0 0.3533931439
C  C48  1  0.29870000  0.80430000  0.77680000  1.0 0.4321022265
C  C49  1  0.31400000  0.79210000  0.68810000  1.0 0.3426787415
C  C50  1  0.35380000  0.92710000  0.80570000  1.0 0.3065259967
C  C51  1  0.33560000  0.92830000  0.70930000  1.0 0.495718089
C  C52  1  0.45150000  0.79670000  0.92170000  1.0 0.1033175382
C  C53  1  0.45160000  0.75780000  0.92280000  1.0 0.1033175382
C  C54  1  0.45230000  0.73760000  0.83070000  1.0 -0.4168760116
C  C55  1  0.31560000  0.74830000  0.57900000  1.0 0.0766512201
C  C56  1  0.34340000  0.72190000  0.58650000  1.0 0.1033175382
C  C57  1  0.36400000  0.70950000  0.66930000  1.0 -0.4318480649
C  C58  1  0.38450000  0.95560000  0.91890000  1.0 0.0715924954
C  C59  1  0.42270000  0.95230000  0.91440000  1.0 0.0715924954
C  C60  1  0.44410000  0.94880000  0.83610000  1.0 -0.4318480649
C  C61  1  0.85330000  0.43380000  0.27300000  1.0 0.4483568006
C  C62  1  0.82570000  0.42400000  0.19700000  1.0 0.3533931439
C  C63  1  0.80430000  0.29870000  0.22320000  1.0 0.4321022265
C  C64  1  0.79210000  0.31400000  0.31190000  1.0 0.3426787415
C  C65  1  0.92710000  0.35380000  0.19430000  1.0 0.3065259967
C  C66  1  0.92830000  0.33560000  0.29070000  1.0 0.495718089
C  C67  1  0.79670000  0.45150000  0.07830000  1.0 0.1033175382
C  C68  1  0.75780000  0.45160000  0.07720000  1.0 0.1033175382
C  C69  1  0.73760000  0.45230000  0.16930000  1.0 -0.4168760116
C  C70  1  0.74830000  0.31560000  0.42100000  1.0 0.0766512201
C  C71  1  0.72190000  0.34340000  0.41350000  1.0 0.1033175382
C  C72  1  0.70950000  0.36400000  0.33070000  1.0 -0.4318480649
C  C73  1  0.95560000  0.38450000  0.08110000  1.0 0.0715924954
C  C74  1  0.95230000  0.42270000  0.08560000  1.0 0.0715924954
C  C75  1  0.94880000  0.44410000  0.16390000  1.0 -0.4417106675
C  C76  1  0.14670000  0.56620000  0.27300000  1.0 0.4483568006
C  C77  1  0.17430000  0.57600000  0.19700000  1.0 0.3533931439
C  C78  1  0.19570000  0.70130000  0.22320000  1.0 0.4321022265
C  C79  1  0.20790000  0.68600000  0.31190000  1.0 0.3426787415
C  C80  1  0.07290000  0.64620000  0.19430000  1.0 0.3065259967
C  C81  1  0.07170000  0.66440000  0.29070000  1.0 0.495718089
C  C82  1  0.20330000  0.54850000  0.07830000  1.0 0.1033175382
C  C83  1  0.24220000  0.54840000  0.07720000  1.0 0.1033175382
C  C84  1  0.26240000  0.54770000  0.16930000  1.0 -0.4168760116
C  C85  1  0.25170000  0.68440000  0.42100000  1.0 0.0766512201
C  C86  1  0.27810000  0.65660000  0.41350000  1.0 0.1033175382
C  C87  1  0.29050000  0.63600000  0.33070000  1.0 -0.4318480649
C  C88  1  0.04440000  0.61550000  0.08110000  1.0 0.0715924954
C  C89  1  0.04770000  0.57730000  0.08560000  1.0 0.0715924954
C  C90  1  0.05120000  0.55590000  0.16390000  1.0 -0.4318480649
C  C91  1  0.56620000  0.85330000  0.27300000  1.0 0.4483568006
C  C92  1  0.57600000  0.82570000  0.19700000  1.0 0.3533931439
C  C93  1  0.70130000  0.80430000  0.22320000  1.0 0.4321022265
C  C94  1  0.68600000  0.79210000  0.31190000  1.0 0.3426787415
C  C95  1  0.64620000  0.92710000  0.19430000  1.0 0.3065259967
C  C96  1  0.66440000  0.92830000  0.29070000  1.0 0.495718089
C  C97  1  0.54850000  0.79670000  0.07830000  1.0 0.1033175382
C  C98  1  0.54840000  0.75780000  0.07720000  1.0 0.1033175382
C  C99  1  0.54770000  0.73760000  0.16930000  1.0 -0.4168760116
C  C100  1  0.68440000  0.74830000  0.42100000  1.0 0.0766512201
C  C101  1  0.65660000  0.72190000  0.41350000  1.0 0.1033175382
C  C102  1  0.63600000  0.70950000  0.33070000  1.0 -0.4318480649
C  C103  1  0.61550000  0.95560000  0.08110000  1.0 0.0715924954
C  C104  1  0.57730000  0.95230000  0.08560000  1.0 0.0715924954
C  C105  1  0.55590000  0.94880000  0.16390000  1.0 -0.4318480649
C  C106  1  0.43380000  0.14670000  0.27300000  1.0 0.4483568006
C  C107  1  0.42400000  0.17430000  0.19700000  1.0 0.3533931439
C  C108  1  0.29870000  0.19570000  0.22320000  1.0 0.4321022265
C  C109  1  0.31400000  0.20790000  0.31190000  1.0 0.3426787415
C  C110  1  0.35380000  0.07290000  0.19430000  1.0 0.3065259967
C  C111  1  0.33560000  0.07170000  0.29070000  1.0 0.495718089
C  C112  1  0.45150000  0.20330000  0.07830000  1.0 0.1033175382
C  C113  1  0.45160000  0.24220000  0.07720000  1.0 0.1033175382
C  C114  1  0.45230000  0.26240000  0.16930000  1.0 -0.4168760116
C  C115  1  0.31560000  0.25170000  0.42100000  1.0 0.0766512201
C  C116  1  0.34340000  0.27810000  0.41350000  1.0 0.1033175382
C  C117  1  0.36400000  0.29050000  0.33070000  1.0 -0.4318480649
C  C118  1  0.38450000  0.04440000  0.08110000  1.0 0.0715924954
C  C119  1  0.42270000  0.04770000  0.08560000  1.0 0.0715924954
C  C120  1  0.44410000  0.05120000  0.16390000  1.0 -0.4318480649
C  C121  1  0.14670000  0.43380000  0.27300000  1.0 0.4483568006
C  C122  1  0.17430000  0.42400000  0.19700000  1.0 0.3533931439
C  C123  1  0.19570000  0.29870000  0.22320000  1.0 0.4321022265
C  C124  1  0.20790000  0.31400000  0.31190000  1.0 0.3426787415
C  C125  1  0.07290000  0.35380000  0.19430000  1.0 0.3065259967
C  C126  1  0.07170000  0.33560000  0.29070000  1.0 0.495718089
C  C127  1  0.20330000  0.45150000  0.07830000  1.0 0.1033175382
C  C128  1  0.24220000  0.45160000  0.07720000  1.0 0.1033175382
C  C129  1  0.26240000  0.45230000  0.16930000  1.0 -0.4168760116
C  C130  1  0.25170000  0.31560000  0.42100000  1.0 0.0766512201
C  C131  1  0.27810000  0.34340000  0.41350000  1.0 0.1033175382
C  C132  1  0.29050000  0.36400000  0.33070000  1.0 -0.4318480649
C  C133  1  0.04440000  0.38450000  0.08110000  1.0 0.0715924954
C  C134  1  0.04770000  0.42270000  0.08560000  1.0 0.0715924954
C  C135  1  0.05120000  0.44410000  0.16390000  1.0 -0.4318480649
C  C136  1  0.85330000  0.56620000  0.27300000  1.0 0.4483568006
C  C137  1  0.82570000  0.57600000  0.19700000  1.0 0.3533931439
C  C138  1  0.80430000  0.70130000  0.22320000  1.0 0.4321022265
C  C139  1  0.79210000  0.68600000  0.31190000  1.0 0.3426787415
C  C140  1  0.92710000  0.64620000  0.19430000  1.0 0.3065259967
C  C141  1  0.92830000  0.66440000  0.29070000  1.0 0.495718089
C  C142  1  0.79670000  0.54850000  0.07830000  1.0 0.1033175382
C  C143  1  0.75780000  0.54840000  0.07720000  1.0 0.1033175382
C  C144  1  0.73760000  0.54770000  0.16930000  1.0 -0.4168760116
C  C145  1  0.74830000  0.68440000  0.42100000  1.0 0.0766512201
C  C146  1  0.72190000  0.65660000  0.41350000  1.0 0.1033175382
C  C147  1  0.70950000  0.63600000  0.33070000  1.0 -0.4318480649
C  C148  1  0.95560000  0.61550000  0.08110000  1.0 0.0715924954
C  C149  1  0.95230000  0.57730000  0.08560000  1.0 0.0715924954
C  C150  1  0.94880000  0.55590000  0.16390000  1.0 -0.4417106675
C  C151  1  0.43380000  0.85330000  0.27300000  1.0 0.4483568006
C  C152  1  0.42400000  0.82570000  0.19700000  1.0 0.3533931439
C  C153  1  0.29870000  0.80430000  0.22320000  1.0 0.4321022265
C  C154  1  0.31400000  0.79210000  0.31190000  1.0 0.3426787415
C  C155  1  0.35380000  0.92710000  0.19430000  1.0 0.3065259967
C  C156  1  0.33560000  0.92830000  0.29070000  1.0 0.495718089
C  C157  1  0.45150000  0.79670000  0.07830000  1.0 0.1033175382
C  C158  1  0.45160000  0.75780000  0.07720000  1.0 0.1033175382
C  C159  1  0.45230000  0.73760000  0.16930000  1.0 -0.4168760116
C  C160  1  0.31560000  0.74830000  0.42100000  1.0 0.0766512201
C  C161  1  0.34340000  0.72190000  0.41350000  1.0 0.1033175382
C  C162  1  0.36400000  0.70950000  0.33070000  1.0 -0.4318480649
C  C163  1  0.38450000  0.95560000  0.08110000  1.0 0.0715924954
C  C164  1  0.42270000  0.95230000  0.08560000  1.0 0.0715924954
C  C165  1  0.44410000  0.94880000  0.16390000  1.0 -0.4318480649
C  C166  1  0.56620000  0.14670000  0.27300000  1.0 0.4483568006
C  C167  1  0.57600000  0.17430000  0.19700000  1.0 0.3533931439
C  C168  1  0.70130000  0.19570000  0.22320000  1.0 0.4321022265
C  C169  1  0.68600000  0.20790000  0.31190000  1.0 0.3426787415
C  C170  1  0.64620000  0.07290000  0.19430000  1.0 0.3065259967
C  C171  1  0.66440000  0.07170000  0.29070000  1.0 0.495718089
C  C172  1  0.54850000  0.20330000  0.07830000  1.0 0.1033175382
C  C173  1  0.54840000  0.24220000  0.07720000  1.0 0.1033175382
C  C174  1  0.54770000  0.26240000  0.16930000  1.0 -0.4168760116
C  C175  1  0.68440000  0.25170000  0.42100000  1.0 0.0766512201
C  C176  1  0.65660000  0.27810000  0.41350000  1.0 0.1033175382
C  C177  1  0.63600000  0.29050000  0.33070000  1.0 -0.4318480649
C  C178  1  0.61550000  0.04440000  0.08110000  1.0 0.0715924954
C  C179  1  0.57730000  0.04770000  0.08560000  1.0 0.0715924954
C  C180  1  0.55590000  0.05120000  0.16390000  1.0 -0.4318480649
C  C181  1  0.14670000  0.56620000  0.72700000  1.0 0.4483568006
C  C182  1  0.17430000  0.57600000  0.80300000  1.0 0.3533931439
C  C183  1  0.19570000  0.70130000  0.77680000  1.0 0.4321022265
C  C184  1  0.20790000  0.68600000  0.68810000  1.0 0.3426787415
C  C185  1  0.07290000  0.64620000  0.80570000  1.0 0.3065259967
C  C186  1  0.07170000  0.66440000  0.70930000  1.0 0.495718089
C  C187  1  0.20330000  0.54850000  0.92170000  1.0 0.1033175382
C  C188  1  0.24220000  0.54840000  0.92280000  1.0 0.1033175382
C  C189  1  0.26240000  0.54770000  0.83070000  1.0 -0.4168760116
C  C190  1  0.25170000  0.68440000  0.57900000  1.0 0.0766512201
C  C191  1  0.27810000  0.65660000  0.58650000  1.0 0.1033175382
C  C192  1  0.29050000  0.63600000  0.66930000  1.0 -0.4318480649
C  C193  1  0.04440000  0.61550000  0.91890000  1.0 0.0715924954
C  C194  1  0.04770000  0.57730000  0.91440000  1.0 0.0715924954
C  C195  1  0.05120000  0.55590000  0.83610000  1.0 -0.4318480649
C  C196  1  0.85330000  0.43380000  0.72700000  1.0 0.4483568006
C  C197  1  0.82570000  0.42400000  0.80300000  1.0 0.3533931439
C  C198  1  0.80430000  0.29870000  0.77680000  1.0 0.4321022265
C  C199  1  0.79210000  0.31400000  0.68810000  1.0 0.3426787415
C  C200  1  0.92710000  0.35380000  0.80570000  1.0 0.3065259967
C  C201  1  0.92830000  0.33560000  0.70930000  1.0 0.495718089
C  C202  1  0.79670000  0.45150000  0.92170000  1.0 0.1033175382
C  C203  1  0.75780000  0.45160000  0.92280000  1.0 0.1033175382
C  C204  1  0.73760000  0.45230000  0.83070000  1.0 -0.4168760116
C  C205  1  0.74830000  0.31560000  0.57900000  1.0 0.0766512201
C  C206  1  0.72190000  0.34340000  0.58650000  1.0 0.1033175382
C  C207  1  0.70950000  0.36400000  0.66930000  1.0 -0.4318480649
C  C208  1  0.95560000  0.38450000  0.91890000  1.0 0.0715924954
C  C209  1  0.95230000  0.42270000  0.91440000  1.0 0.0715924954
C  C210  1  0.94880000  0.44410000  0.83610000  1.0 -0.4318480649
C  C211  1  0.43380000  0.14670000  0.72700000  1.0 0.4483568006
C  C212  1  0.42400000  0.17430000  0.80300000  1.0 0.3533931439
C  C213  1  0.29870000  0.19570000  0.77680000  1.0 0.4321022265
C  C214  1  0.31400000  0.20790000  0.68810000  1.0 0.3426787415
C  C215  1  0.35380000  0.07290000  0.80570000  1.0 0.3065259967
C  C216  1  0.33560000  0.07170000  0.70930000  1.0 0.495718089
C  C217  1  0.45150000  0.20330000  0.92170000  1.0 0.1033175382
C  C218  1  0.45160000  0.24220000  0.92280000  1.0 0.1033175382
C  C219  1  0.45230000  0.26240000  0.83070000  1.0 -0.4168760116
C  C220  1  0.31560000  0.25170000  0.57900000  1.0 0.0766512201
C  C221  1  0.34340000  0.27810000  0.58650000  1.0 0.1033175382
C  C222  1  0.36400000  0.29050000  0.66930000  1.0 -0.4318480649
C  C223  1  0.38450000  0.04440000  0.91890000  1.0 0.0715924954
C  C224  1  0.42270000  0.04770000  0.91440000  1.0 0.0715924954
C  C225  1  0.44410000  0.05120000  0.83610000  1.0 -0.4318480649
C  C226  1  0.56620000  0.85330000  0.72700000  1.0 0.4483568006
C  C227  1  0.57600000  0.82570000  0.80300000  1.0 0.3533931439
C  C228  1  0.70130000  0.80430000  0.77680000  1.0 0.4321022265
C  C229  1  0.68600000  0.79210000  0.68810000  1.0 0.3426787415
C  C230  1  0.64620000  0.92710000  0.80570000  1.0 0.3065259967
C  C231  1  0.66440000  0.92830000  0.70930000  1.0 0.495718089
C  C232  1  0.54850000  0.79670000  0.92170000  1.0 0.1033175382
C  C233  1  0.54840000  0.75780000  0.92280000  1.0 0.1033175382
C  C234  1  0.54770000  0.73760000  0.83070000  1.0 -0.4168760116
C  C235  1  0.68440000  0.74830000  0.57900000  1.0 0.0766512201
C  C236  1  0.65660000  0.72190000  0.58650000  1.0 0.1033175382
C  C237  1  0.63600000  0.70950000  0.66930000  1.0 -0.4318480649
C  C238  1  0.61550000  0.95560000  0.91890000  1.0 0.0715924954
C  C239  1  0.57730000  0.95230000  0.91440000  1.0 0.0715924954
C  C240  1  0.55590000  0.94880000  0.83610000  1.0 -0.4318480649
C  C241  1  0.81800000  0.54800000  0.00000000  1.0 -0.0560370377
C  C242  1  0.73910000  0.54780000  0.00000000  1.0 -0.2610516912
C  C243  1  0.85910000  0.54830000  0.00000000  1.0 -0.3382683909
C  C244  1  0.95280000  0.56030000  0.00000000  1.0 -0.1984389894
C  C245  1  0.95610000  0.63510000  0.00000000  1.0 -0.0115184694
C  C246  1  0.95250000  0.67630000  0.00000000  1.0 -0.2455088879
C  C247  1  0.18200000  0.45200000  0.00000000  1.0 -0.0560370377
C  C248  1  0.26090000  0.45220000  0.00000000  1.0 -0.2610516912
C  C249  1  0.14090000  0.45170000  0.00000000  1.0 -0.3382683909
C  C250  1  0.04720000  0.43970000  0.00000000  1.0 -0.1984389894
C  C251  1  0.04390000  0.36490000  0.00000000  1.0 -0.0115184694
C  C252  1  0.04750000  0.32370000  0.00000000  1.0 -0.2455088879
C  C253  1  0.54800000  0.18200000  0.00000000  1.0 -0.0560370377
C  C254  1  0.54780000  0.26090000  0.00000000  1.0 -0.2610516912
C  C255  1  0.54830000  0.14090000  0.00000000  1.0 -0.3382683909
C  C256  1  0.56030000  0.04720000  0.00000000  1.0 -0.1984389894
C  C257  1  0.63510000  0.04390000  0.00000000  1.0 -0.0115184694
C  C258  1  0.67630000  0.04750000  0.00000000  1.0 -0.2455088879
C  C259  1  0.45200000  0.81800000  0.00000000  1.0 -0.0560370377
C  C260  1  0.45220000  0.73910000  0.00000000  1.0 -0.2610516912
C  C261  1  0.45170000  0.85910000  0.00000000  1.0 -0.3382683909
C  C262  1  0.43970000  0.95280000  0.00000000  1.0 -0.1984389894
C  C263  1  0.36490000  0.95610000  0.00000000  1.0 -0.0115184694
C  C264  1  0.32370000  0.95250000  0.00000000  1.0 -0.2455088879
C  C265  1  0.81800000  0.45200000  0.00000000  1.0 -0.0560370377
C  C266  1  0.73910000  0.45220000  0.00000000  1.0 -0.2610516912
C  C267  1  0.85910000  0.45170000  0.00000000  1.0 -0.3382683909
C  C268  1  0.95280000  0.43970000  0.00000000  1.0 -0.1984389894
C  C269  1  0.95610000  0.36490000  0.00000000  1.0 -0.0115184694
C  C270  1  0.95250000  0.32370000  0.00000000  1.0 -0.2455088879
C  C271  1  0.18200000  0.54800000  0.00000000  1.0 -0.0560370377
C  C272  1  0.26090000  0.54780000  0.00000000  1.0 -0.2610516912
C  C273  1  0.14090000  0.54830000  0.00000000  1.0 -0.3382683909
C  C274  1  0.04720000  0.56030000  0.00000000  1.0 -0.1984389894
C  C275  1  0.04390000  0.63510000  0.00000000  1.0 -0.0115184694
C  C276  1  0.04750000  0.67630000  0.00000000  1.0 -0.2455088879
C  C277  1  0.54800000  0.81800000  0.00000000  1.0 -0.0560370377
C  C278  1  0.54780000  0.73910000  0.00000000  1.0 -0.2610516912
C  C279  1  0.54830000  0.85910000  0.00000000  1.0 -0.3382683909
C  C280  1  0.56030000  0.95280000  0.00000000  1.0 -0.1984389894
C  C281  1  0.63510000  0.95610000  0.00000000  1.0 -0.0115184694
C  C282  1  0.67630000  0.95250000  0.00000000  1.0 -0.2455088879
C  C283  1  0.45200000  0.18200000  0.00000000  1.0 -0.0560370377
C  C284  1  0.45220000  0.26090000  0.00000000  1.0 -0.2610516912
C  C285  1  0.45170000  0.14090000  0.00000000  1.0 -0.3382683909
C  C286  1  0.43970000  0.04720000  0.00000000  1.0 -0.1984389894
C  C287  1  0.36490000  0.04390000  0.00000000  1.0 -0.0115184694
C  C288  1  0.32370000  0.04750000  0.00000000  1.0 -0.2455088879
C  C289  1  0.76240000  0.69900000  0.50000000  1.0 -0.0115184694
C  C290  1  0.70900000  0.64140000  0.50000000  1.0 -0.1984389894
C  C291  1  0.79220000  0.72780000  0.50000000  1.0 -0.3223339013
C  C292  1  0.23760000  0.30100000  0.50000000  1.0 -0.0115184694
C  C293  1  0.29100000  0.35860000  0.50000000  1.0 -0.1984389894
C  C294  1  0.20780000  0.27220000  0.50000000  1.0 -0.3223339013
C  C295  1  0.69900000  0.23760000  0.50000000  1.0 -0.0115184694
C  C296  1  0.64140000  0.29100000  0.50000000  1.0 -0.1984389894
C  C297  1  0.72780000  0.20780000  0.50000000  1.0 -0.3223339013
C  C298  1  0.30100000  0.76240000  0.50000000  1.0 -0.0115184694
C  C299  1  0.35860000  0.70900000  0.50000000  1.0 -0.1984389894
C  C300  1  0.27220000  0.79220000  0.50000000  1.0 -0.3223339013
C  C301  1  0.76240000  0.30100000  0.50000000  1.0 -0.0115184694
C  C302  1  0.70900000  0.35860000  0.50000000  1.0 -0.1984389894
C  C303  1  0.79220000  0.27220000  0.50000000  1.0 -0.3223339013
C  C304  1  0.23760000  0.69900000  0.50000000  1.0 -0.0115184694
C  C305  1  0.29100000  0.64140000  0.50000000  1.0 -0.1984389894
C  C306  1  0.20780000  0.72780000  0.50000000  1.0 -0.3223339013
C  C307  1  0.69900000  0.76240000  0.50000000  1.0 -0.0115184694
C  C308  1  0.64140000  0.70900000  0.50000000  1.0 -0.1984389894
C  C309  1  0.72780000  0.79220000  0.50000000  1.0 -0.3223339013
C  C310  1  0.30100000  0.23760000  0.50000000  1.0 -0.0115184694
C  C311  1  0.35860000  0.29100000  0.50000000  1.0 -0.1984389894
C  C312  1  0.27220000  0.20780000  0.50000000  1.0 -0.3223339013
N  N1  1  0.81680000  0.54590000  0.84050000  1.0 -0.4417106675
N  N2  1  0.76150000  0.69800000  0.66110000  1.0 -0.4168760116
N  N3  1  0.95680000  0.63710000  0.83820000  1.0 -0.3766032188
N  N4  1  0.18320000  0.45410000  0.84050000  1.0 -0.4417106675
N  N5  1  0.23850000  0.30200000  0.66110000  1.0 -0.4168760116
N  N6  1  0.04320000  0.36290000  0.83820000  1.0 -0.3766032188
N  N7  1  0.54590000  0.18320000  0.84050000  1.0 -0.4417106675
N  N8  1  0.69800000  0.23850000  0.66110000  1.0 -0.4168760116
N  N9  1  0.63710000  0.04320000  0.83820000  1.0 -0.3766032188
N  N10  1  0.45410000  0.81680000  0.84050000  1.0 -0.4417106675
N  N11  1  0.30200000  0.76150000  0.66110000  1.0 -0.4168760116
N  N12  1  0.36290000  0.95680000  0.83820000  1.0 -0.3766032188
N  N13  1  0.81680000  0.45410000  0.15950000  1.0 -0.4417106675
N  N14  1  0.76150000  0.30200000  0.33890000  1.0 -0.4168760116
N  N15  1  0.95680000  0.36290000  0.16180000  1.0 -0.3766032188
N  N16  1  0.18320000  0.54590000  0.15950000  1.0 -0.4417106675
N  N17  1  0.23850000  0.69800000  0.33890000  1.0 -0.4168760116
N  N18  1  0.04320000  0.63710000  0.16180000  1.0 -0.3766032188
N  N19  1  0.54590000  0.81680000  0.15950000  1.0 -0.4417106675
N  N20  1  0.69800000  0.76150000  0.33890000  1.0 -0.4168760116
N  N21  1  0.63710000  0.95680000  0.16180000  1.0 -0.3766032188
N  N22  1  0.45410000  0.18320000  0.15950000  1.0 -0.4417106675
N  N23  1  0.30200000  0.23850000  0.33890000  1.0 -0.4168760116
N  N24  1  0.36290000  0.04320000  0.16180000  1.0 -0.3766032188
N  N25  1  0.18320000  0.45410000  0.15950000  1.0 -0.4417106675
N  N26  1  0.23850000  0.30200000  0.33890000  1.0 -0.4168760116
N  N27  1  0.04320000  0.36290000  0.16180000  1.0 -0.3766032188
N  N28  1  0.81680000  0.54590000  0.15950000  1.0 -0.4417106675
N  N29  1  0.76150000  0.69800000  0.33890000  1.0 -0.4168760116
N  N30  1  0.95680000  0.63710000  0.16180000  1.0 -0.3766032188
N  N31  1  0.45410000  0.81680000  0.15950000  1.0 -0.4417106675
N  N32  1  0.30200000  0.76150000  0.33890000  1.0 -0.4168760116
N  N33  1  0.36290000  0.95680000  0.16180000  1.0 -0.3766032188
N  N34  1  0.54590000  0.18320000  0.15950000  1.0 -0.4417106675
N  N35  1  0.69800000  0.23850000  0.33890000  1.0 -0.4168760116
N  N36  1  0.63710000  0.04320000  0.16180000  1.0 -0.3766032188
N  N37  1  0.18320000  0.54590000  0.84050000  1.0 -0.4417106675
N  N38  1  0.23850000  0.69800000  0.66110000  1.0 -0.4168760116
N  N39  1  0.04320000  0.63710000  0.83820000  1.0 -0.3766032188
N  N40  1  0.81680000  0.45410000  0.84050000  1.0 -0.4417106675
N  N41  1  0.76150000  0.30200000  0.66110000  1.0 -0.4168760116
N  N42  1  0.95680000  0.36290000  0.83820000  1.0 -0.3766032188
N  N43  1  0.45410000  0.18320000  0.84050000  1.0 -0.4417106675
N  N44  1  0.30200000  0.23850000  0.66110000  1.0 -0.4168760116
N  N45  1  0.36290000  0.04320000  0.83820000  1.0 -0.3766032188
N  N46  1  0.54590000  0.81680000  0.84050000  1.0 -0.4417106675
N  N47  1  0.69800000  0.76150000  0.66110000  1.0 -0.4168760116
N  N48  1  0.63710000  0.95680000  0.83820000  1.0 -0.3766032188
O  O1  1  0.81880000  0.60860000  0.81830000  1.0 -0.4318480649
O  O2  1  0.86560000  0.59660000  0.68600000  1.0 -0.4922008953
O  O3  1  0.86020000  0.53590000  0.70460000  1.0 -0.3289829857
O  O4  1  0.81140000  0.65920000  0.66380000  1.0 -0.4318480649
O  O5  1  0.83360000  0.69440000  0.80740000  1.0 -0.401614844
O  O6  1  0.78470000  0.73140000  0.80480000  1.0 -0.5120323963
O  O7  1  0.89510000  0.67360000  0.68420000  1.0 -0.5248389395
O  O8  1  0.89340000  0.63740000  0.83540000  1.0 -0.5248389395
O  O9  1  0.95960000  0.67410000  0.69300000  1.0 -0.4516616604
O  O10  1  0.18120000  0.39140000  0.81830000  1.0 -0.4318480649
O  O11  1  0.13440000  0.40340000  0.68600000  1.0 -0.4922008953
O  O12  1  0.13980000  0.46410000  0.70460000  1.0 -0.3289829857
O  O13  1  0.18860000  0.34080000  0.66380000  1.0 -0.4318480649
O  O14  1  0.16640000  0.30560000  0.80740000  1.0 -0.401614844
O  O15  1  0.21530000  0.26860000  0.80480000  1.0 -0.5120323963
O  O16  1  0.10490000  0.32640000  0.68420000  1.0 -0.5248389395
O  O17  1  0.10660000  0.36260000  0.83540000  1.0 -0.5248389395
O  O18  1  0.04040000  0.32590000  0.69300000  1.0 -0.4516616604
O  O19  1  0.60860000  0.18120000  0.81830000  1.0 -0.4318480649
O  O20  1  0.59660000  0.13440000  0.68600000  1.0 -0.4922008953
O  O21  1  0.53590000  0.13980000  0.70460000  1.0 -0.3289829857
O  O22  1  0.65920000  0.18860000  0.66380000  1.0 -0.4318480649
O  O23  1  0.69440000  0.16640000  0.80740000  1.0 -0.401614844
O  O24  1  0.73140000  0.21530000  0.80480000  1.0 -0.5120323963
O  O25  1  0.67360000  0.10490000  0.68420000  1.0 -0.5248389395
O  O26  1  0.63740000  0.10660000  0.83540000  1.0 -0.5248389395
O  O27  1  0.67410000  0.04040000  0.69300000  1.0 -0.4516616604
O  O28  1  0.39140000  0.81880000  0.81830000  1.0 -0.4318480649
O  O29  1  0.40340000  0.86560000  0.68600000  1.0 -0.4922008953
O  O30  1  0.46410000  0.86020000  0.70460000  1.0 -0.3289829857
O  O31  1  0.34080000  0.81140000  0.66380000  1.0 -0.4318480649
O  O32  1  0.30560000  0.83360000  0.80740000  1.0 -0.401614844
O  O33  1  0.26860000  0.78470000  0.80480000  1.0 -0.5120323963
O  O34  1  0.32640000  0.89510000  0.68420000  1.0 -0.5248389395
O  O35  1  0.36260000  0.89340000  0.83540000  1.0 -0.5248389395
O  O36  1  0.32590000  0.95960000  0.69300000  1.0 -0.4516616604
O  O37  1  0.81880000  0.39140000  0.18170000  1.0 -0.4318480649
O  O38  1  0.86560000  0.40340000  0.31400000  1.0 -0.4922008953
O  O39  1  0.86020000  0.46410000  0.29540000  1.0 -0.3289829857
O  O40  1  0.81140000  0.34080000  0.33620000  1.0 -0.4318480649
O  O41  1  0.83360000  0.30560000  0.19260000  1.0 -0.401614844
O  O42  1  0.78470000  0.26860000  0.19520000  1.0 -0.5120323963
O  O43  1  0.89510000  0.32640000  0.31580000  1.0 -0.5255291528
O  O44  1  0.89340000  0.36260000  0.16460000  1.0 -0.5248389395
O  O45  1  0.95960000  0.32590000  0.30700000  1.0 -0.4516616604
O  O46  1  0.18120000  0.60860000  0.18170000  1.0 -0.4318480649
O  O47  1  0.13440000  0.59660000  0.31400000  1.0 -0.4922008953
O  O48  1  0.13980000  0.53590000  0.29540000  1.0 -0.3289829857
O  O49  1  0.18860000  0.65920000  0.33620000  1.0 -0.4318480649
O  O50  1  0.16640000  0.69440000  0.19260000  1.0 -0.401614844
O  O51  1  0.21530000  0.73140000  0.19520000  1.0 -0.5120323963
O  O52  1  0.10490000  0.67360000  0.31580000  1.0 -0.5248389395
O  O53  1  0.10660000  0.63740000  0.16460000  1.0 -0.5248389395
O  O54  1  0.04040000  0.67410000  0.30700000  1.0 -0.4516616604
O  O55  1  0.60860000  0.81880000  0.18170000  1.0 -0.4318480649
O  O56  1  0.59660000  0.86560000  0.31400000  1.0 -0.4922008953
O  O57  1  0.53590000  0.86020000  0.29540000  1.0 -0.3289829857
O  O58  1  0.65920000  0.81140000  0.33620000  1.0 -0.4318480649
O  O59  1  0.69440000  0.83360000  0.19260000  1.0 -0.401614844
O  O60  1  0.73140000  0.78470000  0.19520000  1.0 -0.5120323963
O  O61  1  0.67360000  0.89510000  0.31580000  1.0 -0.5248389395
O  O62  1  0.63740000  0.89340000  0.16460000  1.0 -0.5248389395
O  O63  1  0.67410000  0.95960000  0.30700000  1.0 -0.4516616604
O  O64  1  0.39140000  0.18120000  0.18170000  1.0 -0.4318480649
O  O65  1  0.40340000  0.13440000  0.31400000  1.0 -0.4922008953
O  O66  1  0.46410000  0.13980000  0.29540000  1.0 -0.3289829857
O  O67  1  0.34080000  0.18860000  0.33620000  1.0 -0.4318480649
O  O68  1  0.30560000  0.16640000  0.19260000  1.0 -0.401614844
O  O69  1  0.26860000  0.21530000  0.19520000  1.0 -0.5120323963
O  O70  1  0.32640000  0.10490000  0.31580000  1.0 -0.5255291528
O  O71  1  0.36260000  0.10660000  0.16460000  1.0 -0.5248389395
O  O72  1  0.32590000  0.04040000  0.30700000  1.0 -0.4516616604
O  O73  1  0.18120000  0.39140000  0.18170000  1.0 -0.4318480649
O  O74  1  0.13440000  0.40340000  0.31400000  1.0 -0.4922008953
O  O75  1  0.13980000  0.46410000  0.29540000  1.0 -0.3289829857
O  O76  1  0.18860000  0.34080000  0.33620000  1.0 -0.4318480649
O  O77  1  0.16640000  0.30560000  0.19260000  1.0 -0.401614844
O  O78  1  0.21530000  0.26860000  0.19520000  1.0 -0.5120323963
O  O79  1  0.10490000  0.32640000  0.31580000  1.0 -0.5248389395
O  O80  1  0.10660000  0.36260000  0.16460000  1.0 -0.5248389395
O  O81  1  0.04040000  0.32590000  0.30700000  1.0 -0.4516616604
O  O82  1  0.81880000  0.60860000  0.18170000  1.0 -0.4318480649
O  O83  1  0.86560000  0.59660000  0.31400000  1.0 -0.4922008953
O  O84  1  0.86020000  0.53590000  0.29540000  1.0 -0.3289829857
O  O85  1  0.81140000  0.65920000  0.33620000  1.0 -0.4318480649
O  O86  1  0.83360000  0.69440000  0.19260000  1.0 -0.401614844
O  O87  1  0.78470000  0.73140000  0.19520000  1.0 -0.5120323963
O  O88  1  0.89510000  0.67360000  0.31580000  1.0 -0.5255291528
O  O89  1  0.89340000  0.63740000  0.16460000  1.0 -0.5248389395
O  O90  1  0.95960000  0.67410000  0.30700000  1.0 -0.4516616604
O  O91  1  0.39140000  0.81880000  0.18170000  1.0 -0.4318480649
O  O92  1  0.40340000  0.86560000  0.31400000  1.0 -0.4922008953
O  O93  1  0.46410000  0.86020000  0.29540000  1.0 -0.3289829857
O  O94  1  0.34080000  0.81140000  0.33620000  1.0 -0.4318480649
O  O95  1  0.30560000  0.83360000  0.19260000  1.0 -0.401614844
O  O96  1  0.26860000  0.78470000  0.19520000  1.0 -0.5120323963
O  O97  1  0.32640000  0.89510000  0.31580000  1.0 -0.5248389395
O  O98  1  0.36260000  0.89340000  0.16460000  1.0 -0.5248389395
O  O99  1  0.32590000  0.95960000  0.30700000  1.0 -0.4516616604
O  O100  1  0.60860000  0.18120000  0.18170000  1.0 -0.4318480649
O  O101  1  0.59660000  0.13440000  0.31400000  1.0 -0.4922008953
O  O102  1  0.53590000  0.13980000  0.29540000  1.0 -0.3289829857
O  O103  1  0.65920000  0.18860000  0.33620000  1.0 -0.4318480649
O  O104  1  0.69440000  0.16640000  0.19260000  1.0 -0.401614844
O  O105  1  0.73140000  0.21530000  0.19520000  1.0 -0.5120323963
O  O106  1  0.67360000  0.10490000  0.31580000  1.0 -0.5255291528
O  O107  1  0.63740000  0.10660000  0.16460000  1.0 -0.5248389395
O  O108  1  0.67410000  0.04040000  0.30700000  1.0 -0.4516616604
O  O109  1  0.18120000  0.60860000  0.81830000  1.0 -0.4318480649
O  O110  1  0.13440000  0.59660000  0.68600000  1.0 -0.4922008953
O  O111  1  0.13980000  0.53590000  0.70460000  1.0 -0.3289829857
O  O112  1  0.18860000  0.65920000  0.66380000  1.0 -0.4318480649
O  O113  1  0.16640000  0.69440000  0.80740000  1.0 -0.401614844
O  O114  1  0.21530000  0.73140000  0.80480000  1.0 -0.5120323963
O  O115  1  0.10490000  0.67360000  0.68420000  1.0 -0.5248389395
O  O116  1  0.10660000  0.63740000  0.83540000  1.0 -0.5248389395
O  O117  1  0.04040000  0.67410000  0.69300000  1.0 -0.4516616604
O  O118  1  0.81880000  0.39140000  0.81830000  1.0 -0.4318480649
O  O119  1  0.86560000  0.40340000  0.68600000  1.0 -0.4922008953
O  O120  1  0.86020000  0.46410000  0.70460000  1.0 -0.3289829857
O  O121  1  0.81140000  0.34080000  0.66380000  1.0 -0.4318480649
O  O122  1  0.83360000  0.30560000  0.80740000  1.0 -0.401614844
O  O123  1  0.78470000  0.26860000  0.80480000  1.0 -0.5120323963
O  O124  1  0.89510000  0.32640000  0.68420000  1.0 -0.5248389395
O  O125  1  0.89340000  0.36260000  0.83540000  1.0 -0.5248389395
O  O126  1  0.95960000  0.32590000  0.69300000  1.0 -0.4516616604
O  O127  1  0.39140000  0.18120000  0.81830000  1.0 -0.4318480649
O  O128  1  0.40340000  0.13440000  0.68600000  1.0 -0.4922008953
O  O129  1  0.46410000  0.13980000  0.70460000  1.0 -0.3289829857
O  O130  1  0.34080000  0.18860000  0.66380000  1.0 -0.4318480649
O  O131  1  0.30560000  0.16640000  0.80740000  1.0 -0.401614844
O  O132  1  0.26860000  0.21530000  0.80480000  1.0 -0.5120323963
O  O133  1  0.32640000  0.10490000  0.68420000  1.0 -0.5248389395
O  O134  1  0.36260000  0.10660000  0.83540000  1.0 -0.5248389395
O  O135  1  0.32590000  0.04040000  0.69300000  1.0 -0.4516616604
O  O136  1  0.60860000  0.81880000  0.81830000  1.0 -0.4318480649
O  O137  1  0.59660000  0.86560000  0.68600000  1.0 -0.4922008953
O  O138  1  0.53590000  0.86020000  0.70460000  1.0 -0.3289829857
O  O139  1  0.65920000  0.81140000  0.66380000  1.0 -0.4318480649
O  O140  1  0.69440000  0.83360000  0.80740000  1.0 -0.401614844
O  O141  1  0.73140000  0.78470000  0.80480000  1.0 -0.5120323963
O  O142  1  0.67360000  0.89510000  0.68420000  1.0 -0.5248389395
O  O143  1  0.63740000  0.89340000  0.83540000  1.0 -0.5248389395
O  O144  1  0.67410000  0.95960000  0.69300000  1.0 -0.4516616604
