# DDEC6 charges by PACMAN v1.1 (https://github.com/mtap-research/PACMAN-charge/)
data_LEVPEJ_FSR_pacman
_symmetry_space_group_name_H-M   'P 1'
_cell_length_a   18.86780000
_cell_length_b   18.86780000
_cell_length_c   18.86780000
_cell_angle_alpha   115.17300000
_cell_angle_beta   115.17300000
_cell_angle_gamma   115.17300000
_symmetry_Int_Tables_number   1
_chemical_formula_structural   ZnH31C39NO10
_chemical_formula_sum   'Zn6 H186 C234 N6 O60'
_cell_volume   3699.19974116
_cell_formula_units_Z   6
loop_
 _symmetry_equiv_pos_site_id
 _symmetry_equiv_pos_as_xyz
  1  'x, y, z'
loop_
 _atom_site_type_symbol
 _atom_site_label
 _atom_site_symmetry_multiplicity
 _atom_site_fract_x
 _atom_site_fract_y
 _atom_site_fract_z
 _atom_site_occupancy
 _atom_site_charge
Zn  Zn1  1  0.99528000  0.39733000  0.67169000  1.0 0.6967513841
Zn  Zn2  1  0.39733000  0.67169000  0.99528000  1.0 0.6967513841
Zn  Zn3  1  0.67169000  0.99528000  0.39733000  1.0 0.6967513841
Zn  Zn4  1  0.00472000  0.60267000  0.32831000  1.0 0.6967513841
Zn  Zn5  1  0.60267000  0.32831000  0.00472000  1.0 0.6967513841
Zn  Zn6  1  0.32831000  0.00472000  0.60267000  1.0 0.6967513841
H  H1  1  0.81620000  0.32250000  0.46390000  1.0 0.0893536991
H  H2  1  0.32250000  0.46390000  0.81620000  1.0 0.0893536991
H  H3  1  0.46390000  0.81620000  0.32250000  1.0 0.0893536991
H  H4  1  0.18380000  0.67750000  0.53610000  1.0 0.0893536991
H  H5  1  0.67750000  0.53610000  0.18380000  1.0 0.0893536991
H  H6  1  0.53610000  0.18380000  0.67750000  1.0 0.0893536991
H  H7  1  0.14910000  0.60140000  0.92250000  1.0 0.108769334
H  H8  1  0.60140000  0.92250000  0.14910000  1.0 0.108769334
H  H9  1  0.92250000  0.14910000  0.60140000  1.0 0.108769334
H  H10  1  0.85090000  0.39860000  0.07750000  1.0 0.108769334
H  H11  1  0.39860000  0.07750000  0.85090000  1.0 0.108769334
H  H12  1  0.07750000  0.85090000  0.39860000  1.0 0.108769334
H  H13  1  0.15190000  0.64930000  0.05840000  1.0 0.1166786881
H  H14  1  0.64930000  0.05840000  0.15190000  1.0 0.1166786881
H  H15  1  0.05840000  0.15190000  0.64930000  1.0 0.1166786881
H  H16  1  0.84810000  0.35070000  0.94160000  1.0 0.1166786881
H  H17  1  0.35070000  0.94160000  0.84810000  1.0 0.1166786881
H  H18  1  0.94160000  0.84810000  0.35070000  1.0 0.1166786881
H  H19  1  0.85170000  0.31190000  0.82300000  1.0 0.108769334
H  H20  1  0.31190000  0.82300000  0.85170000  1.0 0.108769334
H  H21  1  0.82300000  0.85170000  0.31190000  1.0 0.108769334
H  H22  1  0.14830000  0.68810000  0.17700000  1.0 0.108769334
H  H23  1  0.68810000  0.17700000  0.14830000  1.0 0.108769334
H  H24  1  0.17700000  0.14830000  0.68810000  1.0 0.108769334
H  H25  1  0.85410000  0.27260000  0.69220000  1.0 0.0893536991
H  H26  1  0.27260000  0.69220000  0.85410000  1.0 0.0893536991
H  H27  1  0.69220000  0.85410000  0.27260000  1.0 0.0893536991
H  H28  1  0.14590000  0.72740000  0.30780000  1.0 0.0893536991
H  H29  1  0.72740000  0.30780000  0.14590000  1.0 0.0893536991
H  H30  1  0.30780000  0.14590000  0.72740000  1.0 0.0893536991
H  H31  1  0.79890000  0.40740000  0.41700000  1.0 0.108769334
H  H32  1  0.40740000  0.41700000  0.79890000  1.0 0.108769334
H  H33  1  0.41700000  0.79890000  0.40740000  1.0 0.108769334
H  H34  1  0.20110000  0.59260000  0.58300000  1.0 0.108769334
H  H35  1  0.59260000  0.58300000  0.20110000  1.0 0.108769334
H  H36  1  0.58300000  0.20110000  0.59260000  1.0 0.108769334
H  H37  1  0.58220000  0.37930000  0.19290000  1.0 0.1276703848
H  H38  1  0.37930000  0.19290000  0.58220000  1.0 0.1276703848
H  H39  1  0.19290000  0.58220000  0.37930000  1.0 0.1276703848
H  H40  1  0.41780000  0.62070000  0.80710000  1.0 0.1276703848
H  H41  1  0.62070000  0.80710000  0.41780000  1.0 0.1276703848
H  H42  1  0.80710000  0.41780000  0.62070000  1.0 0.1276703848
H  H43  1  0.42280000  0.18940000  0.08590000  1.0 0.0276000171
H  H44  1  0.18940000  0.08590000  0.42280000  1.0 0.0276000171
H  H45  1  0.08590000  0.42280000  0.18940000  1.0 0.0276000171
H  H46  1  0.57720000  0.81060000  0.91410000  1.0 0.0276000171
H  H47  1  0.81060000  0.91410000  0.57720000  1.0 0.0276000171
H  H48  1  0.91410000  0.57720000  0.81060000  1.0 0.0276000171
H  H49  1  0.45150000  0.10840000  0.14450000  1.0 0.108769334
H  H50  1  0.10840000  0.14450000  0.45150000  1.0 0.108769334
H  H51  1  0.14450000  0.45150000  0.10840000  1.0 0.108769334
H  H52  1  0.54850000  0.89160000  0.85550000  1.0 0.108769334
H  H53  1  0.89160000  0.85550000  0.54850000  1.0 0.108769334
H  H54  1  0.85550000  0.54850000  0.89160000  1.0 0.108769334
H  H55  1  0.85670000  0.53930000  0.41480000  1.0 0.1680685851
H  H56  1  0.53930000  0.41480000  0.85670000  1.0 0.1680685851
H  H57  1  0.41480000  0.85670000  0.53930000  1.0 0.1680685851
H  H58  1  0.14330000  0.46070000  0.58520000  1.0 0.1680685851
H  H59  1  0.46070000  0.58520000  0.14330000  1.0 0.1680685851
H  H60  1  0.58520000  0.14330000  0.46070000  1.0 0.1680685851
H  H61  1  0.58440000  0.11180000  0.25300000  1.0 0.0990372803
H  H62  1  0.11180000  0.25300000  0.58440000  1.0 0.0990372803
H  H63  1  0.25300000  0.58440000  0.11180000  1.0 0.0990372803
H  H64  1  0.41560000  0.88820000  0.74700000  1.0 0.0990372803
H  H65  1  0.88820000  0.74700000  0.41560000  1.0 0.0990372803
H  H66  1  0.74700000  0.41560000  0.88820000  1.0 0.0990372803
H  H67  1  0.07010000  0.71550000  0.57210000  1.0 0.07877092
H  H68  1  0.71550000  0.57210000  0.07010000  1.0 0.07877092
H  H69  1  0.57210000  0.07010000  0.71550000  1.0 0.07877092
H  H70  1  0.92990000  0.28450000  0.42790000  1.0 0.07877092
H  H71  1  0.28450000  0.42790000  0.92990000  1.0 0.07877092
H  H72  1  0.42790000  0.92990000  0.28450000  1.0 0.07877092
H  H73  1  0.10740000  0.85990000  0.58870000  1.0 0.1276703848
H  H74  1  0.85990000  0.58870000  0.10740000  1.0 0.1276703848
H  H75  1  0.58870000  0.10740000  0.85990000  1.0 0.1276703848
H  H76  1  0.89260000  0.14010000  0.41130000  1.0 0.1276703848
H  H77  1  0.14010000  0.41130000  0.89260000  1.0 0.1276703848
H  H78  1  0.41130000  0.89260000  0.14010000  1.0 0.1276703848
H  H79  1  0.14880000  0.00500000  0.73130000  1.0 0.0990372803
H  H80  1  0.00500000  0.73130000  0.14880000  1.0 0.0990372803
H  H81  1  0.73130000  0.14880000  0.00500000  1.0 0.0990372803
H  H82  1  0.85120000  0.99500000  0.26870000  1.0 0.0990372803
H  H83  1  0.99500000  0.26870000  0.85120000  1.0 0.0990372803
H  H84  1  0.26870000  0.85120000  0.99500000  1.0 0.0990372803
H  H85  1  0.11550000  0.86120000  0.84060000  1.0 0.0893536991
H  H86  1  0.86120000  0.84060000  0.11550000  1.0 0.0893536991
H  H87  1  0.84060000  0.11550000  0.86120000  1.0 0.0893536991
H  H88  1  0.88450000  0.13880000  0.15940000  1.0 0.0893536991
H  H89  1  0.13880000  0.15940000  0.88450000  1.0 0.0893536991
H  H90  1  0.15940000  0.88450000  0.13880000  1.0 0.0893536991
H  H91  1  0.09460000  0.99950000  0.85670000  1.0 0.1533221008
H  H92  1  0.99950000  0.85670000  0.09460000  1.0 0.1533221008
H  H93  1  0.85670000  0.09460000  0.99950000  1.0 0.1533221008
H  H94  1  0.90540000  0.00050000  0.14330000  1.0 0.1561714237
H  H95  1  0.00050000  0.14330000  0.90540000  1.0 0.1533221008
H  H96  1  0.14330000  0.90540000  0.00050000  1.0 0.1561714237
H  H97  1  0.05680000  0.68120000  0.74360000  1.0 0.0893536991
H  H98  1  0.68120000  0.74360000  0.05680000  1.0 0.0893536991
H  H99  1  0.74360000  0.05680000  0.68120000  1.0 0.0893536991
H  H100  1  0.94320000  0.31880000  0.25640000  1.0 0.0893536991
H  H101  1  0.31880000  0.25640000  0.94320000  1.0 0.0893536991
H  H102  1  0.25640000  0.94320000  0.31880000  1.0 0.0893536991
H  H103  1  0.06680000  0.60560000  0.58750000  1.0 0.0614758022
H  H104  1  0.60560000  0.58750000  0.06680000  1.0 0.0614758022
H  H105  1  0.58750000  0.06680000  0.60560000  1.0 0.0614758022
H  H106  1  0.93320000  0.39440000  0.41250000  1.0 0.0614758022
H  H107  1  0.39440000  0.41250000  0.93320000  1.0 0.0614758022
H  H108  1  0.41250000  0.93320000  0.39440000  1.0 0.0614758022
H  H109  1  0.45790000  0.12470000  0.15900000  1.0 0.108769334
H  H110  1  0.12470000  0.15900000  0.45790000  1.0 0.108769334
H  H111  1  0.15900000  0.45790000  0.12470000  1.0 0.108769334
H  H112  1  0.54210000  0.87530000  0.84100000  1.0 0.108769334
H  H113  1  0.87530000  0.84100000  0.54210000  1.0 0.108769334
H  H114  1  0.84100000  0.54210000  0.87530000  1.0 0.108769334
H  H115  1  0.60330000  0.40210000  0.21740000  1.0 0.1276703848
H  H116  1  0.40210000  0.21740000  0.60330000  1.0 0.1276703848
H  H117  1  0.21740000  0.60330000  0.40210000  1.0 0.1276703848
H  H118  1  0.39670000  0.59790000  0.78260000  1.0 0.1276703848
H  H119  1  0.59790000  0.78260000  0.39670000  1.0 0.1276703848
H  H120  1  0.78260000  0.39670000  0.59790000  1.0 0.1276703848
H  H121  1  0.78910000  0.49560000  0.36830000  1.0 0.0530486585
H  H122  1  0.49560000  0.36830000  0.78910000  1.0 0.0530486585
H  H123  1  0.36830000  0.78910000  0.49560000  1.0 0.0530486585
H  H124  1  0.21090000  0.50440000  0.63170000  1.0 0.0530486585
H  H125  1  0.50440000  0.63170000  0.21090000  1.0 0.0530486585
H  H126  1  0.63170000  0.21090000  0.50440000  1.0 0.0530486585
H  H127  1  0.80910000  0.40380000  0.41460000  1.0 0.0990372803
H  H128  1  0.40380000  0.41460000  0.80910000  1.0 0.0990372803
H  H129  1  0.41460000  0.80910000  0.40380000  1.0 0.0990372803
H  H130  1  0.19090000  0.59620000  0.58540000  1.0 0.0990372803
H  H131  1  0.59620000  0.58540000  0.19090000  1.0 0.0990372803
H  H132  1  0.58540000  0.19090000  0.59620000  1.0 0.0990372803
H  H133  1  0.37230000  0.12330000  0.02430000  1.0 0.1561714237
H  H134  1  0.12330000  0.02430000  0.37230000  1.0 0.1561714237
H  H135  1  0.02430000  0.37230000  0.12330000  1.0 0.1561714237
H  H136  1  0.62770000  0.87670000  0.97570000  1.0 0.1561714237
H  H137  1  0.87670000  0.97570000  0.62770000  1.0 0.1561714237
H  H138  1  0.97570000  0.62770000  0.87670000  1.0 0.1561714237
H  H139  1  0.57680000  0.13710000  0.29470000  1.0 0.0893536991
H  H140  1  0.13710000  0.29470000  0.57680000  1.0 0.0893536991
H  H141  1  0.29470000  0.57680000  0.13710000  1.0 0.0893536991
H  H142  1  0.42320000  0.86290000  0.70530000  1.0 0.0893536991
H  H143  1  0.86290000  0.70530000  0.42320000  1.0 0.0893536991
H  H144  1  0.70530000  0.42320000  0.86290000  1.0 0.0893536991
H  H145  1  0.05900000  0.72660000  0.58860000  1.0 0.0990372803
H  H146  1  0.72660000  0.58860000  0.05900000  1.0 0.0990372803
H  H147  1  0.58860000  0.05900000  0.72660000  1.0 0.0990372803
H  H148  1  0.94100000  0.27340000  0.41140000  1.0 0.0990372803
H  H149  1  0.27340000  0.41140000  0.94100000  1.0 0.0990372803
H  H150  1  0.41140000  0.94100000  0.27340000  1.0 0.0990372803
H  H151  1  0.10850000  0.87140000  0.60130000  1.0 0.1397626059
H  H152  1  0.87140000  0.60130000  0.10850000  1.0 0.1397626059
H  H153  1  0.60130000  0.10850000  0.87140000  1.0 0.1397626059
H  H154  1  0.89150000  0.12860000  0.39870000  1.0 0.1397626059
H  H155  1  0.12860000  0.39870000  0.89150000  1.0 0.1397626059
H  H156  1  0.39870000  0.89150000  0.12860000  1.0 0.1397626059
H  H157  1  0.18630000  0.04150000  0.75960000  1.0 0.07877092
H  H158  1  0.04150000  0.75960000  0.18630000  1.0 0.07877092
H  H159  1  0.75960000  0.18630000  0.04150000  1.0 0.07877092
H  H160  1  0.81370000  0.95850000  0.24040000  1.0 0.07877092
H  H161  1  0.95850000  0.24040000  0.81370000  1.0 0.07877092
H  H162  1  0.24040000  0.81370000  0.95850000  1.0 0.07877092
H  H163  1  0.16490000  0.92180000  0.89230000  1.0 0.0614758022
H  H164  1  0.92180000  0.89230000  0.16490000  1.0 0.0614758022
H  H165  1  0.89230000  0.16490000  0.92180000  1.0 0.0614758022
H  H166  1  0.83510000  0.07820000  0.10770000  1.0 0.0614758022
H  H167  1  0.07820000  0.10770000  0.83510000  1.0 0.0614758022
H  H168  1  0.10770000  0.83510000  0.07820000  1.0 0.0614758022
H  H169  1  0.23310000  0.09370000  0.97590000  1.0 0.2335697593
H  H170  1  0.09370000  0.97590000  0.23310000  1.0 0.2335697593
H  H171  1  0.97590000  0.23310000  0.09370000  1.0 0.2335697593
H  H172  1  0.76690000  0.90630000  0.02410000  1.0 0.2335697593
H  H173  1  0.90630000  0.02410000  0.76690000  1.0 0.2335697593
H  H174  1  0.02410000  0.76690000  0.90630000  1.0 0.2335697593
H  H175  1  0.07350000  0.72750000  0.78770000  1.0 0.0689542672
H  H176  1  0.72750000  0.78770000  0.07350000  1.0 0.0689542672
H  H177  1  0.78770000  0.07350000  0.72750000  1.0 0.0689542672
H  H178  1  0.92650000  0.27250000  0.21230000  1.0 0.0689542672
H  H179  1  0.27250000  0.21230000  0.92650000  1.0 0.0689542672
H  H180  1  0.21230000  0.92650000  0.27250000  1.0 0.0689542672
H  H181  1  0.05480000  0.61750000  0.61310000  1.0 0.0990372803
H  H182  1  0.61750000  0.61310000  0.05480000  1.0 0.0990372803
H  H183  1  0.61310000  0.05480000  0.61750000  1.0 0.0990372803
H  H184  1  0.94520000  0.38250000  0.38690000  1.0 0.0990372803
H  H185  1  0.38250000  0.38690000  0.94520000  1.0 0.0990372803
H  H186  1  0.38690000  0.94520000  0.38250000  1.0 0.0990372803
C  C1  1  0.74586000  0.24274000  0.40850000  1.0 -0.2019890851
C  C2  1  0.24274000  0.40850000  0.74586000  1.0 -0.2019890851
C  C3  1  0.40850000  0.74586000  0.24274000  1.0 -0.2019890851
C  C4  1  0.25414000  0.75726000  0.59150000  1.0 -0.2019890851
C  C5  1  0.75726000  0.59150000  0.25414000  1.0 -0.2019890851
C  C6  1  0.59150000  0.25414000  0.75726000  1.0 -0.2019890851
C  C7  1  0.74820000  0.17870000  0.43180000  1.0 0.2626906665
C  C8  1  0.17870000  0.43180000  0.74820000  1.0 0.2626906665
C  C9  1  0.43180000  0.74820000  0.17870000  1.0 0.2626906665
C  C10  1  0.25180000  0.82130000  0.56820000  1.0 0.2626906665
C  C11  1  0.82130000  0.56820000  0.25180000  1.0 0.2626906665
C  C12  1  0.56820000  0.25180000  0.82130000  1.0 0.2626906665
C  C13  1  0.08750000  0.54170000  0.90190000  1.0 -0.0704744075
C  C14  1  0.54170000  0.90190000  0.08750000  1.0 -0.0704744075
C  C15  1  0.90190000  0.08750000  0.54170000  1.0 -0.0704744075
C  C16  1  0.91250000  0.45830000  0.09810000  1.0 -0.0704744075
C  C17  1  0.45830000  0.09810000  0.91250000  1.0 -0.0704744075
C  C18  1  0.09810000  0.91250000  0.45830000  1.0 -0.0704744075
C  C19  1  0.08960000  0.57060000  0.98340000  1.0 -0.2476947114
C  C20  1  0.57060000  0.98340000  0.08960000  1.0 -0.2476947114
C  C21  1  0.98340000  0.08960000  0.57060000  1.0 -0.2476947114
C  C22  1  0.91040000  0.42940000  0.01660000  1.0 -0.2476947114
C  C23  1  0.42940000  0.01660000  0.91040000  1.0 -0.2476947114
C  C24  1  0.01660000  0.91040000  0.42940000  1.0 -0.2476947114
C  C25  1  0.00070000  0.48560000  0.95750000  1.0 0.0276000171
C  C26  1  0.48560000  0.95750000  0.00070000  1.0 0.0276000171
C  C27  1  0.95750000  0.00070000  0.48560000  1.0 0.0276000171
C  C28  1  0.99930000  0.51440000  0.04250000  1.0 0.0276000171
C  C29  1  0.51440000  0.04250000  0.99930000  1.0 0.0276000171
C  C30  1  0.04250000  0.99930000  0.51440000  1.0 0.0276000171
C  C31  1  0.91410000  0.37380000  0.84600000  1.0 -0.269487057
C  C32  1  0.37380000  0.84600000  0.91410000  1.0 -0.269487057
C  C33  1  0.84600000  0.91410000  0.37380000  1.0 -0.269487057
C  C34  1  0.08590000  0.62620000  0.15400000  1.0 -0.269487057
C  C35  1  0.62620000  0.15400000  0.08590000  1.0 -0.269487057
C  C36  1  0.15400000  0.08590000  0.62620000  1.0 -0.269487057
C  C37  1  0.91610000  0.35050000  0.76830000  1.0 -0.1018735239
C  C38  1  0.35050000  0.76830000  0.91610000  1.0 -0.1018735239
C  C39  1  0.76830000  0.91610000  0.35050000  1.0 -0.1018735239
C  C40  1  0.08390000  0.64950000  0.23170000  1.0 -0.1018735239
C  C41  1  0.64950000  0.23170000  0.08390000  1.0 -0.1018735239
C  C42  1  0.23170000  0.08390000  0.64950000  1.0 -0.1018735239
C  C43  1  0.72260000  0.36310000  0.34980000  1.0 -0.2185202384
C  C44  1  0.36310000  0.34980000  0.72260000  1.0 -0.2185202384
C  C45  1  0.34980000  0.72260000  0.36310000  1.0 -0.2185202384
C  C46  1  0.27740000  0.63690000  0.65020000  1.0 -0.2185202384
C  C47  1  0.63690000  0.65020000  0.27740000  1.0 -0.2185202384
C  C48  1  0.65020000  0.27740000  0.63690000  1.0 -0.2185202384
C  C49  1  0.70570000  0.41120000  0.31500000  1.0 0.1397626059
C  C50  1  0.41120000  0.31500000  0.70570000  1.0 0.1397626059
C  C51  1  0.31500000  0.70570000  0.41120000  1.0 0.1397626059
C  C52  1  0.29430000  0.58880000  0.68500000  1.0 0.1397626059
C  C53  1  0.58880000  0.68500000  0.29430000  1.0 0.1397626059
C  C54  1  0.68500000  0.29430000  0.58880000  1.0 0.1397626059
C  C55  1  0.59390000  0.34650000  0.21670000  1.0 -0.2185202384
C  C56  1  0.34650000  0.21670000  0.59390000  1.0 -0.2185202384
C  C57  1  0.21670000  0.59390000  0.34650000  1.0 -0.2185202384
C  C58  1  0.40610000  0.65350000  0.78330000  1.0 -0.2185202384
C  C59  1  0.65350000  0.78330000  0.40610000  1.0 -0.2185202384
C  C60  1  0.78330000  0.40610000  0.65350000  1.0 -0.2185202384
C  C61  1  0.49920000  0.23360000  0.15310000  1.0 0.1785116376
C  C62  1  0.23360000  0.15310000  0.49920000  1.0 0.1785116376
C  C63  1  0.15310000  0.49920000  0.23360000  1.0 0.1785116376
C  C64  1  0.50080000  0.76640000  0.84690000  1.0 0.1785116376
C  C65  1  0.76640000  0.84690000  0.50080000  1.0 0.1785116376
C  C66  1  0.84690000  0.50080000  0.76640000  1.0 0.1785116376
C  C67  1  0.51630000  0.18560000  0.18790000  1.0 -0.2277536311
C  C68  1  0.18560000  0.18790000  0.51630000  1.0 -0.2277536311
C  C69  1  0.18790000  0.51630000  0.18560000  1.0 -0.2277536311
C  C70  1  0.48370000  0.81440000  0.81210000  1.0 -0.2277536311
C  C71  1  0.81440000  0.81210000  0.48370000  1.0 -0.2277536311
C  C72  1  0.81210000  0.48370000  0.81440000  1.0 -0.2277536311
C  C73  1  0.62800000  0.25030000  0.28630000  1.0 0.1785116376
C  C74  1  0.25030000  0.28630000  0.62800000  1.0 0.1785116376
C  C75  1  0.28630000  0.62800000  0.25030000  1.0 0.1785116376
C  C76  1  0.37200000  0.74970000  0.71370000  1.0 0.1785116376
C  C77  1  0.74970000  0.71370000  0.37200000  1.0 0.1785116376
C  C78  1  0.71370000  0.37200000  0.74970000  1.0 0.1785116376
C  C79  1  0.64870000  0.19420000  0.31240000  1.0 -0.1822912215
C  C80  1  0.19420000  0.31240000  0.64870000  1.0 -0.1822912215
C  C81  1  0.31240000  0.64870000  0.19420000  1.0 -0.1822912215
C  C82  1  0.35130000  0.80580000  0.68760000  1.0 -0.1822912215
C  C83  1  0.80580000  0.68760000  0.35130000  1.0 -0.1822912215
C  C84  1  0.68760000  0.35130000  0.80580000  1.0 -0.1822912215
C  C85  1  0.08700000  0.77430000  0.62990000  1.0 -0.0704744075
C  C86  1  0.77430000  0.62990000  0.08700000  1.0 -0.0704744075
C  C87  1  0.62990000  0.08700000  0.77430000  1.0 -0.0704744075
C  C88  1  0.91300000  0.22570000  0.37010000  1.0 -0.0704744075
C  C89  1  0.22570000  0.37010000  0.91300000  1.0 -0.0704744075
C  C90  1  0.37010000  0.91300000  0.22570000  1.0 -0.0704744075
C  C91  1  0.10910000  0.86020000  0.63980000  1.0 -0.0879494897
C  C92  1  0.86020000  0.63980000  0.10910000  1.0 -0.0879494897
C  C93  1  0.63980000  0.10910000  0.86020000  1.0 -0.0879494897
C  C94  1  0.89090000  0.13980000  0.36020000  1.0 -0.0879494897
C  C95  1  0.13980000  0.36020000  0.89090000  1.0 -0.0879494897
C  C96  1  0.36020000  0.89090000  0.13980000  1.0 -0.0879494897
C  C97  1  0.13370000  0.94640000  0.72460000  1.0 -0.0704744075
C  C98  1  0.94640000  0.72460000  0.13370000  1.0 -0.0704744075
C  C99  1  0.72460000  0.13370000  0.94640000  1.0 -0.0704744075
C  C100  1  0.86630000  0.05360000  0.27540000  1.0 -0.0704744075
C  C101  1  0.05360000  0.27540000  0.86630000  1.0 -0.0704744075
C  C102  1  0.27540000  0.86630000  0.05360000  1.0 -0.0704744075
C  C103  1  0.13610000  0.94670000  0.79930000  1.0 0.0893536991
C  C104  1  0.94670000  0.79930000  0.13610000  1.0 0.0893536991
C  C105  1  0.79930000  0.13610000  0.94670000  1.0 0.0893536991
C  C106  1  0.86390000  0.05330000  0.20070000  1.0 0.0893536991
C  C107  1  0.05330000  0.20070000  0.86390000  1.0 0.0893536991
C  C108  1  0.20070000  0.86390000  0.05330000  1.0 0.0893536991
C  C109  1  0.11390000  0.86090000  0.78940000  1.0 -0.0704744075
C  C110  1  0.86090000  0.78940000  0.11390000  1.0 -0.0704744075
C  C111  1  0.78940000  0.11390000  0.86090000  1.0 -0.0704744075
C  C112  1  0.88610000  0.13910000  0.21060000  1.0 -0.0704744075
C  C113  1  0.13910000  0.21060000  0.88610000  1.0 -0.0704744075
C  C114  1  0.21060000  0.88610000  0.13910000  1.0 -0.0704744075
C  C115  1  0.08930000  0.77480000  0.70480000  1.0 0.0102449873
C  C116  1  0.77480000  0.70480000  0.08930000  1.0 0.0102449873
C  C117  1  0.70480000  0.08930000  0.77480000  1.0 0.0102449873
C  C118  1  0.91070000  0.22520000  0.29520000  1.0 0.0102449873
C  C119  1  0.22520000  0.29520000  0.91070000  1.0 0.0102449873
C  C120  1  0.29520000  0.91070000  0.22520000  1.0 0.0102449873
C  C121  1  0.06632000  0.68348000  0.69880000  1.0 -0.046310865
C  C122  1  0.68348000  0.69880000  0.06632000  1.0 -0.046310865
C  C123  1  0.69880000  0.06632000  0.68348000  1.0 -0.046310865
C  C124  1  0.93368000  0.31652000  0.30120000  1.0 -0.046310865
C  C125  1  0.31652000  0.30120000  0.93368000  1.0 -0.046310865
C  C126  1  0.30120000  0.93368000  0.31652000  1.0 -0.046310865
C  C127  1  0.05880000  0.60650000  0.63420000  1.0 -0.1138936648
C  C128  1  0.60650000  0.63420000  0.05880000  1.0 -0.1138936648
C  C129  1  0.63420000  0.05880000  0.60650000  1.0 -0.1138936648
C  C130  1  0.94120000  0.39350000  0.36580000  1.0 -0.1138936648
C  C131  1  0.39350000  0.36580000  0.94120000  1.0 -0.1138936648
C  C132  1  0.36580000  0.94120000  0.39350000  1.0 -0.1138936648
C  C133  1  0.03860000  0.52430000  0.63610000  1.0 0.2897198679
C  C134  1  0.52430000  0.63610000  0.03860000  1.0 0.2897198679
C  C135  1  0.63610000  0.03860000  0.52430000  1.0 0.2897198679
C  C136  1  0.96140000  0.47570000  0.36390000  1.0 0.2897198679
C  C137  1  0.47570000  0.36390000  0.96140000  1.0 0.2897198679
C  C138  1  0.36390000  0.96140000  0.47570000  1.0 0.2897198679
C  C139  1  0.52510000  0.20010000  0.20150000  1.0 -0.2185202384
C  C140  1  0.20010000  0.20150000  0.52510000  1.0 -0.2185202384
C  C141  1  0.20150000  0.52510000  0.20010000  1.0 -0.2185202384
C  C142  1  0.47490000  0.79990000  0.79850000  1.0 -0.2185202384
C  C143  1  0.79990000  0.79850000  0.47490000  1.0 -0.2185202384
C  C144  1  0.79850000  0.47490000  0.79990000  1.0 -0.2185202384
C  C145  1  0.51310000  0.25460000  0.17400000  1.0 0.1533221008
C  C146  1  0.25460000  0.17400000  0.51310000  1.0 0.1533221008
C  C147  1  0.17400000  0.51310000  0.25460000  1.0 0.1533221008
C  C148  1  0.48690000  0.74540000  0.82600000  1.0 0.1533221008
C  C149  1  0.74540000  0.82600000  0.48690000  1.0 0.1533221008
C  C150  1  0.82600000  0.48690000  0.74540000  1.0 0.1533221008
C  C151  1  0.61150000  0.36470000  0.23610000  1.0 -0.2185202384
C  C152  1  0.36470000  0.23610000  0.61150000  1.0 -0.2185202384
C  C153  1  0.23610000  0.61150000  0.36470000  1.0 -0.2185202384
C  C154  1  0.38850000  0.63530000  0.76390000  1.0 -0.2185202384
C  C155  1  0.63530000  0.76390000  0.38850000  1.0 -0.2185202384
C  C156  1  0.76390000  0.38850000  0.63530000  1.0 -0.2185202384
C  C157  1  0.72180000  0.42030000  0.32580000  1.0 0.1680685851
C  C158  1  0.42030000  0.32580000  0.72180000  1.0 0.1680685851
C  C159  1  0.32580000  0.72180000  0.42030000  1.0 0.1680685851
C  C160  1  0.27820000  0.57970000  0.67420000  1.0 0.1680685851
C  C161  1  0.57970000  0.67420000  0.27820000  1.0 0.1680685851
C  C162  1  0.67420000  0.27820000  0.57970000  1.0 0.1680685851
C  C163  1  0.73380000  0.36580000  0.35330000  1.0 -0.2401576138
C  C164  1  0.36580000  0.35330000  0.73380000  1.0 -0.2401576138
C  C165  1  0.35330000  0.73380000  0.36580000  1.0 -0.2401576138
C  C166  1  0.26620000  0.63420000  0.64670000  1.0 -0.2401576138
C  C167  1  0.63420000  0.64670000  0.26620000  1.0 -0.2401576138
C  C168  1  0.64670000  0.26620000  0.63420000  1.0 -0.2401576138
C  C169  1  0.63540000  0.25570000  0.29120000  1.0 0.1785116376
C  C170  1  0.25570000  0.29120000  0.63540000  1.0 0.1785116376
C  C171  1  0.29120000  0.63540000  0.25570000  1.0 0.1785116376
C  C172  1  0.36460000  0.74430000  0.70880000  1.0 0.1785116376
C  C173  1  0.74430000  0.70880000  0.36460000  1.0 0.1785116376
C  C174  1  0.70880000  0.36460000  0.74430000  1.0 0.1785116376
C  C175  1  0.64630000  0.20390000  0.32910000  1.0 -0.1946458239
C  C176  1  0.20390000  0.32910000  0.64630000  1.0 -0.1946458239
C  C177  1  0.32910000  0.64630000  0.20390000  1.0 -0.1946458239
C  C178  1  0.35370000  0.79610000  0.67090000  1.0 -0.1946458239
C  C179  1  0.79610000  0.67090000  0.35370000  1.0 -0.1946458239
C  C180  1  0.67090000  0.35370000  0.79610000  1.0 -0.1946458239
C  C181  1  0.09048000  0.79560000  0.65282000  1.0 -0.0813739769
C  C182  1  0.79560000  0.65282000  0.09048000  1.0 -0.0813739769
C  C183  1  0.65282000  0.09048000  0.79560000  1.0 -0.0813739769
C  C184  1  0.90952000  0.20440000  0.34718000  1.0 -0.0813739769
C  C185  1  0.20440000  0.34718000  0.90952000  1.0 -0.0813739769
C  C186  1  0.34718000  0.90952000  0.20440000  1.0 -0.0813739769
C  C187  1  0.11989000  0.88161000  0.66040000  1.0 -0.0813739769
C  C188  1  0.88161000  0.66040000  0.11989000  1.0 -0.0813739769
C  C189  1  0.66040000  0.11989000  0.88161000  1.0 -0.0813739769
C  C190  1  0.88011000  0.11839000  0.33960000  1.0 -0.0813739769
C  C191  1  0.11839000  0.33960000  0.88011000  1.0 -0.0813739769
C  C192  1  0.33960000  0.88011000  0.11839000  1.0 -0.0813739769
C  C193  1  0.16610000  0.98260000  0.75440000  1.0 -0.1188176069
C  C194  1  0.98260000  0.75440000  0.16610000  1.0 -0.1188176069
C  C195  1  0.75440000  0.16610000  0.98260000  1.0 -0.1188176069
C  C196  1  0.83390000  0.01740000  0.24560000  1.0 -0.1188176069
C  C197  1  0.01740000  0.24560000  0.83390000  1.0 -0.1188176069
C  C198  1  0.24560000  0.83390000  0.01740000  1.0 -0.1188176069
C  C199  1  0.18293000  0.99757000  0.84080000  1.0 0.1680685851
C  C200  1  0.99757000  0.84080000  0.18293000  1.0 0.1680685851
C  C201  1  0.84080000  0.18293000  0.99757000  1.0 0.1680685851
C  C202  1  0.81707000  0.00243000  0.15920000  1.0 0.1680685851
C  C203  1  0.00243000  0.15920000  0.81707000  1.0 0.1680685851
C  C204  1  0.15920000  0.81707000  0.00243000  1.0 0.1680685851
C  C205  1  0.15344000  0.91156000  0.83330000  1.0 -0.1188176069
C  C206  1  0.91156000  0.83330000  0.15344000  1.0 -0.1188176069
C  C207  1  0.83330000  0.15344000  0.91156000  1.0 -0.1188176069
C  C208  1  0.84656000  0.08844000  0.16670000  1.0 -0.1188176069
C  C209  1  0.08844000  0.16670000  0.84656000  1.0 -0.1188176069
C  C210  1  0.16670000  0.84656000  0.08844000  1.0 -0.1188176069
C  C211  1  0.10723000  0.81057000  0.73930000  1.0 0.0689542672
C  C212  1  0.81057000  0.73930000  0.10723000  1.0 0.0689542672
C  C213  1  0.73930000  0.10723000  0.81057000  1.0 0.0689542672
C  C214  1  0.89277000  0.18943000  0.26070000  1.0 0.0689542672
C  C215  1  0.18943000  0.26070000  0.89277000  1.0 0.0689542672
C  C216  1  0.26070000  0.89277000  0.18943000  1.0 0.0689542672
C  C217  1  0.07726000  0.72010000  0.73674000  1.0 -0.0879494897
C  C218  1  0.72010000  0.73674000  0.07726000  1.0 -0.0879494897
C  C219  1  0.73674000  0.07726000  0.72010000  1.0 -0.0879494897
C  C220  1  0.92274000  0.27990000  0.26326000  1.0 -0.0879494897
C  C221  1  0.27990000  0.26326000  0.92274000  1.0 -0.0879494897
C  C222  1  0.26326000  0.92274000  0.27990000  1.0 -0.0879494897
C  C223  1  0.05580000  0.63095000  0.66825000  1.0 -0.0813739769
C  C224  1  0.63095000  0.66825000  0.05580000  1.0 -0.0813739769
C  C225  1  0.66825000  0.05580000  0.63095000  1.0 -0.0813739769
C  C226  1  0.94420000  0.36905000  0.33175000  1.0 -0.0813739769
C  C227  1  0.36905000  0.33175000  0.94420000  1.0 -0.0813739769
C  C228  1  0.33175000  0.94420000  0.36905000  1.0 -0.0813739769
C  C229  1  0.03423000  0.55535000  0.68022000  1.0 0.281229678
C  C230  1  0.55535000  0.68022000  0.03423000  1.0 0.281229678
C  C231  1  0.68022000  0.03423000  0.55535000  1.0 0.281229678
C  C232  1  0.96577000  0.44465000  0.31978000  1.0 0.281229678
C  C233  1  0.44465000  0.31978000  0.96577000  1.0 0.281229678
C  C234  1  0.31978000  0.96577000  0.44465000  1.0 0.281229678
N  N1  1  0.00171000  0.43232000  0.79437000  1.0 -0.280655982
N  N2  1  0.43232000  0.79437000  0.00171000  1.0 -0.280655982
N  N3  1  0.79437000  0.00171000  0.43232000  1.0 -0.280655982
N  N4  1  0.99829000  0.56768000  0.20563000  1.0 -0.280655982
N  N5  1  0.56768000  0.20563000  0.99829000  1.0 -0.280655982
N  N6  1  0.20563000  0.99829000  0.56768000  1.0 -0.280655982
O  O1  1  0.83690000  0.23419000  0.53181000  1.0 -0.5102688391
O  O2  1  0.23419000  0.53181000  0.83690000  1.0 -0.5102688391
O  O3  1  0.53181000  0.83690000  0.23419000  1.0 -0.5102688391
O  O4  1  0.16310000  0.76581000  0.46819000  1.0 -0.5102688391
O  O5  1  0.76581000  0.46819000  0.16310000  1.0 -0.5102688391
O  O6  1  0.46819000  0.16310000  0.76581000  1.0 -0.5102688391
O  O7  1  0.66154000  0.06974000  0.35292000  1.0 -0.4866695323
O  O8  1  0.06974000  0.35292000  0.66154000  1.0 -0.4866695323
O  O9  1  0.35292000  0.66154000  0.06974000  1.0 -0.4866695323
O  O10  1  0.33846000  0.93026000  0.64708000  1.0 -0.4866695323
O  O11  1  0.93026000  0.64708000  0.33846000  1.0 -0.4866695323
O  O12  1  0.64708000  0.33846000  0.93026000  1.0 -0.4866695323
O  O13  1  0.79470000  0.51890000  0.37450000  1.0 -0.269487057
O  O14  1  0.51890000  0.37450000  0.79470000  1.0 -0.280655982
O  O15  1  0.37450000  0.79470000  0.51890000  1.0 -0.269487057
O  O16  1  0.20530000  0.48110000  0.62550000  1.0 -0.280655982
O  O17  1  0.48110000  0.62550000  0.20530000  1.0 -0.280655982
O  O18  1  0.62550000  0.20530000  0.48110000  1.0 -0.269487057
O  O19  1  0.15710000  0.02860000  0.87880000  1.0 -0.0879494897
O  O20  1  0.02860000  0.87880000  0.15710000  1.0 -0.0879494897
O  O21  1  0.87880000  0.15710000  0.02860000  1.0 -0.0879494897
O  O22  1  0.84290000  0.97140000  0.12120000  1.0 -0.0879494897
O  O23  1  0.97140000  0.12120000  0.84290000  1.0 -0.0879494897
O  O24  1  0.12120000  0.84290000  0.97140000  1.0 -0.0879494897
O  O25  1  0.03160000  0.52490000  0.69920000  1.0 0.0689542672
O  O26  1  0.52490000  0.69920000  0.03160000  1.0 0.0689542672
O  O27  1  0.69920000  0.03160000  0.52490000  1.0 0.0689542672
O  O28  1  0.96840000  0.47510000  0.30080000  1.0 0.0689542672
O  O29  1  0.47510000  0.30080000  0.96840000  1.0 0.0689542672
O  O30  1  0.30080000  0.96840000  0.47510000  1.0 0.0689542672
O  O31  1  0.03220000  0.45480000  0.57370000  1.0 -0.2983799993
O  O32  1  0.45480000  0.57370000  0.03220000  1.0 -0.2983799993
O  O33  1  0.57370000  0.03220000  0.45480000  1.0 -0.2983799993
O  O34  1  0.96780000  0.54520000  0.42630000  1.0 -0.2983799993
O  O35  1  0.54520000  0.42630000  0.96780000  1.0 -0.2983799993
O  O36  1  0.42630000  0.96780000  0.54520000  1.0 -0.2983799993
O  O37  1  0.41120000  0.19360000  0.07320000  1.0 -0.269487057
O  O38  1  0.19360000  0.07320000  0.41120000  1.0 -0.269487057
O  O39  1  0.07320000  0.41120000  0.19360000  1.0 -0.269487057
O  O40  1  0.58880000  0.80640000  0.92680000  1.0 -0.269487057
O  O41  1  0.80640000  0.92680000  0.58880000  1.0 -0.269487057
O  O42  1  0.92680000  0.58880000  0.80640000  1.0 -0.269487057
O  O43  1  0.21727000  0.08993000  0.92470000  1.0 -0.2019890851
O  O44  1  0.08993000  0.92470000  0.21727000  1.0 -0.2019890851
O  O45  1  0.92470000  0.21727000  0.08993000  1.0 -0.2019890851
O  O46  1  0.78273000  0.91007000  0.07530000  1.0 -0.2019890851
O  O47  1  0.91007000  0.07530000  0.78273000  1.0 -0.2019890851
O  O48  1  0.07530000  0.78273000  0.91007000  1.0 -0.2019890851
O  O49  1  0.02071000  0.56255000  0.74144000  1.0 -0.2476947114
O  O50  1  0.56255000  0.74144000  0.02071000  1.0 -0.2476947114
O  O51  1  0.74144000  0.02071000  0.56255000  1.0 -0.2401576138
O  O52  1  0.97929000  0.43745000  0.25856000  1.0 -0.2476947114
O  O53  1  0.43745000  0.25856000  0.97929000  1.0 -0.2476947114
O  O54  1  0.25856000  0.97929000  0.43745000  1.0 -0.2476947114
O  O55  1  0.02548000  0.48027000  0.62335000  1.0 0.0689542672
O  O56  1  0.48027000  0.62335000  0.02548000  1.0 0.0689542672
O  O57  1  0.62335000  0.02548000  0.48027000  1.0 0.0689542672
O  O58  1  0.97452000  0.51973000  0.37665000  1.0 0.0689542672
O  O59  1  0.51973000  0.37665000  0.97452000  1.0 0.0689542672
O  O60  1  0.37665000  0.97452000  0.51973000  1.0 0.0689542672
