# DDEC6 charges by PACMAN v1.1 (https://github.com/mtap-research/PACMAN-charge/)
data_LEWZET_ASR_pacman
_symmetry_space_group_name_H-M   'P 1'
_cell_length_a   14.31720000
_cell_length_b   17.40170000
_cell_length_c   7.33340000
_cell_angle_alpha   90.00000000
_cell_angle_beta   90.00000000
_cell_angle_gamma   90.00000000
_symmetry_Int_Tables_number   1
_chemical_formula_structural   Fe(C3N2)4
_chemical_formula_sum   'Fe4 C48 N32'
_cell_volume   1827.06981733
_cell_formula_units_Z   4
loop_
 _symmetry_equiv_pos_site_id
 _symmetry_equiv_pos_as_xyz
  1  'x, y, z'
loop_
 _atom_site_type_symbol
 _atom_site_label
 _atom_site_symmetry_multiplicity
 _atom_site_fract_x
 _atom_site_fract_y
 _atom_site_fract_z
 _atom_site_occupancy
 _atom_site_charge
Fe  Fe1  1  0.25000000  0.75000000  0.50000000  1.0 0.9524278478
Fe  Fe2  1  0.75000000  0.25000000  0.50000000  1.0 0.9524278478
Fe  Fe3  1  0.75000000  0.75000000  0.50000000  1.0 0.9524278478
Fe  Fe4  1  0.25000000  0.25000000  0.50000000  1.0 0.9524278478
C  C1  1  0.09543000  0.77837000  0.16661000  1.0 0.3095832267
C  C2  1  0.59543000  0.27837000  0.16661000  1.0 0.3095832267
C  C3  1  0.90456000  0.22163000  0.16663000  1.0 0.3095832267
C  C4  1  0.40456000  0.72163000  0.16663000  1.0 0.3095832267
C  C5  1  0.90457000  0.77837000  0.83339000  1.0 0.3095832267
C  C6  1  0.40457000  0.27837000  0.83339000  1.0 0.3095832267
C  C7  1  0.09544000  0.22163000  0.83337000  1.0 0.3095832267
C  C8  1  0.59544000  0.72163000  0.83337000  1.0 0.3095832267
C  C9  1  0.90457000  0.22163000  0.83339000  1.0 0.3095832267
C  C10  1  0.40457000  0.72163000  0.83339000  1.0 0.3095832267
C  C11  1  0.09544000  0.77837000  0.83337000  1.0 0.3095832267
C  C12  1  0.59544000  0.27837000  0.83337000  1.0 0.3095832267
C  C13  1  0.09543000  0.22163000  0.16661000  1.0 0.3095832267
C  C14  1  0.59543000  0.72163000  0.16661000  1.0 0.3095832267
C  C15  1  0.90456000  0.77837000  0.16663000  1.0 0.3095832267
C  C16  1  0.40456000  0.27837000  0.16663000  1.0 0.3095832267
C  C17  1  0.04790000  0.78214000  0.00000000  1.0 -0.0555100846
C  C18  1  0.54790000  0.28214000  0.00000000  1.0 -0.0555100846
C  C19  1  0.95210000  0.21786000  0.00000000  1.0 -0.0555100846
C  C20  1  0.45210000  0.71786000  0.00000000  1.0 -0.0555100846
C  C21  1  0.95210000  0.78214000  0.00000000  1.0 -0.0555100846
C  C22  1  0.45210000  0.28214000  0.00000000  1.0 -0.0555100846
C  C23  1  0.04790000  0.21786000  0.00000000  1.0 -0.0555100846
C  C24  1  0.54790000  0.71786000  0.00000000  1.0 -0.0555100846
C  C25  1  0.00081000  0.43573000  0.30352000  1.0 0.1694293157
C  C26  1  0.50081000  0.93573000  0.30352000  1.0 0.1694293157
C  C27  1  0.00081000  0.56427000  0.30352000  1.0 0.1694293157
C  C28  1  0.50081000  0.06427000  0.30352000  1.0 0.1694293157
C  C29  1  0.99919000  0.43573000  0.69648000  1.0 0.1694293157
C  C30  1  0.49919000  0.93573000  0.69648000  1.0 0.1694293157
C  C31  1  0.99919000  0.56427000  0.69648000  1.0 0.1694293157
C  C32  1  0.49919000  0.06427000  0.69648000  1.0 0.1694293157
C  C33  1  0.03819000  0.50000000  0.42244000  1.0 0.1185257682
C  C34  1  0.53819000  0.00000000  0.42244000  1.0 0.1185257682
C  C35  1  0.96181000  0.50000000  0.57756000  1.0 0.1185257682
C  C36  1  0.46181000  0.00000000  0.57756000  1.0 0.1185257682
C  C37  1  0.18335000  0.56859000  0.50004000  1.0 0.3170306371
C  C38  1  0.68335000  0.06859000  0.50004000  1.0 0.3170306371
C  C39  1  0.81665000  0.43141000  0.49996000  1.0 0.3170306371
C  C40  1  0.31665000  0.93141000  0.49996000  1.0 0.3170306371
C  C41  1  0.81665000  0.56859000  0.49996000  1.0 0.3170306371
C  C42  1  0.31665000  0.06859000  0.49996000  1.0 0.3170306371
C  C43  1  0.18335000  0.43141000  0.50004000  1.0 0.3170306371
C  C44  1  0.68335000  0.93141000  0.50004000  1.0 0.3170306371
C  C45  1  0.13807000  0.50000000  0.49931000  1.0 -0.2510852083
C  C46  1  0.63807000  0.00000000  0.49931000  1.0 -0.2510852083
C  C47  1  0.86193000  0.50000000  0.50069000  1.0 -0.2510852083
C  C48  1  0.36193000  0.00000000  0.50069000  1.0 -0.2510852083
N  N1  1  0.14725000  0.77246000  0.29057000  1.0 -0.3869253858
N  N2  1  0.64725000  0.27246000  0.29057000  1.0 -0.3869253858
N  N3  1  0.85276000  0.22754000  0.29056000  1.0 -0.3824135973
N  N4  1  0.35276000  0.72754000  0.29056000  1.0 -0.3824135973
N  N5  1  0.85275000  0.77246000  0.70943000  1.0 -0.3869253858
N  N6  1  0.35275000  0.27246000  0.70943000  1.0 -0.3869253858
N  N7  1  0.14724000  0.22754000  0.70944000  1.0 -0.3824135973
N  N8  1  0.64724000  0.72754000  0.70944000  1.0 -0.3824135973
N  N9  1  0.85275000  0.22754000  0.70943000  1.0 -0.3869253858
N  N10  1  0.35275000  0.72754000  0.70943000  1.0 -0.3869253858
N  N11  1  0.14724000  0.77246000  0.70944000  1.0 -0.3824135973
N  N12  1  0.64724000  0.27246000  0.70944000  1.0 -0.3824135973
N  N13  1  0.14725000  0.22754000  0.29057000  1.0 -0.3869253858
N  N14  1  0.64725000  0.72754000  0.29057000  1.0 -0.3869253858
N  N15  1  0.85276000  0.77246000  0.29056000  1.0 -0.3824135973
N  N16  1  0.35276000  0.27246000  0.29056000  1.0 -0.3824135973
N  N17  1  0.99982000  0.37485000  0.22188000  1.0 -0.2916280939
N  N18  1  0.49982000  0.87485000  0.22188000  1.0 -0.2916280939
N  N19  1  0.99982000  0.62515000  0.22188000  1.0 -0.2916280939
N  N20  1  0.49982000  0.12515000  0.22188000  1.0 -0.2916280939
N  N21  1  0.00018000  0.37485000  0.77812000  1.0 -0.2916280939
N  N22  1  0.50018000  0.87485000  0.77812000  1.0 -0.2916280939
N  N23  1  0.00018000  0.62515000  0.77812000  1.0 -0.2916280939
N  N24  1  0.50018000  0.12515000  0.77812000  1.0 -0.2916280939
N  N25  1  0.21221000  0.63189000  0.49999000  1.0 -0.3990834482
N  N26  1  0.71221000  0.13189000  0.49999000  1.0 -0.3990834482
N  N27  1  0.78779000  0.36811000  0.50001000  1.0 -0.3990834482
N  N28  1  0.28779000  0.86811000  0.50001000  1.0 -0.3990834482
N  N29  1  0.78779000  0.63189000  0.50001000  1.0 -0.3990834482
N  N30  1  0.28779000  0.13189000  0.50001000  1.0 -0.3990834482
N  N31  1  0.21221000  0.36811000  0.49999000  1.0 -0.3990834482
N  N32  1  0.71221000  0.86811000  0.49999000  1.0 -0.3990834482
