# DDEC6 charges by PACMAN v1.1 (https://github.com/mtap-research/PACMAN-charge/)
data_LEWZET_ion_pacman
_symmetry_space_group_name_H-M   'P 1'
_cell_length_a   11.26720000
_cell_length_b   11.26720000
_cell_length_c   7.33340000
_cell_angle_alpha   90.00000000
_cell_angle_beta   90.00000000
_cell_angle_gamma   101.10900000
_symmetry_Int_Tables_number   1
_chemical_formula_structural   FeC13N8Cl
_chemical_formula_sum   'Fe2 C26 N16 Cl2'
_cell_volume   913.52943115
_cell_formula_units_Z   2
loop_
 _symmetry_equiv_pos_site_id
 _symmetry_equiv_pos_as_xyz
  1  'x, y, z'
loop_
 _atom_site_type_symbol
 _atom_site_label
 _atom_site_symmetry_multiplicity
 _atom_site_fract_x
 _atom_site_fract_y
 _atom_site_fract_z
 _atom_site_occupancy
 _atom_site_charge
Fe  Fe1  1  0.50000000  0.00000000  0.50000000  1.0 0.928189694
Fe  Fe2  1  0.00000000  0.50000000  0.50000000  1.0 0.928189694
C  C1  1  0.31761000  0.87423000  0.16875000  1.0 0.3073647423
C  C2  1  0.68239000  0.12577000  0.16875000  1.0 0.3073647423
C  C3  1  0.87423000  0.31761000  0.83125000  1.0 0.3073647423
C  C4  1  0.12577000  0.68239000  0.83125000  1.0 0.3073647423
C  C5  1  0.68239000  0.12577000  0.83125000  1.0 0.3073647423
C  C6  1  0.31761000  0.87423000  0.83125000  1.0 0.3073647423
C  C7  1  0.12577000  0.68239000  0.16875000  1.0 0.3073647423
C  C8  1  0.87423000  0.31761000  0.16875000  1.0 0.3073647423
C  C9  1  0.26495000  0.82921000  0.00000000  1.0 -0.0264538663
C  C10  1  0.73505000  0.17079000  0.00000000  1.0 -0.0264538663
C  C11  1  0.82921000  0.26495000  0.00000000  1.0 -0.0264538663
C  C12  1  0.17079000  0.73505000  0.00000000  1.0 -0.0264538663
C  C13  1  0.56876000  0.43124000  0.29700000  1.0 0.2318380466
C  C14  1  0.43124000  0.56876000  0.29700000  1.0 0.2318380466
C  C15  1  0.43124000  0.56876000  0.70300000  1.0 0.2318380466
C  C16  1  0.56876000  0.43124000  0.70300000  1.0 0.2318380466
C  C17  1  0.53938000  0.53938000  0.42400000  1.0 0.0369055113
C  C18  1  0.46062000  0.46062000  0.42400000  1.0 0.0369055113
C  C19  1  0.53938000  0.53938000  0.57600000  1.0 0.0369055113
C  C20  1  0.46062000  0.46062000  0.57600000  1.0 0.0369055113
C  C21  1  0.61402000  0.75400000  0.50000000  1.0 0.2061001128
C  C22  1  0.38598000  0.24600000  0.50000000  1.0 0.2061001128
C  C23  1  0.75400000  0.61402000  0.50000000  1.0 0.2061001128
C  C24  1  0.24600000  0.38598000  0.50000000  1.0 0.2061001128
C  C25  1  0.63837000  0.63837000  0.50000000  1.0 -0.0264538663
C  C26  1  0.36163000  0.36163000  0.50000000  1.0 -0.0264538663
N  N1  1  0.37370000  0.91888000  0.28825000  1.0 -0.37065027
N  N2  1  0.62630000  0.08112000  0.28825000  1.0 -0.37065027
N  N3  1  0.91888000  0.37370000  0.71175000  1.0 -0.37065027
N  N4  1  0.08112000  0.62630000  0.71175000  1.0 -0.37065027
N  N5  1  0.62630000  0.08112000  0.71175000  1.0 -0.37065027
N  N6  1  0.37370000  0.91888000  0.71175000  1.0 -0.37065027
N  N7  1  0.08112000  0.62630000  0.28825000  1.0 -0.37065027
N  N8  1  0.91888000  0.37370000  0.28825000  1.0 -0.37065027
N  N9  1  0.62088000  0.37912000  0.22770000  1.0 -0.2339197928
N  N10  1  0.37912000  0.62088000  0.22770000  1.0 -0.2339197928
N  N11  1  0.37912000  0.62088000  0.77230000  1.0 -0.2339197928
N  N12  1  0.62088000  0.37912000  0.77230000  1.0 -0.2339197928
N  N13  1  0.58137000  0.84133000  0.50000000  1.0 -0.330042609
N  N14  1  0.41863000  0.15867000  0.50000000  1.0 -0.330042609
N  N15  1  0.84133000  0.58137000  0.50000000  1.0 -0.330042609
N  N16  1  0.15867000  0.41863000  0.50000000  1.0 -0.330042609
Cl  Cl1  1  0.77130000  0.77130000  0.00000000  1.0 -0.4174485216
Cl  Cl2  1  0.22870000  0.22870000  0.00000000  1.0 -0.4174485216
