# DDEC6 charges by PACMAN v1.1 (https://github.com/mtap-research/PACMAN-charge/)
data_LEYBEZ_ASR_pacman
_symmetry_space_group_name_H-M   'P 1'
_cell_length_a   23.42470000
_cell_length_b   23.42470000
_cell_length_c   23.42470000
_cell_angle_alpha   109.47100000
_cell_angle_beta   109.47100000
_cell_angle_gamma   109.47100000
_symmetry_Int_Tables_number   1
_chemical_formula_structural   Ni3H20(C9O4)4
_chemical_formula_sum   'Ni18 H120 C216 O96'
_cell_volume   9894.72593582
_cell_formula_units_Z   6
loop_
 _symmetry_equiv_pos_site_id
 _symmetry_equiv_pos_as_xyz
  1  'x, y, z'
loop_
 _atom_site_type_symbol
 _atom_site_label
 _atom_site_symmetry_multiplicity
 _atom_site_fract_x
 _atom_site_fract_y
 _atom_site_fract_z
 _atom_site_occupancy
 _atom_site_charge
Ni  Ni1  1  0.66679000  0.50000000  0.16679000  1.0 1.0062799732
Ni  Ni2  1  0.33321000  0.50000000  0.83321000  1.0 1.0062799732
Ni  Ni3  1  0.50000000  0.16679000  0.66679000  1.0 1.0062799732
Ni  Ni4  1  0.50000000  0.83321000  0.33321000  1.0 1.0062799732
Ni  Ni5  1  0.83321000  0.33321000  0.50000000  1.0 1.0062799732
Ni  Ni6  1  0.16679000  0.66679000  0.50000000  1.0 1.0062799732
Ni  Ni7  1  0.55425000  0.44268000  0.99693000  1.0 0.8498950482
Ni  Ni8  1  0.44575000  0.55732000  0.00307000  1.0 0.8498950482
Ni  Ni9  1  0.44575000  0.44268000  0.88843000  1.0 0.8498950482
Ni  Ni10  1  0.55425000  0.55732000  0.11157000  1.0 0.8498950482
Ni  Ni11  1  0.55732000  0.11157000  0.55425000  1.0 0.8498950482
Ni  Ni12  1  0.44268000  0.88843000  0.44575000  1.0 0.8498950482
Ni  Ni13  1  0.55732000  0.00307000  0.44575000  1.0 0.8498950482
Ni  Ni14  1  0.44268000  0.99693000  0.55425000  1.0 0.8498950482
Ni  Ni15  1  0.88843000  0.44575000  0.44268000  1.0 0.8498950482
Ni  Ni16  1  0.11157000  0.55425000  0.55732000  1.0 0.8498950482
Ni  Ni17  1  0.99693000  0.55425000  0.44268000  1.0 0.8498950482
Ni  Ni18  1  0.00307000  0.44575000  0.55732000  1.0 0.8498950482
H  H1  1  0.83660000  0.51560000  0.13060000  1.0 0.1309189936
H  H2  1  0.92750000  0.53590000  0.11040000  1.0 0.1196567363
H  H3  1  0.01910000  0.62020000  0.11330000  1.0 0.1119040852
H  H4  1  0.81540000  0.54320000  0.93780000  1.0 0.1309189936
H  H5  1  0.72160000  0.50750000  0.95270000  1.0 0.1309189936
H  H6  1  0.38500000  0.70600000  0.86940000  1.0 0.1309189936
H  H7  1  0.42550000  0.81710000  0.88960000  1.0 0.1196567363
H  H8  1  0.50690000  0.90580000  0.88670000  1.0 0.1119040852
H  H9  1  0.60540000  0.87760000  0.06220000  1.0 0.1309189936
H  H10  1  0.55480000  0.76890000  0.04730000  1.0 0.1309189936
H  H11  1  0.16340000  0.29400000  0.67900000  1.0 0.1309189936
H  H12  1  0.07250000  0.18290000  0.60840000  1.0 0.1196567363
H  H13  1  0.98090000  0.09420000  0.60110000  1.0 0.1119040852
H  H14  1  0.18460000  0.12240000  0.72780000  1.0 0.1309189936
H  H15  1  0.27840000  0.23110000  0.78590000  1.0 0.1309189936
H  H16  1  0.61500000  0.48440000  0.32100000  1.0 0.1309189936
H  H17  1  0.57450000  0.46410000  0.39160000  1.0 0.1196567363
H  H18  1  0.49310000  0.37980000  0.39890000  1.0 0.1119040852
H  H19  1  0.39460000  0.45680000  0.27220000  1.0 0.1309189936
H  H20  1  0.44520000  0.49250000  0.21410000  1.0 0.1309189936
H  H21  1  0.48440000  0.32100000  0.61500000  1.0 0.1309189936
H  H22  1  0.46410000  0.39160000  0.57450000  1.0 0.1196567363
H  H23  1  0.37980000  0.39890000  0.49310000  1.0 0.1119040852
H  H24  1  0.45680000  0.27220000  0.39460000  1.0 0.1309189936
H  H25  1  0.49250000  0.21410000  0.44520000  1.0 0.1309189936
H  H26  1  0.29400000  0.67900000  0.16340000  1.0 0.1309189936
H  H27  1  0.18290000  0.60840000  0.07250000  1.0 0.1196567363
H  H28  1  0.09420000  0.60110000  0.98090000  1.0 0.1119040852
H  H29  1  0.12240000  0.72780000  0.18460000  1.0 0.1309189936
H  H30  1  0.23110000  0.78590000  0.27840000  1.0 0.1309189936
H  H31  1  0.70600000  0.86940000  0.38500000  1.0 0.1309189936
H  H32  1  0.81710000  0.88960000  0.42550000  1.0 0.1196567363
H  H33  1  0.90580000  0.88670000  0.50690000  1.0 0.1119040852
H  H34  1  0.87760000  0.06220000  0.60540000  1.0 0.1309189936
H  H35  1  0.76890000  0.04730000  0.55480000  1.0 0.1309189936
H  H36  1  0.51560000  0.13060000  0.83660000  1.0 0.1309189936
H  H37  1  0.53590000  0.11040000  0.92750000  1.0 0.1196567363
H  H38  1  0.62020000  0.11330000  0.01910000  1.0 0.1119040852
H  H39  1  0.54320000  0.93780000  0.81540000  1.0 0.1309189936
H  H40  1  0.50750000  0.95270000  0.72160000  1.0 0.1309189936
H  H41  1  0.67900000  0.16340000  0.29400000  1.0 0.1309189936
H  H42  1  0.60840000  0.07250000  0.18290000  1.0 0.1196567363
H  H43  1  0.60110000  0.98090000  0.09420000  1.0 0.1119040852
H  H44  1  0.72780000  0.18460000  0.12240000  1.0 0.1309189936
H  H45  1  0.78590000  0.27840000  0.23110000  1.0 0.1309189936
H  H46  1  0.32100000  0.61500000  0.48440000  1.0 0.1309189936
H  H47  1  0.39160000  0.57450000  0.46410000  1.0 0.1196567363
H  H48  1  0.39890000  0.49310000  0.37980000  1.0 0.1119040852
H  H49  1  0.27220000  0.39460000  0.45680000  1.0 0.1309189936
H  H50  1  0.21410000  0.44520000  0.49250000  1.0 0.1309189936
H  H51  1  0.13060000  0.83660000  0.51560000  1.0 0.1309189936
H  H52  1  0.11040000  0.92750000  0.53590000  1.0 0.1196567363
H  H53  1  0.11330000  0.01910000  0.62020000  1.0 0.1119040852
H  H54  1  0.93780000  0.81540000  0.54320000  1.0 0.1309189936
H  H55  1  0.95270000  0.72160000  0.50750000  1.0 0.1309189936
H  H56  1  0.86940000  0.38500000  0.70600000  1.0 0.1309189936
H  H57  1  0.88960000  0.42550000  0.81710000  1.0 0.1196567363
H  H58  1  0.88670000  0.50690000  0.90580000  1.0 0.1119040852
H  H59  1  0.06220000  0.60540000  0.87760000  1.0 0.1309189936
H  H60  1  0.04730000  0.55480000  0.76890000  1.0 0.1309189936
H  H61  1  0.16340000  0.48440000  0.86940000  1.0 0.1309189936
H  H62  1  0.07250000  0.46410000  0.88960000  1.0 0.1196567363
H  H63  1  0.98090000  0.37980000  0.88670000  1.0 0.1119040852
H  H64  1  0.18460000  0.45680000  0.06220000  1.0 0.1309189936
H  H65  1  0.27840000  0.49250000  0.04730000  1.0 0.1309189936
H  H66  1  0.61500000  0.29400000  0.13060000  1.0 0.1309189936
H  H67  1  0.57450000  0.18290000  0.11040000  1.0 0.1196567363
H  H68  1  0.49310000  0.09420000  0.11330000  1.0 0.1119040852
H  H69  1  0.39460000  0.12240000  0.93780000  1.0 0.1309189936
H  H70  1  0.44520000  0.23110000  0.95270000  1.0 0.1309189936
H  H71  1  0.83660000  0.70600000  0.32100000  1.0 0.1309189936
H  H72  1  0.92750000  0.81710000  0.39160000  1.0 0.1196567363
H  H73  1  0.01910000  0.90580000  0.39890000  1.0 0.1119040852
H  H74  1  0.81540000  0.87760000  0.27220000  1.0 0.1309189936
H  H75  1  0.72160000  0.76890000  0.21410000  1.0 0.1309189936
H  H76  1  0.38500000  0.51560000  0.67900000  1.0 0.1309189936
H  H77  1  0.42550000  0.53590000  0.60840000  1.0 0.1196567363
H  H78  1  0.50690000  0.62020000  0.60110000  1.0 0.1119040852
H  H79  1  0.60540000  0.54320000  0.72780000  1.0 0.1309189936
H  H80  1  0.55480000  0.50750000  0.78590000  1.0 0.1309189936
H  H81  1  0.51560000  0.67900000  0.38500000  1.0 0.1309189936
H  H82  1  0.53590000  0.60840000  0.42550000  1.0 0.1196567363
H  H83  1  0.62020000  0.60110000  0.50690000  1.0 0.1119040852
H  H84  1  0.54320000  0.72780000  0.60540000  1.0 0.1309189936
H  H85  1  0.50750000  0.78590000  0.55480000  1.0 0.1309189936
H  H86  1  0.70600000  0.32100000  0.83660000  1.0 0.1309189936
H  H87  1  0.81710000  0.39160000  0.92750000  1.0 0.1196567363
H  H88  1  0.90580000  0.39890000  0.01910000  1.0 0.1119040852
H  H89  1  0.87760000  0.27220000  0.81540000  1.0 0.1309189936
H  H90  1  0.76890000  0.21410000  0.72160000  1.0 0.1309189936
H  H91  1  0.29400000  0.13060000  0.61500000  1.0 0.1309189936
H  H92  1  0.18290000  0.11040000  0.57450000  1.0 0.1196567363
H  H93  1  0.09420000  0.11330000  0.49310000  1.0 0.1119040852
H  H94  1  0.12240000  0.93780000  0.39460000  1.0 0.1309189936
H  H95  1  0.23110000  0.95270000  0.44520000  1.0 0.1309189936
H  H96  1  0.48440000  0.86940000  0.16340000  1.0 0.1309189936
H  H97  1  0.46410000  0.88960000  0.07250000  1.0 0.1196567363
H  H98  1  0.37980000  0.88670000  0.98090000  1.0 0.1119040852
H  H99  1  0.45680000  0.06220000  0.18460000  1.0 0.1309189936
H  H100  1  0.49250000  0.04730000  0.27840000  1.0 0.1309189936
H  H101  1  0.32100000  0.83660000  0.70600000  1.0 0.1309189936
H  H102  1  0.39160000  0.92750000  0.81710000  1.0 0.1196567363
H  H103  1  0.39890000  0.01910000  0.90580000  1.0 0.1119040852
H  H104  1  0.27220000  0.81540000  0.87760000  1.0 0.1309189936
H  H105  1  0.21410000  0.72160000  0.76890000  1.0 0.1309189936
H  H106  1  0.67900000  0.38500000  0.51560000  1.0 0.1309189936
H  H107  1  0.60840000  0.42550000  0.53590000  1.0 0.1196567363
H  H108  1  0.60110000  0.50690000  0.62020000  1.0 0.1119040852
H  H109  1  0.72780000  0.60540000  0.54320000  1.0 0.1309189936
H  H110  1  0.78590000  0.55480000  0.50750000  1.0 0.1309189936
H  H111  1  0.86940000  0.16340000  0.48440000  1.0 0.1309189936
H  H112  1  0.88960000  0.07250000  0.46410000  1.0 0.1196567363
H  H113  1  0.88670000  0.98090000  0.37980000  1.0 0.1119040852
H  H114  1  0.06220000  0.18460000  0.45680000  1.0 0.1309189936
H  H115  1  0.04730000  0.27840000  0.49250000  1.0 0.1309189936
H  H116  1  0.13060000  0.61500000  0.29400000  1.0 0.1309189936
H  H117  1  0.11040000  0.57450000  0.18290000  1.0 0.1196567363
H  H118  1  0.11330000  0.49310000  0.09420000  1.0 0.1119040852
H  H119  1  0.93780000  0.39460000  0.12240000  1.0 0.1309189936
H  H120  1  0.95270000  0.44520000  0.23110000  1.0 0.1309189936
C  C1  1  0.70850000  0.49580000  0.05930000  1.0 0.4819398801
C  C2  1  0.83190000  0.51890000  0.09020000  1.0 -0.0677691932
C  C3  1  0.94120000  0.55470000  0.01050000  1.0 0.0735128815
C  C4  1  0.88650000  0.53250000  0.07940000  1.0 -0.1537071268
C  C5  1  0.01170000  0.59930000  0.06720000  1.0 -0.1961797049
C  C6  1  0.81830000  0.53460000  0.97530000  1.0 -0.1339190821
C  C7  1  0.88300000  0.54140000  0.02320000  1.0 0.0794248965
C  C8  1  0.77130000  0.50980000  0.04670000  1.0 -0.0317804441
C  C9  1  0.76500000  0.51640000  0.98560000  1.0 -0.0876815811
C  C10  1  0.43650000  0.64920000  0.94070000  1.0 0.4819398801
C  C11  1  0.42870000  0.74170000  0.90980000  1.0 -0.0677691932
C  C12  1  0.54420000  0.93070000  0.98950000  1.0 0.0735128815
C  C13  1  0.45310000  0.80710000  0.92060000  1.0 -0.1537071268
C  C14  1  0.53210000  0.94450000  0.93280000  1.0 -0.1961797049
C  C15  1  0.55930000  0.84300000  0.02470000  1.0 -0.1339190821
C  C16  1  0.51820000  0.85980000  0.97680000  1.0 0.0794248965
C  C17  1  0.46310000  0.72460000  0.95330000  1.0 -0.0317804441
C  C18  1  0.53080000  0.77940000  0.01440000  1.0 -0.0876815811
C  C19  1  0.29150000  0.35080000  0.78730000  1.0 0.4819398801
C  C20  1  0.16810000  0.25830000  0.68700000  1.0 -0.0677691932
C  C21  1  0.05880000  0.06930000  0.61350000  1.0 0.0735128815
C  C22  1  0.11350000  0.19290000  0.64600000  1.0 -0.1537071268
C  C23  1  0.98830000  0.05550000  0.58760000  1.0 -0.1961797049
C  C24  1  0.18170000  0.15700000  0.71630000  1.0 -0.1339190821
C  C25  1  0.11700000  0.14020000  0.65840000  1.0 0.0794248965
C  C26  1  0.22870000  0.27540000  0.73850000  1.0 -0.0317804441
C  C27  1  0.23500000  0.22060000  0.75140000  1.0 -0.0876815811
C  C28  1  0.56350000  0.50420000  0.21270000  1.0 0.4819398801
C  C29  1  0.57130000  0.48110000  0.31300000  1.0 -0.0677691932
C  C30  1  0.45580000  0.44530000  0.38650000  1.0 0.0735128815
C  C31  1  0.54690000  0.46750000  0.35400000  1.0 -0.1537071268
C  C32  1  0.46790000  0.40070000  0.41240000  1.0 -0.1961797049
C  C33  1  0.44070000  0.46540000  0.28370000  1.0 -0.1339190821
C  C34  1  0.48180000  0.45860000  0.34160000  1.0 0.0794248965
C  C35  1  0.53690000  0.49020000  0.26150000  1.0 -0.0317804441
C  C36  1  0.46920000  0.48360000  0.24860000  1.0 -0.0876815811
C  C37  1  0.50420000  0.21270000  0.56350000  1.0 0.4819398801
C  C38  1  0.48110000  0.31300000  0.57130000  1.0 -0.0677691932
C  C39  1  0.44530000  0.38650000  0.45580000  1.0 0.0735128815
C  C40  1  0.46750000  0.35400000  0.54690000  1.0 -0.1537071268
C  C41  1  0.40070000  0.41240000  0.46790000  1.0 -0.1961797049
C  C42  1  0.46540000  0.28370000  0.44070000  1.0 -0.1339190821
C  C43  1  0.45860000  0.34160000  0.48180000  1.0 0.0794248965
C  C44  1  0.49020000  0.26150000  0.53690000  1.0 -0.0317804441
C  C45  1  0.48360000  0.24860000  0.46920000  1.0 -0.0876815811
C  C46  1  0.35080000  0.78730000  0.29150000  1.0 0.4819398801
C  C47  1  0.25830000  0.68700000  0.16810000  1.0 -0.0677691932
C  C48  1  0.06930000  0.61350000  0.05880000  1.0 0.0735128815
C  C49  1  0.19290000  0.64600000  0.11350000  1.0 -0.1537071268
C  C50  1  0.05550000  0.58760000  0.98830000  1.0 -0.1961797049
C  C51  1  0.15700000  0.71630000  0.18170000  1.0 -0.1339190821
C  C52  1  0.14020000  0.65840000  0.11700000  1.0 0.0794248965
C  C53  1  0.27540000  0.73850000  0.22870000  1.0 -0.0317804441
C  C54  1  0.22060000  0.75140000  0.23500000  1.0 -0.0876815811
C  C55  1  0.64920000  0.94070000  0.43650000  1.0 0.4819398801
C  C56  1  0.74170000  0.90980000  0.42870000  1.0 -0.0677691932
C  C57  1  0.93070000  0.98950000  0.54420000  1.0 0.0735128815
C  C58  1  0.80710000  0.92060000  0.45310000  1.0 -0.1537071268
C  C59  1  0.94450000  0.93280000  0.53210000  1.0 -0.1961797049
C  C60  1  0.84300000  0.02470000  0.55930000  1.0 -0.1339190821
C  C61  1  0.85980000  0.97680000  0.51820000  1.0 0.0794248965
C  C62  1  0.72460000  0.95330000  0.46310000  1.0 -0.0317804441
C  C63  1  0.77940000  0.01440000  0.53080000  1.0 -0.0876815811
C  C64  1  0.49580000  0.05930000  0.70850000  1.0 0.4819398801
C  C65  1  0.51890000  0.09020000  0.83190000  1.0 -0.0677691932
C  C66  1  0.55470000  0.01050000  0.94120000  1.0 0.0735128815
C  C67  1  0.53250000  0.07940000  0.88650000  1.0 -0.1537071268
C  C68  1  0.59930000  0.06720000  0.01170000  1.0 -0.1961797049
C  C69  1  0.53460000  0.97530000  0.81830000  1.0 -0.1339190821
C  C70  1  0.54140000  0.02320000  0.88300000  1.0 0.0794248965
C  C71  1  0.50980000  0.04670000  0.77130000  1.0 -0.0317804441
C  C72  1  0.51640000  0.98560000  0.76500000  1.0 -0.0876815811
C  C73  1  0.78730000  0.29150000  0.35080000  1.0 0.4819398801
C  C74  1  0.68700000  0.16810000  0.25830000  1.0 -0.0677691932
C  C75  1  0.61350000  0.05880000  0.06930000  1.0 0.0735128815
C  C76  1  0.64600000  0.11350000  0.19290000  1.0 -0.1537071268
C  C77  1  0.58760000  0.98830000  0.05550000  1.0 -0.1961797049
C  C78  1  0.71630000  0.18170000  0.15700000  1.0 -0.1339190821
C  C79  1  0.65840000  0.11700000  0.14020000  1.0 0.0794248965
C  C80  1  0.73850000  0.22870000  0.27540000  1.0 -0.0317804441
C  C81  1  0.75140000  0.23500000  0.22060000  1.0 -0.0876815811
C  C82  1  0.21270000  0.56350000  0.50420000  1.0 0.4819398801
C  C83  1  0.31300000  0.57130000  0.48110000  1.0 -0.0677691932
C  C84  1  0.38650000  0.45580000  0.44530000  1.0 0.0735128815
C  C85  1  0.35400000  0.54690000  0.46750000  1.0 -0.1537071268
C  C86  1  0.41240000  0.46790000  0.40070000  1.0 -0.1961797049
C  C87  1  0.28370000  0.44070000  0.46540000  1.0 -0.1339190821
C  C88  1  0.34160000  0.48180000  0.45860000  1.0 0.0794248965
C  C89  1  0.26150000  0.53690000  0.49020000  1.0 -0.0317804441
C  C90  1  0.24860000  0.46920000  0.48360000  1.0 -0.0876815811
C  C91  1  0.05930000  0.70850000  0.49580000  1.0 0.4819398801
C  C92  1  0.09020000  0.83190000  0.51890000  1.0 -0.0677691932
C  C93  1  0.01050000  0.94120000  0.55470000  1.0 0.0735128815
C  C94  1  0.07940000  0.88650000  0.53250000  1.0 -0.1537071268
C  C95  1  0.06720000  0.01170000  0.59930000  1.0 -0.1961797049
C  C96  1  0.97530000  0.81830000  0.53460000  1.0 -0.1339190821
C  C97  1  0.02320000  0.88300000  0.54140000  1.0 0.0794248965
C  C98  1  0.04670000  0.77130000  0.50980000  1.0 -0.0317804441
C  C99  1  0.98560000  0.76500000  0.51640000  1.0 -0.0876815811
C  C100  1  0.94070000  0.43650000  0.64920000  1.0 0.4819398801
C  C101  1  0.90980000  0.42870000  0.74170000  1.0 -0.0677691932
C  C102  1  0.98950000  0.54420000  0.93070000  1.0 0.0735128815
C  C103  1  0.92060000  0.45310000  0.80710000  1.0 -0.1537071268
C  C104  1  0.93280000  0.53210000  0.94450000  1.0 -0.1961797049
C  C105  1  0.02470000  0.55930000  0.84300000  1.0 -0.1339190821
C  C106  1  0.97680000  0.51820000  0.85980000  1.0 0.0794248965
C  C107  1  0.95330000  0.46310000  0.72460000  1.0 -0.0317804441
C  C108  1  0.01440000  0.53080000  0.77940000  1.0 -0.0876815811
C  C109  1  0.29150000  0.50420000  0.94070000  1.0 0.4819398801
C  C110  1  0.16810000  0.48110000  0.90980000  1.0 -0.0677691932
C  C111  1  0.05880000  0.44530000  0.98950000  1.0 0.0735128815
C  C112  1  0.11350000  0.46750000  0.92060000  1.0 -0.1537071268
C  C113  1  0.98830000  0.40070000  0.93280000  1.0 -0.1961797049
C  C114  1  0.18170000  0.46540000  0.02470000  1.0 -0.1339190821
C  C115  1  0.11700000  0.45860000  0.97680000  1.0 0.0794248965
C  C116  1  0.22870000  0.49020000  0.95330000  1.0 -0.0317804441
C  C117  1  0.23500000  0.48360000  0.01440000  1.0 -0.0876815811
C  C118  1  0.56350000  0.35080000  0.05930000  1.0 0.4819398801
C  C119  1  0.57130000  0.25830000  0.09020000  1.0 -0.0677691932
C  C120  1  0.45580000  0.06930000  0.01050000  1.0 0.0735128815
C  C121  1  0.54690000  0.19290000  0.07940000  1.0 -0.1537071268
C  C122  1  0.46790000  0.05550000  0.06720000  1.0 -0.1961797049
C  C123  1  0.44070000  0.15700000  0.97530000  1.0 -0.1339190821
C  C124  1  0.48180000  0.14020000  0.02320000  1.0 0.0794248965
C  C125  1  0.53690000  0.27540000  0.04670000  1.0 -0.0317804441
C  C126  1  0.46920000  0.22060000  0.98560000  1.0 -0.0876815811
C  C127  1  0.70850000  0.64920000  0.21270000  1.0 0.4819398801
C  C128  1  0.83190000  0.74170000  0.31300000  1.0 -0.0677691932
C  C129  1  0.94120000  0.93070000  0.38650000  1.0 0.0735128815
C  C130  1  0.88650000  0.80710000  0.35400000  1.0 -0.1537071268
C  C131  1  0.01170000  0.94450000  0.41240000  1.0 -0.1961797049
C  C132  1  0.81830000  0.84300000  0.28370000  1.0 -0.1339190821
C  C133  1  0.88300000  0.85980000  0.34160000  1.0 0.0794248965
C  C134  1  0.77130000  0.72460000  0.26150000  1.0 -0.0317804441
C  C135  1  0.76500000  0.77940000  0.24860000  1.0 -0.0876815811
C  C136  1  0.43650000  0.49580000  0.78730000  1.0 0.4819398801
C  C137  1  0.42870000  0.51890000  0.68700000  1.0 -0.0677691932
C  C138  1  0.54420000  0.55470000  0.61350000  1.0 0.0735128815
C  C139  1  0.45310000  0.53250000  0.64600000  1.0 -0.1537071268
C  C140  1  0.53210000  0.59930000  0.58760000  1.0 -0.1961797049
C  C141  1  0.55930000  0.53460000  0.71630000  1.0 -0.1339190821
C  C142  1  0.51820000  0.54140000  0.65840000  1.0 0.0794248965
C  C143  1  0.46310000  0.50980000  0.73850000  1.0 -0.0317804441
C  C144  1  0.53080000  0.51640000  0.75140000  1.0 -0.0876815811
C  C145  1  0.49580000  0.78730000  0.43650000  1.0 0.4819398801
C  C146  1  0.51890000  0.68700000  0.42870000  1.0 -0.0677691932
C  C147  1  0.55470000  0.61350000  0.54420000  1.0 0.0735128815
C  C148  1  0.53250000  0.64600000  0.45310000  1.0 -0.1537071268
C  C149  1  0.59930000  0.58760000  0.53210000  1.0 -0.1961797049
C  C150  1  0.53460000  0.71630000  0.55930000  1.0 -0.1339190821
C  C151  1  0.54140000  0.65840000  0.51820000  1.0 0.0794248965
C  C152  1  0.50980000  0.73850000  0.46310000  1.0 -0.0317804441
C  C153  1  0.51640000  0.75140000  0.53080000  1.0 -0.0876815811
C  C154  1  0.64920000  0.21270000  0.70850000  1.0 0.4819398801
C  C155  1  0.74170000  0.31300000  0.83190000  1.0 -0.0677691932
C  C156  1  0.93070000  0.38650000  0.94120000  1.0 0.0735128815
C  C157  1  0.80710000  0.35400000  0.88650000  1.0 -0.1537071268
C  C158  1  0.94450000  0.41240000  0.01170000  1.0 -0.1961797049
C  C159  1  0.84300000  0.28370000  0.81830000  1.0 -0.1339190821
C  C160  1  0.85980000  0.34160000  0.88300000  1.0 0.0794248965
C  C161  1  0.72460000  0.26150000  0.77130000  1.0 -0.0317804441
C  C162  1  0.77940000  0.24860000  0.76500000  1.0 -0.0876815811
C  C163  1  0.35080000  0.05930000  0.56350000  1.0 0.4819398801
C  C164  1  0.25830000  0.09020000  0.57130000  1.0 -0.0677691932
C  C165  1  0.06930000  0.01050000  0.45580000  1.0 0.0735128815
C  C166  1  0.19290000  0.07940000  0.54690000  1.0 -0.1537071268
C  C167  1  0.05550000  0.06720000  0.46790000  1.0 -0.1961797049
C  C168  1  0.15700000  0.97530000  0.44070000  1.0 -0.1339190821
C  C169  1  0.14020000  0.02320000  0.48180000  1.0 0.0794248965
C  C170  1  0.27540000  0.04670000  0.53690000  1.0 -0.0317804441
C  C171  1  0.22060000  0.98560000  0.46920000  1.0 -0.0876815811
C  C172  1  0.50420000  0.94070000  0.29150000  1.0 0.4819398801
C  C173  1  0.48110000  0.90980000  0.16810000  1.0 -0.0677691932
C  C174  1  0.44530000  0.98950000  0.05880000  1.0 0.0735128815
C  C175  1  0.46750000  0.92060000  0.11350000  1.0 -0.1537071268
C  C176  1  0.40070000  0.93280000  0.98830000  1.0 -0.1961797049
C  C177  1  0.46540000  0.02470000  0.18170000  1.0 -0.1339190821
C  C178  1  0.45860000  0.97680000  0.11700000  1.0 0.0794248965
C  C179  1  0.49020000  0.95330000  0.22870000  1.0 -0.0317804441
C  C180  1  0.48360000  0.01440000  0.23500000  1.0 -0.0876815811
C  C181  1  0.21270000  0.70850000  0.64920000  1.0 0.4819398801
C  C182  1  0.31300000  0.83190000  0.74170000  1.0 -0.0677691932
C  C183  1  0.38650000  0.94120000  0.93070000  1.0 0.0735128815
C  C184  1  0.35400000  0.88650000  0.80710000  1.0 -0.1537071268
C  C185  1  0.41240000  0.01170000  0.94450000  1.0 -0.1961797049
C  C186  1  0.28370000  0.81830000  0.84300000  1.0 -0.1339190821
C  C187  1  0.34160000  0.88300000  0.85980000  1.0 0.0794248965
C  C188  1  0.26150000  0.77130000  0.72460000  1.0 -0.0317804441
C  C189  1  0.24860000  0.76500000  0.77940000  1.0 -0.0876815811
C  C190  1  0.78730000  0.43650000  0.49580000  1.0 0.4819398801
C  C191  1  0.68700000  0.42870000  0.51890000  1.0 -0.0677691932
C  C192  1  0.61350000  0.54420000  0.55470000  1.0 0.0735128815
C  C193  1  0.64600000  0.45310000  0.53250000  1.0 -0.1537071268
C  C194  1  0.58760000  0.53210000  0.59930000  1.0 -0.1961797049
C  C195  1  0.71630000  0.55930000  0.53460000  1.0 -0.1339190821
C  C196  1  0.65840000  0.51820000  0.54140000  1.0 0.0794248965
C  C197  1  0.73850000  0.46310000  0.50980000  1.0 -0.0317804441
C  C198  1  0.75140000  0.53080000  0.51640000  1.0 -0.0876815811
C  C199  1  0.94070000  0.29150000  0.50420000  1.0 0.4819398801
C  C200  1  0.90980000  0.16810000  0.48110000  1.0 -0.0677691932
C  C201  1  0.98950000  0.05880000  0.44530000  1.0 0.0735128815
C  C202  1  0.92060000  0.11350000  0.46750000  1.0 -0.1537071268
C  C203  1  0.93280000  0.98830000  0.40070000  1.0 -0.1961797049
C  C204  1  0.02470000  0.18170000  0.46540000  1.0 -0.1339190821
C  C205  1  0.97680000  0.11700000  0.45860000  1.0 0.0794248965
C  C206  1  0.95330000  0.22870000  0.49020000  1.0 -0.0317804441
C  C207  1  0.01440000  0.23500000  0.48360000  1.0 -0.0876815811
C  C208  1  0.05930000  0.56350000  0.35080000  1.0 0.4819398801
C  C209  1  0.09020000  0.57130000  0.25830000  1.0 -0.0677691932
C  C210  1  0.01050000  0.45580000  0.06930000  1.0 0.0735128815
C  C211  1  0.07940000  0.54690000  0.19290000  1.0 -0.1537071268
C  C212  1  0.06720000  0.46790000  0.05550000  1.0 -0.1961797049
C  C213  1  0.97530000  0.44070000  0.15700000  1.0 -0.1339190821
C  C214  1  0.02320000  0.48180000  0.14020000  1.0 0.0794248965
C  C215  1  0.04670000  0.53690000  0.27540000  1.0 -0.0317804441
C  C216  1  0.98560000  0.46920000  0.22060000  1.0 -0.0876815811
O  O1  1  0.72190000  0.50040000  0.11790000  1.0 -0.4597180803
O  O2  1  0.67140000  0.52120000  0.03500000  1.0 -0.1599620334
O  O3  1  0.64790000  0.46940000  0.00690000  1.0 -0.1677801204
O  O4  1  0.38250000  0.60400000  0.88210000  1.0 -0.4597180803
O  O5  1  0.48620000  0.63640000  0.96500000  1.0 -0.1599620334
O  O6  1  0.46250000  0.64100000  0.99310000  1.0 -0.1677801204
O  O7  1  0.27810000  0.39600000  0.77850000  1.0 -0.4597180803
O  O8  1  0.32860000  0.36360000  0.84980000  1.0 -0.1599620334
O  O9  1  0.35210000  0.35900000  0.82150000  1.0 -0.1677801204
O  O10  1  0.61750000  0.49960000  0.22150000  1.0 -0.4597180803
O  O11  1  0.51380000  0.47880000  0.15020000  1.0 -0.1599620334
O  O12  1  0.53750000  0.53060000  0.17850000  1.0 -0.1677801204
O  O13  1  0.49960000  0.22150000  0.61750000  1.0 -0.4597180803
O  O14  1  0.47880000  0.15020000  0.51380000  1.0 -0.1599620334
O  O15  1  0.53060000  0.17850000  0.53750000  1.0 -0.1677801204
O  O16  1  0.39600000  0.77850000  0.27810000  1.0 -0.4597180803
O  O17  1  0.36360000  0.84980000  0.32860000  1.0 -0.1599620334
O  O18  1  0.35900000  0.82150000  0.35210000  1.0 -0.1677801204
O  O19  1  0.60400000  0.88210000  0.38250000  1.0 -0.4597180803
O  O20  1  0.63640000  0.96500000  0.48620000  1.0 -0.1599620334
O  O21  1  0.64100000  0.99310000  0.46250000  1.0 -0.1677801204
O  O22  1  0.50040000  0.11790000  0.72190000  1.0 -0.4597180803
O  O23  1  0.52120000  0.03500000  0.67140000  1.0 -0.1599620334
O  O24  1  0.46940000  0.00690000  0.64790000  1.0 -0.1677801204
O  O25  1  0.77850000  0.27810000  0.39600000  1.0 -0.4597180803
O  O26  1  0.84980000  0.32860000  0.36360000  1.0 -0.1599620334
O  O27  1  0.82150000  0.35210000  0.35900000  1.0 -0.1677801204
O  O28  1  0.22150000  0.61750000  0.49960000  1.0 -0.4597180803
O  O29  1  0.15020000  0.51380000  0.47880000  1.0 -0.1599620334
O  O30  1  0.17850000  0.53750000  0.53060000  1.0 -0.1677801204
O  O31  1  0.11790000  0.72190000  0.50040000  1.0 -0.4597180803
O  O32  1  0.03500000  0.67140000  0.52120000  1.0 -0.1599620334
O  O33  1  0.00690000  0.64790000  0.46940000  1.0 -0.1677801204
O  O34  1  0.88210000  0.38250000  0.60400000  1.0 -0.4597180803
O  O35  1  0.96500000  0.48620000  0.63640000  1.0 -0.1599620334
O  O36  1  0.99310000  0.46250000  0.64100000  1.0 -0.1599620334
O  O37  1  0.27810000  0.49960000  0.88210000  1.0 -0.4597180803
O  O38  1  0.32860000  0.47880000  0.96500000  1.0 -0.1599620334
O  O39  1  0.35210000  0.53060000  0.99310000  1.0 -0.1677801204
O  O40  1  0.61750000  0.39600000  0.11790000  1.0 -0.4597180803
O  O41  1  0.51380000  0.36360000  0.03500000  1.0 -0.1599620334
O  O42  1  0.53750000  0.35900000  0.00690000  1.0 -0.1677801204
O  O43  1  0.72190000  0.60400000  0.22150000  1.0 -0.4597180803
O  O44  1  0.67140000  0.63640000  0.15020000  1.0 -0.1599620334
O  O45  1  0.64790000  0.64100000  0.17850000  1.0 -0.1677801204
O  O46  1  0.38250000  0.50040000  0.77850000  1.0 -0.4597180803
O  O47  1  0.48620000  0.52120000  0.84980000  1.0 -0.1599620334
O  O48  1  0.46250000  0.46940000  0.82150000  1.0 -0.1677801204
O  O49  1  0.50040000  0.77850000  0.38250000  1.0 -0.4597180803
O  O50  1  0.52120000  0.84980000  0.48620000  1.0 -0.1599620334
O  O51  1  0.46940000  0.82150000  0.46250000  1.0 -0.1677801204
O  O52  1  0.60400000  0.22150000  0.72190000  1.0 -0.4597180803
O  O53  1  0.63640000  0.15020000  0.67140000  1.0 -0.1599620334
O  O54  1  0.64100000  0.17850000  0.64790000  1.0 -0.1599620334
O  O55  1  0.39600000  0.11790000  0.61750000  1.0 -0.4597180803
O  O56  1  0.36360000  0.03500000  0.51380000  1.0 -0.1599620334
O  O57  1  0.35900000  0.00690000  0.53750000  1.0 -0.1677801204
O  O58  1  0.49960000  0.88210000  0.27810000  1.0 -0.4597180803
O  O59  1  0.47880000  0.96500000  0.32860000  1.0 -0.1599620334
O  O60  1  0.53060000  0.99310000  0.35210000  1.0 -0.1677801204
O  O61  1  0.22150000  0.72190000  0.60400000  1.0 -0.4597180803
O  O62  1  0.15020000  0.67140000  0.63640000  1.0 -0.1599620334
O  O63  1  0.17850000  0.64790000  0.64100000  1.0 -0.1677801204
O  O64  1  0.77850000  0.38250000  0.50040000  1.0 -0.4597180803
O  O65  1  0.84980000  0.48620000  0.52120000  1.0 -0.1599620334
O  O66  1  0.82150000  0.46250000  0.46940000  1.0 -0.1677801204
O  O67  1  0.88210000  0.27810000  0.49960000  1.0 -0.4597180803
O  O68  1  0.96500000  0.32860000  0.47880000  1.0 -0.1599620334
O  O69  1  0.99310000  0.35210000  0.53060000  1.0 -0.1677801204
O  O70  1  0.11790000  0.61750000  0.39600000  1.0 -0.4597180803
O  O71  1  0.03500000  0.51380000  0.36360000  1.0 -0.1537071268
O  O72  1  0.00690000  0.53750000  0.35900000  1.0 -0.1677801204
O  O73  1  0.59330000  0.50000000  0.09330000  1.0 -0.7159493486
O  O74  1  0.40670000  0.50000000  0.90670000  1.0 -0.7159493486
O  O75  1  0.50000000  0.09330000  0.59330000  1.0 -0.7159493486
O  O76  1  0.50000000  0.90670000  0.40670000  1.0 -0.7159493486
O  O77  1  0.90670000  0.40670000  0.50000000  1.0 -0.7159493486
O  O78  1  0.09330000  0.59330000  0.50000000  1.0 -0.7159493486
O  O79  1  0.45240000  0.41920000  0.96680000  1.0 -0.3590633194
O  O80  1  0.45240000  0.48560000  0.03320000  1.0 -0.3590633194
O  O81  1  0.54760000  0.51440000  0.96680000  1.0 -0.3590633194
O  O82  1  0.54760000  0.58080000  0.03320000  1.0 -0.3590633194
O  O83  1  0.58080000  0.03320000  0.54760000  1.0 -0.3590633194
O  O84  1  0.51440000  0.96680000  0.54760000  1.0 -0.3590633194
O  O85  1  0.48560000  0.03320000  0.45240000  1.0 -0.3590633194
O  O86  1  0.41920000  0.96680000  0.45240000  1.0 -0.3590633194
O  O87  1  0.96680000  0.54760000  0.51440000  1.0 -0.3590633194
O  O88  1  0.03320000  0.54760000  0.58080000  1.0 -0.3590633194
O  O89  1  0.96680000  0.45240000  0.41920000  1.0 -0.3590633194
O  O90  1  0.03320000  0.45240000  0.48560000  1.0 -0.3590633194
O  O91  1  0.50000000  0.37910000  0.87910000  1.0 -0.4784349719
O  O92  1  0.50000000  0.62090000  0.12090000  1.0 -0.4784349719
O  O93  1  0.62090000  0.12090000  0.50000000  1.0 -0.4784349719
O  O94  1  0.37910000  0.87910000  0.50000000  1.0 -0.4784349719
O  O95  1  0.87910000  0.50000000  0.37910000  1.0 -0.4784349719
O  O96  1  0.12090000  0.50000000  0.62090000  1.0 -0.4784349719
