# DDEC6 charges by PACMAN v1.1 (https://github.com/mtap-research/PACMAN-charge/)
data_LEZJUW_ASR_pacman
_symmetry_space_group_name_H-M   'P 1'
_cell_length_a   28.93700000
_cell_length_b   28.93700000
_cell_length_c   10.69390000
_cell_angle_alpha   90.00000000
_cell_angle_beta   90.00000000
_cell_angle_gamma   120.00000000
_symmetry_Int_Tables_number   1
_chemical_formula_structural   Cu5H47C49(NO4)5
_chemical_formula_sum   'Cu30 H282 C294 N30 O120'
_cell_volume   7754.85637693
_cell_formula_units_Z   6
loop_
 _symmetry_equiv_pos_site_id
 _symmetry_equiv_pos_as_xyz
  1  'x, y, z'
loop_
 _atom_site_type_symbol
 _atom_site_label
 _atom_site_symmetry_multiplicity
 _atom_site_fract_x
 _atom_site_fract_y
 _atom_site_fract_z
 _atom_site_occupancy
 _atom_site_charge
Cu  Cu1  1  0.98394000  0.16773000  0.18235000  1.0 0.7465391739
Cu  Cu2  1  0.83227000  0.81621000  0.18235000  1.0 0.7416601909
Cu  Cu3  1  0.18379000  0.01606000  0.18235000  1.0 0.7416601909
Cu  Cu4  1  0.01606000  0.83227000  0.81765000  1.0 0.7465391739
Cu  Cu5  1  0.16773000  0.18379000  0.81765000  1.0 0.7416601909
Cu  Cu6  1  0.81621000  0.98394000  0.81765000  1.0 0.7416601909
Cu  Cu7  1  0.14707000  0.65046000  0.17633000  1.0 0.4832102878
Cu  Cu8  1  0.34954000  0.49661000  0.17633000  1.0 0.4832102878
Cu  Cu9  1  0.50339000  0.85293000  0.17633000  1.0 0.4832102878
Cu  Cu10  1  0.85293000  0.34954000  0.82367000  1.0 0.4887195809
Cu  Cu11  1  0.65046000  0.50339000  0.82367000  1.0 0.4832102878
Cu  Cu12  1  0.49661000  0.14707000  0.82367000  1.0 0.4832102878
Cu  Cu13  1  0.16294000  0.47808000  0.16651000  1.0 0.2418065427
Cu  Cu14  1  0.52192000  0.68486000  0.16651000  1.0 0.2418065427
Cu  Cu15  1  0.31514000  0.83706000  0.16651000  1.0 0.2418065427
Cu  Cu16  1  0.83706000  0.52192000  0.83349000  1.0 0.2418065427
Cu  Cu17  1  0.47808000  0.31514000  0.83349000  1.0 0.2418065427
Cu  Cu18  1  0.68486000  0.16294000  0.83349000  1.0 0.2418065427
Cu  Cu19  1  0.68437000  0.17100000  0.19115000  1.0 0.5095341884
Cu  Cu20  1  0.82900000  0.51337000  0.19115000  1.0 0.5095341884
Cu  Cu21  1  0.48663000  0.31563000  0.19115000  1.0 0.5095341884
Cu  Cu22  1  0.31563000  0.82900000  0.80885000  1.0 0.5095341884
Cu  Cu23  1  0.17100000  0.48663000  0.80885000  1.0 0.5095341884
Cu  Cu24  1  0.51337000  0.68437000  0.80885000  1.0 0.5095341884
Cu  Cu25  1  0.84344000  0.35373000  0.20434000  1.0 0.3379875206
Cu  Cu26  1  0.64627000  0.48971000  0.20434000  1.0 0.3379875206
Cu  Cu27  1  0.51029000  0.15656000  0.20434000  1.0 0.3379875206
Cu  Cu28  1  0.15656000  0.64627000  0.79566000  1.0 0.3379875206
Cu  Cu29  1  0.35373000  0.51029000  0.79566000  1.0 0.3379875206
Cu  Cu30  1  0.48971000  0.84344000  0.79566000  1.0 0.3379875206
H  H1  1  0.08690000  0.37160000  0.15990000  1.0 0.1398830546
H  H2  1  0.62840000  0.71530000  0.15990000  1.0 0.1398830546
H  H3  1  0.28470000  0.91310000  0.15990000  1.0 0.1398830546
H  H4  1  0.91310000  0.62840000  0.84010000  1.0 0.1398830546
H  H5  1  0.37160000  0.28470000  0.84010000  1.0 0.1398830546
H  H6  1  0.71530000  0.08690000  0.84010000  1.0 0.1398830546
H  H7  1  0.96000000  0.39240000  0.16560000  1.0 0.1559175224
H  H8  1  0.60760000  0.56760000  0.16560000  1.0 0.1559175224
H  H9  1  0.43240000  0.04000000  0.16560000  1.0 0.1559175224
H  H10  1  0.04000000  0.60760000  0.83440000  1.0 0.1559175224
H  H11  1  0.39240000  0.43240000  0.83440000  1.0 0.1559175224
H  H12  1  0.56760000  0.96000000  0.83440000  1.0 0.1559175224
H  H13  1  0.93690000  0.24460000  0.19250000  1.0 0.1559175224
H  H14  1  0.75540000  0.69230000  0.19250000  1.0 0.1559175224
H  H15  1  0.30770000  0.06310000  0.19250000  1.0 0.1559175224
H  H16  1  0.06310000  0.75540000  0.80750000  1.0 0.1559175224
H  H17  1  0.24460000  0.30770000  0.80750000  1.0 0.1559175224
H  H18  1  0.69230000  0.93690000  0.80750000  1.0 0.1559175224
H  H19  1  0.10550000  0.30550000  0.23700000  1.0 0.1199234155
H  H20  1  0.69450000  0.80000000  0.23700000  1.0 0.1199234155
H  H21  1  0.20000000  0.89450000  0.23700000  1.0 0.1199234155
H  H22  1  0.89450000  0.69450000  0.76300000  1.0 0.1199234155
H  H23  1  0.30550000  0.20000000  0.76300000  1.0 0.1199234155
H  H24  1  0.80000000  0.10550000  0.76300000  1.0 0.1199234155
H  H25  1  0.09850000  0.30680000  0.09150000  1.0 0.1305414476
H  H26  1  0.69320000  0.79170000  0.09150000  1.0 0.1305414476
H  H27  1  0.20830000  0.90150000  0.09150000  1.0 0.1305414476
H  H28  1  0.90150000  0.69320000  0.90850000  1.0 0.1305414476
H  H29  1  0.30680000  0.20830000  0.90850000  1.0 0.1305414476
H  H30  1  0.79170000  0.09850000  0.90850000  1.0 0.1305414476
H  H31  1  0.03440000  0.47660000  0.24930000  1.0 0.1115332157
H  H32  1  0.52340000  0.55780000  0.24930000  1.0 0.1115332157
H  H33  1  0.44220000  0.96560000  0.24930000  1.0 0.1115332157
H  H34  1  0.96560000  0.52340000  0.75070000  1.0 0.1115332157
H  H35  1  0.47660000  0.44220000  0.75070000  1.0 0.1115332157
H  H36  1  0.55780000  0.03440000  0.75070000  1.0 0.1115332157
H  H37  1  0.02330000  0.47440000  0.10460000  1.0 0.1305414476
H  H38  1  0.52560000  0.54890000  0.10460000  1.0 0.1305414476
H  H39  1  0.45110000  0.97670000  0.10460000  1.0 0.1305414476
H  H40  1  0.97670000  0.52560000  0.89540000  1.0 0.1305414476
H  H41  1  0.47440000  0.45110000  0.89540000  1.0 0.1305414476
H  H42  1  0.54890000  0.02330000  0.89540000  1.0 0.1305414476
H  H43  1  0.85360000  0.23180000  0.27840000  1.0 0.1199234155
H  H44  1  0.76820000  0.62180000  0.27840000  1.0 0.1199234155
H  H45  1  0.37820000  0.14640000  0.27840000  1.0 0.1199234155
H  H46  1  0.14640000  0.76820000  0.72160000  1.0 0.1199234155
H  H47  1  0.23180000  0.37820000  0.72160000  1.0 0.1199234155
H  H48  1  0.62180000  0.85360000  0.72160000  1.0 0.1199234155
H  H49  1  0.85810000  0.22410000  0.13380000  1.0 0.1199234155
H  H50  1  0.77590000  0.63400000  0.13380000  1.0 0.1199234155
H  H51  1  0.36600000  0.14190000  0.13380000  1.0 0.1199234155
H  H52  1  0.14190000  0.77590000  0.86620000  1.0 0.1199234155
H  H53  1  0.22410000  0.36600000  0.86620000  1.0 0.1199234155
H  H54  1  0.63400000  0.85810000  0.86620000  1.0 0.1199234155
H  H55  1  0.58200000  0.97200000  0.18470000  1.0 0.1496708675
H  H56  1  0.02800000  0.61000000  0.18470000  1.0 0.1496708675
H  H57  1  0.39000000  0.41800000  0.18470000  1.0 0.1496708675
H  H58  1  0.41800000  0.02800000  0.81530000  1.0 0.1496708675
H  H59  1  0.97200000  0.39000000  0.81530000  1.0 0.1496708675
H  H60  1  0.61000000  0.58200000  0.81530000  1.0 0.1496708675
H  H61  1  0.70860000  0.94840000  0.15940000  1.0 0.1802877072
H  H62  1  0.05160000  0.76020000  0.15940000  1.0 0.1802877072
H  H63  1  0.23980000  0.29140000  0.15940000  1.0 0.1802877072
H  H64  1  0.29140000  0.05160000  0.84060000  1.0 0.1802877072
H  H65  1  0.94840000  0.23980000  0.84060000  1.0 0.1802877072
H  H66  1  0.76020000  0.70860000  0.84060000  1.0 0.1802877072
H  H67  1  0.73230000  0.09620000  0.18570000  1.0 0.1398830546
H  H68  1  0.90380000  0.63610000  0.18570000  1.0 0.1398830546
H  H69  1  0.36390000  0.26770000  0.18570000  1.0 0.1398830546
H  H70  1  0.26770000  0.90380000  0.81430000  1.0 0.1398830546
H  H71  1  0.09620000  0.36390000  0.81430000  1.0 0.1398830546
H  H72  1  0.63610000  0.73230000  0.81430000  1.0 0.1398830546
H  H73  1  0.56430000  0.03820000  0.26250000  1.0 0.1199234155
H  H74  1  0.96180000  0.52610000  0.26250000  1.0 0.1199234155
H  H75  1  0.47390000  0.43570000  0.26250000  1.0 0.1199234155
H  H76  1  0.43570000  0.96180000  0.73750000  1.0 0.1199234155
H  H77  1  0.03820000  0.47390000  0.73750000  1.0 0.1199234155
H  H78  1  0.52610000  0.56430000  0.73750000  1.0 0.1199234155
H  H79  1  0.56530000  0.03270000  0.11640000  1.0 0.1199234155
H  H80  1  0.96730000  0.53260000  0.11640000  1.0 0.1199234155
H  H81  1  0.46740000  0.43470000  0.11640000  1.0 0.1199234155
H  H82  1  0.43470000  0.96730000  0.88360000  1.0 0.1199234155
H  H83  1  0.03270000  0.46740000  0.88360000  1.0 0.1199234155
H  H84  1  0.53260000  0.56530000  0.88360000  1.0 0.1199234155
H  H85  1  0.64040000  0.86450000  0.23280000  1.0 0.1199234155
H  H86  1  0.13550000  0.77590000  0.23280000  1.0 0.1199234155
H  H87  1  0.22410000  0.35960000  0.23280000  1.0 0.1199234155
H  H88  1  0.35960000  0.13550000  0.76720000  1.0 0.1199234155
H  H89  1  0.86450000  0.22410000  0.76720000  1.0 0.1199234155
H  H90  1  0.77590000  0.64040000  0.76720000  1.0 0.1199234155
H  H91  1  0.64410000  0.86970000  0.08630000  1.0 0.1305414476
H  H92  1  0.13030000  0.77440000  0.08630000  1.0 0.1305414476
H  H93  1  0.22560000  0.35590000  0.08630000  1.0 0.1305414476
H  H94  1  0.35590000  0.13030000  0.91370000  1.0 0.1305414476
H  H95  1  0.86970000  0.22560000  0.91370000  1.0 0.1305414476
H  H96  1  0.77440000  0.64410000  0.91370000  1.0 0.1305414476
H  H97  1  0.81380000  0.10520000  0.26990000  1.0 0.1199234155
H  H98  1  0.89480000  0.70860000  0.26990000  1.0 0.1199234155
H  H99  1  0.29140000  0.18620000  0.26990000  1.0 0.1199234155
H  H100  1  0.18620000  0.89480000  0.73010000  1.0 0.1199234155
H  H101  1  0.10520000  0.29140000  0.73010000  1.0 0.1199234155
H  H102  1  0.70860000  0.81380000  0.73010000  1.0 0.1199234155
H  H103  1  0.81240000  0.11840000  0.12740000  1.0 0.1305414476
H  H104  1  0.88160000  0.69400000  0.12740000  1.0 0.1305414476
H  H105  1  0.30600000  0.18760000  0.12740000  1.0 0.1305414476
H  H106  1  0.18760000  0.88160000  0.87260000  1.0 0.1305414476
H  H107  1  0.11840000  0.30600000  0.87260000  1.0 0.1305414476
H  H108  1  0.69400000  0.81240000  0.87260000  1.0 0.1305414476
H  H109  1  0.03780000  0.13760000  0.37410000  1.0 0.1115332157
H  H110  1  0.86240000  0.90020000  0.37410000  1.0 0.1115332157
H  H111  1  0.09980000  0.96220000  0.37410000  1.0 0.1115332157
H  H112  1  0.96220000  0.86240000  0.62590000  1.0 0.1115332157
H  H113  1  0.13760000  0.09980000  0.62590000  1.0 0.1115332157
H  H114  1  0.90020000  0.03780000  0.62590000  1.0 0.1115332157
H  H115  1  0.03670000  0.12540000  0.58560000  1.0 0.1305414476
H  H116  1  0.87460000  0.91130000  0.58560000  1.0 0.1305414476
H  H117  1  0.08870000  0.96330000  0.58560000  1.0 0.1305414476
H  H118  1  0.96330000  0.87460000  0.41440000  1.0 0.1305414476
H  H119  1  0.12540000  0.08870000  0.41440000  1.0 0.1305414476
H  H120  1  0.91130000  0.03670000  0.41440000  1.0 0.1305414476
H  H121  1  0.98330000  0.14380000  0.71250000  1.0 0.1305414476
H  H122  1  0.85620000  0.83950000  0.71250000  1.0 0.1305414476
H  H123  1  0.16050000  0.01670000  0.71250000  1.0 0.1305414476
H  H124  1  0.01670000  0.85620000  0.28750000  1.0 0.1305414476
H  H125  1  0.14380000  0.16050000  0.28750000  1.0 0.1305414476
H  H126  1  0.83950000  0.98330000  0.28750000  1.0 0.1305414476
H  H127  1  0.93120000  0.17600000  0.62220000  1.0 0.1305414476
H  H128  1  0.82400000  0.75520000  0.62220000  1.0 0.1305414476
H  H129  1  0.24480000  0.06880000  0.62220000  1.0 0.1305414476
H  H130  1  0.06880000  0.82400000  0.37780000  1.0 0.1305414476
H  H131  1  0.17600000  0.24480000  0.37780000  1.0 0.1305414476
H  H132  1  0.75520000  0.93120000  0.37780000  1.0 0.1305414476
H  H133  1  0.93270000  0.18920000  0.40880000  1.0 0.1199234155
H  H134  1  0.81080000  0.74350000  0.40880000  1.0 0.1199234155
H  H135  1  0.25650000  0.06730000  0.40880000  1.0 0.1199234155
H  H136  1  0.06730000  0.81080000  0.59120000  1.0 0.1199234155
H  H137  1  0.18920000  0.25650000  0.59120000  1.0 0.1199234155
H  H138  1  0.74350000  0.93270000  0.59120000  1.0 0.1199234155
H  H139  1  0.22950000  0.70400000  0.36610000  1.0 0.1199234155
H  H140  1  0.29600000  0.52550000  0.36610000  1.0 0.1199234155
H  H141  1  0.47450000  0.77050000  0.36610000  1.0 0.1199234155
H  H142  1  0.77050000  0.29600000  0.63390000  1.0 0.1199234155
H  H143  1  0.70400000  0.47450000  0.63390000  1.0 0.1199234155
H  H144  1  0.52550000  0.22950000  0.63390000  1.0 0.1199234155
H  H145  1  0.23510000  0.69990000  0.57570000  1.0 0.1199234155
H  H146  1  0.30010000  0.53520000  0.57570000  1.0 0.1199234155
H  H147  1  0.46480000  0.76490000  0.57570000  1.0 0.1199234155
H  H148  1  0.76490000  0.30010000  0.42430000  1.0 0.1199234155
H  H149  1  0.69990000  0.46480000  0.42430000  1.0 0.1199234155
H  H150  1  0.53520000  0.23510000  0.42430000  1.0 0.1199234155
H  H151  1  0.08760000  0.59410000  0.61160000  1.0 0.1199234155
H  H152  1  0.40590000  0.49350000  0.61160000  1.0 0.1199234155
H  H153  1  0.50650000  0.91240000  0.61160000  1.0 0.1199234155
H  H154  1  0.91240000  0.40590000  0.38840000  1.0 0.1199234155
H  H155  1  0.59410000  0.50650000  0.38840000  1.0 0.1199234155
H  H156  1  0.49350000  0.08760000  0.38840000  1.0 0.1199234155
H  H157  1  0.07110000  0.59770000  0.39580000  1.0 0.0991067237
H  H158  1  0.40230000  0.47340000  0.39580000  1.0 0.0991067237
H  H159  1  0.52660000  0.92890000  0.39580000  1.0 0.0991067237
H  H160  1  0.92890000  0.40230000  0.60420000  1.0 0.0991067237
H  H161  1  0.59770000  0.52660000  0.60420000  1.0 0.0991067237
H  H162  1  0.47340000  0.07110000  0.60420000  1.0 0.0991067237
H  H163  1  0.20260000  0.56970000  0.61260000  1.0 0.1199234155
H  H164  1  0.43030000  0.63290000  0.61260000  1.0 0.1199234155
H  H165  1  0.36710000  0.79740000  0.61260000  1.0 0.1199234155
H  H166  1  0.79740000  0.43030000  0.38740000  1.0 0.1199234155
H  H167  1  0.56970000  0.36710000  0.38740000  1.0 0.1199234155
H  H168  1  0.63290000  0.20260000  0.38740000  1.0 0.1199234155
H  H169  1  0.20680000  0.57900000  0.38180000  1.0 0.1115332157
H  H170  1  0.42100000  0.62780000  0.38180000  1.0 0.1115332157
H  H171  1  0.37220000  0.79320000  0.38180000  1.0 0.1115332157
H  H172  1  0.79320000  0.42100000  0.61820000  1.0 0.1115332157
H  H173  1  0.57900000  0.37220000  0.61820000  1.0 0.1115332157
H  H174  1  0.62780000  0.20680000  0.61820000  1.0 0.1115332157
H  H175  1  0.15920000  0.41820000  0.36780000  1.0 0.0991067237
H  H176  1  0.58180000  0.74100000  0.36780000  1.0 0.0991067237
H  H177  1  0.25900000  0.84080000  0.36780000  1.0 0.0991067237
H  H178  1  0.84080000  0.58180000  0.63220000  1.0 0.0991067237
H  H179  1  0.41820000  0.25900000  0.63220000  1.0 0.0991067237
H  H180  1  0.74100000  0.15920000  0.63220000  1.0 0.0991067237
H  H181  1  0.16000000  0.42130000  0.59660000  1.0 0.1199234155
H  H182  1  0.57870000  0.73870000  0.59660000  1.0 0.1199234155
H  H183  1  0.26130000  0.84000000  0.59660000  1.0 0.1199234155
H  H184  1  0.84000000  0.57870000  0.40340000  1.0 0.1199234155
H  H185  1  0.42130000  0.26130000  0.40340000  1.0 0.1199234155
H  H186  1  0.73870000  0.16000000  0.40340000  1.0 0.1199234155
H  H187  1  0.16770000  0.64810000  0.70850000  1.0 0.1305414476
H  H188  1  0.35190000  0.51960000  0.70850000  1.0 0.1305414476
H  H189  1  0.48040000  0.83230000  0.70850000  1.0 0.1305414476
H  H190  1  0.83230000  0.35190000  0.29150000  1.0 0.1305414476
H  H191  1  0.64810000  0.48040000  0.29150000  1.0 0.1305414476
H  H192  1  0.51960000  0.16770000  0.29150000  1.0 0.1305414476
H  H193  1  0.68290000  0.17800000  0.72810000  1.0 0.1199234155
H  H194  1  0.82200000  0.50490000  0.72810000  1.0 0.1199234155
H  H195  1  0.49510000  0.31710000  0.72810000  1.0 0.1199234155
H  H196  1  0.31710000  0.82200000  0.27190000  1.0 0.1199234155
H  H197  1  0.17800000  0.49510000  0.27190000  1.0 0.1199234155
H  H198  1  0.50490000  0.68290000  0.27190000  1.0 0.1199234155
H  H199  1  0.23550000  0.70730000  0.37390000  1.0 0.1199234155
H  H200  1  0.29270000  0.52820000  0.37390000  1.0 0.1199234155
H  H201  1  0.47180000  0.76450000  0.37390000  1.0 0.1199234155
H  H202  1  0.76450000  0.29270000  0.62610000  1.0 0.1199234155
H  H203  1  0.70730000  0.47180000  0.62610000  1.0 0.1199234155
H  H204  1  0.52820000  0.23550000  0.62610000  1.0 0.1199234155
H  H205  1  0.24720000  0.70730000  0.58670000  1.0 0.0904391044
H  H206  1  0.29270000  0.53990000  0.58670000  1.0 0.0904391044
H  H207  1  0.46010000  0.75280000  0.58670000  1.0 0.0904391044
H  H208  1  0.75280000  0.29270000  0.41330000  1.0 0.0904391044
H  H209  1  0.70730000  0.46010000  0.41330000  1.0 0.0904391044
H  H210  1  0.53990000  0.24720000  0.41330000  1.0 0.0904391044
H  H211  1  0.15160000  0.65510000  0.26730000  1.0 0.1305414476
H  H212  1  0.34490000  0.49650000  0.26730000  1.0 0.1305414476
H  H213  1  0.50350000  0.84840000  0.26730000  1.0 0.1305414476
H  H214  1  0.84840000  0.34490000  0.73270000  1.0 0.1305414476
H  H215  1  0.65510000  0.50350000  0.73270000  1.0 0.1305414476
H  H216  1  0.49650000  0.15160000  0.73270000  1.0 0.1305414476
H  H217  1  0.08660000  0.59490000  0.60920000  1.0 0.1199234155
H  H218  1  0.40510000  0.49170000  0.60920000  1.0 0.1199234155
H  H219  1  0.50830000  0.91340000  0.60920000  1.0 0.1199234155
H  H220  1  0.91340000  0.40510000  0.39080000  1.0 0.1199234155
H  H221  1  0.59490000  0.50830000  0.39080000  1.0 0.1199234155
H  H222  1  0.49170000  0.08660000  0.39080000  1.0 0.1199234155
H  H223  1  0.08400000  0.59810000  0.39160000  1.0 0.1115332157
H  H224  1  0.40190000  0.48590000  0.39160000  1.0 0.1115332157
H  H225  1  0.51410000  0.91600000  0.39160000  1.0 0.1115332157
H  H226  1  0.91600000  0.40190000  0.60840000  1.0 0.1115332157
H  H227  1  0.59810000  0.51410000  0.60840000  1.0 0.1115332157
H  H228  1  0.48590000  0.08400000  0.60840000  1.0 0.1115332157
H  H229  1  0.62710000  0.20410000  0.41070000  1.0 0.1199234155
H  H230  1  0.79590000  0.42300000  0.41070000  1.0 0.1199234155
H  H231  1  0.57700000  0.37290000  0.41070000  1.0 0.1199234155
H  H232  1  0.37290000  0.79590000  0.58930000  1.0 0.1199234155
H  H233  1  0.20410000  0.57700000  0.58930000  1.0 0.1199234155
H  H234  1  0.42300000  0.62710000  0.58930000  1.0 0.1199234155
H  H235  1  0.63080000  0.20160000  0.61710000  1.0 0.1199234155
H  H236  1  0.79840000  0.42920000  0.61710000  1.0 0.1199234155
H  H237  1  0.57080000  0.36920000  0.61710000  1.0 0.1199234155
H  H238  1  0.36920000  0.79840000  0.38290000  1.0 0.1199234155
H  H239  1  0.20160000  0.57080000  0.38290000  1.0 0.1199234155
H  H240  1  0.42920000  0.63080000  0.38290000  1.0 0.1199234155
H  H241  1  0.68320000  0.18030000  0.28540000  1.0 0.1305414476
H  H242  1  0.81970000  0.50290000  0.28540000  1.0 0.1305414476
H  H243  1  0.49710000  0.31680000  0.28540000  1.0 0.1305414476
H  H244  1  0.31680000  0.81970000  0.71460000  1.0 0.1305414476
H  H245  1  0.18030000  0.49710000  0.71460000  1.0 0.1305414476
H  H246  1  0.50290000  0.68320000  0.71460000  1.0 0.1305414476
H  H247  1  0.73380000  0.14920000  0.60860000  1.0 0.1115332157
H  H248  1  0.85080000  0.58460000  0.60860000  1.0 0.1115332157
H  H249  1  0.41540000  0.26620000  0.60860000  1.0 0.1115332157
H  H250  1  0.26620000  0.85080000  0.39140000  1.0 0.1115332157
H  H251  1  0.14920000  0.41540000  0.39140000  1.0 0.1115332157
H  H252  1  0.58460000  0.73380000  0.39140000  1.0 0.1115332157
H  H253  1  0.73480000  0.14780000  0.39900000  1.0 0.1115332157
H  H254  1  0.85220000  0.58700000  0.39900000  1.0 0.1115332157
H  H255  1  0.41300000  0.26520000  0.39900000  1.0 0.1115332157
H  H256  1  0.26520000  0.85220000  0.60100000  1.0 0.1115332157
H  H257  1  0.14780000  0.41300000  0.60100000  1.0 0.1115332157
H  H258  1  0.58700000  0.73480000  0.60100000  1.0 0.1115332157
H  H259  1  0.17490000  0.67470000  0.96240000  1.0 0.2889747603
H  H260  1  0.32530000  0.50020000  0.96240000  1.0 0.2889747603
H  H261  1  0.49980000  0.82510000  0.96240000  1.0 0.2889747603
H  H262  1  0.82510000  0.32530000  0.03760000  1.0 0.2889747603
H  H263  1  0.67470000  0.49980000  0.03760000  1.0 0.2889747603
H  H264  1  0.50020000  0.17490000  0.03760000  1.0 0.2889747603
H  H265  1  0.12080000  0.63730000  0.95990000  1.0 0.2964465006
H  H266  1  0.36270000  0.48350000  0.95990000  1.0 0.2964465006
H  H267  1  0.51650000  0.87920000  0.95990000  1.0 0.2964465006
H  H268  1  0.87920000  0.36270000  0.04010000  1.0 0.2964465006
H  H269  1  0.63730000  0.51650000  0.04010000  1.0 0.2964465006
H  H270  1  0.48350000  0.12080000  0.04010000  1.0 0.2964465006
H  H271  1  0.65790000  0.16060000  0.97970000  1.0 0.2728816106
H  H272  1  0.83940000  0.49730000  0.97970000  1.0 0.2728816106
H  H273  1  0.50270000  0.34210000  0.97970000  1.0 0.2728816106
H  H274  1  0.34210000  0.83940000  0.02030000  1.0 0.2728816106
H  H275  1  0.16060000  0.50270000  0.02030000  1.0 0.2728816106
H  H276  1  0.49730000  0.65790000  0.02030000  1.0 0.2728816106
H  H277  1  0.70590000  0.16080000  0.98400000  1.0 0.2801697238
H  H278  1  0.83920000  0.54510000  0.98400000  1.0 0.2801697238
H  H279  1  0.45490000  0.29410000  0.98400000  1.0 0.2801697238
H  H280  1  0.29410000  0.83920000  0.01600000  1.0 0.2801697238
H  H281  1  0.16080000  0.45490000  0.01600000  1.0 0.2801697238
H  H282  1  0.54510000  0.70590000  0.01600000  1.0 0.2801697238
C  C1  1  0.01513000  0.30267000  0.17430000  1.0 0.3227155192
C  C2  1  0.69733000  0.71246000  0.17430000  1.0 0.3227155192
C  C3  1  0.28754000  0.98487000  0.17430000  1.0 0.3227155192
C  C4  1  0.98487000  0.69733000  0.82570000  1.0 0.3227155192
C  C5  1  0.30267000  0.28754000  0.82570000  1.0 0.3227155192
C  C6  1  0.71246000  0.01513000  0.82570000  1.0 0.3227155192
C  C7  1  0.05019000  0.35782000  0.16340000  1.0 -0.3963841217
C  C8  1  0.64218000  0.69237000  0.16340000  1.0 -0.3963841217
C  C9  1  0.30763000  0.94981000  0.16340000  1.0 -0.3963841217
C  C10  1  0.94981000  0.64218000  0.83660000  1.0 -0.3963841217
C  C11  1  0.35782000  0.30763000  0.83660000  1.0 -0.3963841217
C  C12  1  0.69237000  0.05019000  0.83660000  1.0 -0.3963841217
C  C13  1  0.02970000  0.39062000  0.16050000  1.0 0.2964465006
C  C14  1  0.60938000  0.63908000  0.16050000  1.0 0.2964465006
C  C15  1  0.36092000  0.97030000  0.16050000  1.0 0.2964465006
C  C16  1  0.97030000  0.60938000  0.83950000  1.0 0.2964465006
C  C17  1  0.39062000  0.36092000  0.83950000  1.0 0.2964465006
C  C18  1  0.63908000  0.02970000  0.83950000  1.0 0.2964465006
C  C19  1  0.97408000  0.36974000  0.16820000  1.0 -0.3808054146
C  C20  1  0.63026000  0.60434000  0.16820000  1.0 -0.3808054146
C  C21  1  0.39566000  0.02592000  0.16820000  1.0 -0.3808054146
C  C22  1  0.02592000  0.63026000  0.83180000  1.0 -0.3808054146
C  C23  1  0.36974000  0.39566000  0.83180000  1.0 -0.3808054146
C  C24  1  0.60434000  0.97408000  0.83180000  1.0 -0.3808054146
C  C25  1  0.94165000  0.31551000  0.17720000  1.0 0.2801697238
C  C26  1  0.68449000  0.62614000  0.17720000  1.0 0.2801697238
C  C27  1  0.37386000  0.05835000  0.17720000  1.0 0.2801697238
C  C28  1  0.05835000  0.68449000  0.82280000  1.0 0.2801697238
C  C29  1  0.31551000  0.37386000  0.82280000  1.0 0.2801697238
C  C30  1  0.62614000  0.94165000  0.82280000  1.0 0.2801697238
C  C31  1  0.95972000  0.28117000  0.18380000  1.0 -0.3345340953
C  C32  1  0.71883000  0.67855000  0.18380000  1.0 -0.3345340953
C  C33  1  0.32145000  0.04028000  0.18380000  1.0 -0.3345340953
C  C34  1  0.04028000  0.71883000  0.81620000  1.0 -0.3345340953
C  C35  1  0.28117000  0.32145000  0.81620000  1.0 -0.3345340953
C  C36  1  0.67855000  0.95972000  0.81620000  1.0 -0.3345340953
C  C37  1  0.08590000  0.28422000  0.16510000  1.0 -0.1807156462
C  C38  1  0.71578000  0.80168000  0.16510000  1.0 -0.1807156462
C  C39  1  0.19832000  0.91410000  0.16510000  1.0 -0.1807156462
C  C40  1  0.91410000  0.71578000  0.83490000  1.0 -0.1807156462
C  C41  1  0.28422000  0.19832000  0.83490000  1.0 -0.1807156462
C  C42  1  0.80168000  0.08590000  0.83490000  1.0 -0.1807156462
C  C43  1  0.09653000  0.23928000  0.14770000  1.0 0.5850205405
C  C44  1  0.76072000  0.85725000  0.14770000  1.0 0.5850205405
C  C45  1  0.14275000  0.90347000  0.14770000  1.0 0.5850205405
C  C46  1  0.90347000  0.76072000  0.85230000  1.0 0.5850205405
C  C47  1  0.23928000  0.14275000  0.85230000  1.0 0.5850205405
C  C48  1  0.85725000  0.09653000  0.85230000  1.0 0.5850205405
C  C49  1  0.04998000  0.48011000  0.16700000  1.0 -0.1591885181
C  C50  1  0.51989000  0.56987000  0.16700000  1.0 -0.1591885181
C  C51  1  0.43013000  0.95002000  0.16700000  1.0 -0.1591885181
C  C52  1  0.95002000  0.51989000  0.83300000  1.0 -0.1591885181
C  C53  1  0.48011000  0.43013000  0.83300000  1.0 -0.1591885181
C  C54  1  0.56987000  0.04998000  0.83300000  1.0 -0.1591885181
C  C55  1  0.09853000  0.53522000  0.15240000  1.0 0.5229176266
C  C56  1  0.46478000  0.56331000  0.15240000  1.0 0.5229176266
C  C57  1  0.43669000  0.90147000  0.15240000  1.0 0.5229176266
C  C58  1  0.90147000  0.46478000  0.84760000  1.0 0.5229176266
C  C59  1  0.53522000  0.43669000  0.84760000  1.0 0.5229176266
C  C60  1  0.56331000  0.09853000  0.84760000  1.0 0.5229176266
C  C61  1  0.85061000  0.24395000  0.19580000  1.0 -0.2009273424
C  C62  1  0.75605000  0.60666000  0.19580000  1.0 -0.2009273424
C  C63  1  0.39334000  0.14939000  0.19580000  1.0 -0.2009273424
C  C64  1  0.14939000  0.75605000  0.80420000  1.0 -0.2009273424
C  C65  1  0.24395000  0.39334000  0.80420000  1.0 -0.2009273424
C  C66  1  0.60666000  0.85061000  0.80420000  1.0 -0.2009273424
C  C67  1  0.79658000  0.23599000  0.17530000  1.0 0.5229176266
C  C68  1  0.76401000  0.56059000  0.17530000  1.0 0.5229176266
C  C69  1  0.43941000  0.20342000  0.17530000  1.0 0.5283784935
C  C70  1  0.20342000  0.76401000  0.82470000  1.0 0.5229176266
C  C71  1  0.23599000  0.43941000  0.82470000  1.0 0.5229176266
C  C72  1  0.56059000  0.79658000  0.82470000  1.0 0.5229176266
C  C73  1  0.65442000  0.03927000  0.18160000  1.0 0.3227155192
C  C74  1  0.96073000  0.61515000  0.18160000  1.0 0.3227155192
C  C75  1  0.38485000  0.34558000  0.18160000  1.0 0.3227155192
C  C76  1  0.34558000  0.96073000  0.81840000  1.0 0.3227155192
C  C77  1  0.03927000  0.38485000  0.81840000  1.0 0.3227155192
C  C78  1  0.61515000  0.65442000  0.81840000  1.0 0.3227155192
C  C79  1  0.61848000  0.98505000  0.17850000  1.0 -0.4152393656
C  C80  1  0.01495000  0.63343000  0.17850000  1.0 -0.4152393656
C  C81  1  0.36657000  0.38152000  0.17850000  1.0 -0.4152393656
C  C82  1  0.38152000  0.01495000  0.82150000  1.0 -0.4152393656
C  C83  1  0.98505000  0.36657000  0.82150000  1.0 -0.4152393656
C  C84  1  0.63343000  0.61848000  0.82150000  1.0 -0.4152393656
C  C85  1  0.63981000  0.95042000  0.16240000  1.0 0.3506773148
C  C86  1  0.04958000  0.68939000  0.16240000  1.0 0.3506773148
C  C87  1  0.31061000  0.36019000  0.16240000  1.0 0.3506773148
C  C88  1  0.36019000  0.04958000  0.83760000  1.0 0.3506773148
C  C89  1  0.95042000  0.31061000  0.83760000  1.0 0.3506773148
C  C90  1  0.68939000  0.63981000  0.83760000  1.0 0.3506773148
C  C91  1  0.69476000  0.97124000  0.16410000  1.0 -0.3518060959
C  C92  1  0.02876000  0.72352000  0.16410000  1.0 -0.3518060959
C  C93  1  0.27648000  0.30524000  0.16410000  1.0 -0.3518060959
C  C94  1  0.30524000  0.02876000  0.83590000  1.0 -0.3518060959
C  C95  1  0.97124000  0.27648000  0.83590000  1.0 -0.3518060959
C  C96  1  0.72352000  0.69476000  0.83590000  1.0 -0.3518060959
C  C97  1  0.72812000  0.02499000  0.16900000  1.0 0.2728816106
C  C98  1  0.97501000  0.70313000  0.16900000  1.0 0.2728816106
C  C99  1  0.29687000  0.27188000  0.16900000  1.0 0.2728816106
C  C100  1  0.27188000  0.97501000  0.83100000  1.0 0.2728816106
C  C101  1  0.02499000  0.29687000  0.83100000  1.0 0.2728816106
C  C102  1  0.70313000  0.72812000  0.83100000  1.0 0.2728816106
C  C103  1  0.70936000  0.05956000  0.17920000  1.0 -0.3808054146
C  C104  1  0.94044000  0.64980000  0.17920000  1.0 -0.3808054146
C  C105  1  0.35020000  0.29064000  0.17920000  1.0 -0.3808054146
C  C106  1  0.29064000  0.94044000  0.82080000  1.0 -0.3808054146
C  C107  1  0.05956000  0.35020000  0.82080000  1.0 -0.3808054146
C  C108  1  0.64980000  0.70936000  0.82080000  1.0 -0.3808054146
C  C109  1  0.58119000  0.05721000  0.18600000  1.0 -0.2009273424
C  C110  1  0.94279000  0.52398000  0.18600000  1.0 -0.2009273424
C  C111  1  0.47602000  0.41881000  0.18600000  1.0 -0.2009273424
C  C112  1  0.41881000  0.94279000  0.81400000  1.0 -0.2009273424
C  C113  1  0.05721000  0.47602000  0.81400000  1.0 -0.2009273424
C  C114  1  0.52398000  0.58119000  0.81400000  1.0 -0.2009273424
C  C115  1  0.57238000  0.10308000  0.16990000  1.0 0.5283784935
C  C116  1  0.89692000  0.46930000  0.16990000  1.0 0.5283784935
C  C117  1  0.53070000  0.42762000  0.16990000  1.0 0.5283784935
C  C118  1  0.42762000  0.89692000  0.83010000  1.0 0.5283784935
C  C119  1  0.10308000  0.53070000  0.83010000  1.0 0.5283784935
C  C120  1  0.46930000  0.57238000  0.83010000  1.0 0.5283784935
C  C121  1  0.62060000  0.86197000  0.15750000  1.0 -0.2108217271
C  C122  1  0.13803000  0.75863000  0.15750000  1.0 -0.2108217271
C  C123  1  0.24137000  0.37940000  0.15750000  1.0 -0.2108217271
C  C124  1  0.37940000  0.13803000  0.84250000  1.0 -0.2108217271
C  C125  1  0.86197000  0.24137000  0.84250000  1.0 -0.2108217271
C  C126  1  0.75863000  0.62060000  0.84250000  1.0 -0.2108217271
C  C127  1  0.57561000  0.80730000  0.14530000  1.0 0.5229176266
C  C128  1  0.19270000  0.76831000  0.14530000  1.0 0.5229176266
C  C129  1  0.23169000  0.42439000  0.14530000  1.0 0.5229176266
C  C130  1  0.42439000  0.19270000  0.85470000  1.0 0.5229176266
C  C131  1  0.80730000  0.23169000  0.85470000  1.0 0.5229176266
C  C132  1  0.76831000  0.57561000  0.85470000  1.0 0.5229176266
C  C133  1  0.81812000  0.09593000  0.18520000  1.0 -0.1398680984
C  C134  1  0.90407000  0.72219000  0.18520000  1.0 -0.1398680984
C  C135  1  0.27781000  0.18188000  0.18520000  1.0 -0.1398680984
C  C136  1  0.18188000  0.90407000  0.81480000  1.0 -0.1398680984
C  C137  1  0.09593000  0.27781000  0.81480000  1.0 -0.1398680984
C  C138  1  0.72219000  0.81812000  0.81480000  1.0 -0.1398680984
C  C139  1  0.87433000  0.10296000  0.16470000  1.0 0.5609523041
C  C140  1  0.89704000  0.77137000  0.16470000  1.0 0.5609523041
C  C141  1  0.22863000  0.12567000  0.16470000  1.0 0.5609523041
C  C142  1  0.12567000  0.89704000  0.83530000  1.0 0.5609523041
C  C143  1  0.10296000  0.22863000  0.83530000  1.0 0.5609523041
C  C144  1  0.77137000  0.87433000  0.83530000  1.0 0.5609523041
C  C145  1  0.01634000  0.14541000  0.42420000  1.0 0.0707915632
C  C146  1  0.85459000  0.87093000  0.42420000  1.0 0.0707915632
C  C147  1  0.12907000  0.98366000  0.42420000  1.0 0.0707915632
C  C148  1  0.98366000  0.85459000  0.57580000  1.0 0.0707915632
C  C149  1  0.14541000  0.12907000  0.57580000  1.0 0.0707915632
C  C150  1  0.87093000  0.01634000  0.57580000  1.0 0.0707915632
C  C151  1  0.01588000  0.13811000  0.54960000  1.0 -0.1398680984
C  C152  1  0.86189000  0.87777000  0.54960000  1.0 -0.1398680984
C  C153  1  0.12223000  0.98412000  0.54960000  1.0 -0.1398680984
C  C154  1  0.98412000  0.86189000  0.45040000  1.0 -0.1398680984
C  C155  1  0.13811000  0.12223000  0.45040000  1.0 -0.1398680984
C  C156  1  0.87777000  0.01588000  0.45040000  1.0 -0.1398680984
C  C157  1  0.98404000  0.14869000  0.62640000  1.0 -0.0246109178
C  C158  1  0.85131000  0.83535000  0.62640000  1.0 -0.0246109178
C  C159  1  0.16465000  0.01596000  0.62640000  1.0 -0.0246109178
C  C160  1  0.01596000  0.85131000  0.37360000  1.0 -0.0246109178
C  C161  1  0.14869000  0.16465000  0.37360000  1.0 -0.0246109178
C  C162  1  0.83535000  0.98404000  0.37360000  1.0 -0.0246109178
C  C163  1  0.95266000  0.16820000  0.57210000  1.0 -0.1239176769
C  C164  1  0.83180000  0.78446000  0.57210000  1.0 -0.1239176769
C  C165  1  0.21554000  0.04734000  0.57210000  1.0 -0.1239176769
C  C166  1  0.04734000  0.83180000  0.42790000  1.0 -0.1239176769
C  C167  1  0.16820000  0.21554000  0.42790000  1.0 -0.1239176769
C  C168  1  0.78446000  0.95266000  0.42790000  1.0 -0.1239176769
C  C169  1  0.95354000  0.17632000  0.44490000  1.0 0.0482632762
C  C170  1  0.82368000  0.77722000  0.44490000  1.0 0.0482632762
C  C171  1  0.22278000  0.04646000  0.44490000  1.0 0.0482632762
C  C172  1  0.04646000  0.82368000  0.55510000  1.0 0.0482632762
C  C173  1  0.17632000  0.22278000  0.55510000  1.0 0.0482632762
C  C174  1  0.77722000  0.95354000  0.55510000  1.0 0.0482632762
C  C175  1  0.20000000  0.68160000  0.41460000  1.0 -0.0713560408
C  C176  1  0.31840000  0.51840000  0.41460000  1.0 -0.0713560408
C  C177  1  0.48160000  0.80000000  0.41460000  1.0 -0.0713560408
C  C178  1  0.80000000  0.31840000  0.58540000  1.0 -0.0713560408
C  C179  1  0.68160000  0.48160000  0.58540000  1.0 -0.0713560408
C  C180  1  0.51840000  0.20000000  0.58540000  1.0 -0.0713560408
C  C181  1  0.20220000  0.67830000  0.53780000  1.0 -0.0286868187
C  C182  1  0.32170000  0.52390000  0.53780000  1.0 -0.0286868187
C  C183  1  0.47610000  0.79780000  0.53780000  1.0 -0.0286868187
C  C184  1  0.79780000  0.32170000  0.46220000  1.0 -0.0286868187
C  C185  1  0.67830000  0.47610000  0.46220000  1.0 -0.0286868187
C  C186  1  0.52390000  0.20220000  0.46220000  1.0 -0.0286868187
C  C187  1  0.16420000  0.64890000  0.61930000  1.0 -0.1807156462
C  C188  1  0.35110000  0.51530000  0.61930000  1.0 -0.1807156462
C  C189  1  0.48470000  0.83580000  0.61930000  1.0 -0.1807156462
C  C190  1  0.83580000  0.35110000  0.38070000  1.0 -0.1807156462
C  C191  1  0.64890000  0.48470000  0.38070000  1.0 -0.1807156462
C  C192  1  0.51530000  0.16420000  0.38070000  1.0 -0.1807156462
C  C193  1  0.11710000  0.61650000  0.56320000  1.0 -0.0713560408
C  C194  1  0.38350000  0.50060000  0.56320000  1.0 -0.0713560408
C  C195  1  0.49940000  0.88290000  0.56320000  1.0 -0.0713560408
C  C196  1  0.88290000  0.38350000  0.43680000  1.0 -0.0713560408
C  C197  1  0.61650000  0.49940000  0.43680000  1.0 -0.0713560408
C  C198  1  0.50060000  0.11710000  0.43680000  1.0 -0.0713560408
C  C199  1  0.10400000  0.61930000  0.43370000  1.0 0.0191702517
C  C200  1  0.38070000  0.48470000  0.43370000  1.0 0.0191702517
C  C201  1  0.51530000  0.89600000  0.43370000  1.0 0.0191702517
C  C202  1  0.89600000  0.38070000  0.56630000  1.0 0.0191702517
C  C203  1  0.61930000  0.51530000  0.56630000  1.0 0.0191702517
C  C204  1  0.48470000  0.10400000  0.56630000  1.0 0.0191702517
C  C205  1  0.19270000  0.53830000  0.56880000  1.0 0.0116131354
C  C206  1  0.46170000  0.65440000  0.56880000  1.0 0.0116131354
C  C207  1  0.34560000  0.80730000  0.56880000  1.0 0.0116131354
C  C208  1  0.80730000  0.46170000  0.43120000  1.0 0.0116131354
C  C209  1  0.53830000  0.34560000  0.43120000  1.0 0.0116131354
C  C210  1  0.65440000  0.19270000  0.43120000  1.0 0.0116131354
C  C211  1  0.19680000  0.54750000  0.42500000  1.0 -0.0713560408
C  C212  1  0.45250000  0.64930000  0.42500000  1.0 -0.0713560408
C  C213  1  0.35070000  0.80320000  0.42500000  1.0 -0.0713560408
C  C214  1  0.80320000  0.45250000  0.57500000  1.0 -0.0713560408
C  C215  1  0.54750000  0.35070000  0.57500000  1.0 -0.0713560408
C  C216  1  0.64930000  0.19680000  0.57500000  1.0 -0.0713560408
C  C217  1  0.17790000  0.49500000  0.36170000  1.0 -0.1807156462
C  C218  1  0.50500000  0.68290000  0.36170000  1.0 -0.1807156462
C  C219  1  0.31710000  0.82210000  0.36170000  1.0 -0.1807156462
C  C220  1  0.82210000  0.50500000  0.63830000  1.0 -0.1807156462
C  C221  1  0.49500000  0.31710000  0.63830000  1.0 -0.1807156462
C  C222  1  0.68290000  0.17790000  0.63830000  1.0 -0.1807156462
C  C223  1  0.16910000  0.44960000  0.41160000  1.0 0.0191702517
C  C224  1  0.55040000  0.71950000  0.41160000  1.0 0.0191702517
C  C225  1  0.28050000  0.83090000  0.41160000  1.0 0.0191702517
C  C226  1  0.83090000  0.55040000  0.58840000  1.0 0.0191702517
C  C227  1  0.44960000  0.28050000  0.58840000  1.0 0.0191702517
C  C228  1  0.71950000  0.16910000  0.58840000  1.0 0.0191702517
C  C229  1  0.16990000  0.45270000  0.55340000  1.0 -0.0286868187
C  C230  1  0.54730000  0.71720000  0.55340000  1.0 -0.0286868187
C  C231  1  0.28280000  0.83010000  0.55340000  1.0 -0.0286868187
C  C232  1  0.83010000  0.54730000  0.44660000  1.0 -0.0286868187
C  C233  1  0.45270000  0.28280000  0.44660000  1.0 -0.0286868187
C  C234  1  0.71720000  0.16990000  0.44660000  1.0 -0.0286868187
C  C235  1  0.20600000  0.68480000  0.42240000  1.0 -0.0900365528
C  C236  1  0.31520000  0.52120000  0.42240000  1.0 -0.0900365528
C  C237  1  0.47880000  0.79400000  0.42240000  1.0 -0.0900365528
C  C238  1  0.79400000  0.31520000  0.57760000  1.0 -0.0900365528
C  C239  1  0.68480000  0.47880000  0.57760000  1.0 -0.0900365528
C  C240  1  0.52120000  0.20600000  0.57760000  1.0 -0.0900365528
C  C241  1  0.21430000  0.68570000  0.54890000  1.0 -0.0286868187
C  C242  1  0.31430000  0.52860000  0.54890000  1.0 -0.0286868187
C  C243  1  0.47140000  0.78570000  0.54890000  1.0 -0.0286868187
C  C244  1  0.78570000  0.31430000  0.45110000  1.0 -0.0286868187
C  C245  1  0.68570000  0.47140000  0.45110000  1.0 -0.0286868187
C  C246  1  0.52860000  0.21430000  0.45110000  1.0 -0.0286868187
C  C247  1  0.15500000  0.65400000  0.35600000  1.0 -0.1675586518
C  C248  1  0.34600000  0.50100000  0.35600000  1.0 -0.1675586518
C  C249  1  0.49900000  0.84500000  0.35600000  1.0 -0.1675586518
C  C250  1  0.84500000  0.34600000  0.64400000  1.0 -0.1675586518
C  C251  1  0.65400000  0.49900000  0.64400000  1.0 -0.1675586518
C  C252  1  0.50100000  0.15500000  0.64400000  1.0 -0.1675586518
C  C253  1  0.11600000  0.61740000  0.56070000  1.0 -0.083871627
C  C254  1  0.38260000  0.49860000  0.56070000  1.0 -0.083871627
C  C255  1  0.50140000  0.88400000  0.56070000  1.0 -0.083871627
C  C256  1  0.88400000  0.38260000  0.43930000  1.0 -0.083871627
C  C257  1  0.61740000  0.50140000  0.43930000  1.0 -0.083871627
C  C258  1  0.49860000  0.11600000  0.43930000  1.0 -0.083871627
C  C259  1  0.11690000  0.61970000  0.42940000  1.0 0.0607633574
C  C260  1  0.38030000  0.49720000  0.42940000  1.0 0.0607633574
C  C261  1  0.50280000  0.88310000  0.42940000  1.0 0.0607633574
C  C262  1  0.88310000  0.38030000  0.57060000  1.0 0.0607633574
C  C263  1  0.61970000  0.50280000  0.57060000  1.0 0.0607633574
C  C264  1  0.49720000  0.11690000  0.57060000  1.0 0.0607633574
C  C265  1  0.64850000  0.19410000  0.45420000  1.0 -0.0900365528
C  C266  1  0.80590000  0.45440000  0.45420000  1.0 -0.0900365528
C  C267  1  0.54560000  0.35150000  0.45420000  1.0 -0.0900365528
C  C268  1  0.35150000  0.80590000  0.54580000  1.0 -0.0900365528
C  C269  1  0.19410000  0.54560000  0.54580000  1.0 -0.0900365528
C  C270  1  0.45440000  0.64850000  0.54580000  1.0 -0.0900365528
C  C271  1  0.65220000  0.19170000  0.57360000  1.0 -0.0361976109
C  C272  1  0.80830000  0.46050000  0.57360000  1.0 -0.0361976109
C  C273  1  0.53950000  0.34780000  0.57360000  1.0 -0.0361976109
C  C274  1  0.34780000  0.80830000  0.42640000  1.0 -0.0361976109
C  C275  1  0.19170000  0.53950000  0.42640000  1.0 -0.0361976109
C  C276  1  0.46050000  0.65220000  0.42640000  1.0 -0.0361976109
C  C277  1  0.68320000  0.18040000  0.37500000  1.0 -0.1591885181
C  C278  1  0.81960000  0.50280000  0.37500000  1.0 -0.1591885181
C  C279  1  0.49720000  0.31680000  0.37500000  1.0 -0.1591885181
C  C280  1  0.31680000  0.81960000  0.62500000  1.0 -0.1591885181
C  C281  1  0.18040000  0.49720000  0.62500000  1.0 -0.1591885181
C  C282  1  0.50280000  0.68320000  0.62500000  1.0 -0.1591885181
C  C283  1  0.71230000  0.15910000  0.56520000  1.0 -0.0286868187
C  C284  1  0.84090000  0.55320000  0.56520000  1.0 -0.0286868187
C  C285  1  0.44680000  0.28770000  0.56520000  1.0 -0.0286868187
C  C286  1  0.28770000  0.84090000  0.43480000  1.0 -0.0286868187
C  C287  1  0.15910000  0.44680000  0.43480000  1.0 -0.0286868187
C  C288  1  0.55320000  0.71230000  0.43480000  1.0 -0.0286868187
C  C289  1  0.71340000  0.15780000  0.44250000  1.0 -0.0361976109
C  C290  1  0.84220000  0.55560000  0.44250000  1.0 -0.0361976109
C  C291  1  0.44440000  0.28660000  0.44250000  1.0 -0.0361976109
C  C292  1  0.28660000  0.84220000  0.55750000  1.0 -0.0361976109
C  C293  1  0.15780000  0.44440000  0.55750000  1.0 -0.0361976109
C  C294  1  0.55560000  0.71340000  0.55750000  1.0 -0.0361976109
N  N1  1  0.98633000  0.16410000  0.36870000  1.0 -0.271984395
N  N2  1  0.83590000  0.82223000  0.36870000  1.0 -0.271984395
N  N3  1  0.17777000  0.01367000  0.36870000  1.0 -0.271984395
N  N4  1  0.01367000  0.83590000  0.63130000  1.0 -0.271984395
N  N5  1  0.16410000  0.17777000  0.63130000  1.0 -0.271984395
N  N6  1  0.82223000  0.98633000  0.63130000  1.0 -0.271984395
N  N7  1  0.15380000  0.64880000  0.36500000  1.0 -0.0713560408
N  N8  1  0.35120000  0.50500000  0.36500000  1.0 -0.0713560408
N  N9  1  0.49500000  0.84620000  0.36500000  1.0 -0.0713560408
N  N10  1  0.84620000  0.35120000  0.63500000  1.0 -0.0713560408
N  N11  1  0.64880000  0.49500000  0.63500000  1.0 -0.0713560408
N  N12  1  0.50500000  0.15380000  0.63500000  1.0 -0.0713560408
N  N13  1  0.17960000  0.49600000  0.61960000  1.0 -0.1239176769
N  N14  1  0.50400000  0.68360000  0.61960000  1.0 -0.1239176769
N  N15  1  0.31640000  0.82040000  0.61960000  1.0 -0.1239176769
N  N16  1  0.82040000  0.50400000  0.38040000  1.0 -0.1239176769
N  N17  1  0.49600000  0.31640000  0.38040000  1.0 -0.1239176769
N  N18  1  0.68360000  0.17960000  0.38040000  1.0 -0.1239176769
N  N19  1  0.16560000  0.64920000  0.61560000  1.0 -0.1897906187
N  N20  1  0.35080000  0.51640000  0.61560000  1.0 -0.1897906187
N  N21  1  0.48360000  0.83440000  0.61560000  1.0 -0.1897906187
N  N22  1  0.83440000  0.35080000  0.38440000  1.0 -0.1897906187
N  N23  1  0.64920000  0.48360000  0.38440000  1.0 -0.1897906187
N  N24  1  0.51640000  0.16560000  0.38440000  1.0 -0.1897906187
N  N25  1  0.68380000  0.18060000  0.63870000  1.0 -0.2108217271
N  N26  1  0.81940000  0.50320000  0.63870000  1.0 -0.2108217271
N  N27  1  0.49680000  0.31620000  0.63870000  1.0 -0.2108217271
N  N28  1  0.31620000  0.81940000  0.36130000  1.0 -0.2108217271
N  N29  1  0.18060000  0.49680000  0.36130000  1.0 -0.2108217271
N  N30  1  0.50320000  0.68380000  0.36130000  1.0 -0.2108217271
O  O1  1  0.05891000  0.19242000  0.16830000  1.0 -0.5087597188
O  O2  1  0.80758000  0.86649000  0.16830000  1.0 -0.5087597188
O  O3  1  0.13351000  0.94109000  0.16830000  1.0 -0.5087597188
O  O4  1  0.94109000  0.80758000  0.83170000  1.0 -0.5087597188
O  O5  1  0.19242000  0.13351000  0.83170000  1.0 -0.5087597188
O  O6  1  0.86649000  0.05891000  0.83170000  1.0 -0.5087597188
O  O7  1  0.14312000  0.24976000  0.12480000  1.0 -0.5300777869
O  O8  1  0.75024000  0.89336000  0.12480000  1.0 -0.5300777869
O  O9  1  0.10664000  0.85688000  0.12480000  1.0 -0.5300777869
O  O10  1  0.85688000  0.75024000  0.87520000  1.0 -0.5300777869
O  O11  1  0.24976000  0.10664000  0.87520000  1.0 -0.5300777869
O  O12  1  0.89336000  0.14312000  0.87520000  1.0 -0.5300777869
O  O13  1  0.03154000  0.26547000  0.18210000  1.0 -0.1897906187
O  O14  1  0.73453000  0.76607000  0.18210000  1.0 -0.1897906187
O  O15  1  0.23393000  0.96846000  0.18210000  1.0 -0.1897906187
O  O16  1  0.96846000  0.73453000  0.81790000  1.0 -0.1897906187
O  O17  1  0.26547000  0.23393000  0.81790000  1.0 -0.1897906187
O  O18  1  0.76607000  0.03154000  0.81790000  1.0 -0.1897906187
O  O19  1  0.08864000  0.57470000  0.17440000  1.0 -0.550285957
O  O20  1  0.42530000  0.51394000  0.17440000  1.0 -0.550285957
O  O21  1  0.48606000  0.91136000  0.17440000  1.0 -0.550285957
O  O22  1  0.91136000  0.42530000  0.82560000  1.0 -0.550285957
O  O23  1  0.57470000  0.48606000  0.82560000  1.0 -0.550285957
O  O24  1  0.51394000  0.08864000  0.82560000  1.0 -0.550285957
O  O25  1  0.14252000  0.54276000  0.13190000  1.0 -0.4461006837
O  O26  1  0.45724000  0.59976000  0.13190000  1.0 -0.4461006837
O  O27  1  0.40024000  0.85748000  0.13190000  1.0 -0.4461006837
O  O28  1  0.85748000  0.45724000  0.86810000  1.0 -0.4461006837
O  O29  1  0.54276000  0.40024000  0.86810000  1.0 -0.4461006837
O  O30  1  0.59976000  0.14252000  0.86810000  1.0 -0.4461006837
O  O31  1  0.06657000  0.44360000  0.15190000  1.0 -0.1897906187
O  O32  1  0.55640000  0.62297000  0.15190000  1.0 -0.1897906187
O  O33  1  0.37703000  0.93343000  0.15190000  1.0 -0.1897906187
O  O34  1  0.93343000  0.55640000  0.84810000  1.0 -0.1897906187
O  O35  1  0.44360000  0.37703000  0.84810000  1.0 -0.1897906187
O  O36  1  0.62297000  0.06657000  0.84810000  1.0 -0.1897906187
O  O37  1  0.75940000  0.18716000  0.19500000  1.0 -0.5300777869
O  O38  1  0.81284000  0.57224000  0.19500000  1.0 -0.5300777869
O  O39  1  0.42776000  0.24060000  0.19500000  1.0 -0.5300777869
O  O40  1  0.24060000  0.81284000  0.80500000  1.0 -0.5300777869
O  O41  1  0.18716000  0.42776000  0.80500000  1.0 -0.5300777869
O  O42  1  0.57224000  0.75940000  0.80500000  1.0 -0.5300777869
O  O43  1  0.78796000  0.27185000  0.14999000  1.0 -0.4573218839
O  O44  1  0.72815000  0.51611000  0.14999000  1.0 -0.4573218839
O  O45  1  0.48389000  0.21204000  0.14999000  1.0 -0.4573218839
O  O46  1  0.21204000  0.72815000  0.85001000  1.0 -0.4573218839
O  O47  1  0.27185000  0.48389000  0.85001000  1.0 -0.4573218839
O  O48  1  0.51611000  0.78796000  0.85001000  1.0 -0.4573218839
O  O49  1  0.88739000  0.29977000  0.18160000  1.0 -0.2480267613
O  O50  1  0.70023000  0.58762000  0.18160000  1.0 -0.2480267613
O  O51  1  0.41238000  0.11261000  0.18160000  1.0 -0.2480267613
O  O52  1  0.11261000  0.70023000  0.81840000  1.0 -0.2480267613
O  O53  1  0.29977000  0.41238000  0.81840000  1.0 -0.2480267613
O  O54  1  0.58762000  0.88739000  0.81840000  1.0 -0.2480267613
O  O55  1  0.60900000  0.14906000  0.16770000  1.0 -0.4573218839
O  O56  1  0.85094000  0.45994000  0.16770000  1.0 -0.4573218839
O  O57  1  0.54006000  0.39100000  0.16770000  1.0 -0.4573218839
O  O58  1  0.39100000  0.85094000  0.83230000  1.0 -0.4573218839
O  O59  1  0.14906000  0.54006000  0.83230000  1.0 -0.4573218839
O  O60  1  0.45994000  0.60900000  0.83230000  1.0 -0.4573218839
O  O61  1  0.52404000  0.08786000  0.14870000  1.0 -0.5087597188
O  O62  1  0.91214000  0.43618000  0.14870000  1.0 -0.5087597188
O  O63  1  0.56382000  0.47596000  0.14870000  1.0 -0.5087597188
O  O64  1  0.47596000  0.91214000  0.85130000  1.0 -0.5087597188
O  O65  1  0.08786000  0.56382000  0.85130000  1.0 -0.5087597188
O  O66  1  0.43618000  0.52404000  0.85130000  1.0 -0.5087597188
O  O67  1  0.63671000  0.07518000  0.18990000  1.0 -0.2480267613
O  O68  1  0.92482000  0.56153000  0.18990000  1.0 -0.2480267613
O  O69  1  0.43847000  0.36329000  0.18990000  1.0 -0.2480267613
O  O70  1  0.36329000  0.92482000  0.81010000  1.0 -0.2480267613
O  O71  1  0.07518000  0.43847000  0.81010000  1.0 -0.2480267613
O  O72  1  0.56153000  0.63671000  0.81010000  1.0 -0.2480267613
O  O73  1  0.52760000  0.79876000  0.15410000  1.0 -0.4794641451
O  O74  1  0.20124000  0.72884000  0.15410000  1.0 -0.4794641451
O  O75  1  0.27116000  0.47240000  0.15410000  1.0 -0.4794641451
O  O76  1  0.47240000  0.20124000  0.84590000  1.0 -0.4794641451
O  O77  1  0.79876000  0.27116000  0.84590000  1.0 -0.4794641451
O  O78  1  0.72884000  0.52760000  0.84590000  1.0 -0.4794641451
O  O79  1  0.58209000  0.77022000  0.12970000  1.0 -0.436400892
O  O80  1  0.22978000  0.81187000  0.12970000  1.0 -0.436400892
O  O81  1  0.18813000  0.41791000  0.12970000  1.0 -0.436400892
O  O82  1  0.41791000  0.22978000  0.87030000  1.0 -0.436400892
O  O83  1  0.77022000  0.18813000  0.87030000  1.0 -0.436400892
O  O84  1  0.81187000  0.58209000  0.87030000  1.0 -0.436400892
O  O85  1  0.60295000  0.89933000  0.16222000  1.0 -0.1897906187
O  O86  1  0.10067000  0.70362000  0.16222000  1.0 -0.1897906187
O  O87  1  0.29638000  0.39705000  0.16222000  1.0 -0.1897906187
O  O88  1  0.39705000  0.10067000  0.83778000  1.0 -0.1897906187
O  O89  1  0.89933000  0.29638000  0.83778000  1.0 -0.1897906187
O  O90  1  0.70362000  0.60295000  0.83778000  1.0 -0.1897906187
O  O91  1  0.90942000  0.15072000  0.19170000  1.0 -0.5630345361
O  O92  1  0.84928000  0.75870000  0.19170000  1.0 -0.5630345361
O  O93  1  0.24130000  0.09058000  0.19170000  1.0 -0.5630345361
O  O94  1  0.09058000  0.84928000  0.80830000  1.0 -0.5630345361
O  O95  1  0.15072000  0.24130000  0.80830000  1.0 -0.5630345361
O  O96  1  0.75870000  0.90942000  0.80830000  1.0 -0.5630345361
O  O97  1  0.87969000  0.06752000  0.13520000  1.0 -0.436400892
O  O98  1  0.93248000  0.81217000  0.13520000  1.0 -0.436400892
O  O99  1  0.18783000  0.12031000  0.13520000  1.0 -0.436400892
O  O100  1  0.12031000  0.93248000  0.86480000  1.0 -0.436400892
O  O101  1  0.06752000  0.18783000  0.86480000  1.0 -0.436400892
O  O102  1  0.81217000  0.87969000  0.86480000  1.0 -0.436400892
O  O103  1  0.78261000  0.04270000  0.16060000  1.0 -0.1525706069
O  O104  1  0.95730000  0.73991000  0.16060000  1.0 -0.1525706069
O  O105  1  0.26009000  0.21739000  0.16060000  1.0 -0.1525706069
O  O106  1  0.21739000  0.95730000  0.83940000  1.0 -0.1525706069
O  O107  1  0.04270000  0.26009000  0.83940000  1.0 -0.1525706069
O  O108  1  0.73991000  0.78261000  0.83940000  1.0 -0.1525706069
O  O109  1  0.15077000  0.64505000  0.99170000  1.0 -0.5672148831
O  O110  1  0.35495000  0.50572000  0.99170000  1.0 -0.5672148831
O  O111  1  0.49428000  0.84923000  0.99170000  1.0 -0.5672148831
O  O112  1  0.84923000  0.35495000  0.00830000  1.0 -0.5672148831
O  O113  1  0.64505000  0.49428000  0.00830000  1.0 -0.5672148831
O  O114  1  0.50572000  0.15077000  0.00830000  1.0 -0.5672148831
O  O115  1  0.17600000  0.48686000  0.98950000  1.0 -0.5672148831
O  O116  1  0.51314000  0.68914000  0.98950000  1.0 -0.5672148831
O  O117  1  0.31086000  0.82400000  0.98950000  1.0 -0.5672148831
O  O118  1  0.82400000  0.51314000  0.01050000  1.0 -0.5672148831
O  O119  1  0.48686000  0.31086000  0.01050000  1.0 -0.5672148831
O  O120  1  0.68914000  0.17600000  0.01050000  1.0 -0.5672148831
