# DDEC6 charges by PACMAN v1.1 (https://github.com/mtap-research/PACMAN-charge/)
data_LEZJOQ_ASR_pacman
_symmetry_space_group_name_H-M   'P 1'
_cell_length_a   16.75310000
_cell_length_b   16.75310000
_cell_length_c   10.81110000
_cell_angle_alpha   90.00000000
_cell_angle_beta   90.00000000
_cell_angle_gamma   120.00000000
_symmetry_Int_Tables_number   1
_chemical_formula_structural   Cu2H16C12N2O7
_chemical_formula_sum   'Cu12 H96 C72 N12 O42'
_cell_volume   2627.79134462
_cell_formula_units_Z   6
loop_
 _symmetry_equiv_pos_site_id
 _symmetry_equiv_pos_as_xyz
  1  'x, y, z'
loop_
 _atom_site_type_symbol
 _atom_site_label
 _atom_site_symmetry_multiplicity
 _atom_site_fract_x
 _atom_site_fract_y
 _atom_site_fract_z
 _atom_site_occupancy
 _atom_site_charge
Cu  Cu1  1  0.85044000  0.20332000  0.31982000  1.0 0.2520885341
Cu  Cu2  1  0.79668000  0.64712000  0.31982000  1.0 0.2520885341
Cu  Cu3  1  0.35288000  0.14956000  0.31982000  1.0 0.2520885341
Cu  Cu4  1  0.20332000  0.35288000  0.31982000  1.0 0.2520885341
Cu  Cu5  1  0.64712000  0.85044000  0.31982000  1.0 0.2520885341
Cu  Cu6  1  0.14956000  0.79668000  0.31982000  1.0 0.2520885341
Cu  Cu7  1  0.14956000  0.79668000  0.68018000  1.0 0.2520885341
Cu  Cu8  1  0.20332000  0.35288000  0.68018000  1.0 0.2520885341
Cu  Cu9  1  0.64712000  0.85044000  0.68018000  1.0 0.2520885341
Cu  Cu10  1  0.79668000  0.64712000  0.68018000  1.0 0.2520885341
Cu  Cu11  1  0.35288000  0.14956000  0.68018000  1.0 0.2520885341
Cu  Cu12  1  0.85044000  0.20332000  0.68018000  1.0 0.2520885341
H  H1  1  0.09140000  0.48690000  0.24090000  1.0 0.1199606632
H  H2  1  0.51310000  0.60450000  0.24090000  1.0 0.1199606632
H  H3  1  0.39550000  0.90860000  0.24090000  1.0 0.1199606632
H  H4  1  0.48690000  0.39550000  0.24090000  1.0 0.1199606632
H  H5  1  0.60450000  0.09140000  0.24090000  1.0 0.1199606632
H  H6  1  0.90860000  0.51310000  0.24090000  1.0 0.1199606632
H  H7  1  0.90860000  0.51310000  0.75910000  1.0 0.1199606632
H  H8  1  0.48690000  0.39550000  0.75910000  1.0 0.1199606632
H  H9  1  0.60450000  0.09140000  0.75910000  1.0 0.1199606632
H  H10  1  0.51310000  0.60450000  0.75910000  1.0 0.1199606632
H  H11  1  0.39550000  0.90860000  0.75910000  1.0 0.1199606632
H  H12  1  0.09140000  0.48690000  0.75910000  1.0 0.1199606632
H  H13  1  0.09050000  0.50340000  0.38350000  1.0 0.1199606632
H  H14  1  0.49660000  0.58710000  0.38350000  1.0 0.1199606632
H  H15  1  0.41290000  0.90950000  0.38350000  1.0 0.1199606632
H  H16  1  0.50340000  0.41290000  0.38350000  1.0 0.1199606632
H  H17  1  0.58710000  0.09050000  0.38350000  1.0 0.1199606632
H  H18  1  0.90950000  0.49660000  0.38350000  1.0 0.1199606632
H  H19  1  0.90950000  0.49660000  0.61650000  1.0 0.1199606632
H  H20  1  0.50340000  0.41290000  0.61650000  1.0 0.1199606632
H  H21  1  0.58710000  0.09050000  0.61650000  1.0 0.1199606632
H  H22  1  0.49660000  0.58710000  0.61650000  1.0 0.1199606632
H  H23  1  0.41290000  0.90950000  0.61650000  1.0 0.1199606632
H  H24  1  0.09050000  0.50340000  0.61650000  1.0 0.1199606632
H  H25  1  0.18490000  0.64250000  0.32540000  1.0 0.1414874442
H  H26  1  0.35750000  0.54240000  0.32540000  1.0 0.1414874442
H  H27  1  0.45760000  0.81510000  0.32540000  1.0 0.1414874442
H  H28  1  0.64250000  0.45760000  0.32540000  1.0 0.1414874442
H  H29  1  0.54240000  0.18490000  0.32540000  1.0 0.1414874442
H  H30  1  0.81510000  0.35750000  0.32540000  1.0 0.1414874442
H  H31  1  0.81510000  0.35750000  0.67460000  1.0 0.1414874442
H  H32  1  0.64250000  0.45760000  0.67460000  1.0 0.1414874442
H  H33  1  0.54240000  0.18490000  0.67460000  1.0 0.1414874442
H  H34  1  0.35750000  0.54240000  0.67460000  1.0 0.1414874442
H  H35  1  0.45760000  0.81510000  0.67460000  1.0 0.1414874442
H  H36  1  0.18490000  0.64250000  0.67460000  1.0 0.1414874442
H  H37  1  0.83410000  0.06410000  0.11200000  1.0 0.1199606632
H  H38  1  0.93590000  0.77000000  0.11200000  1.0 0.1199606632
H  H39  1  0.23000000  0.16590000  0.11200000  1.0 0.1199606632
H  H40  1  0.06410000  0.23000000  0.11200000  1.0 0.1199606632
H  H41  1  0.77000000  0.83410000  0.11200000  1.0 0.1199606632
H  H42  1  0.16590000  0.93590000  0.11200000  1.0 0.1199606632
H  H43  1  0.16590000  0.93590000  0.88800000  1.0 0.1199606632
H  H44  1  0.06410000  0.23000000  0.88800000  1.0 0.1199606632
H  H45  1  0.77000000  0.83410000  0.88800000  1.0 0.1199606632
H  H46  1  0.93590000  0.77000000  0.88800000  1.0 0.1199606632
H  H47  1  0.23000000  0.16590000  0.88800000  1.0 0.1199606632
H  H48  1  0.83410000  0.06410000  0.88800000  1.0 0.1199606632
H  H49  1  0.87750000  0.31720000  0.10400000  1.0 0.1259435761
H  H50  1  0.68280000  0.56030000  0.10400000  1.0 0.1259435761
H  H51  1  0.43970000  0.12250000  0.10400000  1.0 0.1259435761
H  H52  1  0.31720000  0.43970000  0.10400000  1.0 0.1259435761
H  H53  1  0.56030000  0.87750000  0.10400000  1.0 0.1259435761
H  H54  1  0.12250000  0.68280000  0.10400000  1.0 0.1259435761
H  H55  1  0.12250000  0.68280000  0.89600000  1.0 0.1259435761
H  H56  1  0.31720000  0.43970000  0.89600000  1.0 0.1259435761
H  H57  1  0.56030000  0.87750000  0.89600000  1.0 0.1259435761
H  H58  1  0.68280000  0.56030000  0.89600000  1.0 0.1259435761
H  H59  1  0.43970000  0.12250000  0.89600000  1.0 0.1259435761
H  H60  1  0.87750000  0.31720000  0.89600000  1.0 0.1259435761
H  H61  1  0.86080000  0.18960000  0.21070000  1.0 0.1199606632
H  H62  1  0.81040000  0.67120000  0.21070000  1.0 0.1199606632
H  H63  1  0.32880000  0.13920000  0.21070000  1.0 0.1199606632
H  H64  1  0.18960000  0.32880000  0.21070000  1.0 0.1199606632
H  H65  1  0.67120000  0.86080000  0.21070000  1.0 0.1199606632
H  H66  1  0.13920000  0.81040000  0.21070000  1.0 0.1199606632
H  H67  1  0.13920000  0.81040000  0.78930000  1.0 0.1199606632
H  H68  1  0.18960000  0.32880000  0.78930000  1.0 0.1199606632
H  H69  1  0.67120000  0.86080000  0.78930000  1.0 0.1199606632
H  H70  1  0.81040000  0.67120000  0.78930000  1.0 0.1199606632
H  H71  1  0.32880000  0.13920000  0.78930000  1.0 0.1199606632
H  H72  1  0.86080000  0.18960000  0.78930000  1.0 0.1199606632
H  H73  1  0.82780000  0.16160000  0.45300000  1.0 0.1414874442
H  H74  1  0.83840000  0.66620000  0.45300000  1.0 0.1414874442
H  H75  1  0.33380000  0.17220000  0.45300000  1.0 0.1414874442
H  H76  1  0.16160000  0.33380000  0.45300000  1.0 0.1414874442
H  H77  1  0.66620000  0.82780000  0.45300000  1.0 0.1414874442
H  H78  1  0.17220000  0.83840000  0.45300000  1.0 0.1414874442
H  H79  1  0.17220000  0.83840000  0.54700000  1.0 0.1414874442
H  H80  1  0.16160000  0.33380000  0.54700000  1.0 0.1414874442
H  H81  1  0.66620000  0.82780000  0.54700000  1.0 0.1414874442
H  H82  1  0.83840000  0.66620000  0.54700000  1.0 0.1414874442
H  H83  1  0.33380000  0.17220000  0.54700000  1.0 0.1414874442
H  H84  1  0.82780000  0.16160000  0.54700000  1.0 0.1414874442
H  H85  1  0.91920000  0.22410000  0.48040000  1.0 0.2035722408
H  H86  1  0.77590000  0.69510000  0.48040000  1.0 0.2035722408
H  H87  1  0.30490000  0.08080000  0.48040000  1.0 0.2035722408
H  H88  1  0.22410000  0.30490000  0.48040000  1.0 0.2035722408
H  H89  1  0.69510000  0.91920000  0.48040000  1.0 0.2035722408
H  H90  1  0.08080000  0.77590000  0.48040000  1.0 0.2035722408
H  H91  1  0.08080000  0.77590000  0.51960000  1.0 0.2035722408
H  H92  1  0.22410000  0.30490000  0.51960000  1.0 0.2035722408
H  H93  1  0.69510000  0.91920000  0.51960000  1.0 0.2035722408
H  H94  1  0.77590000  0.69510000  0.51960000  1.0 0.2035722408
H  H95  1  0.30490000  0.08080000  0.51960000  1.0 0.2035722408
H  H96  1  0.91920000  0.22410000  0.51960000  1.0 0.2035722408
C  C1  1  0.03490000  0.36570000  0.34060000  1.0 0.5308035958
C  C2  1  0.63430000  0.66920000  0.34060000  1.0 0.5308035958
C  C3  1  0.33080000  0.96510000  0.34060000  1.0 0.5308035958
C  C4  1  0.36570000  0.33080000  0.34060000  1.0 0.5308035958
C  C5  1  0.66920000  0.03490000  0.34060000  1.0 0.5308035958
C  C6  1  0.96510000  0.63430000  0.34060000  1.0 0.5308035958
C  C7  1  0.96510000  0.63430000  0.65940000  1.0 0.5308035958
C  C8  1  0.36570000  0.33080000  0.65940000  1.0 0.5308035958
C  C9  1  0.66920000  0.03490000  0.65940000  1.0 0.5308035958
C  C10  1  0.63430000  0.66920000  0.65940000  1.0 0.5308035958
C  C11  1  0.33080000  0.96510000  0.65940000  1.0 0.5308035958
C  C12  1  0.03490000  0.36570000  0.65940000  1.0 0.5308035958
C  C13  1  0.10220000  0.46870000  0.32150000  1.0 -0.1487982536
C  C14  1  0.53130000  0.63350000  0.32150000  1.0 -0.1487982536
C  C15  1  0.36650000  0.89780000  0.32150000  1.0 -0.1487982536
C  C16  1  0.46870000  0.36650000  0.32150000  1.0 -0.1487982536
C  C17  1  0.63350000  0.10220000  0.32150000  1.0 -0.1487982536
C  C18  1  0.89780000  0.53130000  0.32150000  1.0 -0.1487982536
C  C19  1  0.89780000  0.53130000  0.67850000  1.0 -0.1487982536
C  C20  1  0.46870000  0.36650000  0.67850000  1.0 -0.1487982536
C  C21  1  0.63350000  0.10220000  0.67850000  1.0 -0.1487982536
C  C22  1  0.53130000  0.63350000  0.67850000  1.0 -0.1487982536
C  C23  1  0.36650000  0.89780000  0.67850000  1.0 -0.1487982536
C  C24  1  0.10220000  0.46870000  0.67850000  1.0 -0.1487982536
C  C25  1  0.25770000  0.57800000  0.32630000  1.0 0.306237911
C  C26  1  0.42200000  0.67970000  0.32630000  1.0 0.306237911
C  C27  1  0.32030000  0.74230000  0.32630000  1.0 0.306237911
C  C28  1  0.57800000  0.32030000  0.32630000  1.0 0.306237911
C  C29  1  0.67970000  0.25770000  0.32630000  1.0 0.306237911
C  C30  1  0.74230000  0.42200000  0.32630000  1.0 0.306237911
C  C31  1  0.74230000  0.42200000  0.67370000  1.0 0.306237911
C  C32  1  0.57800000  0.32030000  0.67370000  1.0 0.306237911
C  C33  1  0.67970000  0.25770000  0.67370000  1.0 0.306237911
C  C34  1  0.42200000  0.67970000  0.67370000  1.0 0.306237911
C  C35  1  0.32030000  0.74230000  0.67370000  1.0 0.306237911
C  C36  1  0.25770000  0.57800000  0.67370000  1.0 0.306237911
C  C37  1  0.24450000  0.65190000  0.32590000  1.0 -0.3873979998
C  C38  1  0.34810000  0.59260000  0.32590000  1.0 -0.3873979998
C  C39  1  0.40740000  0.75550000  0.32590000  1.0 -0.3873979998
C  C40  1  0.65190000  0.40740000  0.32590000  1.0 -0.3873979998
C  C41  1  0.59260000  0.24450000  0.32590000  1.0 -0.3873979998
C  C42  1  0.75550000  0.34810000  0.32590000  1.0 -0.3873979998
C  C43  1  0.75550000  0.34810000  0.67410000  1.0 -0.3873979998
C  C44  1  0.65190000  0.40740000  0.67410000  1.0 -0.3873979998
C  C45  1  0.59260000  0.24450000  0.67410000  1.0 -0.3873979998
C  C46  1  0.34810000  0.59260000  0.67410000  1.0 -0.3873979998
C  C47  1  0.40740000  0.75550000  0.67410000  1.0 -0.3873979998
C  C48  1  0.24450000  0.65190000  0.67410000  1.0 -0.3873979998
C  C49  1  0.84310000  0.11560000  0.06800000  1.0 -0.0629963203
C  C50  1  0.88440000  0.72750000  0.06800000  1.0 -0.0629963203
C  C51  1  0.27250000  0.15690000  0.06800000  1.0 -0.0629963203
C  C52  1  0.11560000  0.27250000  0.06800000  1.0 -0.0629963203
C  C53  1  0.72750000  0.84310000  0.06800000  1.0 -0.0629963203
C  C54  1  0.15690000  0.88440000  0.06800000  1.0 -0.0629963203
C  C55  1  0.15690000  0.88440000  0.93200000  1.0 -0.0629963203
C  C56  1  0.11560000  0.27250000  0.93200000  1.0 -0.0629963203
C  C57  1  0.72750000  0.84310000  0.93200000  1.0 -0.0629963203
C  C58  1  0.88440000  0.72750000  0.93200000  1.0 -0.0629963203
C  C59  1  0.27250000  0.15690000  0.93200000  1.0 -0.0629963203
C  C60  1  0.84310000  0.11560000  0.93200000  1.0 -0.0629963203
C  C61  1  0.86860000  0.26410000  0.06450000  1.0 -0.0773523582
C  C62  1  0.73590000  0.60450000  0.06450000  1.0 -0.0773523582
C  C63  1  0.39550000  0.13140000  0.06450000  1.0 -0.0773523582
C  C64  1  0.26410000  0.39550000  0.06450000  1.0 -0.0773523582
C  C65  1  0.60450000  0.86860000  0.06450000  1.0 -0.0773523582
C  C66  1  0.13140000  0.73590000  0.06450000  1.0 -0.0773523582
C  C67  1  0.13140000  0.73590000  0.93550000  1.0 -0.0773523582
C  C68  1  0.26410000  0.39550000  0.93550000  1.0 -0.0773523582
C  C69  1  0.60450000  0.86860000  0.93550000  1.0 -0.0773523582
C  C70  1  0.73590000  0.60450000  0.93550000  1.0 -0.0773523582
C  C71  1  0.39550000  0.13140000  0.93550000  1.0 -0.0773523582
C  C72  1  0.86860000  0.26410000  0.93550000  1.0 -0.0773523582
N  N1  1  0.85790000  0.18860000  0.13120000  1.0 -0.1487982536
N  N2  1  0.81140000  0.66930000  0.13120000  1.0 -0.1487982536
N  N3  1  0.33070000  0.14210000  0.13120000  1.0 -0.1487982536
N  N4  1  0.18860000  0.33070000  0.13120000  1.0 -0.1487982536
N  N5  1  0.66930000  0.85790000  0.13120000  1.0 -0.1487982536
N  N6  1  0.14210000  0.81140000  0.13120000  1.0 -0.1487982536
N  N7  1  0.14210000  0.81140000  0.86880000  1.0 -0.1487982536
N  N8  1  0.18860000  0.33070000  0.86880000  1.0 -0.1487982536
N  N9  1  0.66930000  0.85790000  0.86880000  1.0 -0.1487982536
N  N10  1  0.81140000  0.66930000  0.86880000  1.0 -0.1487982536
N  N11  1  0.33070000  0.14210000  0.86880000  1.0 -0.1487982536
N  N12  1  0.85790000  0.18860000  0.86880000  1.0 -0.1487982536
O  O1  1  0.94994000  0.34219000  0.34250000  1.0 -0.5095806571
O  O2  1  0.65781000  0.60775000  0.34250000  1.0 -0.5095806571
O  O3  1  0.39225000  0.05006000  0.34250000  1.0 -0.5095806571
O  O4  1  0.34219000  0.39225000  0.34250000  1.0 -0.5095806571
O  O5  1  0.60775000  0.94994000  0.34250000  1.0 -0.5095806571
O  O6  1  0.05006000  0.65781000  0.34250000  1.0 -0.5095806571
O  O7  1  0.05006000  0.65781000  0.65750000  1.0 -0.5095806571
O  O8  1  0.34219000  0.39225000  0.65750000  1.0 -0.5095806571
O  O9  1  0.60775000  0.94994000  0.65750000  1.0 -0.5095806571
O  O10  1  0.65781000  0.60775000  0.65750000  1.0 -0.5095806571
O  O11  1  0.39225000  0.05006000  0.65750000  1.0 -0.5095806571
O  O12  1  0.94994000  0.34219000  0.65750000  1.0 -0.5095806571
O  O13  1  0.06509000  0.31579000  0.35080000  1.0 -0.4561442983
O  O14  1  0.68421000  0.74930000  0.35080000  1.0 -0.4561442983
O  O15  1  0.25070000  0.93491000  0.35080000  1.0 -0.4561442983
O  O16  1  0.31579000  0.25070000  0.35080000  1.0 -0.4561442983
O  O17  1  0.74930000  0.06509000  0.35080000  1.0 -0.4561442983
O  O18  1  0.93491000  0.68421000  0.35080000  1.0 -0.4561442983
O  O19  1  0.93491000  0.68421000  0.64920000  1.0 -0.4561442983
O  O20  1  0.31579000  0.25070000  0.64920000  1.0 -0.4561442983
O  O21  1  0.74930000  0.06509000  0.64920000  1.0 -0.4561442983
O  O22  1  0.68421000  0.74930000  0.64920000  1.0 -0.4561442983
O  O23  1  0.25070000  0.93491000  0.64920000  1.0 -0.4561442983
O  O24  1  0.06509000  0.31579000  0.64920000  1.0 -0.4561442983
O  O25  1  0.19030000  0.48978000  0.32910000  1.0 -0.1627702032
O  O26  1  0.51022000  0.70052000  0.32910000  1.0 -0.1627702032
O  O27  1  0.29948000  0.80970000  0.32910000  1.0 -0.1627702032
O  O28  1  0.48978000  0.29948000  0.32910000  1.0 -0.1627702032
O  O29  1  0.70052000  0.19030000  0.32910000  1.0 -0.1627702032
O  O30  1  0.80970000  0.51022000  0.32910000  1.0 -0.1627702032
O  O31  1  0.80970000  0.51022000  0.67090000  1.0 -0.1627702032
O  O32  1  0.48978000  0.29948000  0.67090000  1.0 -0.1627702032
O  O33  1  0.70052000  0.19030000  0.67090000  1.0 -0.1627702032
O  O34  1  0.51022000  0.70052000  0.67090000  1.0 -0.1627702032
O  O35  1  0.29948000  0.80970000  0.67090000  1.0 -0.1627702032
O  O36  1  0.19030000  0.48978000  0.67090000  1.0 -0.1627702032
O  O37  1  0.86350000  0.20580000  0.50000000  1.0 -0.4543559206
O  O38  1  0.79420000  0.65770000  0.50000000  1.0 -0.4561442983
O  O39  1  0.34230000  0.13650000  0.50000000  1.0 -0.4543559206
O  O40  1  0.20580000  0.34230000  0.50000000  1.0 -0.4561442983
O  O41  1  0.65770000  0.86350000  0.50000000  1.0 -0.4561442983
O  O42  1  0.13650000  0.79420000  0.50000000  1.0 -0.4543559206
