# DDEC6 charges by PACMAN v1.1 (https://github.com/mtap-research/PACMAN-charge/)
data_LEZMIN_FSR_pacman
_symmetry_space_group_name_H-M   'P 1'
_cell_length_a   9.11180000
_cell_length_b   9.53640000
_cell_length_c   21.80150000
_cell_angle_alpha   90.00000000
_cell_angle_beta   90.00000000
_cell_angle_gamma   90.00000000
_symmetry_Int_Tables_number   1
_chemical_formula_structural   Zn3P4(HO3)4
_chemical_formula_sum   'Zn12 P16 H16 O48'
_cell_volume   1894.41451619
_cell_formula_units_Z   4
loop_
 _symmetry_equiv_pos_site_id
 _symmetry_equiv_pos_as_xyz
  1  'x, y, z'
loop_
 _atom_site_type_symbol
 _atom_site_label
 _atom_site_symmetry_multiplicity
 _atom_site_fract_x
 _atom_site_fract_y
 _atom_site_fract_z
 _atom_site_occupancy
 _atom_site_charge
Zn  Zn1  1  0.45377000  0.25000000  0.75000000  1.0 1.1537302169
Zn  Zn2  1  0.04623000  0.75000000  0.25000000  1.0 1.1537302169
Zn  Zn3  1  0.54623000  0.75000000  0.25000000  1.0 1.1537302169
Zn  Zn4  1  0.95377000  0.25000000  0.75000000  1.0 1.1537302169
Zn  Zn5  1  0.78034000  0.56770000  0.54838000  1.0 1.1276550325
Zn  Zn6  1  0.78034000  0.93230000  0.95162000  1.0 1.1276550325
Zn  Zn7  1  0.71966000  0.06770000  0.45162000  1.0 1.1276550325
Zn  Zn8  1  0.71966000  0.43230000  0.04838000  1.0 1.1276550325
Zn  Zn9  1  0.21966000  0.43230000  0.45162000  1.0 1.1276550325
Zn  Zn10  1  0.21966000  0.06770000  0.04838000  1.0 1.1276550325
Zn  Zn11  1  0.28034000  0.93230000  0.54838000  1.0 1.1276550325
Zn  Zn12  1  0.28034000  0.56770000  0.95162000  1.0 1.1276550325
P  P1  1  0.71081000  0.37981000  0.66436000  1.0 1.1754664215
P  P2  1  0.71081000  0.12019000  0.83564000  1.0 1.1754664215
P  P3  1  0.78919000  0.87981000  0.33564000  1.0 1.1754664215
P  P4  1  0.78919000  0.62019000  0.16436000  1.0 1.1754664215
P  P5  1  0.28919000  0.62019000  0.33564000  1.0 1.1754664215
P  P6  1  0.28919000  0.87981000  0.16436000  1.0 1.1754664215
P  P7  1  0.21081000  0.12019000  0.66436000  1.0 1.1754664215
P  P8  1  0.21081000  0.37981000  0.83564000  1.0 1.1754664215
P  P9  1  0.94401000  0.29327000  0.50047000  1.0 1.1419577035
P  P10  1  0.94401000  0.20673000  0.99953000  1.0 1.1419577035
P  P11  1  0.55599000  0.79327000  0.49953000  1.0 1.1419577035
P  P12  1  0.55599000  0.70673000  0.00047000  1.0 1.1419577035
P  P13  1  0.05599000  0.70673000  0.49953000  1.0 1.1419577035
P  P14  1  0.05599000  0.79327000  0.00047000  1.0 1.1419577035
P  P15  1  0.44401000  0.20673000  0.50047000  1.0 1.1419577035
P  P16  1  0.44401000  0.29327000  0.99953000  1.0 1.1419577035
H  H1  1  0.75140000  0.27740000  0.62730000  1.0 -0.0982251135
H  H2  1  0.75140000  0.22260000  0.87270000  1.0 -0.0982251135
H  H3  1  0.74860000  0.77740000  0.37270000  1.0 -0.0982251135
H  H4  1  0.74860000  0.72260000  0.12730000  1.0 -0.0982251135
H  H5  1  0.24860000  0.72260000  0.37270000  1.0 -0.0982251135
H  H6  1  0.24860000  0.77740000  0.12730000  1.0 -0.0982251135
H  H7  1  0.25140000  0.22260000  0.62730000  1.0 -0.0982251135
H  H8  1  0.25140000  0.27740000  0.87270000  1.0 -0.0982251135
H  H9  1  0.01650000  0.30990000  0.55240000  1.0 -0.091708262
H  H10  1  0.01650000  0.19010000  0.94760000  1.0 -0.091708262
H  H11  1  0.48350000  0.80990000  0.44760000  1.0 -0.091708262
H  H12  1  0.48350000  0.69010000  0.05240000  1.0 -0.091708262
H  H13  1  0.98350000  0.69010000  0.44760000  1.0 -0.091708262
H  H14  1  0.98350000  0.80990000  0.05240000  1.0 -0.091708262
H  H15  1  0.51650000  0.19010000  0.55240000  1.0 -0.091708262
H  H16  1  0.51650000  0.30990000  0.94760000  1.0 -0.091708262
O  O1  1  0.55630000  0.34660000  0.68561000  1.0 -0.6484011826
O  O2  1  0.55630000  0.15340000  0.81439000  1.0 -0.6484011826
O  O3  1  0.94370000  0.84660000  0.31439000  1.0 -0.6484011826
O  O4  1  0.94370000  0.65340000  0.18561000  1.0 -0.6484011826
O  O5  1  0.44370000  0.65340000  0.31439000  1.0 -0.6484011826
O  O6  1  0.44370000  0.84660000  0.18561000  1.0 -0.6484011826
O  O7  1  0.05630000  0.15340000  0.68561000  1.0 -0.6484011826
O  O8  1  0.05630000  0.34660000  0.81439000  1.0 -0.6484011826
O  O9  1  0.82200000  0.38730000  0.71441000  1.0 -0.6667503043
O  O10  1  0.82200000  0.11270000  0.78559000  1.0 -0.6667503043
O  O11  1  0.67800000  0.88730000  0.28559000  1.0 -0.6667503043
O  O12  1  0.67800000  0.61270000  0.21441000  1.0 -0.6667503043
O  O13  1  0.17800000  0.61270000  0.28559000  1.0 -0.6667503043
O  O14  1  0.17800000  0.88730000  0.21441000  1.0 -0.6667503043
O  O15  1  0.32200000  0.11270000  0.71441000  1.0 -0.6667503043
O  O16  1  0.32200000  0.38730000  0.78559000  1.0 -0.6667503043
O  O17  1  0.70220000  0.51210000  0.62592000  1.0 -0.6158974437
O  O18  1  0.70220000  0.98790000  0.87408000  1.0 -0.6158974437
O  O19  1  0.79780000  0.01210000  0.37408000  1.0 -0.6158974437
O  O20  1  0.79780000  0.48790000  0.12592000  1.0 -0.6158974437
O  O21  1  0.29780000  0.48790000  0.37408000  1.0 -0.6158974437
O  O22  1  0.29780000  0.01210000  0.12592000  1.0 -0.6158974437
O  O23  1  0.20220000  0.98790000  0.62592000  1.0 -0.6158974437
O  O24  1  0.20220000  0.51210000  0.87408000  1.0 -0.6158974437
O  O25  1  0.83540000  0.41340000  0.49568000  1.0 -0.6667503043
O  O26  1  0.83540000  0.08660000  0.00432000  1.0 -0.6642751661
O  O27  1  0.66460000  0.91340000  0.50432000  1.0 -0.6667503043
O  O28  1  0.66460000  0.58660000  0.99568000  1.0 -0.6667503043
O  O29  1  0.16460000  0.58660000  0.50432000  1.0 -0.6667503043
O  O30  1  0.16460000  0.91340000  0.99568000  1.0 -0.6667503043
O  O31  1  0.33540000  0.08660000  0.49568000  1.0 -0.6667503043
O  O32  1  0.33540000  0.41340000  0.00432000  1.0 -0.6642751661
O  O33  1  0.87230000  0.14970000  0.50284000  1.0 -0.6002647621
O  O34  1  0.87230000  0.35030000  0.99716000  1.0 -0.6002647621
O  O35  1  0.62770000  0.64970000  0.49716000  1.0 -0.6002647621
O  O36  1  0.62770000  0.85030000  0.00284000  1.0 -0.6002647621
O  O37  1  0.12770000  0.85030000  0.49716000  1.0 -0.6002647621
O  O38  1  0.12770000  0.64970000  0.00284000  1.0 -0.6002647621
O  O39  1  0.37230000  0.35030000  0.50284000  1.0 -0.6002647621
O  O40  1  0.37230000  0.14970000  0.99716000  1.0 -0.6002647621
O  O41  1  0.05670000  0.29970000  0.44850000  1.0 -0.634565678
O  O42  1  0.05670000  0.20030000  0.05150000  1.0 -0.634565678
O  O43  1  0.44330000  0.79970000  0.55150000  1.0 -0.634565678
O  O44  1  0.44330000  0.70030000  0.94850000  1.0 -0.634565678
O  O45  1  0.94330000  0.70030000  0.55150000  1.0 -0.634565678
O  O46  1  0.94330000  0.79970000  0.94850000  1.0 -0.634565678
O  O47  1  0.55670000  0.20030000  0.44850000  1.0 -0.634565678
O  O48  1  0.55670000  0.29970000  0.05150000  1.0 -0.634565678
