# DDEC6 charges by PACMAN v1.1 (https://github.com/mtap-research/PACMAN-charge/)
data_LIBHAH_ASR_pacman
_symmetry_space_group_name_H-M   'P 1'
_cell_length_a   35.93300000
_cell_length_b   35.93300000
_cell_length_c   35.93300000
_cell_angle_alpha   60.00000000
_cell_angle_beta   60.00000000
_cell_angle_gamma   60.00000000
_symmetry_Int_Tables_number   1
_chemical_formula_structural   Fe3H12C36S12O13
_chemical_formula_sum   'Fe36 H144 C432 S144 O156'
_cell_volume   32806.91809615
_cell_formula_units_Z   12
loop_
 _symmetry_equiv_pos_site_id
 _symmetry_equiv_pos_as_xyz
  1  'x, y, z'
loop_
 _atom_site_type_symbol
 _atom_site_label
 _atom_site_symmetry_multiplicity
 _atom_site_fract_x
 _atom_site_fract_y
 _atom_site_fract_z
 _atom_site_occupancy
 _atom_site_charge
Fe  Fe1  1  0.66470000  0.66470000  0.33530000  1.0 1.1306009619
Fe  Fe2  1  0.91470000  0.91470000  0.58530000  1.0 1.1306009619
Fe  Fe3  1  0.58530000  0.91470000  0.58530000  1.0 1.1306009619
Fe  Fe4  1  0.33530000  0.33530000  0.66470000  1.0 1.1306009619
Fe  Fe5  1  0.91470000  0.58530000  0.91470000  1.0 1.1306009619
Fe  Fe6  1  0.58530000  0.91470000  0.91470000  1.0 1.1404763378
Fe  Fe7  1  0.91470000  0.58530000  0.58530000  1.0 1.1306009619
Fe  Fe8  1  0.33530000  0.66470000  0.66470000  1.0 1.1306009619
Fe  Fe9  1  0.66470000  0.33530000  0.66470000  1.0 1.1306009619
Fe  Fe10  1  0.33530000  0.66470000  0.33530000  1.0 1.1306009619
Fe  Fe11  1  0.66470000  0.33530000  0.33530000  1.0 1.1306009619
Fe  Fe12  1  0.58530000  0.58530000  0.91470000  1.0 1.1306009619
Fe  Fe13  1  0.77458000  0.67675000  0.27434000  1.0 1.1306009619
Fe  Fe14  1  0.97566000  0.97566000  0.47542000  1.0 1.1306009619
Fe  Fe15  1  0.67675000  0.77458000  0.27434000  1.0 1.1306009619
Fe  Fe16  1  0.97566000  0.97566000  0.57325000  1.0 1.1306009619
Fe  Fe17  1  0.57325000  0.97566000  0.47542000  1.0 1.1306009619
Fe  Fe18  1  0.27434000  0.27434000  0.67675000  1.0 1.1306009619
Fe  Fe19  1  0.97566000  0.47542000  0.97566000  1.0 1.1306009619
Fe  Fe20  1  0.57325000  0.97566000  0.97566000  1.0 1.1306009619
Fe  Fe21  1  0.27434000  0.27434000  0.77458000  1.0 1.1306009619
Fe  Fe22  1  0.97566000  0.47542000  0.57325000  1.0 1.1306009619
Fe  Fe23  1  0.27434000  0.77458000  0.67675000  1.0 1.1306009619
Fe  Fe24  1  0.67675000  0.27434000  0.77458000  1.0 1.1306009619
Fe  Fe25  1  0.27434000  0.67675000  0.27434000  1.0 1.1306009619
Fe  Fe26  1  0.27434000  0.67675000  0.77458000  1.0 1.1306009619
Fe  Fe27  1  0.77458000  0.27434000  0.67675000  1.0 1.1306009619
Fe  Fe28  1  0.77458000  0.27434000  0.27434000  1.0 1.1306009619
Fe  Fe29  1  0.67675000  0.27434000  0.27434000  1.0 1.1306009619
Fe  Fe30  1  0.27434000  0.77458000  0.27434000  1.0 1.1306009619
Fe  Fe31  1  0.47542000  0.57325000  0.97566000  1.0 1.1306009619
Fe  Fe32  1  0.57325000  0.47542000  0.97566000  1.0 1.1306009619
Fe  Fe33  1  0.97566000  0.57325000  0.97566000  1.0 1.1306009619
Fe  Fe34  1  0.47542000  0.97566000  0.57325000  1.0 1.1306009619
Fe  Fe35  1  0.47542000  0.97566000  0.97566000  1.0 1.1306009619
Fe  Fe36  1  0.97566000  0.57325000  0.47542000  1.0 1.1306009619
H  H1  1  0.81350000  0.59211000  0.19810000  1.0 0.1016769073
H  H2  1  0.85370000  0.05190000  0.43650000  1.0 0.1016769073
H  H3  1  0.59211000  0.81350000  0.39630000  1.0 0.1016769073
H  H4  1  0.05190000  0.85370000  0.65789000  1.0 0.1016769073
H  H5  1  0.65789000  0.85370000  0.43650000  1.0 0.1016769073
H  H6  1  0.39630000  0.19810000  0.59211000  1.0 0.1016769073
H  H7  1  0.05190000  0.43650000  0.85370000  1.0 0.1016769073
H  H8  1  0.65789000  0.05190000  0.85370000  1.0 0.1016769073
H  H9  1  0.19810000  0.39630000  0.81350000  1.0 0.1016769073
H  H10  1  0.85370000  0.43650000  0.65789000  1.0 0.1016769073
H  H11  1  0.19810000  0.81350000  0.59211000  1.0 0.1016769073
H  H12  1  0.59211000  0.19810000  0.81350000  1.0 0.1016769073
H  H13  1  0.19810000  0.59211000  0.39630000  1.0 0.1016769073
H  H14  1  0.39630000  0.59211000  0.81350000  1.0 0.1016769073
H  H15  1  0.81350000  0.39630000  0.59211000  1.0 0.1016769073
H  H16  1  0.81350000  0.19810000  0.39630000  1.0 0.1016769073
H  H17  1  0.59211000  0.39630000  0.19810000  1.0 0.1016769073
H  H18  1  0.39630000  0.81350000  0.19810000  1.0 0.1016769073
H  H19  1  0.43650000  0.65789000  0.85370000  1.0 0.1016769073
H  H20  1  0.65789000  0.43650000  0.05190000  1.0 0.1016769073
H  H21  1  0.85370000  0.65789000  0.05190000  1.0 0.1016769073
H  H22  1  0.43650000  0.05190000  0.65789000  1.0 0.1016769073
H  H23  1  0.43650000  0.85370000  0.05190000  1.0 0.1016769073
H  H24  1  0.05190000  0.65789000  0.43650000  1.0 0.1016769073
H  H25  1  0.43650000  0.65789000  0.05190000  1.0 0.1016769073
H  H26  1  0.39630000  0.19810000  0.81350000  1.0 0.1016769073
H  H27  1  0.65789000  0.43650000  0.85370000  1.0 0.1016769073
H  H28  1  0.19810000  0.39630000  0.59211000  1.0 0.1016769073
H  H29  1  0.59211000  0.39630000  0.81350000  1.0 0.1016769073
H  H30  1  0.85370000  0.05190000  0.65789000  1.0 0.1016769073
H  H31  1  0.19810000  0.81350000  0.39630000  1.0 0.1016769073
H  H32  1  0.59211000  0.19810000  0.39630000  1.0 0.1016769073
H  H33  1  0.05190000  0.85370000  0.43650000  1.0 0.1016769073
H  H34  1  0.39630000  0.81350000  0.59211000  1.0 0.1016769073
H  H35  1  0.05190000  0.43650000  0.65789000  1.0 0.1016769073
H  H36  1  0.65789000  0.05190000  0.43650000  1.0 0.1016769073
H  H37  1  0.05190000  0.65789000  0.85370000  1.0 0.1016769073
H  H38  1  0.85370000  0.65789000  0.43650000  1.0 0.1016769073
H  H39  1  0.43650000  0.85370000  0.65789000  1.0 0.1016769073
H  H40  1  0.43650000  0.05190000  0.85370000  1.0 0.1016769073
H  H41  1  0.65789000  0.85370000  0.05190000  1.0 0.1016769073
H  H42  1  0.85370000  0.43650000  0.05190000  1.0 0.1016769073
H  H43  1  0.81350000  0.59211000  0.39630000  1.0 0.1016769073
H  H44  1  0.59211000  0.81350000  0.19810000  1.0 0.1016769073
H  H45  1  0.39630000  0.59211000  0.19810000  1.0 0.1016769073
H  H46  1  0.81350000  0.19810000  0.59211000  1.0 0.1016769073
H  H47  1  0.81350000  0.39630000  0.19810000  1.0 0.1016769073
H  H48  1  0.19810000  0.59211000  0.81350000  1.0 0.1016769073
H  H49  1  0.71780000  0.54621000  0.28120000  1.0 0.1370591433
H  H50  1  0.79520000  0.96880000  0.53220000  1.0 0.1370591433
H  H51  1  0.54621000  0.71780000  0.45480000  1.0 0.1370591433
H  H52  1  0.96880000  0.79520000  0.70379000  1.0 0.1370591433
H  H53  1  0.70379000  0.79520000  0.53220000  1.0 0.1370591433
H  H54  1  0.45480000  0.28120000  0.54621000  1.0 0.1370591433
H  H55  1  0.96880000  0.53220000  0.79520000  1.0 0.1370591433
H  H56  1  0.70379000  0.96880000  0.79520000  1.0 0.1370591433
H  H57  1  0.28120000  0.45480000  0.71780000  1.0 0.1370591433
H  H58  1  0.79520000  0.53220000  0.70379000  1.0 0.1370591433
H  H59  1  0.28120000  0.71780000  0.54621000  1.0 0.1370591433
H  H60  1  0.54621000  0.28120000  0.71780000  1.0 0.1370591433
H  H61  1  0.28120000  0.54621000  0.45480000  1.0 0.1370591433
H  H62  1  0.45480000  0.54621000  0.71780000  1.0 0.1370591433
H  H63  1  0.71780000  0.45480000  0.54621000  1.0 0.1370591433
H  H64  1  0.71780000  0.28120000  0.45480000  1.0 0.1370591433
H  H65  1  0.54621000  0.45480000  0.28120000  1.0 0.1370591433
H  H66  1  0.45480000  0.71780000  0.28120000  1.0 0.1370591433
H  H67  1  0.53220000  0.70379000  0.79520000  1.0 0.1370591433
H  H68  1  0.70379000  0.53220000  0.96880000  1.0 0.1370591433
H  H69  1  0.79520000  0.70379000  0.96880000  1.0 0.1370591433
H  H70  1  0.53220000  0.96880000  0.70379000  1.0 0.1370591433
H  H71  1  0.53220000  0.79520000  0.96880000  1.0 0.1370591433
H  H72  1  0.96880000  0.70379000  0.53220000  1.0 0.1370591433
H  H73  1  0.53220000  0.70379000  0.96880000  1.0 0.1370591433
H  H74  1  0.45480000  0.28120000  0.71780000  1.0 0.1370591433
H  H75  1  0.70379000  0.53220000  0.79520000  1.0 0.1370591433
H  H76  1  0.28120000  0.45480000  0.54621000  1.0 0.1370591433
H  H77  1  0.54621000  0.45480000  0.71780000  1.0 0.1370591433
H  H78  1  0.79520000  0.96880000  0.70379000  1.0 0.1370591433
H  H79  1  0.28120000  0.71780000  0.45480000  1.0 0.1370591433
H  H80  1  0.54621000  0.28120000  0.45480000  1.0 0.1370591433
H  H81  1  0.96880000  0.79520000  0.53220000  1.0 0.1370591433
H  H82  1  0.45480000  0.71780000  0.54621000  1.0 0.1370591433
H  H83  1  0.96880000  0.53220000  0.70379000  1.0 0.1370591433
H  H84  1  0.70379000  0.96880000  0.53220000  1.0 0.1370591433
H  H85  1  0.96880000  0.70379000  0.79520000  1.0 0.1370591433
H  H86  1  0.79520000  0.70379000  0.53220000  1.0 0.1370591433
H  H87  1  0.53220000  0.79520000  0.70379000  1.0 0.1370591433
H  H88  1  0.53220000  0.96880000  0.79520000  1.0 0.1370591433
H  H89  1  0.70379000  0.79520000  0.96880000  1.0 0.1370591433
H  H90  1  0.79520000  0.53220000  0.96880000  1.0 0.1370591433
H  H91  1  0.71780000  0.54621000  0.45480000  1.0 0.1370591433
H  H92  1  0.54621000  0.71780000  0.28120000  1.0 0.1370591433
H  H93  1  0.45480000  0.54621000  0.28120000  1.0 0.1370591433
H  H94  1  0.71780000  0.28120000  0.54621000  1.0 0.1370591433
H  H95  1  0.71780000  0.45480000  0.28120000  1.0 0.1370591433
H  H96  1  0.28120000  0.54621000  0.71780000  1.0 0.1370591433
H  H97  1  0.88840000  0.54941000  0.11300000  1.0 0.1525050354
H  H98  1  0.80080000  0.13700000  0.36160000  1.0 0.1525050354
H  H99  1  0.54941000  0.88840000  0.44920000  1.0 0.1525050354
H  H100  1  0.13700000  0.80080000  0.70059000  1.0 0.1525050354
H  H101  1  0.70059000  0.80080000  0.36160000  1.0 0.1525050354
H  H102  1  0.44920000  0.11300000  0.54941000  1.0 0.1525050354
H  H103  1  0.13700000  0.36160000  0.80080000  1.0 0.1525050354
H  H104  1  0.70059000  0.13700000  0.80080000  1.0 0.1525050354
H  H105  1  0.11300000  0.44920000  0.88840000  1.0 0.1525050354
H  H106  1  0.80080000  0.36160000  0.70059000  1.0 0.1525050354
H  H107  1  0.11300000  0.88840000  0.54941000  1.0 0.1525050354
H  H108  1  0.54941000  0.11300000  0.88840000  1.0 0.1525050354
H  H109  1  0.11300000  0.54941000  0.44920000  1.0 0.1525050354
H  H110  1  0.44920000  0.54941000  0.88840000  1.0 0.1525050354
H  H111  1  0.88840000  0.44920000  0.54941000  1.0 0.1525050354
H  H112  1  0.88840000  0.11300000  0.44920000  1.0 0.1525050354
H  H113  1  0.54941000  0.44920000  0.11300000  1.0 0.1525050354
H  H114  1  0.44920000  0.88840000  0.11300000  1.0 0.1525050354
H  H115  1  0.36160000  0.70059000  0.80080000  1.0 0.1525050354
H  H116  1  0.70059000  0.36160000  0.13700000  1.0 0.1525050354
H  H117  1  0.80080000  0.70059000  0.13700000  1.0 0.1525050354
H  H118  1  0.36160000  0.13700000  0.70059000  1.0 0.1525050354
H  H119  1  0.36160000  0.80080000  0.13700000  1.0 0.1525050354
H  H120  1  0.13700000  0.70059000  0.36160000  1.0 0.1525050354
H  H121  1  0.36160000  0.70059000  0.13700000  1.0 0.1525050354
H  H122  1  0.44920000  0.11300000  0.88840000  1.0 0.1525050354
H  H123  1  0.70059000  0.36160000  0.80080000  1.0 0.1525050354
H  H124  1  0.11300000  0.44920000  0.54941000  1.0 0.1525050354
H  H125  1  0.54941000  0.44920000  0.88840000  1.0 0.1525050354
H  H126  1  0.80080000  0.13700000  0.70059000  1.0 0.1525050354
H  H127  1  0.11300000  0.88840000  0.44920000  1.0 0.1525050354
H  H128  1  0.54941000  0.11300000  0.44920000  1.0 0.1525050354
H  H129  1  0.13700000  0.80080000  0.36160000  1.0 0.1525050354
H  H130  1  0.44920000  0.88840000  0.54941000  1.0 0.1525050354
H  H131  1  0.13700000  0.36160000  0.70059000  1.0 0.1525050354
H  H132  1  0.70059000  0.13700000  0.36160000  1.0 0.1525050354
H  H133  1  0.13700000  0.70059000  0.80080000  1.0 0.1525050354
H  H134  1  0.80080000  0.70059000  0.36160000  1.0 0.1525050354
H  H135  1  0.36160000  0.80080000  0.70059000  1.0 0.1525050354
H  H136  1  0.36160000  0.13700000  0.80080000  1.0 0.1525050354
H  H137  1  0.70059000  0.80080000  0.13700000  1.0 0.1525050354
H  H138  1  0.80080000  0.36160000  0.13700000  1.0 0.1525050354
H  H139  1  0.88840000  0.54941000  0.44920000  1.0 0.1525050354
H  H140  1  0.54941000  0.88840000  0.11300000  1.0 0.1525050354
H  H141  1  0.44920000  0.54941000  0.11300000  1.0 0.1525050354
H  H142  1  0.88840000  0.11300000  0.54941000  1.0 0.1525050354
H  H143  1  0.88840000  0.44920000  0.11300000  1.0 0.1525050354
H  H144  1  0.11300000  0.54941000  0.88840000  1.0 0.1525050354
C  C1  1  0.74225000  0.61580000  0.26891000  1.0 0.5434538143
C  C2  1  0.87695000  0.98109000  0.50775000  1.0 0.5466068106
C  C3  1  0.61580000  0.74225000  0.37305000  1.0 0.5466068106
C  C4  1  0.98109000  0.87695000  0.63420000  1.0 0.5466068106
C  C5  1  0.63420000  0.87695000  0.50775000  1.0 0.5466068106
C  C6  1  0.37305000  0.26891000  0.61580000  1.0 0.5466068106
C  C7  1  0.98109000  0.50775000  0.87695000  1.0 0.5466068106
C  C8  1  0.63420000  0.98109000  0.87695000  1.0 0.5466068106
C  C9  1  0.26891000  0.37305000  0.74225000  1.0 0.5466068106
C  C10  1  0.87695000  0.50775000  0.63420000  1.0 0.5466068106
C  C11  1  0.26891000  0.74225000  0.61580000  1.0 0.5466068106
C  C12  1  0.61580000  0.26891000  0.74225000  1.0 0.5466068106
C  C13  1  0.26891000  0.61580000  0.37305000  1.0 0.5466068106
C  C14  1  0.37305000  0.61580000  0.74225000  1.0 0.5466068106
C  C15  1  0.74225000  0.37305000  0.61580000  1.0 0.5466068106
C  C16  1  0.74225000  0.26891000  0.37305000  1.0 0.5466068106
C  C17  1  0.61580000  0.37305000  0.26891000  1.0 0.5434538143
C  C18  1  0.37305000  0.74225000  0.26891000  1.0 0.5466068106
C  C19  1  0.50775000  0.63420000  0.87695000  1.0 0.5466068106
C  C20  1  0.63420000  0.50775000  0.98109000  1.0 0.5466068106
C  C21  1  0.87695000  0.63420000  0.98109000  1.0 0.5466068106
C  C22  1  0.50775000  0.98109000  0.63420000  1.0 0.5466068106
C  C23  1  0.50775000  0.87695000  0.98109000  1.0 0.5466068106
C  C24  1  0.98109000  0.63420000  0.50775000  1.0 0.5466068106
C  C25  1  0.50775000  0.63420000  0.98109000  1.0 0.5466068106
C  C26  1  0.37305000  0.26891000  0.74225000  1.0 0.5466068106
C  C27  1  0.63420000  0.50775000  0.87695000  1.0 0.5466068106
C  C28  1  0.26891000  0.37305000  0.61580000  1.0 0.5466068106
C  C29  1  0.61580000  0.37305000  0.74225000  1.0 0.5466068106
C  C30  1  0.87695000  0.98109000  0.63420000  1.0 0.5466068106
C  C31  1  0.26891000  0.74225000  0.37305000  1.0 0.5466068106
C  C32  1  0.61580000  0.26891000  0.37305000  1.0 0.5466068106
C  C33  1  0.98109000  0.87695000  0.50775000  1.0 0.5466068106
C  C34  1  0.37305000  0.74225000  0.61580000  1.0 0.5466068106
C  C35  1  0.98109000  0.50775000  0.63420000  1.0 0.5466068106
C  C36  1  0.63420000  0.98109000  0.50775000  1.0 0.5466068106
C  C37  1  0.98109000  0.63420000  0.87695000  1.0 0.5466068106
C  C38  1  0.87695000  0.63420000  0.50775000  1.0 0.5434538143
C  C39  1  0.50775000  0.87695000  0.63420000  1.0 0.5466068106
C  C40  1  0.50775000  0.98109000  0.87695000  1.0 0.5466068106
C  C41  1  0.63420000  0.87695000  0.98109000  1.0 0.5434538143
C  C42  1  0.87695000  0.50775000  0.98109000  1.0 0.5466068106
C  C43  1  0.74225000  0.61580000  0.37305000  1.0 0.5466068106
C  C44  1  0.61580000  0.74225000  0.26891000  1.0 0.5434538143
C  C45  1  0.37305000  0.61580000  0.26891000  1.0 0.5466068106
C  C46  1  0.74225000  0.26891000  0.61580000  1.0 0.5466068106
C  C47  1  0.74225000  0.37305000  0.26891000  1.0 0.5434538143
C  C48  1  0.26891000  0.61580000  0.74225000  1.0 0.5466068106
C  C49  1  0.75948000  0.58141000  0.24640000  1.0 -0.0400298558
C  C50  1  0.83728000  0.00360000  0.49052000  1.0 -0.0400298558
C  C51  1  0.58141000  0.75948000  0.41272000  1.0 -0.0400298558
C  C52  1  0.00360000  0.83728000  0.66859000  1.0 -0.0400298558
C  C53  1  0.66859000  0.83728000  0.49052000  1.0 -0.0400298558
C  C54  1  0.41272000  0.24640000  0.58141000  1.0 -0.0400298558
C  C55  1  0.00360000  0.49052000  0.83728000  1.0 -0.0400298558
C  C56  1  0.66859000  0.00360000  0.83728000  1.0 -0.0400298558
C  C57  1  0.24640000  0.41272000  0.75948000  1.0 -0.0400298558
C  C58  1  0.83728000  0.49052000  0.66859000  1.0 -0.0400298558
C  C59  1  0.24640000  0.75948000  0.58141000  1.0 -0.0400298558
C  C60  1  0.58141000  0.24640000  0.75948000  1.0 -0.0400298558
C  C61  1  0.24640000  0.58141000  0.41272000  1.0 -0.0400298558
C  C62  1  0.41272000  0.58141000  0.75948000  1.0 -0.0400298558
C  C63  1  0.75948000  0.41272000  0.58141000  1.0 -0.0400298558
C  C64  1  0.75948000  0.24640000  0.41272000  1.0 -0.0400298558
C  C65  1  0.58141000  0.41272000  0.24640000  1.0 -0.0400298558
C  C66  1  0.41272000  0.75948000  0.24640000  1.0 -0.0400298558
C  C67  1  0.49052000  0.66859000  0.83728000  1.0 -0.0400298558
C  C68  1  0.66859000  0.49052000  0.00360000  1.0 -0.0400298558
C  C69  1  0.83728000  0.66859000  0.00360000  1.0 -0.0400298558
C  C70  1  0.49052000  0.00360000  0.66859000  1.0 -0.0400298558
C  C71  1  0.49052000  0.83728000  0.00360000  1.0 -0.0400298558
C  C72  1  0.00360000  0.66859000  0.49052000  1.0 -0.0400298558
C  C73  1  0.49052000  0.66859000  0.00360000  1.0 -0.0400298558
C  C74  1  0.41272000  0.24640000  0.75948000  1.0 -0.0400298558
C  C75  1  0.66859000  0.49052000  0.83728000  1.0 -0.0400298558
C  C76  1  0.24640000  0.41272000  0.58141000  1.0 -0.0400298558
C  C77  1  0.58141000  0.41272000  0.75948000  1.0 -0.0400298558
C  C78  1  0.83728000  0.00360000  0.66859000  1.0 -0.0400298558
C  C79  1  0.24640000  0.75948000  0.41272000  1.0 -0.0400298558
C  C80  1  0.58141000  0.24640000  0.41272000  1.0 -0.0400298558
C  C81  1  0.00360000  0.83728000  0.49052000  1.0 -0.0400298558
C  C82  1  0.41272000  0.75948000  0.58141000  1.0 -0.0400298558
C  C83  1  0.00360000  0.49052000  0.66859000  1.0 -0.0400298558
C  C84  1  0.66859000  0.00360000  0.49052000  1.0 -0.0400298558
C  C85  1  0.00360000  0.66859000  0.83728000  1.0 -0.0400298558
C  C86  1  0.83728000  0.66859000  0.49052000  1.0 -0.0400298558
C  C87  1  0.49052000  0.83728000  0.66859000  1.0 -0.0400298558
C  C88  1  0.49052000  0.00360000  0.83728000  1.0 -0.0400298558
C  C89  1  0.66859000  0.83728000  0.00360000  1.0 -0.0400298558
C  C90  1  0.83728000  0.49052000  0.00360000  1.0 -0.0400298558
C  C91  1  0.75948000  0.58141000  0.41272000  1.0 -0.0400298558
C  C92  1  0.58141000  0.75948000  0.24640000  1.0 -0.0400298558
C  C93  1  0.41272000  0.58141000  0.24640000  1.0 -0.0400298558
C  C94  1  0.75948000  0.24640000  0.58141000  1.0 -0.0400298558
C  C95  1  0.75948000  0.41272000  0.24640000  1.0 -0.0400298558
C  C96  1  0.24640000  0.58141000  0.75948000  1.0 -0.0400298558
C  C97  1  0.77144000  0.51887000  0.22980000  1.0 -0.0284503284
C  C98  1  0.77010000  0.02020000  0.47856000  1.0 -0.0284503284
C  C99  1  0.51887000  0.77144000  0.47990000  1.0 -0.0284503284
C  C100  1  0.02020000  0.77010000  0.73113000  1.0 -0.0284503284
C  C101  1  0.73113000  0.77010000  0.47856000  1.0 -0.0284503284
C  C102  1  0.47990000  0.22980000  0.51887000  1.0 -0.0284503284
C  C103  1  0.02020000  0.47856000  0.77010000  1.0 -0.0284503284
C  C104  1  0.73113000  0.02020000  0.77010000  1.0 -0.0284503284
C  C105  1  0.22980000  0.47990000  0.77144000  1.0 -0.0284503284
C  C106  1  0.77010000  0.47856000  0.73113000  1.0 -0.0284503284
C  C107  1  0.22980000  0.77144000  0.51887000  1.0 -0.0284503284
C  C108  1  0.51887000  0.22980000  0.77144000  1.0 -0.0284503284
C  C109  1  0.22980000  0.51887000  0.47990000  1.0 -0.0284503284
C  C110  1  0.47990000  0.51887000  0.77144000  1.0 -0.0284503284
C  C111  1  0.77144000  0.47990000  0.51887000  1.0 -0.0284503284
C  C112  1  0.77144000  0.22980000  0.47990000  1.0 -0.0284503284
C  C113  1  0.51887000  0.47990000  0.22980000  1.0 -0.0284503284
C  C114  1  0.47990000  0.77144000  0.22980000  1.0 -0.0284503284
C  C115  1  0.47856000  0.73113000  0.77010000  1.0 -0.0284503284
C  C116  1  0.73113000  0.47856000  0.02020000  1.0 -0.0284503284
C  C117  1  0.77010000  0.73113000  0.02020000  1.0 -0.0284503284
C  C118  1  0.47856000  0.02020000  0.73113000  1.0 -0.0284503284
C  C119  1  0.47856000  0.77010000  0.02020000  1.0 -0.0284503284
C  C120  1  0.02020000  0.73113000  0.47856000  1.0 -0.0284503284
C  C121  1  0.47856000  0.73113000  0.02020000  1.0 -0.0284503284
C  C122  1  0.47990000  0.22980000  0.77144000  1.0 -0.0284503284
C  C123  1  0.73113000  0.47856000  0.77010000  1.0 -0.0284503284
C  C124  1  0.22980000  0.47990000  0.51887000  1.0 -0.0284503284
C  C125  1  0.51887000  0.47990000  0.77144000  1.0 -0.0284503284
C  C126  1  0.77010000  0.02020000  0.73113000  1.0 -0.0284503284
C  C127  1  0.22980000  0.77144000  0.47990000  1.0 -0.0284503284
C  C128  1  0.51887000  0.22980000  0.47990000  1.0 -0.0284503284
C  C129  1  0.02020000  0.77010000  0.47856000  1.0 -0.0284503284
C  C130  1  0.47990000  0.77144000  0.51887000  1.0 -0.0284503284
C  C131  1  0.02020000  0.47856000  0.73113000  1.0 -0.0284503284
C  C132  1  0.73113000  0.02020000  0.47856000  1.0 -0.0284503284
C  C133  1  0.02020000  0.73113000  0.77010000  1.0 -0.0284503284
C  C134  1  0.77010000  0.73113000  0.47856000  1.0 -0.0284503284
C  C135  1  0.47856000  0.77010000  0.73113000  1.0 -0.0284503284
C  C136  1  0.47856000  0.02020000  0.77010000  1.0 -0.0284503284
C  C137  1  0.73113000  0.77010000  0.02020000  1.0 -0.0284503284
C  C138  1  0.77010000  0.47856000  0.02020000  1.0 -0.0284503284
C  C139  1  0.77144000  0.51887000  0.47990000  1.0 -0.0284503284
C  C140  1  0.51887000  0.77144000  0.22980000  1.0 -0.0284503284
C  C141  1  0.47990000  0.51887000  0.22980000  1.0 -0.0284503284
C  C142  1  0.77144000  0.22980000  0.51887000  1.0 -0.0284503284
C  C143  1  0.77144000  0.47990000  0.22980000  1.0 -0.0284503284
C  C144  1  0.22980000  0.51887000  0.77144000  1.0 -0.0284503284
C  C145  1  0.80545000  0.53820000  0.19627000  1.0 -0.0400298558
C  C146  1  0.78991000  0.05373000  0.44455000  1.0 -0.0400298558
C  C147  1  0.53820000  0.80545000  0.46009000  1.0 -0.0400298558
C  C148  1  0.05373000  0.78991000  0.71180000  1.0 -0.0457500191
C  C149  1  0.71180000  0.78991000  0.44455000  1.0 -0.0400298558
C  C150  1  0.46009000  0.19627000  0.53820000  1.0 -0.0400298558
C  C151  1  0.05373000  0.44455000  0.78991000  1.0 -0.0457500191
C  C152  1  0.71180000  0.05373000  0.78991000  1.0 -0.0400298558
C  C153  1  0.19627000  0.46009000  0.80545000  1.0 -0.0400298558
C  C154  1  0.78991000  0.44455000  0.71180000  1.0 -0.0400298558
C  C155  1  0.19627000  0.80545000  0.53820000  1.0 -0.0400298558
C  C156  1  0.53820000  0.19627000  0.80545000  1.0 -0.0400298558
C  C157  1  0.19627000  0.53820000  0.46009000  1.0 -0.0400298558
C  C158  1  0.46009000  0.53820000  0.80545000  1.0 -0.0457500191
C  C159  1  0.80545000  0.46009000  0.53820000  1.0 -0.0400298558
C  C160  1  0.80545000  0.19627000  0.46009000  1.0 -0.0400298558
C  C161  1  0.53820000  0.46009000  0.19627000  1.0 -0.0457500191
C  C162  1  0.46009000  0.80545000  0.19627000  1.0 -0.0457500191
C  C163  1  0.44455000  0.71180000  0.78991000  1.0 -0.0457500191
C  C164  1  0.71180000  0.44455000  0.05373000  1.0 -0.0400298558
C  C165  1  0.78991000  0.71180000  0.05373000  1.0 -0.0400298558
C  C166  1  0.44455000  0.05373000  0.71180000  1.0 -0.0457500191
C  C167  1  0.44455000  0.78991000  0.05373000  1.0 -0.0457500191
C  C168  1  0.05373000  0.71180000  0.44455000  1.0 -0.0457500191
C  C169  1  0.44455000  0.71180000  0.05373000  1.0 -0.0457500191
C  C170  1  0.46009000  0.19627000  0.80545000  1.0 -0.0400298558
C  C171  1  0.71180000  0.44455000  0.78991000  1.0 -0.0400298558
C  C172  1  0.19627000  0.46009000  0.53820000  1.0 -0.0400298558
C  C173  1  0.53820000  0.46009000  0.80545000  1.0 -0.0400298558
C  C174  1  0.78991000  0.05373000  0.71180000  1.0 -0.0400298558
C  C175  1  0.19627000  0.80545000  0.46009000  1.0 -0.0457500191
C  C176  1  0.53820000  0.19627000  0.46009000  1.0 -0.0400298558
C  C177  1  0.05373000  0.78991000  0.44455000  1.0 -0.0400298558
C  C178  1  0.46009000  0.80545000  0.53820000  1.0 -0.0400298558
C  C179  1  0.05373000  0.44455000  0.71180000  1.0 -0.0457500191
C  C180  1  0.71180000  0.05373000  0.44455000  1.0 -0.0457500191
C  C181  1  0.05373000  0.71180000  0.78991000  1.0 -0.0457500191
C  C182  1  0.78991000  0.71180000  0.44455000  1.0 -0.0400298558
C  C183  1  0.44455000  0.78991000  0.71180000  1.0 -0.0457500191
C  C184  1  0.44455000  0.05373000  0.78991000  1.0 -0.0457500191
C  C185  1  0.71180000  0.78991000  0.05373000  1.0 -0.0457500191
C  C186  1  0.78991000  0.44455000  0.05373000  1.0 -0.0400298558
C  C187  1  0.80545000  0.53820000  0.46009000  1.0 -0.0457500191
C  C188  1  0.53820000  0.80545000  0.19627000  1.0 -0.0457500191
C  C189  1  0.46009000  0.53820000  0.19627000  1.0 -0.0457500191
C  C190  1  0.80545000  0.19627000  0.53820000  1.0 -0.0400298558
C  C191  1  0.80545000  0.46009000  0.19627000  1.0 -0.0400298558
C  C192  1  0.19627000  0.53820000  0.80545000  1.0 -0.0400298558
C  C193  1  0.83909000  0.51882000  0.16209000  1.0 -0.0660459571
C  C194  1  0.76999000  0.08791000  0.41091000  1.0 -0.0635296069
C  C195  1  0.51882000  0.83909000  0.48001000  1.0 -0.0660459571
C  C196  1  0.08791000  0.76999000  0.73118000  1.0 -0.0660459571
C  C197  1  0.73118000  0.76999000  0.41091000  1.0 -0.0660459571
C  C198  1  0.48001000  0.16209000  0.51882000  1.0 -0.0660459571
C  C199  1  0.08791000  0.41091000  0.76999000  1.0 -0.0635296069
C  C200  1  0.73118000  0.08791000  0.76999000  1.0 -0.0660459571
C  C201  1  0.16209000  0.48001000  0.83909000  1.0 -0.0660459571
C  C202  1  0.76999000  0.41091000  0.73118000  1.0 -0.0660459571
C  C203  1  0.16209000  0.83909000  0.51882000  1.0 -0.0660459571
C  C204  1  0.51882000  0.16209000  0.83909000  1.0 -0.0635296069
C  C205  1  0.16209000  0.51882000  0.48001000  1.0 -0.0660459571
C  C206  1  0.48001000  0.51882000  0.83909000  1.0 -0.0660459571
C  C207  1  0.83909000  0.48001000  0.51882000  1.0 -0.0660459571
C  C208  1  0.83909000  0.16209000  0.48001000  1.0 -0.0660459571
C  C209  1  0.51882000  0.48001000  0.16209000  1.0 -0.0660459571
C  C210  1  0.48001000  0.83909000  0.16209000  1.0 -0.0660459571
C  C211  1  0.41091000  0.73118000  0.76999000  1.0 -0.0635296069
C  C212  1  0.73118000  0.41091000  0.08791000  1.0 -0.0660459571
C  C213  1  0.76999000  0.73118000  0.08791000  1.0 -0.0660459571
C  C214  1  0.41091000  0.08791000  0.73118000  1.0 -0.0660459571
C  C215  1  0.41091000  0.76999000  0.08791000  1.0 -0.0660459571
C  C216  1  0.08791000  0.73118000  0.41091000  1.0 -0.0660459571
C  C217  1  0.41091000  0.73118000  0.08791000  1.0 -0.0660459571
C  C218  1  0.48001000  0.16209000  0.83909000  1.0 -0.0635296069
C  C219  1  0.73118000  0.41091000  0.76999000  1.0 -0.0660459571
C  C220  1  0.16209000  0.48001000  0.51882000  1.0 -0.0635296069
C  C221  1  0.51882000  0.48001000  0.83909000  1.0 -0.0660459571
C  C222  1  0.76999000  0.08791000  0.73118000  1.0 -0.0635296069
C  C223  1  0.16209000  0.83909000  0.48001000  1.0 -0.0660459571
C  C224  1  0.51882000  0.16209000  0.48001000  1.0 -0.0660459571
C  C225  1  0.08791000  0.76999000  0.41091000  1.0 -0.0660459571
C  C226  1  0.48001000  0.83909000  0.51882000  1.0 -0.0635296069
C  C227  1  0.08791000  0.41091000  0.73118000  1.0 -0.0660459571
C  C228  1  0.73118000  0.08791000  0.41091000  1.0 -0.0635296069
C  C229  1  0.08791000  0.73118000  0.76999000  1.0 -0.0660459571
C  C230  1  0.76999000  0.73118000  0.41091000  1.0 -0.0660459571
C  C231  1  0.41091000  0.76999000  0.73118000  1.0 -0.0635296069
C  C232  1  0.41091000  0.08791000  0.76999000  1.0 -0.0660459571
C  C233  1  0.73118000  0.76999000  0.08791000  1.0 -0.0660459571
C  C234  1  0.76999000  0.41091000  0.08791000  1.0 -0.0660459571
C  C235  1  0.83909000  0.51882000  0.48001000  1.0 -0.0660459571
C  C236  1  0.51882000  0.83909000  0.16209000  1.0 -0.0635296069
C  C237  1  0.48001000  0.51882000  0.16209000  1.0 -0.0660459571
C  C238  1  0.83909000  0.16209000  0.51882000  1.0 -0.0635296069
C  C239  1  0.83909000  0.48001000  0.16209000  1.0 -0.0660459571
C  C240  1  0.16209000  0.51882000  0.83909000  1.0 -0.0660459571
C  C241  1  0.90381000  0.49847000  0.09925000  1.0 -0.0400298558
C  C242  1  0.75153000  0.15075000  0.34619000  1.0 -0.0400298558
C  C243  1  0.49847000  0.90381000  0.49847000  1.0 -0.0400298558
C  C244  1  0.15075000  0.75153000  0.75153000  1.0 -0.0400298558
C  C245  1  0.75153000  0.75153000  0.34619000  1.0 -0.0400298558
C  C246  1  0.49847000  0.09925000  0.49847000  1.0 -0.0400298558
C  C247  1  0.15075000  0.34619000  0.75153000  1.0 -0.0400298558
C  C248  1  0.75153000  0.15075000  0.75153000  1.0 -0.0400298558
C  C249  1  0.09925000  0.49847000  0.90381000  1.0 -0.0400298558
C  C250  1  0.75153000  0.34619000  0.75153000  1.0 -0.0400298558
C  C251  1  0.09925000  0.90381000  0.49847000  1.0 -0.0400298558
C  C252  1  0.49847000  0.09925000  0.90381000  1.0 -0.0400298558
C  C253  1  0.09925000  0.49847000  0.49847000  1.0 -0.0400298558
C  C254  1  0.49847000  0.49847000  0.90381000  1.0 -0.0400298558
C  C255  1  0.90381000  0.49847000  0.49847000  1.0 -0.0400298558
C  C256  1  0.90381000  0.09925000  0.49847000  1.0 -0.0400298558
C  C257  1  0.49847000  0.49847000  0.09925000  1.0 -0.0400298558
C  C258  1  0.49847000  0.90381000  0.09925000  1.0 -0.0400298558
C  C259  1  0.34619000  0.75153000  0.75153000  1.0 -0.0400298558
C  C260  1  0.75153000  0.34619000  0.15075000  1.0 -0.0400298558
C  C261  1  0.75153000  0.75153000  0.15075000  1.0 -0.0400298558
C  C262  1  0.34619000  0.15075000  0.75153000  1.0 -0.0400298558
C  C263  1  0.34619000  0.75153000  0.15075000  1.0 -0.0400298558
C  C264  1  0.15075000  0.75153000  0.34619000  1.0 -0.0400298558
C  C265  1  0.94462000  0.49910000  0.05718000  1.0 0.5726252067
C  C266  1  0.75090000  0.19282000  0.30538000  1.0 0.5726252067
C  C267  1  0.49910000  0.94462000  0.49910000  1.0 0.5726252067
C  C268  1  0.19282000  0.75090000  0.75090000  1.0 0.5726252067
C  C269  1  0.75090000  0.75090000  0.30538000  1.0 0.5726252067
C  C270  1  0.49910000  0.05718000  0.49910000  1.0 0.5726252067
C  C271  1  0.19282000  0.30538000  0.75090000  1.0 0.5726252067
C  C272  1  0.75090000  0.19282000  0.75090000  1.0 0.5726252067
C  C273  1  0.05718000  0.49910000  0.94462000  1.0 0.5726252067
C  C274  1  0.75090000  0.30538000  0.75090000  1.0 0.5726252067
C  C275  1  0.05718000  0.94462000  0.49910000  1.0 0.5726252067
C  C276  1  0.49910000  0.05718000  0.94462000  1.0 0.5726252067
C  C277  1  0.05718000  0.49910000  0.49910000  1.0 0.5726252067
C  C278  1  0.49910000  0.49910000  0.94462000  1.0 0.5726252067
C  C279  1  0.94462000  0.49910000  0.49910000  1.0 0.5726252067
C  C280  1  0.94462000  0.05718000  0.49910000  1.0 0.5726252067
C  C281  1  0.49910000  0.49910000  0.05718000  1.0 0.5726252067
C  C282  1  0.49910000  0.94462000  0.05718000  1.0 0.5726252067
C  C283  1  0.30538000  0.75090000  0.75090000  1.0 0.5726252067
C  C284  1  0.75090000  0.30538000  0.19282000  1.0 0.5726252067
C  C285  1  0.75090000  0.75090000  0.19282000  1.0 0.5726252067
C  C286  1  0.30538000  0.19282000  0.75090000  1.0 0.5726252067
C  C287  1  0.30538000  0.75090000  0.19282000  1.0 0.5726252067
C  C288  1  0.19282000  0.75090000  0.30538000  1.0 0.5726252067
C  C289  1  0.79508000  0.57381000  0.21352000  1.0 -0.0869649436
C  C290  1  0.83240000  0.03648000  0.45492000  1.0 -0.0869649436
C  C291  1  0.57381000  0.79508000  0.41760000  1.0 -0.0869649436
C  C292  1  0.03648000  0.83240000  0.67619000  1.0 -0.0869649436
C  C293  1  0.67619000  0.83240000  0.45492000  1.0 -0.0869649436
C  C294  1  0.41760000  0.21352000  0.57381000  1.0 -0.0869649436
C  C295  1  0.03648000  0.45492000  0.83240000  1.0 -0.0869649436
C  C296  1  0.67619000  0.03648000  0.83240000  1.0 -0.0869649436
C  C297  1  0.21352000  0.41760000  0.79508000  1.0 -0.0869649436
C  C298  1  0.83240000  0.45492000  0.67619000  1.0 -0.0869649436
C  C299  1  0.21352000  0.79508000  0.57381000  1.0 -0.0869649436
C  C300  1  0.57381000  0.21352000  0.79508000  1.0 -0.0869649436
C  C301  1  0.21352000  0.57381000  0.41760000  1.0 -0.0869649436
C  C302  1  0.41760000  0.57381000  0.79508000  1.0 -0.0869649436
C  C303  1  0.79508000  0.41760000  0.57381000  1.0 -0.0869649436
C  C304  1  0.79508000  0.21352000  0.41760000  1.0 -0.0869649436
C  C305  1  0.57381000  0.41760000  0.21352000  1.0 -0.0869649436
C  C306  1  0.41760000  0.79508000  0.21352000  1.0 -0.0869649436
C  C307  1  0.45492000  0.67619000  0.83240000  1.0 -0.0869649436
C  C308  1  0.67619000  0.45492000  0.03648000  1.0 -0.0869649436
C  C309  1  0.83240000  0.67619000  0.03648000  1.0 -0.0869649436
C  C310  1  0.45492000  0.03648000  0.67619000  1.0 -0.0869649436
C  C311  1  0.45492000  0.83240000  0.03648000  1.0 -0.0869649436
C  C312  1  0.03648000  0.67619000  0.45492000  1.0 -0.0869649436
C  C313  1  0.45492000  0.67619000  0.03648000  1.0 -0.0869649436
C  C314  1  0.41760000  0.21352000  0.79508000  1.0 -0.0869649436
C  C315  1  0.67619000  0.45492000  0.83240000  1.0 -0.0869649436
C  C316  1  0.21352000  0.41760000  0.57381000  1.0 -0.0869649436
C  C317  1  0.57381000  0.41760000  0.79508000  1.0 -0.0869649436
C  C318  1  0.83240000  0.03648000  0.67619000  1.0 -0.0869649436
C  C319  1  0.21352000  0.79508000  0.41760000  1.0 -0.0869649436
C  C320  1  0.57381000  0.21352000  0.41760000  1.0 -0.0869649436
C  C321  1  0.03648000  0.83240000  0.45492000  1.0 -0.0869649436
C  C322  1  0.41760000  0.79508000  0.57381000  1.0 -0.0869649436
C  C323  1  0.03648000  0.45492000  0.67619000  1.0 -0.0869649436
C  C324  1  0.67619000  0.03648000  0.45492000  1.0 -0.0869649436
C  C325  1  0.03648000  0.67619000  0.83240000  1.0 -0.0869649436
C  C326  1  0.83240000  0.67619000  0.45492000  1.0 -0.0869649436
C  C327  1  0.45492000  0.83240000  0.67619000  1.0 -0.0869649436
C  C328  1  0.45492000  0.03648000  0.83240000  1.0 -0.0869649436
C  C329  1  0.67619000  0.83240000  0.03648000  1.0 -0.0869649436
C  C330  1  0.83240000  0.45492000  0.03648000  1.0 -0.0869649436
C  C331  1  0.79508000  0.57381000  0.41760000  1.0 -0.0869649436
C  C332  1  0.57381000  0.79508000  0.21352000  1.0 -0.0869649436
C  C333  1  0.41760000  0.57381000  0.21352000  1.0 -0.0869649436
C  C334  1  0.79508000  0.21352000  0.57381000  1.0 -0.0869649436
C  C335  1  0.79508000  0.41760000  0.21352000  1.0 -0.0869649436
C  C336  1  0.21352000  0.57381000  0.79508000  1.0 -0.0869649436
C  C337  1  0.74480000  0.54949000  0.25698000  1.0 -0.0869649436
C  C338  1  0.80126000  0.99302000  0.50520000  1.0 -0.0869649436
C  C339  1  0.54949000  0.74480000  0.44874000  1.0 -0.0869649436
C  C340  1  0.99302000  0.80126000  0.70051000  1.0 -0.0869649436
C  C341  1  0.70051000  0.80126000  0.50520000  1.0 -0.0869649436
C  C342  1  0.44874000  0.25698000  0.54949000  1.0 -0.0869649436
C  C343  1  0.99302000  0.50520000  0.80126000  1.0 -0.0869649436
C  C344  1  0.70051000  0.99302000  0.80126000  1.0 -0.0869649436
C  C345  1  0.25698000  0.44874000  0.74480000  1.0 -0.0869649436
C  C346  1  0.80126000  0.50520000  0.70051000  1.0 -0.0869649436
C  C347  1  0.25698000  0.74480000  0.54949000  1.0 -0.0869649436
C  C348  1  0.54949000  0.25698000  0.74480000  1.0 -0.0869649436
C  C349  1  0.25698000  0.54949000  0.44874000  1.0 -0.0869649436
C  C350  1  0.44874000  0.54949000  0.74480000  1.0 -0.0869649436
C  C351  1  0.74480000  0.44874000  0.54949000  1.0 -0.0869649436
C  C352  1  0.74480000  0.25698000  0.44874000  1.0 -0.0869649436
C  C353  1  0.54949000  0.44874000  0.25698000  1.0 -0.0869649436
C  C354  1  0.44874000  0.74480000  0.25698000  1.0 -0.0869649436
C  C355  1  0.50520000  0.70051000  0.80126000  1.0 -0.0869649436
C  C356  1  0.70051000  0.50520000  0.99302000  1.0 -0.0869649436
C  C357  1  0.80126000  0.70051000  0.99302000  1.0 -0.0869649436
C  C358  1  0.50520000  0.99302000  0.70051000  1.0 -0.0869649436
C  C359  1  0.50520000  0.80126000  0.99302000  1.0 -0.0869649436
C  C360  1  0.99302000  0.70051000  0.50520000  1.0 -0.0869649436
C  C361  1  0.50520000  0.70051000  0.99302000  1.0 -0.0869649436
C  C362  1  0.44874000  0.25698000  0.74480000  1.0 -0.0869649436
C  C363  1  0.70051000  0.50520000  0.80126000  1.0 -0.0869649436
C  C364  1  0.25698000  0.44874000  0.54949000  1.0 -0.0869649436
C  C365  1  0.54949000  0.44874000  0.74480000  1.0 -0.0869649436
C  C366  1  0.80126000  0.99302000  0.70051000  1.0 -0.0869649436
C  C367  1  0.25698000  0.74480000  0.44874000  1.0 -0.0869649436
C  C368  1  0.54949000  0.25698000  0.44874000  1.0 -0.0869649436
C  C369  1  0.99302000  0.80126000  0.50520000  1.0 -0.0869649436
C  C370  1  0.44874000  0.74480000  0.54949000  1.0 -0.0869649436
C  C371  1  0.99302000  0.50520000  0.70051000  1.0 -0.0869649436
C  C372  1  0.70051000  0.99302000  0.50520000  1.0 -0.0869649436
C  C373  1  0.99302000  0.70051000  0.80126000  1.0 -0.0869649436
C  C374  1  0.80126000  0.70051000  0.50520000  1.0 -0.0869649436
C  C375  1  0.50520000  0.80126000  0.70051000  1.0 -0.0869649436
C  C376  1  0.50520000  0.99302000  0.80126000  1.0 -0.0869649436
C  C377  1  0.70051000  0.80126000  0.99302000  1.0 -0.0869649436
C  C378  1  0.80126000  0.50520000  0.99302000  1.0 -0.0869649436
C  C379  1  0.74480000  0.54949000  0.44874000  1.0 -0.0869649436
C  C380  1  0.54949000  0.74480000  0.25698000  1.0 -0.0869649436
C  C381  1  0.44874000  0.54949000  0.25698000  1.0 -0.0869649436
C  C382  1  0.74480000  0.25698000  0.54949000  1.0 -0.0869649436
C  C383  1  0.74480000  0.44874000  0.25698000  1.0 -0.0869649436
C  C384  1  0.25698000  0.54949000  0.74480000  1.0 -0.0869649436
C  C385  1  0.88015000  0.52420000  0.12251000  1.0 -0.0635296069
C  C386  1  0.77685000  0.12749000  0.36985000  1.0 -0.0635296069
C  C387  1  0.52420000  0.88015000  0.47315000  1.0 -0.0635296069
C  C388  1  0.12749000  0.77685000  0.72580000  1.0 -0.0635296069
C  C389  1  0.72580000  0.77685000  0.36985000  1.0 -0.0635296069
C  C390  1  0.47315000  0.12251000  0.52420000  1.0 -0.0635296069
C  C391  1  0.12749000  0.36985000  0.77685000  1.0 -0.0635296069
C  C392  1  0.72580000  0.12749000  0.77685000  1.0 -0.0635296069
C  C393  1  0.12251000  0.47315000  0.88015000  1.0 -0.0635296069
C  C394  1  0.77685000  0.36985000  0.72580000  1.0 -0.0635296069
C  C395  1  0.12251000  0.88015000  0.52420000  1.0 -0.0635296069
C  C396  1  0.52420000  0.12251000  0.88015000  1.0 -0.0635296069
C  C397  1  0.12251000  0.52420000  0.47315000  1.0 -0.0635296069
C  C398  1  0.47315000  0.52420000  0.88015000  1.0 -0.0635296069
C  C399  1  0.88015000  0.47315000  0.52420000  1.0 -0.0635296069
C  C400  1  0.88015000  0.12251000  0.47315000  1.0 -0.0635296069
C  C401  1  0.52420000  0.47315000  0.12251000  1.0 -0.0635296069
C  C402  1  0.47315000  0.88015000  0.12251000  1.0 -0.0635296069
C  C403  1  0.36985000  0.72580000  0.77685000  1.0 -0.0635296069
C  C404  1  0.72580000  0.36985000  0.12749000  1.0 -0.0635296069
C  C405  1  0.77685000  0.72580000  0.12749000  1.0 -0.0635296069
C  C406  1  0.36985000  0.12749000  0.72580000  1.0 -0.0635296069
C  C407  1  0.36985000  0.77685000  0.12749000  1.0 -0.0635296069
C  C408  1  0.12749000  0.72580000  0.36985000  1.0 -0.0635296069
C  C409  1  0.36985000  0.72580000  0.12749000  1.0 -0.0635296069
C  C410  1  0.47315000  0.12251000  0.88015000  1.0 -0.0635296069
C  C411  1  0.72580000  0.36985000  0.77685000  1.0 -0.0635296069
C  C412  1  0.12251000  0.47315000  0.52420000  1.0 -0.0660459571
C  C413  1  0.52420000  0.47315000  0.88015000  1.0 -0.0635296069
C  C414  1  0.77685000  0.12749000  0.72580000  1.0 -0.0635296069
C  C415  1  0.12251000  0.88015000  0.47315000  1.0 -0.0635296069
C  C416  1  0.52420000  0.12251000  0.47315000  1.0 -0.0635296069
C  C417  1  0.12749000  0.77685000  0.36985000  1.0 -0.0635296069
C  C418  1  0.47315000  0.88015000  0.52420000  1.0 -0.0635296069
C  C419  1  0.12749000  0.36985000  0.72580000  1.0 -0.0635296069
C  C420  1  0.72580000  0.12749000  0.36985000  1.0 -0.0635296069
C  C421  1  0.12749000  0.72580000  0.77685000  1.0 -0.0635296069
C  C422  1  0.77685000  0.72580000  0.36985000  1.0 -0.0635296069
C  C423  1  0.36985000  0.77685000  0.72580000  1.0 -0.0635296069
C  C424  1  0.36985000  0.12749000  0.77685000  1.0 -0.0635296069
C  C425  1  0.72580000  0.77685000  0.12749000  1.0 -0.0635296069
C  C426  1  0.77685000  0.36985000  0.12749000  1.0 -0.0635296069
C  C427  1  0.88015000  0.52420000  0.47315000  1.0 -0.0635296069
C  C428  1  0.52420000  0.88015000  0.12251000  1.0 -0.0635296069
C  C429  1  0.47315000  0.52420000  0.12251000  1.0 -0.0635296069
C  C430  1  0.88015000  0.12251000  0.52420000  1.0 -0.0635296069
C  C431  1  0.88015000  0.47315000  0.12251000  1.0 -0.0635296069
C  C432  1  0.12251000  0.52420000  0.88015000  1.0 -0.0635296069
S  S1  1  0.88011000  0.54386000  0.12247000  1.0 0.0779970312
S  S2  1  0.79643000  0.12753000  0.36989000  1.0 0.0779970312
S  S3  1  0.54386000  0.88011000  0.45357000  1.0 0.0779970312
S  S4  1  0.12753000  0.79643000  0.70614000  1.0 0.0779970312
S  S5  1  0.70614000  0.79643000  0.36989000  1.0 0.0779970312
S  S6  1  0.45357000  0.12247000  0.54386000  1.0 0.0779970312
S  S7  1  0.12753000  0.36989000  0.79643000  1.0 0.0779970312
S  S8  1  0.70614000  0.12753000  0.79643000  1.0 0.0779970312
S  S9  1  0.12247000  0.45357000  0.88011000  1.0 0.0779970312
S  S10  1  0.79643000  0.36989000  0.70614000  1.0 0.0779970312
S  S11  1  0.12247000  0.88011000  0.54386000  1.0 0.0779970312
S  S12  1  0.54386000  0.12247000  0.88011000  1.0 0.0779970312
S  S13  1  0.12247000  0.54386000  0.45357000  1.0 0.0779970312
S  S14  1  0.45357000  0.54386000  0.88011000  1.0 0.0779970312
S  S15  1  0.88011000  0.45357000  0.54386000  1.0 0.0779970312
S  S16  1  0.88011000  0.12247000  0.45357000  1.0 0.0779970312
S  S17  1  0.54386000  0.45357000  0.12247000  1.0 0.0779970312
S  S18  1  0.45357000  0.88011000  0.12247000  1.0 0.0779970312
S  S19  1  0.36989000  0.70614000  0.79643000  1.0 0.0779970312
S  S20  1  0.70614000  0.36989000  0.12753000  1.0 0.0779970312
S  S21  1  0.79643000  0.70614000  0.12753000  1.0 0.0779970312
S  S22  1  0.36989000  0.12753000  0.70614000  1.0 0.0779970312
S  S23  1  0.36989000  0.79643000  0.12753000  1.0 0.0779970312
S  S24  1  0.12753000  0.70614000  0.36989000  1.0 0.0779970312
S  S25  1  0.36989000  0.70614000  0.12753000  1.0 0.0779970312
S  S26  1  0.45357000  0.12247000  0.88011000  1.0 0.0779970312
S  S27  1  0.70614000  0.36989000  0.79643000  1.0 0.0779970312
S  S28  1  0.12247000  0.45357000  0.54386000  1.0 0.0779970312
S  S29  1  0.54386000  0.45357000  0.88011000  1.0 0.0779970312
S  S30  1  0.79643000  0.12753000  0.70614000  1.0 0.0779970312
S  S31  1  0.12247000  0.88011000  0.45357000  1.0 0.0779970312
S  S32  1  0.54386000  0.12247000  0.45357000  1.0 0.0779970312
S  S33  1  0.12753000  0.79643000  0.36989000  1.0 0.0779970312
S  S34  1  0.45357000  0.88011000  0.54386000  1.0 0.0779970312
S  S35  1  0.12753000  0.36989000  0.70614000  1.0 0.0779970312
S  S36  1  0.70614000  0.12753000  0.36989000  1.0 0.0779970312
S  S37  1  0.12753000  0.70614000  0.79643000  1.0 0.0779970312
S  S38  1  0.79643000  0.70614000  0.36989000  1.0 0.0779970312
S  S39  1  0.36989000  0.79643000  0.70614000  1.0 0.0779970312
S  S40  1  0.36989000  0.12753000  0.79643000  1.0 0.0779970312
S  S41  1  0.70614000  0.79643000  0.12753000  1.0 0.0779970312
S  S42  1  0.79643000  0.36989000  0.12753000  1.0 0.0779970312
S  S43  1  0.88011000  0.54386000  0.45357000  1.0 0.0779970312
S  S44  1  0.54386000  0.88011000  0.12247000  1.0 0.0779970312
S  S45  1  0.45357000  0.54386000  0.12247000  1.0 0.0779970312
S  S46  1  0.88011000  0.12247000  0.54386000  1.0 0.0779970312
S  S47  1  0.88011000  0.45357000  0.12247000  1.0 0.0779970312
S  S48  1  0.12247000  0.54386000  0.88011000  1.0 0.0779970312
S  S49  1  0.73014000  0.54091000  0.27318000  1.0 0.0586982534
S  S50  1  0.79422000  0.97682000  0.51986000  1.0 0.0586982534
S  S51  1  0.54091000  0.73014000  0.45578000  1.0 0.0586982534
S  S52  1  0.97682000  0.79422000  0.70909000  1.0 0.0586982534
S  S53  1  0.70909000  0.79422000  0.51986000  1.0 0.0586982534
S  S54  1  0.45578000  0.27318000  0.54091000  1.0 0.0586982534
S  S55  1  0.97682000  0.51986000  0.79422000  1.0 0.0586982534
S  S56  1  0.70909000  0.97682000  0.79422000  1.0 0.0586982534
S  S57  1  0.27318000  0.45578000  0.73014000  1.0 0.0586982534
S  S58  1  0.79422000  0.51986000  0.70909000  1.0 0.0586982534
S  S59  1  0.27318000  0.73014000  0.54091000  1.0 0.0586982534
S  S60  1  0.54091000  0.27318000  0.73014000  1.0 0.0586982534
S  S61  1  0.27318000  0.54091000  0.45578000  1.0 0.0586982534
S  S62  1  0.45578000  0.54091000  0.73014000  1.0 0.0586982534
S  S63  1  0.73014000  0.45578000  0.54091000  1.0 0.0586982534
S  S64  1  0.73014000  0.27318000  0.45578000  1.0 0.0586982534
S  S65  1  0.54091000  0.45578000  0.27318000  1.0 0.0586982534
S  S66  1  0.45578000  0.73014000  0.27318000  1.0 0.0586982534
S  S67  1  0.51986000  0.70909000  0.79422000  1.0 0.0586982534
S  S68  1  0.70909000  0.51986000  0.97682000  1.0 0.0586982534
S  S69  1  0.79422000  0.70909000  0.97682000  1.0 0.0586982534
S  S70  1  0.51986000  0.97682000  0.70909000  1.0 0.0586982534
S  S71  1  0.51986000  0.79422000  0.97682000  1.0 0.0586982534
S  S72  1  0.97682000  0.70909000  0.51986000  1.0 0.0586982534
S  S73  1  0.51986000  0.70909000  0.97682000  1.0 0.0586982534
S  S74  1  0.45578000  0.27318000  0.73014000  1.0 0.0586982534
S  S75  1  0.70909000  0.51986000  0.79422000  1.0 0.0586982534
S  S76  1  0.27318000  0.45578000  0.54091000  1.0 0.0586982534
S  S77  1  0.54091000  0.45578000  0.73014000  1.0 0.0586982534
S  S78  1  0.79422000  0.97682000  0.70909000  1.0 0.0586982534
S  S79  1  0.27318000  0.73014000  0.45578000  1.0 0.0586982534
S  S80  1  0.54091000  0.27318000  0.45578000  1.0 0.0586982534
S  S81  1  0.97682000  0.79422000  0.51986000  1.0 0.0586982534
S  S82  1  0.45578000  0.73014000  0.54091000  1.0 0.0586982534
S  S83  1  0.97682000  0.51986000  0.70909000  1.0 0.0586982534
S  S84  1  0.70909000  0.97682000  0.51986000  1.0 0.0586982534
S  S85  1  0.97682000  0.70909000  0.79422000  1.0 0.0586982534
S  S86  1  0.79422000  0.70909000  0.51986000  1.0 0.0586982534
S  S87  1  0.51986000  0.79422000  0.70909000  1.0 0.0586982534
S  S88  1  0.51986000  0.97682000  0.79422000  1.0 0.0586982534
S  S89  1  0.70909000  0.79422000  0.97682000  1.0 0.0586982534
S  S90  1  0.79422000  0.51986000  0.97682000  1.0 0.0586982534
S  S91  1  0.73014000  0.54091000  0.45578000  1.0 0.0586982534
S  S92  1  0.54091000  0.73014000  0.27318000  1.0 0.0586982534
S  S93  1  0.45578000  0.54091000  0.27318000  1.0 0.0586982534
S  S94  1  0.73014000  0.27318000  0.54091000  1.0 0.0586982534
S  S95  1  0.73014000  0.45578000  0.27318000  1.0 0.0586982534
S  S96  1  0.27318000  0.54091000  0.73014000  1.0 0.0586982534
S  S97  1  0.80891000  0.58422000  0.19501000  1.0 0.0342476082
S  S98  1  0.83813000  0.05499000  0.44109000  1.0 0.0342476082
S  S99  1  0.58422000  0.80891000  0.41187000  1.0 0.0342476082
S  S100  1  0.05499000  0.83813000  0.66578000  1.0 0.0342476082
S  S101  1  0.66578000  0.83813000  0.44109000  1.0 0.0342476082
S  S102  1  0.41187000  0.19501000  0.58422000  1.0 0.0342476082
S  S103  1  0.05499000  0.44109000  0.83813000  1.0 0.0342476082
S  S104  1  0.66578000  0.05499000  0.83813000  1.0 0.0342476082
S  S105  1  0.19501000  0.41187000  0.80891000  1.0 0.0342476082
S  S106  1  0.83813000  0.44109000  0.66578000  1.0 0.0342476082
S  S107  1  0.19501000  0.80891000  0.58422000  1.0 0.0342476082
S  S108  1  0.58422000  0.19501000  0.80891000  1.0 0.0342476082
S  S109  1  0.19501000  0.58422000  0.41187000  1.0 0.0342476082
S  S110  1  0.41187000  0.58422000  0.80891000  1.0 0.0342476082
S  S111  1  0.80891000  0.41187000  0.58422000  1.0 0.0342476082
S  S112  1  0.80891000  0.19501000  0.41187000  1.0 0.0342476082
S  S113  1  0.58422000  0.41187000  0.19501000  1.0 0.0342476082
S  S114  1  0.41187000  0.80891000  0.19501000  1.0 0.0342476082
S  S115  1  0.44109000  0.66578000  0.83813000  1.0 0.0342476082
S  S116  1  0.66578000  0.44109000  0.05499000  1.0 0.0353702672
S  S117  1  0.83813000  0.66578000  0.05499000  1.0 0.0342476082
S  S118  1  0.44109000  0.05499000  0.66578000  1.0 0.0342476082
S  S119  1  0.44109000  0.83813000  0.05499000  1.0 0.0342476082
S  S120  1  0.05499000  0.66578000  0.44109000  1.0 0.0342476082
S  S121  1  0.44109000  0.66578000  0.05499000  1.0 0.0342476082
S  S122  1  0.41187000  0.19501000  0.80891000  1.0 0.0342476082
S  S123  1  0.66578000  0.44109000  0.83813000  1.0 0.0342476082
S  S124  1  0.19501000  0.41187000  0.58422000  1.0 0.0342476082
S  S125  1  0.58422000  0.41187000  0.80891000  1.0 0.0342476082
S  S126  1  0.83813000  0.05499000  0.66578000  1.0 0.0342476082
S  S127  1  0.19501000  0.80891000  0.41187000  1.0 0.0342476082
S  S128  1  0.58422000  0.19501000  0.41187000  1.0 0.0342476082
S  S129  1  0.05499000  0.83813000  0.44109000  1.0 0.0342476082
S  S130  1  0.41187000  0.80891000  0.58422000  1.0 0.0342476082
S  S131  1  0.05499000  0.44109000  0.66578000  1.0 0.0342476082
S  S132  1  0.66578000  0.05499000  0.44109000  1.0 0.0342476082
S  S133  1  0.05499000  0.66578000  0.83813000  1.0 0.0342476082
S  S134  1  0.83813000  0.66578000  0.44109000  1.0 0.0342476082
S  S135  1  0.44109000  0.83813000  0.66578000  1.0 0.0353702672
S  S136  1  0.44109000  0.05499000  0.83813000  1.0 0.0342476082
S  S137  1  0.66578000  0.83813000  0.05499000  1.0 0.0353702672
S  S138  1  0.83813000  0.44109000  0.05499000  1.0 0.0353702672
S  S139  1  0.80891000  0.58422000  0.41187000  1.0 0.0353702672
S  S140  1  0.58422000  0.80891000  0.19501000  1.0 0.0342476082
S  S141  1  0.41187000  0.58422000  0.19501000  1.0 0.0342476082
S  S142  1  0.80891000  0.19501000  0.58422000  1.0 0.0342476082
S  S143  1  0.80891000  0.41187000  0.19501000  1.0 0.0342476082
S  S144  1  0.19501000  0.58422000  0.80891000  1.0 0.0342476082
O  O1  1  0.70313000  0.62164000  0.29705000  1.0 -0.5140795605
O  O2  1  0.87181000  0.95295000  0.54687000  1.0 -0.5154898876
O  O3  1  0.62164000  0.70313000  0.37819000  1.0 -0.5140795605
O  O4  1  0.95295000  0.87181000  0.62836000  1.0 -0.5154898876
O  O5  1  0.62836000  0.87181000  0.54687000  1.0 -0.5154898876
O  O6  1  0.37819000  0.29705000  0.62164000  1.0 -0.5140795605
O  O7  1  0.95295000  0.54687000  0.87181000  1.0 -0.5140795605
O  O8  1  0.62836000  0.95295000  0.87181000  1.0 -0.5154898876
O  O9  1  0.29705000  0.37819000  0.70313000  1.0 -0.5140795605
O  O10  1  0.87181000  0.54687000  0.62836000  1.0 -0.5154898876
O  O11  1  0.29705000  0.70313000  0.62164000  1.0 -0.5140795605
O  O12  1  0.62164000  0.29705000  0.70313000  1.0 -0.5140795605
O  O13  1  0.29705000  0.62164000  0.37819000  1.0 -0.5154898876
O  O14  1  0.37819000  0.62164000  0.70313000  1.0 -0.5154898876
O  O15  1  0.70313000  0.37819000  0.62164000  1.0 -0.5140795605
O  O16  1  0.70313000  0.29705000  0.37819000  1.0 -0.5140795605
O  O17  1  0.62164000  0.37819000  0.29705000  1.0 -0.5140795605
O  O18  1  0.37819000  0.70313000  0.29705000  1.0 -0.5154898876
O  O19  1  0.54687000  0.62836000  0.87181000  1.0 -0.5140795605
O  O20  1  0.62836000  0.54687000  0.95295000  1.0 -0.5140795605
O  O21  1  0.87181000  0.62836000  0.95295000  1.0 -0.5140795605
O  O22  1  0.54687000  0.95295000  0.62836000  1.0 -0.5154898876
O  O23  1  0.54687000  0.87181000  0.95295000  1.0 -0.5154898876
O  O24  1  0.95295000  0.62836000  0.54687000  1.0 -0.5140795605
O  O25  1  0.54687000  0.62836000  0.95295000  1.0 -0.5154898876
O  O26  1  0.37819000  0.29705000  0.70313000  1.0 -0.5140795605
O  O27  1  0.62836000  0.54687000  0.87181000  1.0 -0.5140795605
O  O28  1  0.29705000  0.37819000  0.62164000  1.0 -0.5140795605
O  O29  1  0.62164000  0.37819000  0.70313000  1.0 -0.5140795605
O  O30  1  0.87181000  0.95295000  0.62836000  1.0 -0.5154898876
O  O31  1  0.29705000  0.70313000  0.37819000  1.0 -0.5140795605
O  O32  1  0.62164000  0.29705000  0.37819000  1.0 -0.5140795605
O  O33  1  0.95295000  0.87181000  0.54687000  1.0 -0.5154898876
O  O34  1  0.37819000  0.70313000  0.62164000  1.0 -0.5140795605
O  O35  1  0.95295000  0.54687000  0.62836000  1.0 -0.5154898876
O  O36  1  0.62836000  0.95295000  0.54687000  1.0 -0.5154898876
O  O37  1  0.95295000  0.62836000  0.87181000  1.0 -0.5140795605
O  O38  1  0.87181000  0.62836000  0.54687000  1.0 -0.5140795605
O  O39  1  0.54687000  0.87181000  0.62836000  1.0 -0.5154898876
O  O40  1  0.54687000  0.95295000  0.87181000  1.0 -0.5154898876
O  O41  1  0.62836000  0.87181000  0.95295000  1.0 -0.5140795605
O  O42  1  0.87181000  0.54687000  0.95295000  1.0 -0.5140795605
O  O43  1  0.70313000  0.62164000  0.37819000  1.0 -0.5154898876
O  O44  1  0.62164000  0.70313000  0.29705000  1.0 -0.5140795605
O  O45  1  0.37819000  0.62164000  0.29705000  1.0 -0.5154898876
O  O46  1  0.70313000  0.29705000  0.62164000  1.0 -0.5140795605
O  O47  1  0.70313000  0.37819000  0.29705000  1.0 -0.5140795605
O  O48  1  0.29705000  0.62164000  0.70313000  1.0 -0.5140795605
O  O49  1  0.77024000  0.63419000  0.25620000  1.0 -0.5474423675
O  O50  1  0.91062000  0.99380000  0.47976000  1.0 -0.5474423675
O  O51  1  0.63419000  0.77024000  0.33938000  1.0 -0.5474423675
O  O52  1  0.99380000  0.91062000  0.61581000  1.0 -0.5474423675
O  O53  1  0.61581000  0.91062000  0.47976000  1.0 -0.5474423675
O  O54  1  0.33938000  0.25620000  0.63419000  1.0 -0.5474423675
O  O55  1  0.99380000  0.47976000  0.91062000  1.0 -0.5474423675
O  O56  1  0.61581000  0.99380000  0.91062000  1.0 -0.5474423675
O  O57  1  0.25620000  0.33938000  0.77024000  1.0 -0.5474423675
O  O58  1  0.91062000  0.47976000  0.61581000  1.0 -0.5474423675
O  O59  1  0.25620000  0.77024000  0.63419000  1.0 -0.5474423675
O  O60  1  0.63419000  0.25620000  0.77024000  1.0 -0.5474423675
O  O61  1  0.25620000  0.63419000  0.33938000  1.0 -0.5474423675
O  O62  1  0.33938000  0.63419000  0.77024000  1.0 -0.5474423675
O  O63  1  0.77024000  0.33938000  0.63419000  1.0 -0.5474423675
O  O64  1  0.77024000  0.25620000  0.33938000  1.0 -0.5474423675
O  O65  1  0.63419000  0.33938000  0.25620000  1.0 -0.5474423675
O  O66  1  0.33938000  0.77024000  0.25620000  1.0 -0.5474423675
O  O67  1  0.47976000  0.61581000  0.91062000  1.0 -0.5474423675
O  O68  1  0.61581000  0.47976000  0.99380000  1.0 -0.5474423675
O  O69  1  0.91062000  0.61581000  0.99380000  1.0 -0.5474423675
O  O70  1  0.47976000  0.99380000  0.61581000  1.0 -0.5474423675
O  O71  1  0.47976000  0.91062000  0.99380000  1.0 -0.5474423675
O  O72  1  0.99380000  0.61581000  0.47976000  1.0 -0.5474423675
O  O73  1  0.47976000  0.61581000  0.99380000  1.0 -0.5474423675
O  O74  1  0.33938000  0.25620000  0.77024000  1.0 -0.5474423675
O  O75  1  0.61581000  0.47976000  0.91062000  1.0 -0.5474423675
O  O76  1  0.25620000  0.33938000  0.63419000  1.0 -0.5474423675
O  O77  1  0.63419000  0.33938000  0.77024000  1.0 -0.5474423675
O  O78  1  0.91062000  0.99380000  0.61581000  1.0 -0.5474423675
O  O79  1  0.25620000  0.77024000  0.33938000  1.0 -0.5474423675
O  O80  1  0.63419000  0.25620000  0.33938000  1.0 -0.5474423675
O  O81  1  0.99380000  0.91062000  0.47976000  1.0 -0.5474423675
O  O82  1  0.33938000  0.77024000  0.63419000  1.0 -0.5474423675
O  O83  1  0.99380000  0.47976000  0.61581000  1.0 -0.5474423675
O  O84  1  0.61581000  0.99380000  0.47976000  1.0 -0.5474423675
O  O85  1  0.99380000  0.61581000  0.91062000  1.0 -0.5474423675
O  O86  1  0.91062000  0.61581000  0.47976000  1.0 -0.5474423675
O  O87  1  0.47976000  0.91062000  0.61581000  1.0 -0.5474423675
O  O88  1  0.47976000  0.99380000  0.91062000  1.0 -0.5474423675
O  O89  1  0.61581000  0.91062000  0.99380000  1.0 -0.5474423675
O  O90  1  0.91062000  0.47976000  0.99380000  1.0 -0.5474423675
O  O91  1  0.77024000  0.63419000  0.33938000  1.0 -0.5474423675
O  O92  1  0.63419000  0.77024000  0.25620000  1.0 -0.5474423675
O  O93  1  0.33938000  0.63419000  0.25620000  1.0 -0.5474423675
O  O94  1  0.77024000  0.25620000  0.63419000  1.0 -0.5474423675
O  O95  1  0.77024000  0.33938000  0.25620000  1.0 -0.5474423675
O  O96  1  0.25620000  0.63419000  0.77024000  1.0 -0.5474423675
O  O97  1  0.95946000  0.53071000  0.04170000  1.0 -0.5285206879
O  O98  1  0.78186000  0.20830000  0.29054000  1.0 -0.5285206879
O  O99  1  0.53071000  0.95946000  0.46814000  1.0 -0.5285206879
O  O100  1  0.20830000  0.78186000  0.71929000  1.0 -0.5285206879
O  O101  1  0.71929000  0.78186000  0.29054000  1.0 -0.5285206879
O  O102  1  0.46814000  0.04170000  0.53071000  1.0 -0.5285206879
O  O103  1  0.20830000  0.29054000  0.78186000  1.0 -0.5285206879
O  O104  1  0.71929000  0.20830000  0.78186000  1.0 -0.5285206879
O  O105  1  0.04170000  0.46814000  0.95946000  1.0 -0.5285206879
O  O106  1  0.78186000  0.29054000  0.71929000  1.0 -0.5285206879
O  O107  1  0.04170000  0.95946000  0.53071000  1.0 -0.5285206879
O  O108  1  0.53071000  0.04170000  0.95946000  1.0 -0.5285206879
O  O109  1  0.04170000  0.53071000  0.46814000  1.0 -0.5285206879
O  O110  1  0.46814000  0.53071000  0.95946000  1.0 -0.5285206879
O  O111  1  0.95946000  0.46814000  0.53071000  1.0 -0.5285206879
O  O112  1  0.95946000  0.04170000  0.46814000  1.0 -0.5285206879
O  O113  1  0.53071000  0.46814000  0.04170000  1.0 -0.5285206879
O  O114  1  0.46814000  0.95946000  0.04170000  1.0 -0.5285206879
O  O115  1  0.29054000  0.71929000  0.78186000  1.0 -0.5285206879
O  O116  1  0.71929000  0.29054000  0.20830000  1.0 -0.5285206879
O  O117  1  0.78186000  0.71929000  0.20830000  1.0 -0.5285206879
O  O118  1  0.29054000  0.20830000  0.71929000  1.0 -0.5285206879
O  O119  1  0.29054000  0.78186000  0.20830000  1.0 -0.5285206879
O  O120  1  0.20830000  0.71929000  0.29054000  1.0 -0.5285206879
O  O121  1  0.29054000  0.71929000  0.20830000  1.0 -0.5285206879
O  O122  1  0.46814000  0.04170000  0.95946000  1.0 -0.5285206879
O  O123  1  0.71929000  0.29054000  0.78186000  1.0 -0.5285206879
O  O124  1  0.04170000  0.46814000  0.53071000  1.0 -0.5285206879
O  O125  1  0.53071000  0.46814000  0.95946000  1.0 -0.5285206879
O  O126  1  0.78186000  0.20830000  0.71929000  1.0 -0.5285206879
O  O127  1  0.04170000  0.95946000  0.46814000  1.0 -0.5285206879
O  O128  1  0.53071000  0.04170000  0.46814000  1.0 -0.5285206879
O  O129  1  0.20830000  0.78186000  0.29054000  1.0 -0.5285206879
O  O130  1  0.46814000  0.95946000  0.53071000  1.0 -0.5285206879
O  O131  1  0.20830000  0.29054000  0.71929000  1.0 -0.5285206879
O  O132  1  0.71929000  0.20830000  0.29054000  1.0 -0.5285206879
O  O133  1  0.20830000  0.71929000  0.78186000  1.0 -0.5285206879
O  O134  1  0.78186000  0.71929000  0.29054000  1.0 -0.5285206879
O  O135  1  0.29054000  0.78186000  0.71929000  1.0 -0.5285206879
O  O136  1  0.29054000  0.20830000  0.78186000  1.0 -0.5285206879
O  O137  1  0.71929000  0.78186000  0.20830000  1.0 -0.5285206879
O  O138  1  0.78186000  0.29054000  0.20830000  1.0 -0.5285206879
O  O139  1  0.95946000  0.53071000  0.46814000  1.0 -0.5285206879
O  O140  1  0.53071000  0.95946000  0.04170000  1.0 -0.5285206879
O  O141  1  0.46814000  0.53071000  0.04170000  1.0 -0.5285206879
O  O142  1  0.95946000  0.04170000  0.53071000  1.0 -0.5285206879
O  O143  1  0.95946000  0.46814000  0.04170000  1.0 -0.5285206879
O  O144  1  0.04170000  0.53071000  0.95946000  1.0 -0.5285206879
O  O145  1  0.70521000  0.70521000  0.29479000  1.0 -0.8736840039
O  O146  1  0.95521000  0.95521000  0.54479000  1.0 -0.8756622754
O  O147  1  0.54479000  0.95521000  0.54479000  1.0 -0.8736840039
O  O148  1  0.29479000  0.29479000  0.70521000  1.0 -0.8736840039
O  O149  1  0.95521000  0.54479000  0.95521000  1.0 -0.8736840039
O  O150  1  0.54479000  0.95521000  0.95521000  1.0 -0.8756622754
O  O151  1  0.95521000  0.54479000  0.54479000  1.0 -0.8736840039
O  O152  1  0.29479000  0.70521000  0.70521000  1.0 -0.8756622754
O  O153  1  0.70521000  0.29479000  0.70521000  1.0 -0.8736840039
O  O154  1  0.29479000  0.70521000  0.29479000  1.0 -0.8736840039
O  O155  1  0.70521000  0.29479000  0.29479000  1.0 -0.8736840039
O  O156  1  0.54479000  0.54479000  0.95521000  1.0 -0.8736840039
