# DDEC6 charges by PACMAN v1.1 (https://github.com/mtap-research/PACMAN-charge/)
data_LICXII_ASR_pacman
_symmetry_space_group_name_H-M   'P 1'
_cell_length_a   21.95790000
_cell_length_b   21.95790000
_cell_length_c   21.95790000
_cell_angle_alpha   90.00000000
_cell_angle_beta   90.00000000
_cell_angle_gamma   90.00000000
_symmetry_Int_Tables_number   1
_chemical_formula_structural   Fe3H9C24N3O13
_chemical_formula_sum   'Fe24 H72 C192 N24 O104'
_cell_volume   10586.98770444
_cell_formula_units_Z   8
loop_
 _symmetry_equiv_pos_site_id
 _symmetry_equiv_pos_as_xyz
  1  'x, y, z'
loop_
 _atom_site_type_symbol
 _atom_site_label
 _atom_site_symmetry_multiplicity
 _atom_site_fract_x
 _atom_site_fract_y
 _atom_site_fract_z
 _atom_site_occupancy
 _atom_site_charge
Fe  Fe1  1  0.31902000  0.73880000  0.80220000  1.0 1.2137742637
Fe  Fe2  1  0.68098000  0.26120000  0.80220000  1.0 1.2137742637
Fe  Fe3  1  0.68098000  0.73880000  0.19780000  1.0 1.2137742637
Fe  Fe4  1  0.31902000  0.26120000  0.19780000  1.0 1.2137742637
Fe  Fe5  1  0.80220000  0.31902000  0.73880000  1.0 1.2137742637
Fe  Fe6  1  0.80220000  0.68098000  0.26120000  1.0 1.2137742637
Fe  Fe7  1  0.19780000  0.68098000  0.73880000  1.0 1.2137742637
Fe  Fe8  1  0.19780000  0.31902000  0.26120000  1.0 1.2137742637
Fe  Fe9  1  0.73880000  0.80220000  0.31902000  1.0 1.2137742637
Fe  Fe10  1  0.26120000  0.80220000  0.68098000  1.0 1.2137742637
Fe  Fe11  1  0.73880000  0.19780000  0.68098000  1.0 1.2137742637
Fe  Fe12  1  0.26120000  0.19780000  0.31902000  1.0 1.2137742637
Fe  Fe13  1  0.23880000  0.81902000  0.30220000  1.0 1.2159037113
Fe  Fe14  1  0.76120000  0.18098000  0.30220000  1.0 1.2159037113
Fe  Fe15  1  0.23880000  0.18098000  0.69780000  1.0 1.2137742637
Fe  Fe16  1  0.76120000  0.81902000  0.69780000  1.0 1.2159037113
Fe  Fe17  1  0.81902000  0.30220000  0.23880000  1.0 1.2159037113
Fe  Fe18  1  0.18098000  0.30220000  0.76120000  1.0 1.2137742637
Fe  Fe19  1  0.18098000  0.69780000  0.23880000  1.0 1.2137742637
Fe  Fe20  1  0.81902000  0.69780000  0.76120000  1.0 1.2159037113
Fe  Fe21  1  0.30220000  0.23880000  0.81902000  1.0 1.2137742637
Fe  Fe22  1  0.30220000  0.76120000  0.18098000  1.0 1.2159037113
Fe  Fe23  1  0.69780000  0.23880000  0.18098000  1.0 1.2159037113
Fe  Fe24  1  0.69780000  0.76120000  0.81902000  1.0 1.2137742637
H  H1  1  0.25435000  0.49047000  0.77736000  1.0 0.1401668712
H  H2  1  0.74565000  0.50953000  0.77736000  1.0 0.1401668712
H  H3  1  0.74565000  0.49047000  0.22264000  1.0 0.1401668712
H  H4  1  0.25435000  0.50953000  0.22264000  1.0 0.1401668712
H  H5  1  0.77736000  0.25435000  0.49047000  1.0 0.1401668712
H  H6  1  0.77736000  0.74565000  0.50953000  1.0 0.1401668712
H  H7  1  0.22264000  0.74565000  0.49047000  1.0 0.1401668712
H  H8  1  0.22264000  0.25435000  0.50953000  1.0 0.1401668712
H  H9  1  0.49047000  0.77736000  0.25435000  1.0 0.1401668712
H  H10  1  0.50953000  0.77736000  0.74565000  1.0 0.1401668712
H  H11  1  0.49047000  0.22264000  0.74565000  1.0 0.1401668712
H  H12  1  0.50953000  0.22264000  0.25435000  1.0 0.1401668712
H  H13  1  0.99047000  0.75435000  0.27736000  1.0 0.1401668712
H  H14  1  0.00953000  0.24565000  0.27736000  1.0 0.1401668712
H  H15  1  0.99047000  0.24565000  0.72264000  1.0 0.1401668712
H  H16  1  0.00953000  0.75435000  0.72264000  1.0 0.1401668712
H  H17  1  0.75435000  0.27736000  0.99047000  1.0 0.1401668712
H  H18  1  0.24565000  0.27736000  0.00953000  1.0 0.1401668712
H  H19  1  0.24565000  0.72264000  0.99047000  1.0 0.1401668712
H  H20  1  0.75435000  0.72264000  0.00953000  1.0 0.1401668712
H  H21  1  0.27736000  0.99047000  0.75435000  1.0 0.1401668712
H  H22  1  0.27736000  0.00953000  0.24565000  1.0 0.1401668712
H  H23  1  0.72264000  0.99047000  0.24565000  1.0 0.1401668712
H  H24  1  0.72264000  0.00953000  0.75435000  1.0 0.1401668712
H  H25  1  0.41605000  0.57508000  0.79242000  1.0 0.1340168848
H  H26  1  0.58395000  0.42492000  0.79242000  1.0 0.1340168848
H  H27  1  0.58395000  0.57508000  0.20758000  1.0 0.1340168848
H  H28  1  0.41605000  0.42492000  0.20758000  1.0 0.1340168848
H  H29  1  0.79242000  0.41605000  0.57508000  1.0 0.1340168848
H  H30  1  0.79242000  0.58395000  0.42492000  1.0 0.1340168848
H  H31  1  0.20758000  0.58395000  0.57508000  1.0 0.1340168848
H  H32  1  0.20758000  0.41605000  0.42492000  1.0 0.1340168848
H  H33  1  0.57508000  0.79242000  0.41605000  1.0 0.1340168848
H  H34  1  0.42492000  0.79242000  0.58395000  1.0 0.1340168848
H  H35  1  0.57508000  0.20758000  0.58395000  1.0 0.1340168848
H  H36  1  0.42492000  0.20758000  0.41605000  1.0 0.1340168848
H  H37  1  0.07508000  0.91605000  0.29242000  1.0 0.1340168848
H  H38  1  0.92492000  0.08395000  0.29242000  1.0 0.1340168848
H  H39  1  0.07508000  0.08395000  0.70758000  1.0 0.1340168848
H  H40  1  0.92492000  0.91605000  0.70758000  1.0 0.1340168848
H  H41  1  0.91605000  0.29242000  0.07508000  1.0 0.1340168848
H  H42  1  0.08395000  0.29242000  0.92492000  1.0 0.1340168848
H  H43  1  0.08395000  0.70758000  0.07508000  1.0 0.1340168848
H  H44  1  0.91605000  0.70758000  0.92492000  1.0 0.1340168848
H  H45  1  0.29242000  0.07508000  0.91605000  1.0 0.1340168848
H  H46  1  0.29242000  0.92492000  0.08395000  1.0 0.1340168848
H  H47  1  0.70758000  0.07508000  0.08395000  1.0 0.1340168848
H  H48  1  0.70758000  0.92492000  0.91605000  1.0 0.1340168848
H  H49  1  0.40706000  0.39330000  0.80397000  1.0 0.1401668712
H  H50  1  0.59294000  0.60670000  0.80397000  1.0 0.1401668712
H  H51  1  0.59294000  0.39330000  0.19603000  1.0 0.1401668712
H  H52  1  0.40706000  0.60670000  0.19603000  1.0 0.1401668712
H  H53  1  0.80397000  0.40706000  0.39330000  1.0 0.1401668712
H  H54  1  0.80397000  0.59294000  0.60670000  1.0 0.1401668712
H  H55  1  0.19603000  0.59294000  0.39330000  1.0 0.1401668712
H  H56  1  0.19603000  0.40706000  0.60670000  1.0 0.1401668712
H  H57  1  0.39330000  0.80397000  0.40706000  1.0 0.1401668712
H  H58  1  0.60670000  0.80397000  0.59294000  1.0 0.1401668712
H  H59  1  0.39330000  0.19603000  0.59294000  1.0 0.1401668712
H  H60  1  0.60670000  0.19603000  0.40706000  1.0 0.1401668712
H  H61  1  0.89330000  0.90706000  0.30397000  1.0 0.1401668712
H  H62  1  0.10670000  0.09294000  0.30397000  1.0 0.1401668712
H  H63  1  0.89330000  0.09294000  0.69603000  1.0 0.1401668712
H  H64  1  0.10670000  0.90706000  0.69603000  1.0 0.1401668712
H  H65  1  0.90706000  0.30397000  0.89330000  1.0 0.1401668712
H  H66  1  0.09294000  0.30397000  0.10670000  1.0 0.1401668712
H  H67  1  0.09294000  0.69603000  0.89330000  1.0 0.1401668712
H  H68  1  0.90706000  0.69603000  0.10670000  1.0 0.1401668712
H  H69  1  0.30397000  0.89330000  0.90706000  1.0 0.1401668712
H  H70  1  0.30397000  0.10670000  0.09294000  1.0 0.1401668712
H  H71  1  0.69603000  0.89330000  0.09294000  1.0 0.1401668712
H  H72  1  0.69603000  0.10670000  0.90706000  1.0 0.1401668712
C  C1  1  0.30182000  0.60381000  0.77724000  1.0 0.6044128485
C  C2  1  0.69818000  0.39619000  0.77724000  1.0 0.6044128485
C  C3  1  0.69818000  0.60381000  0.22276000  1.0 0.6044128485
C  C4  1  0.30182000  0.39619000  0.22276000  1.0 0.6044128485
C  C5  1  0.77724000  0.30182000  0.60381000  1.0 0.6044128485
C  C6  1  0.77724000  0.69818000  0.39619000  1.0 0.6044128485
C  C7  1  0.22276000  0.69818000  0.60381000  1.0 0.6044128485
C  C8  1  0.22276000  0.30182000  0.39619000  1.0 0.6044128485
C  C9  1  0.60381000  0.77724000  0.30182000  1.0 0.6044128485
C  C10  1  0.39619000  0.77724000  0.69818000  1.0 0.6044128485
C  C11  1  0.60381000  0.22276000  0.69818000  1.0 0.6044128485
C  C12  1  0.39619000  0.22276000  0.30182000  1.0 0.6044128485
C  C13  1  0.10381000  0.80182000  0.27724000  1.0 0.6044128485
C  C14  1  0.89619000  0.19818000  0.27724000  1.0 0.6044128485
C  C15  1  0.10381000  0.19818000  0.72276000  1.0 0.6044128485
C  C16  1  0.89619000  0.80182000  0.72276000  1.0 0.6044128485
C  C17  1  0.80182000  0.27724000  0.10381000  1.0 0.6044128485
C  C18  1  0.19818000  0.27724000  0.89619000  1.0 0.6044128485
C  C19  1  0.19818000  0.72276000  0.10381000  1.0 0.6044128485
C  C20  1  0.80182000  0.72276000  0.89619000  1.0 0.6044128485
C  C21  1  0.27724000  0.10381000  0.80182000  1.0 0.6044128485
C  C22  1  0.27724000  0.89619000  0.19818000  1.0 0.6044128485
C  C23  1  0.72276000  0.10381000  0.19818000  1.0 0.6044128485
C  C24  1  0.72276000  0.89619000  0.80182000  1.0 0.6044128485
C  C25  1  0.29622000  0.48880000  0.78353000  1.0 -0.0965536271
C  C26  1  0.70378000  0.51120000  0.78353000  1.0 -0.0965536271
C  C27  1  0.70378000  0.48880000  0.21647000  1.0 -0.0965536271
C  C28  1  0.29622000  0.51120000  0.21647000  1.0 -0.0965536271
C  C29  1  0.78353000  0.29622000  0.48880000  1.0 -0.0965536271
C  C30  1  0.78353000  0.70378000  0.51120000  1.0 -0.0965536271
C  C31  1  0.21647000  0.70378000  0.48880000  1.0 -0.0965536271
C  C32  1  0.21647000  0.29622000  0.51120000  1.0 -0.0965536271
C  C33  1  0.48880000  0.78353000  0.29622000  1.0 -0.0965536271
C  C34  1  0.51120000  0.78353000  0.70378000  1.0 -0.0965536271
C  C35  1  0.48880000  0.21647000  0.70378000  1.0 -0.0965536271
C  C36  1  0.51120000  0.21647000  0.29622000  1.0 -0.0965536271
C  C37  1  0.98880000  0.79622000  0.28353000  1.0 -0.0965536271
C  C38  1  0.01120000  0.20378000  0.28353000  1.0 -0.0965536271
C  C39  1  0.98880000  0.20378000  0.71647000  1.0 -0.0965536271
C  C40  1  0.01120000  0.79622000  0.71647000  1.0 -0.0965536271
C  C41  1  0.79622000  0.28353000  0.98880000  1.0 -0.0947164263
C  C42  1  0.20378000  0.28353000  0.01120000  1.0 -0.0965536271
C  C43  1  0.20378000  0.71647000  0.98880000  1.0 -0.0965536271
C  C44  1  0.79622000  0.71647000  0.01120000  1.0 -0.0965536271
C  C45  1  0.28353000  0.98880000  0.79622000  1.0 -0.0947164263
C  C46  1  0.28353000  0.01120000  0.20378000  1.0 -0.0965536271
C  C47  1  0.71647000  0.98880000  0.20378000  1.0 -0.0965536271
C  C48  1  0.71647000  0.01120000  0.79622000  1.0 -0.0965536271
C  C49  1  0.33022000  0.54217000  0.78430000  1.0 -0.0145873263
C  C50  1  0.66978000  0.45783000  0.78430000  1.0 -0.0145873263
C  C51  1  0.66978000  0.54217000  0.21570000  1.0 -0.0145873263
C  C52  1  0.33022000  0.45783000  0.21570000  1.0 -0.0194731112
C  C53  1  0.78430000  0.33022000  0.54217000  1.0 -0.0145873263
C  C54  1  0.78430000  0.66978000  0.45783000  1.0 -0.0145873263
C  C55  1  0.21570000  0.66978000  0.54217000  1.0 -0.0145873263
C  C56  1  0.21570000  0.33022000  0.45783000  1.0 -0.0194731112
C  C57  1  0.54217000  0.78430000  0.33022000  1.0 -0.0145873263
C  C58  1  0.45783000  0.78430000  0.66978000  1.0 -0.0145873263
C  C59  1  0.54217000  0.21570000  0.66978000  1.0 -0.0145873263
C  C60  1  0.45783000  0.21570000  0.33022000  1.0 -0.0194731112
C  C61  1  0.04217000  0.83022000  0.28430000  1.0 -0.0194731112
C  C62  1  0.95783000  0.16978000  0.28430000  1.0 -0.0145873263
C  C63  1  0.04217000  0.16978000  0.71570000  1.0 -0.0194731112
C  C64  1  0.95783000  0.83022000  0.71570000  1.0 -0.0145873263
C  C65  1  0.83022000  0.28430000  0.04217000  1.0 -0.0194731112
C  C66  1  0.16978000  0.28430000  0.95783000  1.0 -0.0145873263
C  C67  1  0.16978000  0.71570000  0.04217000  1.0 -0.0194731112
C  C68  1  0.83022000  0.71570000  0.95783000  1.0 -0.0145873263
C  C69  1  0.28430000  0.04217000  0.83022000  1.0 -0.0194731112
C  C70  1  0.28430000  0.95783000  0.16978000  1.0 -0.0194731112
C  C71  1  0.71570000  0.04217000  0.16978000  1.0 -0.0194731112
C  C72  1  0.71570000  0.95783000  0.83022000  1.0 -0.0145873263
C  C73  1  0.32484000  0.43274000  0.79200000  1.0 -0.0194731112
C  C74  1  0.67516000  0.56726000  0.79200000  1.0 -0.0194731112
C  C75  1  0.67516000  0.43274000  0.20800000  1.0 -0.0194731112
C  C76  1  0.32484000  0.56726000  0.20800000  1.0 -0.0194731112
C  C77  1  0.79200000  0.32484000  0.43274000  1.0 -0.0194731112
C  C78  1  0.79200000  0.67516000  0.56726000  1.0 -0.0194731112
C  C79  1  0.20800000  0.67516000  0.43274000  1.0 -0.0194731112
C  C80  1  0.20800000  0.32484000  0.56726000  1.0 -0.0194731112
C  C81  1  0.43274000  0.79200000  0.32484000  1.0 -0.0194731112
C  C82  1  0.56726000  0.79200000  0.67516000  1.0 -0.0194731112
C  C83  1  0.43274000  0.20800000  0.67516000  1.0 -0.0194731112
C  C84  1  0.56726000  0.20800000  0.32484000  1.0 -0.0194731112
C  C85  1  0.93274000  0.82484000  0.29200000  1.0 -0.0194731112
C  C86  1  0.06726000  0.17516000  0.29200000  1.0 -0.0194731112
C  C87  1  0.93274000  0.17516000  0.70800000  1.0 -0.0194731112
C  C88  1  0.06726000  0.82484000  0.70800000  1.0 -0.0194731112
C  C89  1  0.82484000  0.29200000  0.93274000  1.0 -0.0194731112
C  C90  1  0.17516000  0.29200000  0.06726000  1.0 -0.0194731112
C  C91  1  0.17516000  0.70800000  0.93274000  1.0 -0.0194731112
C  C92  1  0.82484000  0.70800000  0.06726000  1.0 -0.0194731112
C  C93  1  0.29200000  0.93274000  0.82484000  1.0 -0.0194731112
C  C94  1  0.29200000  0.06726000  0.17516000  1.0 -0.0194731112
C  C95  1  0.70800000  0.93274000  0.17516000  1.0 -0.0194731112
C  C96  1  0.70800000  0.06726000  0.82484000  1.0 -0.0194731112
C  C97  1  0.29095000  0.37394000  0.79333000  1.0 0.6044128485
C  C98  1  0.70905000  0.62606000  0.79333000  1.0 0.6044128485
C  C99  1  0.70905000  0.37394000  0.20667000  1.0 0.6052442823
C  C100  1  0.29095000  0.62606000  0.20667000  1.0 0.6052442823
C  C101  1  0.79333000  0.29095000  0.37394000  1.0 0.6044128485
C  C102  1  0.79333000  0.70905000  0.62606000  1.0 0.6044128485
C  C103  1  0.20667000  0.70905000  0.37394000  1.0 0.6052442823
C  C104  1  0.20667000  0.29095000  0.62606000  1.0 0.6044128485
C  C105  1  0.37394000  0.79333000  0.29095000  1.0 0.6044128485
C  C106  1  0.62606000  0.79333000  0.70905000  1.0 0.6044128485
C  C107  1  0.37394000  0.20667000  0.70905000  1.0 0.6052442823
C  C108  1  0.62606000  0.20667000  0.29095000  1.0 0.6052442823
C  C109  1  0.87394000  0.79095000  0.29333000  1.0 0.6044128485
C  C110  1  0.12606000  0.20905000  0.29333000  1.0 0.6044128485
C  C111  1  0.87394000  0.20905000  0.70667000  1.0 0.6044128485
C  C112  1  0.12606000  0.79095000  0.70667000  1.0 0.6044128485
C  C113  1  0.79095000  0.29333000  0.87394000  1.0 0.6044128485
C  C114  1  0.20905000  0.29333000  0.12606000  1.0 0.6044128485
C  C115  1  0.20905000  0.70667000  0.87394000  1.0 0.6044128485
C  C116  1  0.79095000  0.70667000  0.12606000  1.0 0.6052442823
C  C117  1  0.29333000  0.87394000  0.79095000  1.0 0.6044128485
C  C118  1  0.29333000  0.12606000  0.20905000  1.0 0.6044128485
C  C119  1  0.70667000  0.87394000  0.20905000  1.0 0.6044128485
C  C120  1  0.70667000  0.12606000  0.79095000  1.0 0.6044128485
C  C121  1  0.39310000  0.53949000  0.79160000  1.0 -0.1435766069
C  C122  1  0.60690000  0.46051000  0.79160000  1.0 -0.1435766069
C  C123  1  0.60690000  0.53949000  0.20840000  1.0 -0.1435766069
C  C124  1  0.39310000  0.46051000  0.20840000  1.0 -0.1435766069
C  C125  1  0.79160000  0.39310000  0.53949000  1.0 -0.1451253261
C  C126  1  0.79160000  0.60690000  0.46051000  1.0 -0.1435766069
C  C127  1  0.20840000  0.60690000  0.53949000  1.0 -0.1435766069
C  C128  1  0.20840000  0.39310000  0.46051000  1.0 -0.1435766069
C  C129  1  0.53949000  0.79160000  0.39310000  1.0 -0.1451253261
C  C130  1  0.46051000  0.79160000  0.60690000  1.0 -0.1435766069
C  C131  1  0.53949000  0.20840000  0.60690000  1.0 -0.1435766069
C  C132  1  0.46051000  0.20840000  0.39310000  1.0 -0.1435766069
C  C133  1  0.03949000  0.89310000  0.29160000  1.0 -0.1451253261
C  C134  1  0.96051000  0.10690000  0.29160000  1.0 -0.1451253261
C  C135  1  0.03949000  0.10690000  0.70840000  1.0 -0.1435766069
C  C136  1  0.96051000  0.89310000  0.70840000  1.0 -0.1435766069
C  C137  1  0.89310000  0.29160000  0.03949000  1.0 -0.1435766069
C  C138  1  0.10690000  0.29160000  0.96051000  1.0 -0.1451253261
C  C139  1  0.10690000  0.70840000  0.03949000  1.0 -0.1435766069
C  C140  1  0.89310000  0.70840000  0.96051000  1.0 -0.1435766069
C  C141  1  0.29160000  0.03949000  0.89310000  1.0 -0.1435766069
C  C142  1  0.29160000  0.96051000  0.10690000  1.0 -0.1451253261
C  C143  1  0.70840000  0.03949000  0.10690000  1.0 -0.1435766069
C  C144  1  0.70840000  0.96051000  0.89310000  1.0 -0.1435766069
C  C145  1  0.38760000  0.43055000  0.79870000  1.0 -0.1435766069
C  C146  1  0.61240000  0.56945000  0.79870000  1.0 -0.1435766069
C  C147  1  0.61240000  0.43055000  0.20130000  1.0 -0.1435766069
C  C148  1  0.38760000  0.56945000  0.20130000  1.0 -0.1435766069
C  C149  1  0.79870000  0.38760000  0.43055000  1.0 -0.1435766069
C  C150  1  0.79870000  0.61240000  0.56945000  1.0 -0.1435766069
C  C151  1  0.20130000  0.61240000  0.43055000  1.0 -0.1435766069
C  C152  1  0.20130000  0.38760000  0.56945000  1.0 -0.1435766069
C  C153  1  0.43055000  0.79870000  0.38760000  1.0 -0.1435766069
C  C154  1  0.56945000  0.79870000  0.61240000  1.0 -0.1435766069
C  C155  1  0.43055000  0.20130000  0.61240000  1.0 -0.1435766069
C  C156  1  0.56945000  0.20130000  0.38760000  1.0 -0.1435766069
C  C157  1  0.93055000  0.88760000  0.29870000  1.0 -0.1435766069
C  C158  1  0.06945000  0.11240000  0.29870000  1.0 -0.1435766069
C  C159  1  0.93055000  0.11240000  0.70130000  1.0 -0.1435766069
C  C160  1  0.06945000  0.88760000  0.70130000  1.0 -0.1435766069
C  C161  1  0.88760000  0.29870000  0.93055000  1.0 -0.1435766069
C  C162  1  0.11240000  0.29870000  0.06945000  1.0 -0.1435766069
C  C163  1  0.11240000  0.70130000  0.93055000  1.0 -0.1435766069
C  C164  1  0.88760000  0.70130000  0.06945000  1.0 -0.1435766069
C  C165  1  0.29870000  0.93055000  0.88760000  1.0 -0.1435766069
C  C166  1  0.29870000  0.06945000  0.11240000  1.0 -0.1435766069
C  C167  1  0.70130000  0.93055000  0.11240000  1.0 -0.1435766069
C  C168  1  0.70130000  0.06945000  0.88760000  1.0 -0.1435766069
C  C169  1  0.42110000  0.48359000  0.79760000  1.0 0.1484900684
C  C170  1  0.57890000  0.51641000  0.79760000  1.0 0.1484900684
C  C171  1  0.57890000  0.48359000  0.20240000  1.0 0.1484900684
C  C172  1  0.42110000  0.51641000  0.20240000  1.0 0.1484900684
C  C173  1  0.79760000  0.42110000  0.48359000  1.0 0.1484900684
C  C174  1  0.79760000  0.57890000  0.51641000  1.0 0.1484900684
C  C175  1  0.20240000  0.57890000  0.48359000  1.0 0.1484900684
C  C176  1  0.20240000  0.42110000  0.51641000  1.0 0.1484900684
C  C177  1  0.48359000  0.79760000  0.42110000  1.0 0.1484900684
C  C178  1  0.51641000  0.79760000  0.57890000  1.0 0.1484900684
C  C179  1  0.48359000  0.20240000  0.57890000  1.0 0.1484900684
C  C180  1  0.51641000  0.20240000  0.42110000  1.0 0.1484900684
C  C181  1  0.98359000  0.92110000  0.29760000  1.0 0.1484900684
C  C182  1  0.01641000  0.07890000  0.29760000  1.0 0.1484900684
C  C183  1  0.98359000  0.07890000  0.70240000  1.0 0.1484900684
C  C184  1  0.01641000  0.92110000  0.70240000  1.0 0.1484900684
C  C185  1  0.92110000  0.29760000  0.98359000  1.0 0.1484900684
C  C186  1  0.07890000  0.29760000  0.01641000  1.0 0.1484900684
C  C187  1  0.07890000  0.70240000  0.98359000  1.0 0.1484900684
C  C188  1  0.92110000  0.70240000  0.01641000  1.0 0.1484900684
C  C189  1  0.29760000  0.98359000  0.92110000  1.0 0.1484900684
C  C190  1  0.29760000  0.01641000  0.07890000  1.0 0.1484900684
C  C191  1  0.70240000  0.98359000  0.07890000  1.0 0.1484900684
C  C192  1  0.70240000  0.01641000  0.92110000  1.0 0.1484900684
N  N1  1  0.48572000  0.47636000  0.80040000  1.0 -0.1106282513
N  N2  1  0.51428000  0.52364000  0.80040000  1.0 -0.1106282513
N  N3  1  0.51428000  0.47636000  0.19960000  1.0 -0.1106282513
N  N4  1  0.48572000  0.52364000  0.19960000  1.0 -0.1106282513
N  N5  1  0.80040000  0.48572000  0.47636000  1.0 -0.1106282513
N  N6  1  0.80040000  0.51428000  0.52364000  1.0 -0.1106282513
N  N7  1  0.19960000  0.51428000  0.47636000  1.0 -0.1106282513
N  N8  1  0.19960000  0.48572000  0.52364000  1.0 -0.1106282513
N  N9  1  0.47636000  0.80040000  0.48572000  1.0 -0.1106282513
N  N10  1  0.52364000  0.80040000  0.51428000  1.0 -0.1106282513
N  N11  1  0.47636000  0.19960000  0.51428000  1.0 -0.1106282513
N  N12  1  0.52364000  0.19960000  0.48572000  1.0 -0.1106282513
N  N13  1  0.97636000  0.98572000  0.30040000  1.0 -0.1106282513
N  N14  1  0.02364000  0.01428000  0.30040000  1.0 -0.1106282513
N  N15  1  0.97636000  0.01428000  0.69960000  1.0 -0.1106282513
N  N16  1  0.02364000  0.98572000  0.69960000  1.0 -0.1106282513
N  N17  1  0.98572000  0.30040000  0.97636000  1.0 -0.1106282513
N  N18  1  0.01428000  0.30040000  0.02364000  1.0 -0.1106282513
N  N19  1  0.01428000  0.69960000  0.97636000  1.0 -0.1106282513
N  N20  1  0.98572000  0.69960000  0.02364000  1.0 -0.1106282513
N  N21  1  0.30040000  0.97636000  0.98572000  1.0 -0.1106282513
N  N22  1  0.30040000  0.02364000  0.01428000  1.0 -0.1106282513
N  N23  1  0.69960000  0.97636000  0.01428000  1.0 -0.1106282513
N  N24  1  0.69960000  0.02364000  0.98572000  1.0 -0.1106282513
O  O1  1  0.25947000  0.74053000  0.74053000  1.0 -0.8950640526
O  O2  1  0.74053000  0.25947000  0.74053000  1.0 -0.8933881487
O  O3  1  0.74053000  0.74053000  0.25947000  1.0 -0.8950640526
O  O4  1  0.25947000  0.25947000  0.25947000  1.0 -0.8933881487
O  O5  1  0.24053000  0.75947000  0.24053000  1.0 -0.8933881487
O  O6  1  0.75947000  0.24053000  0.24053000  1.0 -0.8933881487
O  O7  1  0.24053000  0.24053000  0.75947000  1.0 -0.8933881487
O  O8  1  0.75947000  0.75947000  0.75947000  1.0 -0.8933881487
O  O9  1  0.33333333  0.64849000  0.79475000  1.0 -0.5406917442
O  O10  1  0.66666667  0.35151000  0.79475000  1.0 -0.5450831022
O  O11  1  0.66666667  0.64849000  0.20525000  1.0 -0.5450831022
O  O12  1  0.33333333  0.35151000  0.20525000  1.0 -0.5450831022
O  O13  1  0.79475000  0.33333333  0.64849000  1.0 -0.5450831022
O  O14  1  0.79475000  0.66666667  0.35151000  1.0 -0.5450831022
O  O15  1  0.20525000  0.66666667  0.64849000  1.0 -0.5406917442
O  O16  1  0.20525000  0.33333333  0.35151000  1.0 -0.5406917442
O  O17  1  0.64849000  0.79475000  0.33333333  1.0 -0.5450831022
O  O18  1  0.35151000  0.79475000  0.66666667  1.0 -0.5406917442
O  O19  1  0.64849000  0.20525000  0.66666667  1.0 -0.5406917442
O  O20  1  0.35151000  0.20525000  0.33333333  1.0 -0.5450831022
O  O21  1  0.14849000  0.83333000  0.29475000  1.0 -0.5406917442
O  O22  1  0.85151000  0.16667000  0.29475000  1.0 -0.5450831022
O  O23  1  0.14849000  0.16667000  0.70525000  1.0 -0.5406917442
O  O24  1  0.85151000  0.83333000  0.70525000  1.0 -0.5406917442
O  O25  1  0.83333000  0.29475000  0.14849000  1.0 -0.5450831022
O  O26  1  0.16667000  0.29475000  0.85151000  1.0 -0.5406917442
O  O27  1  0.16667000  0.70525000  0.14849000  1.0 -0.5406917442
O  O28  1  0.83333000  0.70525000  0.85151000  1.0 -0.5406917442
O  O29  1  0.29475000  0.14849000  0.83333000  1.0 -0.5406917442
O  O30  1  0.29475000  0.85151000  0.16667000  1.0 -0.5406917442
O  O31  1  0.70525000  0.14849000  0.16667000  1.0 -0.5406917442
O  O32  1  0.70525000  0.85151000  0.83333000  1.0 -0.5406917442
O  O33  1  0.23633000  0.37428000  0.77600000  1.0 -0.5339465505
O  O34  1  0.76367000  0.62572000  0.77600000  1.0 -0.5339465505
O  O35  1  0.76367000  0.37428000  0.22400000  1.0 -0.5339465505
O  O36  1  0.23633000  0.62572000  0.22400000  1.0 -0.5339465505
O  O37  1  0.77600000  0.23633000  0.37428000  1.0 -0.5339465505
O  O38  1  0.77600000  0.76367000  0.62572000  1.0 -0.5339465505
O  O39  1  0.22400000  0.76367000  0.37428000  1.0 -0.5339465505
O  O40  1  0.22400000  0.23633000  0.62572000  1.0 -0.5339465505
O  O41  1  0.37428000  0.77600000  0.23633000  1.0 -0.5339465505
O  O42  1  0.62572000  0.77600000  0.76367000  1.0 -0.5339465505
O  O43  1  0.37428000  0.22400000  0.76367000  1.0 -0.5339465505
O  O44  1  0.62572000  0.22400000  0.23633000  1.0 -0.5339465505
O  O45  1  0.87428000  0.73633000  0.27600000  1.0 -0.5339465505
O  O46  1  0.12572000  0.26367000  0.27600000  1.0 -0.5339465505
O  O47  1  0.87428000  0.26367000  0.72400000  1.0 -0.5339465505
O  O48  1  0.12572000  0.73633000  0.72400000  1.0 -0.5339465505
O  O49  1  0.73633000  0.27600000  0.87428000  1.0 -0.5339465505
O  O50  1  0.26367000  0.27600000  0.12572000  1.0 -0.5339465505
O  O51  1  0.26367000  0.72400000  0.87428000  1.0 -0.5339465505
O  O52  1  0.73633000  0.72400000  0.12572000  1.0 -0.5339465505
O  O53  1  0.27600000  0.87428000  0.73633000  1.0 -0.5339465505
O  O54  1  0.27600000  0.12572000  0.26367000  1.0 -0.5339465505
O  O55  1  0.72400000  0.87428000  0.26367000  1.0 -0.5339465505
O  O56  1  0.72400000  0.12572000  0.73633000  1.0 -0.5339465505
O  O57  1  0.24903000  0.60644000  0.75535000  1.0 -0.5406917442
O  O58  1  0.75097000  0.39356000  0.75535000  1.0 -0.5406917442
O  O59  1  0.75097000  0.60644000  0.24465000  1.0 -0.5406917442
O  O60  1  0.24903000  0.39356000  0.24465000  1.0 -0.5406917442
O  O61  1  0.75535000  0.24903000  0.60644000  1.0 -0.5406917442
O  O62  1  0.75535000  0.75097000  0.39356000  1.0 -0.5406917442
O  O63  1  0.24465000  0.75097000  0.60644000  1.0 -0.5406917442
O  O64  1  0.24465000  0.24903000  0.39356000  1.0 -0.5406917442
O  O65  1  0.60644000  0.75535000  0.24903000  1.0 -0.5406917442
O  O66  1  0.39356000  0.75535000  0.75097000  1.0 -0.5406917442
O  O67  1  0.60644000  0.24465000  0.75097000  1.0 -0.5406917442
O  O68  1  0.39356000  0.24465000  0.24903000  1.0 -0.5406917442
O  O69  1  0.10644000  0.74903000  0.25535000  1.0 -0.5406917442
O  O70  1  0.89356000  0.25097000  0.25535000  1.0 -0.5406917442
O  O71  1  0.10644000  0.25097000  0.74465000  1.0 -0.5406917442
O  O72  1  0.89356000  0.74903000  0.74465000  1.0 -0.5406917442
O  O73  1  0.74903000  0.25535000  0.10644000  1.0 -0.5406917442
O  O74  1  0.25097000  0.25535000  0.89356000  1.0 -0.5406917442
O  O75  1  0.25097000  0.74465000  0.10644000  1.0 -0.5406917442
O  O76  1  0.74903000  0.74465000  0.89356000  1.0 -0.5406917442
O  O77  1  0.25535000  0.10644000  0.74903000  1.0 -0.5406917442
O  O78  1  0.25535000  0.89356000  0.25097000  1.0 -0.5406917442
O  O79  1  0.74465000  0.10644000  0.25097000  1.0 -0.5406917442
O  O80  1  0.74465000  0.89356000  0.74903000  1.0 -0.5406917442
O  O81  1  0.31976000  0.32862000  0.81281000  1.0 -0.5406917442
O  O82  1  0.68024000  0.67138000  0.81281000  1.0 -0.5406917442
O  O83  1  0.68024000  0.32862000  0.18719000  1.0 -0.5406917442
O  O84  1  0.31976000  0.67138000  0.18719000  1.0 -0.5406917442
O  O85  1  0.81281000  0.31976000  0.32862000  1.0 -0.5406917442
O  O86  1  0.81281000  0.68024000  0.67138000  1.0 -0.5406917442
O  O87  1  0.18719000  0.68024000  0.32862000  1.0 -0.5406917442
O  O88  1  0.18719000  0.31976000  0.67138000  1.0 -0.5406917442
O  O89  1  0.32862000  0.81281000  0.31976000  1.0 -0.5406917442
O  O90  1  0.67138000  0.81281000  0.68024000  1.0 -0.5406917442
O  O91  1  0.32862000  0.18719000  0.68024000  1.0 -0.5406917442
O  O92  1  0.67138000  0.18719000  0.31976000  1.0 -0.5406917442
O  O93  1  0.82862000  0.81976000  0.31281000  1.0 -0.5406917442
O  O94  1  0.17138000  0.18024000  0.31281000  1.0 -0.5406917442
O  O95  1  0.82862000  0.18024000  0.68719000  1.0 -0.5406917442
O  O96  1  0.17138000  0.81976000  0.68719000  1.0 -0.5406917442
O  O97  1  0.81976000  0.31281000  0.82862000  1.0 -0.5406917442
O  O98  1  0.18024000  0.31281000  0.17138000  1.0 -0.5406917442
O  O99  1  0.18024000  0.68719000  0.82862000  1.0 -0.5406917442
O  O100  1  0.81976000  0.68719000  0.17138000  1.0 -0.5406917442
O  O101  1  0.31281000  0.82862000  0.81976000  1.0 -0.5406917442
O  O102  1  0.31281000  0.17138000  0.18024000  1.0 -0.5406917442
O  O103  1  0.68719000  0.82862000  0.18024000  1.0 -0.5406917442
O  O104  1  0.68719000  0.17138000  0.81976000  1.0 -0.5406917442
