# DDEC6 charges by PACMAN v1.1 (https://github.com/mtap-research/PACMAN-charge/)
data_LICXOO_ASR_pacman
_symmetry_space_group_name_H-M   'P 1'
_cell_length_a   21.92460000
_cell_length_b   21.92460000
_cell_length_c   21.92460000
_cell_angle_alpha   90.00000000
_cell_angle_beta   90.00000000
_cell_angle_gamma   90.00000000
_symmetry_Int_Tables_number   1
_chemical_formula_structural   Fe3H9C24N3O13
_chemical_formula_sum   'Fe24 H72 C192 N24 O104'
_cell_volume   10538.89399190
_cell_formula_units_Z   8
loop_
 _symmetry_equiv_pos_site_id
 _symmetry_equiv_pos_as_xyz
  1  'x, y, z'
loop_
 _atom_site_type_symbol
 _atom_site_label
 _atom_site_symmetry_multiplicity
 _atom_site_fract_x
 _atom_site_fract_y
 _atom_site_fract_z
 _atom_site_occupancy
 _atom_site_charge
Fe  Fe1  1  0.80196000  0.73914000  0.31842000  1.0 1.1918895922
Fe  Fe2  1  0.19804000  0.26086000  0.31842000  1.0 1.1918895922
Fe  Fe3  1  0.19804000  0.73914000  0.68158000  1.0 1.1918895922
Fe  Fe4  1  0.80196000  0.26086000  0.68158000  1.0 1.1918895922
Fe  Fe5  1  0.31842000  0.80196000  0.73914000  1.0 1.1918895922
Fe  Fe6  1  0.31842000  0.19804000  0.26086000  1.0 1.1918895922
Fe  Fe7  1  0.68158000  0.19804000  0.73914000  1.0 1.1918895922
Fe  Fe8  1  0.68158000  0.80196000  0.26086000  1.0 1.1918895922
Fe  Fe9  1  0.73914000  0.31842000  0.80196000  1.0 1.1918895922
Fe  Fe10  1  0.26086000  0.31842000  0.19804000  1.0 1.1918895922
Fe  Fe11  1  0.73914000  0.68158000  0.19804000  1.0 1.1918895922
Fe  Fe12  1  0.26086000  0.68158000  0.80196000  1.0 1.1918895922
Fe  Fe13  1  0.23914000  0.30196000  0.81842000  1.0 1.1918895922
Fe  Fe14  1  0.76086000  0.69804000  0.81842000  1.0 1.1918895922
Fe  Fe15  1  0.23914000  0.69804000  0.18158000  1.0 1.1918895922
Fe  Fe16  1  0.76086000  0.30196000  0.18158000  1.0 1.1918895922
Fe  Fe17  1  0.30196000  0.81842000  0.23914000  1.0 1.1918895922
Fe  Fe18  1  0.69804000  0.81842000  0.76086000  1.0 1.1918895922
Fe  Fe19  1  0.69804000  0.18158000  0.23914000  1.0 1.1918895922
Fe  Fe20  1  0.30196000  0.18158000  0.76086000  1.0 1.1918895922
Fe  Fe21  1  0.81842000  0.23914000  0.30196000  1.0 1.1918895922
Fe  Fe22  1  0.81842000  0.76086000  0.69804000  1.0 1.1918895922
Fe  Fe23  1  0.18158000  0.23914000  0.69804000  1.0 1.1918895922
Fe  Fe24  1  0.18158000  0.76086000  0.30196000  1.0 1.1918895922
H  H1  1  0.77711000  0.49068000  0.25418000  1.0 0.1409853877
H  H2  1  0.22289000  0.50932000  0.25418000  1.0 0.1409853877
H  H3  1  0.22289000  0.49068000  0.74582000  1.0 0.1409853877
H  H4  1  0.77711000  0.50932000  0.74582000  1.0 0.1409853877
H  H5  1  0.25418000  0.77711000  0.49068000  1.0 0.1409853877
H  H6  1  0.25418000  0.22289000  0.50932000  1.0 0.1409853877
H  H7  1  0.74582000  0.22289000  0.49068000  1.0 0.1409853877
H  H8  1  0.74582000  0.77711000  0.50932000  1.0 0.1409853877
H  H9  1  0.49068000  0.25418000  0.77711000  1.0 0.1409853877
H  H10  1  0.50932000  0.25418000  0.22289000  1.0 0.1409853877
H  H11  1  0.49068000  0.74582000  0.22289000  1.0 0.1409853877
H  H12  1  0.50932000  0.74582000  0.77711000  1.0 0.1409853877
H  H13  1  0.99068000  0.27711000  0.75418000  1.0 0.1409853877
H  H14  1  0.00932000  0.72289000  0.75418000  1.0 0.1409853877
H  H15  1  0.99068000  0.72289000  0.24582000  1.0 0.1409853877
H  H16  1  0.00932000  0.27711000  0.24582000  1.0 0.1409853877
H  H17  1  0.27711000  0.75418000  0.99068000  1.0 0.1409853877
H  H18  1  0.72289000  0.75418000  0.00932000  1.0 0.1409853877
H  H19  1  0.72289000  0.24582000  0.99068000  1.0 0.1409853877
H  H20  1  0.27711000  0.24582000  0.00932000  1.0 0.1409853877
H  H21  1  0.75418000  0.99068000  0.27711000  1.0 0.1409853877
H  H22  1  0.75418000  0.00932000  0.72289000  1.0 0.1409853877
H  H23  1  0.24582000  0.99068000  0.72289000  1.0 0.1409853877
H  H24  1  0.24582000  0.00932000  0.27711000  1.0 0.1409853877
H  H25  1  0.79271000  0.57555000  0.41581000  1.0 0.1343954584
H  H26  1  0.20729000  0.42445000  0.41581000  1.0 0.1343954584
H  H27  1  0.20729000  0.57555000  0.58419000  1.0 0.1343954584
H  H28  1  0.79271000  0.42445000  0.58419000  1.0 0.1343954584
H  H29  1  0.41581000  0.79271000  0.57555000  1.0 0.1343954584
H  H30  1  0.41581000  0.20729000  0.42445000  1.0 0.1343954584
H  H31  1  0.58419000  0.20729000  0.57555000  1.0 0.1343954584
H  H32  1  0.58419000  0.79271000  0.42445000  1.0 0.1343954584
H  H33  1  0.57555000  0.41581000  0.79271000  1.0 0.1343954584
H  H34  1  0.42445000  0.41581000  0.20729000  1.0 0.1343954584
H  H35  1  0.57555000  0.58419000  0.20729000  1.0 0.1343954584
H  H36  1  0.42445000  0.58419000  0.79271000  1.0 0.1343954584
H  H37  1  0.07555000  0.29271000  0.91581000  1.0 0.1343954584
H  H38  1  0.92445000  0.70729000  0.91581000  1.0 0.1343954584
H  H39  1  0.07555000  0.70729000  0.08419000  1.0 0.1343954584
H  H40  1  0.92445000  0.29271000  0.08419000  1.0 0.1343954584
H  H41  1  0.29271000  0.91581000  0.07555000  1.0 0.1343954584
H  H42  1  0.70729000  0.91581000  0.92445000  1.0 0.1343954584
H  H43  1  0.70729000  0.08419000  0.07555000  1.0 0.1343954584
H  H44  1  0.29271000  0.08419000  0.92445000  1.0 0.1343954584
H  H45  1  0.91581000  0.07555000  0.29271000  1.0 0.1343954584
H  H46  1  0.91581000  0.92445000  0.70729000  1.0 0.1343954584
H  H47  1  0.08419000  0.07555000  0.70729000  1.0 0.1343954584
H  H48  1  0.08419000  0.92445000  0.29271000  1.0 0.1343954584
H  H49  1  0.80312000  0.39342000  0.40667000  1.0 0.1409853877
H  H50  1  0.19688000  0.60658000  0.40667000  1.0 0.1409853877
H  H51  1  0.19688000  0.39342000  0.59333000  1.0 0.1409853877
H  H52  1  0.80312000  0.60658000  0.59333000  1.0 0.1409853877
H  H53  1  0.40667000  0.80312000  0.39342000  1.0 0.1409853877
H  H54  1  0.40667000  0.19688000  0.60658000  1.0 0.1409853877
H  H55  1  0.59333000  0.19688000  0.39342000  1.0 0.1409853877
H  H56  1  0.59333000  0.80312000  0.60658000  1.0 0.1409853877
H  H57  1  0.39342000  0.40667000  0.80312000  1.0 0.1409853877
H  H58  1  0.60658000  0.40667000  0.19688000  1.0 0.1409853877
H  H59  1  0.39342000  0.59333000  0.19688000  1.0 0.1409853877
H  H60  1  0.60658000  0.59333000  0.80312000  1.0 0.1409853877
H  H61  1  0.89342000  0.30312000  0.90667000  1.0 0.1409853877
H  H62  1  0.10658000  0.69688000  0.90667000  1.0 0.1409853877
H  H63  1  0.89342000  0.69688000  0.09333000  1.0 0.1409853877
H  H64  1  0.10658000  0.30312000  0.09333000  1.0 0.1409853877
H  H65  1  0.30312000  0.90667000  0.89342000  1.0 0.1409853877
H  H66  1  0.69688000  0.90667000  0.10658000  1.0 0.1409853877
H  H67  1  0.69688000  0.09333000  0.89342000  1.0 0.1409853877
H  H68  1  0.30312000  0.09333000  0.10658000  1.0 0.1409853877
H  H69  1  0.90667000  0.89342000  0.30312000  1.0 0.1409853877
H  H70  1  0.90667000  0.10658000  0.69688000  1.0 0.1409853877
H  H71  1  0.09333000  0.89342000  0.69688000  1.0 0.1409853877
H  H72  1  0.09333000  0.10658000  0.30312000  1.0 0.1409853877
C  C1  1  0.77801000  0.60440000  0.30152000  1.0 0.6049017987
C  C2  1  0.22199000  0.39560000  0.30152000  1.0 0.6049017987
C  C3  1  0.22199000  0.60440000  0.69848000  1.0 0.6049017987
C  C4  1  0.77801000  0.39560000  0.69848000  1.0 0.6049017987
C  C5  1  0.30152000  0.77801000  0.60440000  1.0 0.6049017987
C  C6  1  0.30152000  0.22199000  0.39560000  1.0 0.6049017987
C  C7  1  0.69848000  0.22199000  0.60440000  1.0 0.6049017987
C  C8  1  0.69848000  0.77801000  0.39560000  1.0 0.6049017987
C  C9  1  0.60440000  0.30152000  0.77801000  1.0 0.6049017987
C  C10  1  0.39560000  0.30152000  0.22199000  1.0 0.6049017987
C  C11  1  0.60440000  0.69848000  0.22199000  1.0 0.6049017987
C  C12  1  0.39560000  0.69848000  0.77801000  1.0 0.6049017987
C  C13  1  0.10440000  0.27801000  0.80152000  1.0 0.6049017987
C  C14  1  0.89560000  0.72199000  0.80152000  1.0 0.6049017987
C  C15  1  0.10440000  0.72199000  0.19848000  1.0 0.6049017987
C  C16  1  0.89560000  0.27801000  0.19848000  1.0 0.6049017987
C  C17  1  0.27801000  0.80152000  0.10440000  1.0 0.6049017987
C  C18  1  0.72199000  0.80152000  0.89560000  1.0 0.6049017987
C  C19  1  0.72199000  0.19848000  0.10440000  1.0 0.6049017987
C  C20  1  0.27801000  0.19848000  0.89560000  1.0 0.6049017987
C  C21  1  0.80152000  0.10440000  0.27801000  1.0 0.6049017987
C  C22  1  0.80152000  0.89560000  0.72199000  1.0 0.6049017987
C  C23  1  0.19848000  0.10440000  0.72199000  1.0 0.6049017987
C  C24  1  0.19848000  0.89560000  0.27801000  1.0 0.6049017987
C  C25  1  0.78436000  0.54256000  0.32977000  1.0 -0.0181608665
C  C26  1  0.21564000  0.45744000  0.32977000  1.0 -0.0181608665
C  C27  1  0.21564000  0.54256000  0.67023000  1.0 -0.0181608665
C  C28  1  0.78436000  0.45744000  0.67023000  1.0 -0.0181608665
C  C29  1  0.32977000  0.78436000  0.54256000  1.0 -0.0181608665
C  C30  1  0.32977000  0.21564000  0.45744000  1.0 -0.0181608665
C  C31  1  0.67023000  0.21564000  0.54256000  1.0 -0.0181608665
C  C32  1  0.67023000  0.78436000  0.45744000  1.0 -0.0181608665
C  C33  1  0.54256000  0.32977000  0.78436000  1.0 -0.0181608665
C  C34  1  0.45744000  0.32977000  0.21564000  1.0 -0.0181608665
C  C35  1  0.54256000  0.67023000  0.21564000  1.0 -0.0181608665
C  C36  1  0.45744000  0.67023000  0.78436000  1.0 -0.0181608665
C  C37  1  0.04256000  0.28436000  0.82977000  1.0 -0.0181608665
C  C38  1  0.95744000  0.71564000  0.82977000  1.0 -0.0181608665
C  C39  1  0.04256000  0.71564000  0.17023000  1.0 -0.0181608665
C  C40  1  0.95744000  0.28436000  0.17023000  1.0 -0.0181608665
C  C41  1  0.28436000  0.82977000  0.04256000  1.0 -0.0181608665
C  C42  1  0.71564000  0.82977000  0.95744000  1.0 -0.0181608665
C  C43  1  0.71564000  0.17023000  0.04256000  1.0 -0.0181608665
C  C44  1  0.28436000  0.17023000  0.95744000  1.0 -0.0181608665
C  C45  1  0.82977000  0.04256000  0.28436000  1.0 -0.0181608665
C  C46  1  0.82977000  0.95744000  0.71564000  1.0 -0.0181608665
C  C47  1  0.17023000  0.04256000  0.71564000  1.0 -0.0181608665
C  C48  1  0.17023000  0.95744000  0.28436000  1.0 -0.0181608665
C  C49  1  0.78331000  0.48904000  0.29611000  1.0 -0.0934626677
C  C50  1  0.21669000  0.51096000  0.29611000  1.0 -0.0934626677
C  C51  1  0.21669000  0.48904000  0.70389000  1.0 -0.0934626677
C  C52  1  0.78331000  0.51096000  0.70389000  1.0 -0.0934626677
C  C53  1  0.29611000  0.78331000  0.48904000  1.0 -0.0934626677
C  C54  1  0.29611000  0.21669000  0.51096000  1.0 -0.0934626677
C  C55  1  0.70389000  0.21669000  0.48904000  1.0 -0.0934626677
C  C56  1  0.70389000  0.78331000  0.51096000  1.0 -0.0934626677
C  C57  1  0.48904000  0.29611000  0.78331000  1.0 -0.0934626677
C  C58  1  0.51096000  0.29611000  0.21669000  1.0 -0.0934626677
C  C59  1  0.48904000  0.70389000  0.21669000  1.0 -0.0934626677
C  C60  1  0.51096000  0.70389000  0.78331000  1.0 -0.0934626677
C  C61  1  0.98904000  0.28331000  0.79611000  1.0 -0.0934626677
C  C62  1  0.01096000  0.71669000  0.79611000  1.0 -0.0934626677
C  C63  1  0.98904000  0.71669000  0.20389000  1.0 -0.0934626677
C  C64  1  0.01096000  0.28331000  0.20389000  1.0 -0.0934626677
C  C65  1  0.28331000  0.79611000  0.98904000  1.0 -0.0934626677
C  C66  1  0.71669000  0.79611000  0.01096000  1.0 -0.0934626677
C  C67  1  0.71669000  0.20389000  0.98904000  1.0 -0.0934626677
C  C68  1  0.28331000  0.20389000  0.01096000  1.0 -0.0934626677
C  C69  1  0.79611000  0.98904000  0.28331000  1.0 -0.0934626677
C  C70  1  0.79611000  0.01096000  0.71669000  1.0 -0.0934626677
C  C71  1  0.20389000  0.98904000  0.71669000  1.0 -0.0934626677
C  C72  1  0.20389000  0.01096000  0.28331000  1.0 -0.0934626677
C  C73  1  0.79142000  0.43322000  0.32437000  1.0 -0.02684551
C  C74  1  0.20858000  0.56678000  0.32437000  1.0 -0.02684551
C  C75  1  0.20858000  0.43322000  0.67563000  1.0 -0.02684551
C  C76  1  0.79142000  0.56678000  0.67563000  1.0 -0.02684551
C  C77  1  0.32437000  0.79142000  0.43322000  1.0 -0.02684551
C  C78  1  0.32437000  0.20858000  0.56678000  1.0 -0.02684551
C  C79  1  0.67563000  0.20858000  0.43322000  1.0 -0.02684551
C  C80  1  0.67563000  0.79142000  0.56678000  1.0 -0.02684551
C  C81  1  0.43322000  0.32437000  0.79142000  1.0 -0.02684551
C  C82  1  0.56678000  0.32437000  0.20858000  1.0 -0.02684551
C  C83  1  0.43322000  0.67563000  0.20858000  1.0 -0.02684551
C  C84  1  0.56678000  0.67563000  0.79142000  1.0 -0.02684551
C  C85  1  0.93322000  0.29142000  0.82437000  1.0 -0.02684551
C  C86  1  0.06678000  0.70858000  0.82437000  1.0 -0.02684551
C  C87  1  0.93322000  0.70858000  0.17563000  1.0 -0.02684551
C  C88  1  0.06678000  0.29142000  0.17563000  1.0 -0.02684551
C  C89  1  0.29142000  0.82437000  0.93322000  1.0 -0.02684551
C  C90  1  0.70858000  0.82437000  0.06678000  1.0 -0.02684551
C  C91  1  0.70858000  0.17563000  0.93322000  1.0 -0.02684551
C  C92  1  0.29142000  0.17563000  0.06678000  1.0 -0.02684551
C  C93  1  0.82437000  0.93322000  0.29142000  1.0 -0.02684551
C  C94  1  0.82437000  0.06678000  0.70858000  1.0 -0.02684551
C  C95  1  0.17563000  0.93322000  0.70858000  1.0 -0.02684551
C  C96  1  0.17563000  0.06678000  0.29142000  1.0 -0.02684551
C  C97  1  0.79276000  0.37442000  0.29052000  1.0 0.6088937006
C  C98  1  0.20724000  0.62558000  0.29052000  1.0 0.6088937006
C  C99  1  0.20724000  0.37442000  0.70948000  1.0 0.6088937006
C  C100  1  0.79276000  0.62558000  0.70948000  1.0 0.6088937006
C  C101  1  0.29052000  0.79276000  0.37442000  1.0 0.6088937006
C  C102  1  0.29052000  0.20724000  0.62558000  1.0 0.6088937006
C  C103  1  0.70948000  0.20724000  0.37442000  1.0 0.6088937006
C  C104  1  0.70948000  0.79276000  0.62558000  1.0 0.6088937006
C  C105  1  0.37442000  0.29052000  0.79276000  1.0 0.6088937006
C  C106  1  0.62558000  0.29052000  0.20724000  1.0 0.6088937006
C  C107  1  0.37442000  0.70948000  0.20724000  1.0 0.6088937006
C  C108  1  0.62558000  0.70948000  0.79276000  1.0 0.6088937006
C  C109  1  0.87442000  0.29276000  0.79052000  1.0 0.6088937006
C  C110  1  0.12558000  0.70724000  0.79052000  1.0 0.6088937006
C  C111  1  0.87442000  0.70724000  0.20948000  1.0 0.6088937006
C  C112  1  0.12558000  0.29276000  0.20948000  1.0 0.6088937006
C  C113  1  0.29276000  0.79052000  0.87442000  1.0 0.6088937006
C  C114  1  0.70724000  0.79052000  0.12558000  1.0 0.6088937006
C  C115  1  0.70724000  0.20948000  0.87442000  1.0 0.6088937006
C  C116  1  0.29276000  0.20948000  0.12558000  1.0 0.6088937006
C  C117  1  0.79052000  0.87442000  0.29276000  1.0 0.6088937006
C  C118  1  0.79052000  0.12558000  0.70724000  1.0 0.6088937006
C  C119  1  0.20948000  0.87442000  0.70724000  1.0 0.6088937006
C  C120  1  0.20948000  0.12558000  0.29276000  1.0 0.6088937006
C  C121  1  0.79140000  0.53987000  0.39292000  1.0 -0.1414274673
C  C122  1  0.20860000  0.46013000  0.39292000  1.0 -0.1414274673
C  C123  1  0.20860000  0.53987000  0.60708000  1.0 -0.1414274673
C  C124  1  0.79140000  0.46013000  0.60708000  1.0 -0.1414274673
C  C125  1  0.39292000  0.79140000  0.53987000  1.0 -0.1414274673
C  C126  1  0.39292000  0.20860000  0.46013000  1.0 -0.1414274673
C  C127  1  0.60708000  0.20860000  0.53987000  1.0 -0.1414274673
C  C128  1  0.60708000  0.79140000  0.46013000  1.0 -0.1414274673
C  C129  1  0.53987000  0.39292000  0.79140000  1.0 -0.1414274673
C  C130  1  0.46013000  0.39292000  0.20860000  1.0 -0.1414274673
C  C131  1  0.53987000  0.60708000  0.20860000  1.0 -0.1414274673
C  C132  1  0.46013000  0.60708000  0.79140000  1.0 -0.1414274673
C  C133  1  0.03987000  0.29140000  0.89292000  1.0 -0.1414274673
C  C134  1  0.96013000  0.70860000  0.89292000  1.0 -0.1414274673
C  C135  1  0.03987000  0.70860000  0.10708000  1.0 -0.1414274673
C  C136  1  0.96013000  0.29140000  0.10708000  1.0 -0.1414274673
C  C137  1  0.29140000  0.89292000  0.03987000  1.0 -0.1414274673
C  C138  1  0.70860000  0.89292000  0.96013000  1.0 -0.1414274673
C  C139  1  0.70860000  0.10708000  0.03987000  1.0 -0.1414274673
C  C140  1  0.29140000  0.10708000  0.96013000  1.0 -0.1414274673
C  C141  1  0.89292000  0.03987000  0.29140000  1.0 -0.1414274673
C  C142  1  0.89292000  0.96013000  0.70860000  1.0 -0.1414274673
C  C143  1  0.10708000  0.03987000  0.70860000  1.0 -0.1414274673
C  C144  1  0.10708000  0.96013000  0.29140000  1.0 -0.1414274673
C  C145  1  0.79640000  0.48395000  0.42114000  1.0 0.1521198334
C  C146  1  0.20360000  0.51605000  0.42114000  1.0 0.1521198334
C  C147  1  0.20360000  0.48395000  0.57886000  1.0 0.1521198334
C  C148  1  0.79640000  0.51605000  0.57886000  1.0 0.1521198334
C  C149  1  0.42114000  0.79640000  0.48395000  1.0 0.1521198334
C  C150  1  0.42114000  0.20360000  0.51605000  1.0 0.1521198334
C  C151  1  0.57886000  0.20360000  0.48395000  1.0 0.1521198334
C  C152  1  0.57886000  0.79640000  0.51605000  1.0 0.1521198334
C  C153  1  0.48395000  0.42114000  0.79640000  1.0 0.1521198334
C  C154  1  0.51605000  0.42114000  0.20360000  1.0 0.1521198334
C  C155  1  0.48395000  0.57886000  0.20360000  1.0 0.1521198334
C  C156  1  0.51605000  0.57886000  0.79640000  1.0 0.1521198334
C  C157  1  0.98395000  0.29640000  0.92114000  1.0 0.1521198334
C  C158  1  0.01605000  0.70360000  0.92114000  1.0 0.1521198334
C  C159  1  0.98395000  0.70360000  0.07886000  1.0 0.1521198334
C  C160  1  0.01605000  0.29640000  0.07886000  1.0 0.1521198334
C  C161  1  0.29640000  0.92114000  0.98395000  1.0 0.1521198334
C  C162  1  0.70360000  0.92114000  0.01605000  1.0 0.1521198334
C  C163  1  0.70360000  0.07886000  0.98395000  1.0 0.1521198334
C  C164  1  0.29640000  0.07886000  0.01605000  1.0 0.1521198334
C  C165  1  0.92114000  0.98395000  0.29640000  1.0 0.1521198334
C  C166  1  0.92114000  0.01605000  0.70360000  1.0 0.1521198334
C  C167  1  0.07886000  0.98395000  0.70360000  1.0 0.1521198334
C  C168  1  0.07886000  0.01605000  0.29640000  1.0 0.1521198334
C  C169  1  0.79780000  0.43078000  0.38729000  1.0 -0.1414274673
C  C170  1  0.20220000  0.56922000  0.38729000  1.0 -0.1414274673
C  C171  1  0.20220000  0.43078000  0.61271000  1.0 -0.1414274673
C  C172  1  0.79780000  0.56922000  0.61271000  1.0 -0.1414274673
C  C173  1  0.38729000  0.79780000  0.43078000  1.0 -0.1414274673
C  C174  1  0.38729000  0.20220000  0.56922000  1.0 -0.1414274673
C  C175  1  0.61271000  0.20220000  0.43078000  1.0 -0.1414274673
C  C176  1  0.61271000  0.79780000  0.56922000  1.0 -0.1414274673
C  C177  1  0.43078000  0.38729000  0.79780000  1.0 -0.1414274673
C  C178  1  0.56922000  0.38729000  0.20220000  1.0 -0.1414274673
C  C179  1  0.43078000  0.61271000  0.20220000  1.0 -0.1414274673
C  C180  1  0.56922000  0.61271000  0.79780000  1.0 -0.1414274673
C  C181  1  0.93078000  0.29780000  0.88729000  1.0 -0.1414274673
C  C182  1  0.06922000  0.70220000  0.88729000  1.0 -0.1414274673
C  C183  1  0.93078000  0.70220000  0.11271000  1.0 -0.1414274673
C  C184  1  0.06922000  0.29780000  0.11271000  1.0 -0.1414274673
C  C185  1  0.29780000  0.88729000  0.93078000  1.0 -0.1414274673
C  C186  1  0.70220000  0.88729000  0.06922000  1.0 -0.1414274673
C  C187  1  0.70220000  0.11271000  0.93078000  1.0 -0.1414274673
C  C188  1  0.29780000  0.11271000  0.06922000  1.0 -0.1414274673
C  C189  1  0.88729000  0.93078000  0.29780000  1.0 -0.1414274673
C  C190  1  0.88729000  0.06922000  0.70220000  1.0 -0.1414274673
C  C191  1  0.11271000  0.93078000  0.70220000  1.0 -0.1414274673
C  C192  1  0.11271000  0.06922000  0.29780000  1.0 -0.1414274673
N  N1  1  0.79910000  0.47624000  0.48578000  1.0 -0.1104845066
N  N2  1  0.20090000  0.52376000  0.48578000  1.0 -0.1104845066
N  N3  1  0.20090000  0.47624000  0.51422000  1.0 -0.1104845066
N  N4  1  0.79910000  0.52376000  0.51422000  1.0 -0.1104845066
N  N5  1  0.48578000  0.79910000  0.47624000  1.0 -0.1104845066
N  N6  1  0.48578000  0.20090000  0.52376000  1.0 -0.1104845066
N  N7  1  0.51422000  0.20090000  0.47624000  1.0 -0.1104845066
N  N8  1  0.51422000  0.79910000  0.52376000  1.0 -0.1104845066
N  N9  1  0.47624000  0.48578000  0.79910000  1.0 -0.1104845066
N  N10  1  0.52376000  0.48578000  0.20090000  1.0 -0.1104845066
N  N11  1  0.47624000  0.51422000  0.20090000  1.0 -0.1104845066
N  N12  1  0.52376000  0.51422000  0.79910000  1.0 -0.1104845066
N  N13  1  0.97624000  0.29910000  0.98578000  1.0 -0.1104845066
N  N14  1  0.02376000  0.70090000  0.98578000  1.0 -0.1104845066
N  N15  1  0.97624000  0.70090000  0.01422000  1.0 -0.1104845066
N  N16  1  0.02376000  0.29910000  0.01422000  1.0 -0.1104845066
N  N17  1  0.29910000  0.98578000  0.97624000  1.0 -0.1104845066
N  N18  1  0.70090000  0.98578000  0.02376000  1.0 -0.1104845066
N  N19  1  0.70090000  0.01422000  0.97624000  1.0 -0.1104845066
N  N20  1  0.29910000  0.01422000  0.02376000  1.0 -0.1104845066
N  N21  1  0.98578000  0.97624000  0.29910000  1.0 -0.1104845066
N  N22  1  0.98578000  0.02376000  0.70090000  1.0 -0.1104845066
N  N23  1  0.01422000  0.97624000  0.70090000  1.0 -0.1104845066
N  N24  1  0.01422000  0.02376000  0.29910000  1.0 -0.1104845066
O  O1  1  0.74075000  0.74075000  0.25925000  1.0 -0.8652809181
O  O2  1  0.25925000  0.25925000  0.25925000  1.0 -0.864308528
O  O3  1  0.25925000  0.74075000  0.74075000  1.0 -0.8652809181
O  O4  1  0.74075000  0.25925000  0.74075000  1.0 -0.864308528
O  O5  1  0.24075000  0.24075000  0.75925000  1.0 -0.864308528
O  O6  1  0.75925000  0.75925000  0.75925000  1.0 -0.8652809181
O  O7  1  0.24075000  0.75925000  0.24075000  1.0 -0.8652809181
O  O8  1  0.75925000  0.24075000  0.24075000  1.0 -0.864308528
O  O9  1  0.79529000  0.64902000  0.33274000  1.0 -0.5407089444
O  O10  1  0.20471000  0.35098000  0.33274000  1.0 -0.5407089444
O  O11  1  0.20471000  0.64902000  0.66726000  1.0 -0.5407089444
O  O12  1  0.79529000  0.35098000  0.66726000  1.0 -0.5407089444
O  O13  1  0.33274000  0.79529000  0.64902000  1.0 -0.5407089444
O  O14  1  0.33274000  0.20471000  0.35098000  1.0 -0.5407089444
O  O15  1  0.66726000  0.20471000  0.64902000  1.0 -0.5407089444
O  O16  1  0.66726000  0.79529000  0.35098000  1.0 -0.5407089444
O  O17  1  0.64902000  0.33274000  0.79529000  1.0 -0.5407089444
O  O18  1  0.35098000  0.33274000  0.20471000  1.0 -0.5407089444
O  O19  1  0.64902000  0.66726000  0.20471000  1.0 -0.5407089444
O  O20  1  0.35098000  0.66726000  0.79529000  1.0 -0.5407089444
O  O21  1  0.14902000  0.29529000  0.83274000  1.0 -0.5407089444
O  O22  1  0.85098000  0.70471000  0.83274000  1.0 -0.5407089444
O  O23  1  0.14902000  0.70471000  0.16726000  1.0 -0.5407089444
O  O24  1  0.85098000  0.29529000  0.16726000  1.0 -0.5407089444
O  O25  1  0.29529000  0.83274000  0.14902000  1.0 -0.5407089444
O  O26  1  0.70471000  0.83274000  0.85098000  1.0 -0.5407089444
O  O27  1  0.70471000  0.16726000  0.14902000  1.0 -0.5407089444
O  O28  1  0.29529000  0.16726000  0.85098000  1.0 -0.5407089444
O  O29  1  0.83274000  0.14902000  0.29529000  1.0 -0.5407089444
O  O30  1  0.83274000  0.85098000  0.70471000  1.0 -0.5407089444
O  O31  1  0.16726000  0.14902000  0.70471000  1.0 -0.5407089444
O  O32  1  0.16726000  0.85098000  0.29529000  1.0 -0.5407089444
O  O33  1  0.75527000  0.60706000  0.24832000  1.0 -0.5407089444
O  O34  1  0.24473000  0.39294000  0.24832000  1.0 -0.5407089444
O  O35  1  0.24473000  0.60706000  0.75168000  1.0 -0.5407089444
O  O36  1  0.75527000  0.39294000  0.75168000  1.0 -0.5407089444
O  O37  1  0.24832000  0.75527000  0.60706000  1.0 -0.5407089444
O  O38  1  0.24832000  0.24473000  0.39294000  1.0 -0.5407089444
O  O39  1  0.75168000  0.24473000  0.60706000  1.0 -0.5407089444
O  O40  1  0.75168000  0.75527000  0.39294000  1.0 -0.5407089444
O  O41  1  0.60706000  0.24832000  0.75527000  1.0 -0.5407089444
O  O42  1  0.39294000  0.24832000  0.24473000  1.0 -0.5407089444
O  O43  1  0.60706000  0.75168000  0.24473000  1.0 -0.5407089444
O  O44  1  0.39294000  0.75168000  0.75527000  1.0 -0.5407089444
O  O45  1  0.10706000  0.25527000  0.74832000  1.0 -0.5407089444
O  O46  1  0.89294000  0.74473000  0.74832000  1.0 -0.5407089444
O  O47  1  0.10706000  0.74473000  0.25168000  1.0 -0.5407089444
O  O48  1  0.89294000  0.25527000  0.25168000  1.0 -0.5407089444
O  O49  1  0.25527000  0.74832000  0.10706000  1.0 -0.5407089444
O  O50  1  0.74473000  0.74832000  0.89294000  1.0 -0.5407089444
O  O51  1  0.74473000  0.25168000  0.10706000  1.0 -0.5407089444
O  O52  1  0.25527000  0.25168000  0.89294000  1.0 -0.5407089444
O  O53  1  0.74832000  0.10706000  0.25527000  1.0 -0.5407089444
O  O54  1  0.74832000  0.89294000  0.74473000  1.0 -0.5407089444
O  O55  1  0.25168000  0.10706000  0.74473000  1.0 -0.5407089444
O  O56  1  0.25168000  0.89294000  0.25527000  1.0 -0.5407089444
O  O57  1  0.77531000  0.37460000  0.23563000  1.0 -0.5319709325
O  O58  1  0.22469000  0.62540000  0.23563000  1.0 -0.5319709325
O  O59  1  0.22469000  0.37460000  0.76437000  1.0 -0.5319709325
O  O60  1  0.77531000  0.62540000  0.76437000  1.0 -0.5319709325
O  O61  1  0.23563000  0.77531000  0.37460000  1.0 -0.5319709325
O  O62  1  0.23563000  0.22469000  0.62540000  1.0 -0.5319709325
O  O63  1  0.76437000  0.22469000  0.37460000  1.0 -0.5319709325
O  O64  1  0.76437000  0.77531000  0.62540000  1.0 -0.5319709325
O  O65  1  0.37460000  0.23563000  0.77531000  1.0 -0.5319709325
O  O66  1  0.62540000  0.23563000  0.22469000  1.0 -0.5319709325
O  O67  1  0.37460000  0.76437000  0.22469000  1.0 -0.5319709325
O  O68  1  0.62540000  0.76437000  0.77531000  1.0 -0.5319709325
O  O69  1  0.87460000  0.27531000  0.73563000  1.0 -0.5319709325
O  O70  1  0.12540000  0.72469000  0.73563000  1.0 -0.5319709325
O  O71  1  0.87460000  0.72469000  0.26437000  1.0 -0.5319709325
O  O72  1  0.12540000  0.27531000  0.26437000  1.0 -0.5319709325
O  O73  1  0.27531000  0.73563000  0.87460000  1.0 -0.5319709325
O  O74  1  0.72469000  0.73563000  0.12540000  1.0 -0.5319709325
O  O75  1  0.72469000  0.26437000  0.87460000  1.0 -0.5319709325
O  O76  1  0.27531000  0.26437000  0.12540000  1.0 -0.5319709325
O  O77  1  0.73563000  0.87460000  0.27531000  1.0 -0.5319709325
O  O78  1  0.73563000  0.12540000  0.72469000  1.0 -0.5319709325
O  O79  1  0.26437000  0.87460000  0.72469000  1.0 -0.5319709325
O  O80  1  0.26437000  0.12540000  0.27531000  1.0 -0.5319709325
O  O81  1  0.81257000  0.32889000  0.31928000  1.0 -0.5407089444
O  O82  1  0.18743000  0.67111000  0.31928000  1.0 -0.5407089444
O  O83  1  0.18743000  0.32889000  0.68072000  1.0 -0.5407089444
O  O84  1  0.81257000  0.67111000  0.68072000  1.0 -0.5407089444
O  O85  1  0.31928000  0.81257000  0.32889000  1.0 -0.5407089444
O  O86  1  0.31928000  0.18743000  0.67111000  1.0 -0.5407089444
O  O87  1  0.68072000  0.18743000  0.32889000  1.0 -0.5407089444
O  O88  1  0.68072000  0.81257000  0.67111000  1.0 -0.5407089444
O  O89  1  0.32889000  0.31928000  0.81257000  1.0 -0.5407089444
O  O90  1  0.67111000  0.31928000  0.18743000  1.0 -0.5407089444
O  O91  1  0.32889000  0.68072000  0.18743000  1.0 -0.5407089444
O  O92  1  0.67111000  0.68072000  0.81257000  1.0 -0.5407089444
O  O93  1  0.82889000  0.31257000  0.81928000  1.0 -0.5407089444
O  O94  1  0.17111000  0.68743000  0.81928000  1.0 -0.5407089444
O  O95  1  0.82889000  0.68743000  0.18072000  1.0 -0.5407089444
O  O96  1  0.17111000  0.31257000  0.18072000  1.0 -0.5407089444
O  O97  1  0.31257000  0.81928000  0.82889000  1.0 -0.5407089444
O  O98  1  0.68743000  0.81928000  0.17111000  1.0 -0.5407089444
O  O99  1  0.68743000  0.18072000  0.82889000  1.0 -0.5407089444
O  O100  1  0.31257000  0.18072000  0.17111000  1.0 -0.5407089444
O  O101  1  0.81928000  0.82889000  0.31257000  1.0 -0.5407089444
O  O102  1  0.81928000  0.17111000  0.68743000  1.0 -0.5407089444
O  O103  1  0.18072000  0.82889000  0.68743000  1.0 -0.5407089444
O  O104  1  0.18072000  0.17111000  0.31257000  1.0 -0.5407089444
