# DDEC6 charges by PACMAN v1.1 (https://github.com/mtap-research/PACMAN-charge/)
data_LICXUU_ASR_pacman
_symmetry_space_group_name_H-M   'P 1'
_cell_length_a   21.89290000
_cell_length_b   21.89290000
_cell_length_c   21.89290000
_cell_angle_alpha   90.00000000
_cell_angle_beta   90.00000000
_cell_angle_gamma   90.00000000
_symmetry_Int_Tables_number   1
_chemical_formula_structural   Fe3H9C24N3O13
_chemical_formula_sum   'Fe24 H72 C192 N24 O104'
_cell_volume   10493.24661858
_cell_formula_units_Z   8
loop_
 _symmetry_equiv_pos_site_id
 _symmetry_equiv_pos_as_xyz
  1  'x, y, z'
loop_
 _atom_site_type_symbol
 _atom_site_label
 _atom_site_symmetry_multiplicity
 _atom_site_fract_x
 _atom_site_fract_y
 _atom_site_fract_z
 _atom_site_occupancy
 _atom_site_charge
Fe  Fe1  1  0.31773000  0.73941000  0.80152000  1.0 1.1536355616
Fe  Fe2  1  0.68227000  0.26059000  0.80152000  1.0 1.1536355616
Fe  Fe3  1  0.68227000  0.73941000  0.19848000  1.0 1.1536355616
Fe  Fe4  1  0.31773000  0.26059000  0.19848000  1.0 1.1536355616
Fe  Fe5  1  0.80152000  0.31773000  0.73941000  1.0 1.1536355616
Fe  Fe6  1  0.80152000  0.68227000  0.26059000  1.0 1.1536355616
Fe  Fe7  1  0.19848000  0.68227000  0.73941000  1.0 1.1536355616
Fe  Fe8  1  0.19848000  0.31773000  0.26059000  1.0 1.1536355616
Fe  Fe9  1  0.73941000  0.80152000  0.31773000  1.0 1.1536355616
Fe  Fe10  1  0.26059000  0.80152000  0.68227000  1.0 1.1536355616
Fe  Fe11  1  0.73941000  0.19848000  0.68227000  1.0 1.1536355616
Fe  Fe12  1  0.26059000  0.19848000  0.31773000  1.0 1.1536355616
Fe  Fe13  1  0.23941000  0.81773000  0.30152000  1.0 1.1536355616
Fe  Fe14  1  0.76059000  0.18227000  0.30152000  1.0 1.1536355616
Fe  Fe15  1  0.23941000  0.18227000  0.69848000  1.0 1.1536355616
Fe  Fe16  1  0.76059000  0.81773000  0.69848000  1.0 1.1536355616
Fe  Fe17  1  0.81773000  0.30152000  0.23941000  1.0 1.1536355616
Fe  Fe18  1  0.18227000  0.30152000  0.76059000  1.0 1.1536355616
Fe  Fe19  1  0.18227000  0.69848000  0.23941000  1.0 1.1536355616
Fe  Fe20  1  0.81773000  0.69848000  0.76059000  1.0 1.1536355616
Fe  Fe21  1  0.30152000  0.23941000  0.81773000  1.0 1.1536355616
Fe  Fe22  1  0.30152000  0.76059000  0.18227000  1.0 1.1536355616
Fe  Fe23  1  0.69848000  0.23941000  0.18227000  1.0 1.1536355616
Fe  Fe24  1  0.69848000  0.76059000  0.81773000  1.0 1.1536355616
H  H1  1  0.50885000  0.77805000  0.74646000  1.0 0.141272381
H  H2  1  0.49115000  0.22195000  0.74646000  1.0 0.141272381
H  H3  1  0.49115000  0.77805000  0.25354000  1.0 0.141272381
H  H4  1  0.50885000  0.22195000  0.25354000  1.0 0.141272381
H  H5  1  0.74646000  0.50885000  0.77805000  1.0 0.141272381
H  H6  1  0.74646000  0.49115000  0.22195000  1.0 0.141272381
H  H7  1  0.25354000  0.49115000  0.77805000  1.0 0.141272381
H  H8  1  0.25354000  0.50885000  0.22195000  1.0 0.141272381
H  H9  1  0.77805000  0.74646000  0.50885000  1.0 0.141272381
H  H10  1  0.22195000  0.74646000  0.49115000  1.0 0.141272381
H  H11  1  0.77805000  0.25354000  0.49115000  1.0 0.141272381
H  H12  1  0.22195000  0.25354000  0.50885000  1.0 0.141272381
H  H13  1  0.27805000  0.00885000  0.24646000  1.0 0.141272381
H  H14  1  0.72195000  0.99115000  0.24646000  1.0 0.141272381
H  H15  1  0.27805000  0.99115000  0.75354000  1.0 0.141272381
H  H16  1  0.72195000  0.00885000  0.75354000  1.0 0.141272381
H  H17  1  0.00885000  0.24646000  0.27805000  1.0 0.141272381
H  H18  1  0.99115000  0.24646000  0.72195000  1.0 0.141272381
H  H19  1  0.99115000  0.75354000  0.27805000  1.0 0.141272381
H  H20  1  0.00885000  0.75354000  0.72195000  1.0 0.141272381
H  H21  1  0.24646000  0.27805000  0.00885000  1.0 0.141272381
H  H22  1  0.24646000  0.72195000  0.99115000  1.0 0.141272381
H  H23  1  0.75354000  0.27805000  0.99115000  1.0 0.141272381
H  H24  1  0.75354000  0.72195000  0.00885000  1.0 0.141272381
H  H25  1  0.42363000  0.79258000  0.58450000  1.0 0.1333859961
H  H26  1  0.57637000  0.20742000  0.58450000  1.0 0.1333859961
H  H27  1  0.57637000  0.79258000  0.41550000  1.0 0.1333859961
H  H28  1  0.42363000  0.20742000  0.41550000  1.0 0.1333859961
H  H29  1  0.58450000  0.42363000  0.79258000  1.0 0.1333859961
H  H30  1  0.58450000  0.57637000  0.20742000  1.0 0.1333859961
H  H31  1  0.41550000  0.57637000  0.79258000  1.0 0.1333859961
H  H32  1  0.41550000  0.42363000  0.20742000  1.0 0.1333859961
H  H33  1  0.79258000  0.58450000  0.42363000  1.0 0.1333859961
H  H34  1  0.20742000  0.58450000  0.57637000  1.0 0.1333859961
H  H35  1  0.79258000  0.41550000  0.57637000  1.0 0.1333859961
H  H36  1  0.20742000  0.41550000  0.42363000  1.0 0.1333859961
H  H37  1  0.29258000  0.92363000  0.08450000  1.0 0.1333859961
H  H38  1  0.70742000  0.07637000  0.08450000  1.0 0.1333859961
H  H39  1  0.29258000  0.07637000  0.91550000  1.0 0.1333859961
H  H40  1  0.70742000  0.92363000  0.91550000  1.0 0.1333859961
H  H41  1  0.92363000  0.08450000  0.29258000  1.0 0.1333859961
H  H42  1  0.07637000  0.08450000  0.70742000  1.0 0.1333859961
H  H43  1  0.07637000  0.91550000  0.29258000  1.0 0.1333859961
H  H44  1  0.92363000  0.91550000  0.70742000  1.0 0.1333859961
H  H45  1  0.08450000  0.29258000  0.92363000  1.0 0.1333859961
H  H46  1  0.08450000  0.70742000  0.07637000  1.0 0.1333859961
H  H47  1  0.91550000  0.29258000  0.07637000  1.0 0.1333859961
H  H48  1  0.91550000  0.70742000  0.92363000  1.0 0.1333859961
H  H49  1  0.60629000  0.80312000  0.59354000  1.0 0.141272381
H  H50  1  0.39371000  0.19688000  0.59354000  1.0 0.141272381
H  H51  1  0.39371000  0.80312000  0.40646000  1.0 0.141272381
H  H52  1  0.60629000  0.19688000  0.40646000  1.0 0.141272381
H  H53  1  0.59354000  0.60629000  0.80312000  1.0 0.141272381
H  H54  1  0.59354000  0.39371000  0.19688000  1.0 0.141272381
H  H55  1  0.40646000  0.39371000  0.80312000  1.0 0.141272381
H  H56  1  0.40646000  0.60629000  0.19688000  1.0 0.141272381
H  H57  1  0.80312000  0.59354000  0.60629000  1.0 0.141272381
H  H58  1  0.19688000  0.59354000  0.39371000  1.0 0.141272381
H  H59  1  0.80312000  0.40646000  0.39371000  1.0 0.141272381
H  H60  1  0.19688000  0.40646000  0.60629000  1.0 0.141272381
H  H61  1  0.30312000  0.10629000  0.09354000  1.0 0.141272381
H  H62  1  0.69688000  0.89371000  0.09354000  1.0 0.141272381
H  H63  1  0.30312000  0.89371000  0.90646000  1.0 0.141272381
H  H64  1  0.69688000  0.10629000  0.90646000  1.0 0.141272381
H  H65  1  0.10629000  0.09354000  0.30312000  1.0 0.141272381
H  H66  1  0.89371000  0.09354000  0.69688000  1.0 0.141272381
H  H67  1  0.89371000  0.90646000  0.30312000  1.0 0.141272381
H  H68  1  0.10629000  0.90646000  0.69688000  1.0 0.141272381
H  H69  1  0.09354000  0.30312000  0.10629000  1.0 0.141272381
H  H70  1  0.09354000  0.69688000  0.89371000  1.0 0.141272381
H  H71  1  0.90646000  0.30312000  0.89371000  1.0 0.141272381
H  H72  1  0.90646000  0.69688000  0.10629000  1.0 0.141272381
C  C1  1  0.39520000  0.77833000  0.69913000  1.0 0.6036507488
C  C2  1  0.60480000  0.22167000  0.69913000  1.0 0.6036507488
C  C3  1  0.60480000  0.77833000  0.30087000  1.0 0.6036507488
C  C4  1  0.39520000  0.22167000  0.30087000  1.0 0.6036507488
C  C5  1  0.69913000  0.39520000  0.77833000  1.0 0.6036507488
C  C6  1  0.69913000  0.60480000  0.22167000  1.0 0.6036507488
C  C7  1  0.30087000  0.60480000  0.77833000  1.0 0.6036507488
C  C8  1  0.30087000  0.39520000  0.22167000  1.0 0.6036507488
C  C9  1  0.77833000  0.69913000  0.39520000  1.0 0.6036507488
C  C10  1  0.22167000  0.69913000  0.60480000  1.0 0.6036507488
C  C11  1  0.77833000  0.30087000  0.60480000  1.0 0.6036507488
C  C12  1  0.22167000  0.30087000  0.39520000  1.0 0.6036507488
C  C13  1  0.27833000  0.89520000  0.19913000  1.0 0.6036507488
C  C14  1  0.72167000  0.10480000  0.19913000  1.0 0.6036507488
C  C15  1  0.27833000  0.10480000  0.80087000  1.0 0.6036507488
C  C16  1  0.72167000  0.89520000  0.80087000  1.0 0.6036507488
C  C17  1  0.89520000  0.19913000  0.27833000  1.0 0.6036507488
C  C18  1  0.10480000  0.19913000  0.72167000  1.0 0.6036507488
C  C19  1  0.10480000  0.80087000  0.27833000  1.0 0.6036507488
C  C20  1  0.89520000  0.80087000  0.72167000  1.0 0.6036507488
C  C21  1  0.19913000  0.27833000  0.89520000  1.0 0.6036507488
C  C22  1  0.19913000  0.72167000  0.10480000  1.0 0.6036507488
C  C23  1  0.80087000  0.27833000  0.10480000  1.0 0.6036507488
C  C24  1  0.80087000  0.72167000  0.89520000  1.0 0.6036507488
C  C25  1  0.45709000  0.78410000  0.67061000  1.0 -0.0181987399
C  C26  1  0.54291000  0.21590000  0.67061000  1.0 -0.0181987399
C  C27  1  0.54291000  0.78410000  0.32939000  1.0 -0.0181987399
C  C28  1  0.45709000  0.21590000  0.32939000  1.0 -0.0181987399
C  C29  1  0.67061000  0.45709000  0.78410000  1.0 -0.0181987399
C  C30  1  0.67061000  0.54291000  0.21590000  1.0 -0.0181987399
C  C31  1  0.32939000  0.54291000  0.78410000  1.0 -0.0181987399
C  C32  1  0.32939000  0.45709000  0.21590000  1.0 -0.0181987399
C  C33  1  0.78410000  0.67061000  0.45709000  1.0 -0.0181987399
C  C34  1  0.21590000  0.67061000  0.54291000  1.0 -0.0181987399
C  C35  1  0.78410000  0.32939000  0.54291000  1.0 -0.0181987399
C  C36  1  0.21590000  0.32939000  0.45709000  1.0 -0.0181987399
C  C37  1  0.28410000  0.95709000  0.17061000  1.0 -0.0181987399
C  C38  1  0.71590000  0.04291000  0.17061000  1.0 -0.0181987399
C  C39  1  0.28410000  0.04291000  0.82939000  1.0 -0.0181987399
C  C40  1  0.71590000  0.95709000  0.82939000  1.0 -0.0145076661
C  C41  1  0.95709000  0.17061000  0.28410000  1.0 -0.0181987399
C  C42  1  0.04291000  0.17061000  0.71590000  1.0 -0.0181987399
C  C43  1  0.04291000  0.82939000  0.28410000  1.0 -0.0181987399
C  C44  1  0.95709000  0.82939000  0.71590000  1.0 -0.0181987399
C  C45  1  0.17061000  0.28410000  0.95709000  1.0 -0.0181987399
C  C46  1  0.17061000  0.71590000  0.04291000  1.0 -0.0181987399
C  C47  1  0.82939000  0.28410000  0.04291000  1.0 -0.0181987399
C  C48  1  0.82939000  0.71590000  0.95709000  1.0 -0.0181987399
C  C49  1  0.51053000  0.78357000  0.70437000  1.0 -0.0940747061
C  C50  1  0.48947000  0.21643000  0.70437000  1.0 -0.0940747061
C  C51  1  0.48947000  0.78357000  0.29563000  1.0 -0.0940747061
C  C52  1  0.51053000  0.21643000  0.29563000  1.0 -0.0940747061
C  C53  1  0.70437000  0.51053000  0.78357000  1.0 -0.0940747061
C  C54  1  0.70437000  0.48947000  0.21643000  1.0 -0.0940747061
C  C55  1  0.29563000  0.48947000  0.78357000  1.0 -0.0940747061
C  C56  1  0.29563000  0.51053000  0.21643000  1.0 -0.0940747061
C  C57  1  0.78357000  0.70437000  0.51053000  1.0 -0.0940747061
C  C58  1  0.21643000  0.70437000  0.48947000  1.0 -0.0940747061
C  C59  1  0.78357000  0.29563000  0.48947000  1.0 -0.0940747061
C  C60  1  0.21643000  0.29563000  0.51053000  1.0 -0.0940747061
C  C61  1  0.28357000  0.01053000  0.20437000  1.0 -0.0940747061
C  C62  1  0.71643000  0.98947000  0.20437000  1.0 -0.0940747061
C  C63  1  0.28357000  0.98947000  0.79563000  1.0 -0.0940747061
C  C64  1  0.71643000  0.01053000  0.79563000  1.0 -0.0940747061
C  C65  1  0.01053000  0.20437000  0.28357000  1.0 -0.0940747061
C  C66  1  0.98947000  0.20437000  0.71643000  1.0 -0.0940747061
C  C67  1  0.98947000  0.79563000  0.28357000  1.0 -0.0940747061
C  C68  1  0.01053000  0.79563000  0.71643000  1.0 -0.0940747061
C  C69  1  0.20437000  0.28357000  0.01053000  1.0 -0.0940747061
C  C70  1  0.20437000  0.71643000  0.98947000  1.0 -0.0940747061
C  C71  1  0.79563000  0.28357000  0.98947000  1.0 -0.0940747061
C  C72  1  0.79563000  0.71643000  0.01053000  1.0 -0.0940747061
C  C73  1  0.62546000  0.79257000  0.71024000  1.0 0.6073803605
C  C74  1  0.37454000  0.20743000  0.71024000  1.0 0.6073803605
C  C75  1  0.37454000  0.79257000  0.28976000  1.0 0.6073803605
C  C76  1  0.62546000  0.20743000  0.28976000  1.0 0.6073803605
C  C77  1  0.71024000  0.62546000  0.79257000  1.0 0.6073803605
C  C78  1  0.71024000  0.37454000  0.20743000  1.0 0.6073803605
C  C79  1  0.28976000  0.37454000  0.79257000  1.0 0.6073803605
C  C80  1  0.28976000  0.62546000  0.20743000  1.0 0.6073803605
C  C81  1  0.79257000  0.71024000  0.62546000  1.0 0.6073803605
C  C82  1  0.20743000  0.71024000  0.37454000  1.0 0.6073803605
C  C83  1  0.79257000  0.28976000  0.37454000  1.0 0.6073803605
C  C84  1  0.20743000  0.28976000  0.62546000  1.0 0.6073803605
C  C85  1  0.29257000  0.12546000  0.21024000  1.0 0.6073803605
C  C86  1  0.70743000  0.87454000  0.21024000  1.0 0.6073803605
C  C87  1  0.29257000  0.87454000  0.78976000  1.0 0.6073803605
C  C88  1  0.70743000  0.12546000  0.78976000  1.0 0.6073803605
C  C89  1  0.12546000  0.21024000  0.29257000  1.0 0.6073803605
C  C90  1  0.87454000  0.21024000  0.70743000  1.0 0.6073803605
C  C91  1  0.87454000  0.78976000  0.29257000  1.0 0.6073803605
C  C92  1  0.12546000  0.78976000  0.70743000  1.0 0.6073803605
C  C93  1  0.21024000  0.29257000  0.12546000  1.0 0.6073803605
C  C94  1  0.21024000  0.70743000  0.87454000  1.0 0.6073803605
C  C95  1  0.78976000  0.29257000  0.87454000  1.0 0.6073803605
C  C96  1  0.78976000  0.70743000  0.12546000  1.0 0.6073803605
C  C97  1  0.56658000  0.79121000  0.67583000  1.0 -0.0181987399
C  C98  1  0.43342000  0.20879000  0.67583000  1.0 -0.0181987399
C  C99  1  0.43342000  0.79121000  0.32417000  1.0 -0.0181987399
C  C100  1  0.56658000  0.20879000  0.32417000  1.0 -0.0181987399
C  C101  1  0.67583000  0.56658000  0.79121000  1.0 -0.0181987399
C  C102  1  0.67583000  0.43342000  0.20879000  1.0 -0.0181987399
C  C103  1  0.32417000  0.43342000  0.79121000  1.0 -0.0181987399
C  C104  1  0.32417000  0.56658000  0.20879000  1.0 -0.0181987399
C  C105  1  0.79121000  0.67583000  0.56658000  1.0 -0.0181987399
C  C106  1  0.20879000  0.67583000  0.43342000  1.0 -0.0181987399
C  C107  1  0.79121000  0.32417000  0.43342000  1.0 -0.0181987399
C  C108  1  0.20879000  0.32417000  0.56658000  1.0 -0.0181987399
C  C109  1  0.29121000  0.06658000  0.17583000  1.0 -0.0181987399
C  C110  1  0.70879000  0.93342000  0.17583000  1.0 -0.0181987399
C  C111  1  0.29121000  0.93342000  0.82417000  1.0 -0.0181987399
C  C112  1  0.70879000  0.06658000  0.82417000  1.0 -0.0181987399
C  C113  1  0.06658000  0.17583000  0.29121000  1.0 -0.0181987399
C  C114  1  0.93342000  0.17583000  0.70879000  1.0 -0.0181987399
C  C115  1  0.93342000  0.82417000  0.29121000  1.0 -0.0181987399
C  C116  1  0.06658000  0.82417000  0.70879000  1.0 -0.0181987399
C  C117  1  0.17583000  0.29121000  0.06658000  1.0 -0.0181987399
C  C118  1  0.17583000  0.70879000  0.93342000  1.0 -0.0181987399
C  C119  1  0.82417000  0.29121000  0.93342000  1.0 -0.0181987399
C  C120  1  0.82417000  0.70879000  0.06658000  1.0 -0.0181987399
C  C121  1  0.45940000  0.79110000  0.60736000  1.0 -0.1417291675
C  C122  1  0.54060000  0.20890000  0.60736000  1.0 -0.1417291675
C  C123  1  0.54060000  0.79110000  0.39264000  1.0 -0.1417291675
C  C124  1  0.45940000  0.20890000  0.39264000  1.0 -0.1417291675
C  C125  1  0.60736000  0.45940000  0.79110000  1.0 -0.1417291675
C  C126  1  0.60736000  0.54060000  0.20890000  1.0 -0.1417291675
C  C127  1  0.39264000  0.54060000  0.79110000  1.0 -0.1417291675
C  C128  1  0.39264000  0.45940000  0.20890000  1.0 -0.1417291675
C  C129  1  0.79110000  0.60736000  0.45940000  1.0 -0.1417291675
C  C130  1  0.20890000  0.60736000  0.54060000  1.0 -0.1417291675
C  C131  1  0.79110000  0.39264000  0.54060000  1.0 -0.1417291675
C  C132  1  0.20890000  0.39264000  0.45940000  1.0 -0.1417291675
C  C133  1  0.29110000  0.95940000  0.10736000  1.0 -0.1417291675
C  C134  1  0.70890000  0.04060000  0.10736000  1.0 -0.1417291675
C  C135  1  0.29110000  0.04060000  0.89264000  1.0 -0.1417291675
C  C136  1  0.70890000  0.95940000  0.89264000  1.0 -0.1417291675
C  C137  1  0.95940000  0.10736000  0.29110000  1.0 -0.1417291675
C  C138  1  0.04060000  0.10736000  0.70890000  1.0 -0.1417291675
C  C139  1  0.04060000  0.89264000  0.29110000  1.0 -0.1417291675
C  C140  1  0.95940000  0.89264000  0.70890000  1.0 -0.1417291675
C  C141  1  0.10736000  0.29110000  0.95940000  1.0 -0.1417291675
C  C142  1  0.10736000  0.70890000  0.04060000  1.0 -0.1417291675
C  C143  1  0.89264000  0.29110000  0.04060000  1.0 -0.1417291675
C  C144  1  0.89264000  0.70890000  0.95940000  1.0 -0.1417291675
C  C145  1  0.56893000  0.79760000  0.61297000  1.0 -0.1417291675
C  C146  1  0.43107000  0.20240000  0.61297000  1.0 -0.1417291675
C  C147  1  0.43107000  0.79760000  0.38703000  1.0 -0.1417291675
C  C148  1  0.56893000  0.20240000  0.38703000  1.0 -0.1417291675
C  C149  1  0.61297000  0.56893000  0.79760000  1.0 -0.1417291675
C  C150  1  0.61297000  0.43107000  0.20240000  1.0 -0.1417291675
C  C151  1  0.38703000  0.43107000  0.79760000  1.0 -0.1417291675
C  C152  1  0.38703000  0.56893000  0.20240000  1.0 -0.1417291675
C  C153  1  0.79760000  0.61297000  0.56893000  1.0 -0.1417291675
C  C154  1  0.20240000  0.61297000  0.43107000  1.0 -0.1417291675
C  C155  1  0.79760000  0.38703000  0.43107000  1.0 -0.1417291675
C  C156  1  0.20240000  0.38703000  0.56893000  1.0 -0.1417291675
C  C157  1  0.29760000  0.06893000  0.11297000  1.0 -0.1417291675
C  C158  1  0.70240000  0.93107000  0.11297000  1.0 -0.1417291675
C  C159  1  0.29760000  0.93107000  0.88703000  1.0 -0.1417291675
C  C160  1  0.70240000  0.06893000  0.88703000  1.0 -0.1417291675
C  C161  1  0.06893000  0.11297000  0.29760000  1.0 -0.1417291675
C  C162  1  0.93107000  0.11297000  0.70240000  1.0 -0.1417291675
C  C163  1  0.93107000  0.88703000  0.29760000  1.0 -0.1417291675
C  C164  1  0.06893000  0.88703000  0.70240000  1.0 -0.1417291675
C  C165  1  0.11297000  0.29760000  0.06893000  1.0 -0.1417291675
C  C166  1  0.11297000  0.70240000  0.93107000  1.0 -0.1417291675
C  C167  1  0.88703000  0.29760000  0.93107000  1.0 -0.1417291675
C  C168  1  0.88703000  0.70240000  0.06893000  1.0 -0.1417291675
C  C169  1  0.51571000  0.79570000  0.57915000  1.0 0.1501006199
C  C170  1  0.48429000  0.20430000  0.57915000  1.0 0.1501006199
C  C171  1  0.48429000  0.79570000  0.42085000  1.0 0.1501006199
C  C172  1  0.51571000  0.20430000  0.42085000  1.0 0.1501006199
C  C173  1  0.57915000  0.51571000  0.79570000  1.0 0.1501006199
C  C174  1  0.57915000  0.48429000  0.20430000  1.0 0.1501006199
C  C175  1  0.42085000  0.48429000  0.79570000  1.0 0.1501006199
C  C176  1  0.42085000  0.51571000  0.20430000  1.0 0.1501006199
C  C177  1  0.79570000  0.57915000  0.51571000  1.0 0.1501006199
C  C178  1  0.20430000  0.57915000  0.48429000  1.0 0.1501006199
C  C179  1  0.79570000  0.42085000  0.48429000  1.0 0.1501006199
C  C180  1  0.20430000  0.42085000  0.51571000  1.0 0.1501006199
C  C181  1  0.29570000  0.01571000  0.07915000  1.0 0.1501006199
C  C182  1  0.70430000  0.98429000  0.07915000  1.0 0.1501006199
C  C183  1  0.29570000  0.98429000  0.92085000  1.0 0.1501006199
C  C184  1  0.70430000  0.01571000  0.92085000  1.0 0.1501006199
C  C185  1  0.01571000  0.07915000  0.29570000  1.0 0.1501006199
C  C186  1  0.98429000  0.07915000  0.70430000  1.0 0.1501006199
C  C187  1  0.98429000  0.92085000  0.29570000  1.0 0.1501006199
C  C188  1  0.01571000  0.92085000  0.70430000  1.0 0.1501006199
C  C189  1  0.07915000  0.29570000  0.01571000  1.0 0.1501006199
C  C190  1  0.07915000  0.70430000  0.98429000  1.0 0.1501006199
C  C191  1  0.92085000  0.29570000  0.98429000  1.0 0.1501006199
C  C192  1  0.92085000  0.70430000  0.01571000  1.0 0.1501006199
N  N1  1  0.52347000  0.79840000  0.51434000  1.0 -0.1100295874
N  N2  1  0.47653000  0.20160000  0.51434000  1.0 -0.1100295874
N  N3  1  0.47653000  0.79840000  0.48566000  1.0 -0.1100295874
N  N4  1  0.52347000  0.20160000  0.48566000  1.0 -0.1100295874
N  N5  1  0.51434000  0.52347000  0.79840000  1.0 -0.1100295874
N  N6  1  0.51434000  0.47653000  0.20160000  1.0 -0.1100295874
N  N7  1  0.48566000  0.47653000  0.79840000  1.0 -0.1100295874
N  N8  1  0.48566000  0.52347000  0.20160000  1.0 -0.1100295874
N  N9  1  0.79840000  0.51434000  0.52347000  1.0 -0.1100295874
N  N10  1  0.20160000  0.51434000  0.47653000  1.0 -0.1100295874
N  N11  1  0.79840000  0.48566000  0.47653000  1.0 -0.1100295874
N  N12  1  0.20160000  0.48566000  0.52347000  1.0 -0.1100295874
N  N13  1  0.29840000  0.02347000  0.01434000  1.0 -0.1100295874
N  N14  1  0.70160000  0.97653000  0.01434000  1.0 -0.1100295874
N  N15  1  0.29840000  0.97653000  0.98566000  1.0 -0.1100295874
N  N16  1  0.70160000  0.02347000  0.98566000  1.0 -0.1100295874
N  N17  1  0.02347000  0.01434000  0.29840000  1.0 -0.1100295874
N  N18  1  0.97653000  0.01434000  0.70160000  1.0 -0.1100295874
N  N19  1  0.97653000  0.98566000  0.29840000  1.0 -0.1100295874
N  N20  1  0.02347000  0.98566000  0.70160000  1.0 -0.1100295874
N  N21  1  0.01434000  0.29840000  0.02347000  1.0 -0.1100295874
N  N22  1  0.01434000  0.70160000  0.97653000  1.0 -0.1100295874
N  N23  1  0.98566000  0.29840000  0.97653000  1.0 -0.1100295874
N  N24  1  0.98566000  0.70160000  0.02347000  1.0 -0.1100295874
O  O1  1  0.25923000  0.74077000  0.74077000  1.0 -0.8223916292
O  O2  1  0.74077000  0.25923000  0.74077000  1.0 -0.8223916292
O  O3  1  0.74077000  0.74077000  0.25923000  1.0 -0.8223916292
O  O4  1  0.25923000  0.25923000  0.25923000  1.0 -0.8223916292
O  O5  1  0.24077000  0.75923000  0.24077000  1.0 -0.8223916292
O  O6  1  0.75923000  0.24077000  0.24077000  1.0 -0.8223916292
O  O7  1  0.24077000  0.24077000  0.75923000  1.0 -0.8223916292
O  O8  1  0.75923000  0.75923000  0.75923000  1.0 -0.8223916292
O  O9  1  0.35048000  0.79569000  0.66786000  1.0 -0.5297738325
O  O10  1  0.64952000  0.20431000  0.66786000  1.0 -0.5297738325
O  O11  1  0.64952000  0.79569000  0.33214000  1.0 -0.5297738325
O  O12  1  0.35048000  0.20431000  0.33214000  1.0 -0.5297738325
O  O13  1  0.66786000  0.35048000  0.79569000  1.0 -0.5297738325
O  O14  1  0.66786000  0.64952000  0.20431000  1.0 -0.5297738325
O  O15  1  0.33214000  0.64952000  0.79569000  1.0 -0.5297738325
O  O16  1  0.33214000  0.35048000  0.20431000  1.0 -0.5297738325
O  O17  1  0.79569000  0.66786000  0.35048000  1.0 -0.5297738325
O  O18  1  0.20431000  0.66786000  0.64952000  1.0 -0.5297738325
O  O19  1  0.79569000  0.33214000  0.64952000  1.0 -0.5297738325
O  O20  1  0.20431000  0.33214000  0.35048000  1.0 -0.5297738325
O  O21  1  0.29569000  0.85048000  0.16786000  1.0 -0.5297738325
O  O22  1  0.70431000  0.14952000  0.16786000  1.0 -0.5297738325
O  O23  1  0.29569000  0.14952000  0.83214000  1.0 -0.5297738325
O  O24  1  0.70431000  0.85048000  0.83214000  1.0 -0.5297738325
O  O25  1  0.85048000  0.16786000  0.29569000  1.0 -0.5297738325
O  O26  1  0.14952000  0.16786000  0.70431000  1.0 -0.5297738325
O  O27  1  0.14952000  0.83214000  0.29569000  1.0 -0.5297738325
O  O28  1  0.85048000  0.83214000  0.70431000  1.0 -0.5297738325
O  O29  1  0.16786000  0.29569000  0.85048000  1.0 -0.5297738325
O  O30  1  0.16786000  0.70431000  0.14952000  1.0 -0.5297738325
O  O31  1  0.83214000  0.29569000  0.14952000  1.0 -0.5297738325
O  O32  1  0.83214000  0.70431000  0.85048000  1.0 -0.5297738325
O  O33  1  0.39277000  0.75556000  0.75218000  1.0 -0.5366067637
O  O34  1  0.60723000  0.24444000  0.75218000  1.0 -0.5366067637
O  O35  1  0.60723000  0.75556000  0.24782000  1.0 -0.5366067637
O  O36  1  0.39277000  0.24444000  0.24782000  1.0 -0.5366067637
O  O37  1  0.75218000  0.39277000  0.75556000  1.0 -0.5366067637
O  O38  1  0.75218000  0.60723000  0.24444000  1.0 -0.5366067637
O  O39  1  0.24782000  0.60723000  0.75556000  1.0 -0.5366067637
O  O40  1  0.24782000  0.39277000  0.24444000  1.0 -0.5366067637
O  O41  1  0.75556000  0.75218000  0.39277000  1.0 -0.5366067637
O  O42  1  0.24444000  0.75218000  0.60723000  1.0 -0.5366067637
O  O43  1  0.75556000  0.24782000  0.60723000  1.0 -0.5366067637
O  O44  1  0.24444000  0.24782000  0.39277000  1.0 -0.5366067637
O  O45  1  0.25556000  0.89277000  0.25218000  1.0 -0.5366067637
O  O46  1  0.74444000  0.10723000  0.25218000  1.0 -0.5366067637
O  O47  1  0.25556000  0.10723000  0.74782000  1.0 -0.5366067637
O  O48  1  0.74444000  0.89277000  0.74782000  1.0 -0.5366067637
O  O49  1  0.89277000  0.25218000  0.25556000  1.0 -0.5366067637
O  O50  1  0.10723000  0.25218000  0.74444000  1.0 -0.5366067637
O  O51  1  0.10723000  0.74782000  0.25556000  1.0 -0.5366067637
O  O52  1  0.89277000  0.74782000  0.74444000  1.0 -0.5366067637
O  O53  1  0.25218000  0.25556000  0.89277000  1.0 -0.5366067637
O  O54  1  0.25218000  0.74444000  0.10723000  1.0 -0.5366067637
O  O55  1  0.74782000  0.25556000  0.10723000  1.0 -0.5366067637
O  O56  1  0.74782000  0.74444000  0.89277000  1.0 -0.5366067637
O  O57  1  0.62517000  0.77459000  0.76475000  1.0 -0.5297738325
O  O58  1  0.37483000  0.22541000  0.76475000  1.0 -0.5297738325
O  O59  1  0.37483000  0.77459000  0.23525000  1.0 -0.5297738325
O  O60  1  0.62517000  0.22541000  0.23525000  1.0 -0.5297738325
O  O61  1  0.76475000  0.62517000  0.77459000  1.0 -0.5297738325
O  O62  1  0.76475000  0.37483000  0.22541000  1.0 -0.5297738325
O  O63  1  0.23525000  0.37483000  0.77459000  1.0 -0.5297738325
O  O64  1  0.23525000  0.62517000  0.22541000  1.0 -0.5297738325
O  O65  1  0.77459000  0.76475000  0.62517000  1.0 -0.5297738325
O  O66  1  0.22541000  0.76475000  0.37483000  1.0 -0.5297738325
O  O67  1  0.77459000  0.23525000  0.37483000  1.0 -0.5297738325
O  O68  1  0.22541000  0.23525000  0.62517000  1.0 -0.5297738325
O  O69  1  0.27459000  0.12517000  0.26475000  1.0 -0.5297738325
O  O70  1  0.72541000  0.87483000  0.26475000  1.0 -0.5297738325
O  O71  1  0.27459000  0.87483000  0.73525000  1.0 -0.5297738325
O  O72  1  0.72541000  0.12517000  0.73525000  1.0 -0.5297738325
O  O73  1  0.12517000  0.26475000  0.27459000  1.0 -0.5297738325
O  O74  1  0.87483000  0.26475000  0.72541000  1.0 -0.5297738325
O  O75  1  0.87483000  0.73525000  0.27459000  1.0 -0.5297738325
O  O76  1  0.12517000  0.73525000  0.72541000  1.0 -0.5297738325
O  O77  1  0.26475000  0.27459000  0.12517000  1.0 -0.5297738325
O  O78  1  0.26475000  0.72541000  0.87483000  1.0 -0.5297738325
O  O79  1  0.73525000  0.27459000  0.87483000  1.0 -0.5297738325
O  O80  1  0.73525000  0.72541000  0.12517000  1.0 -0.5297738325
O  O81  1  0.67082000  0.81221000  0.68127000  1.0 -0.5366067637
O  O82  1  0.32918000  0.18779000  0.68127000  1.0 -0.5366067637
O  O83  1  0.32918000  0.81221000  0.31873000  1.0 -0.5366067637
O  O84  1  0.67082000  0.18779000  0.31873000  1.0 -0.5366067637
O  O85  1  0.68127000  0.67082000  0.81221000  1.0 -0.5366067637
O  O86  1  0.68127000  0.32918000  0.18779000  1.0 -0.5366067637
O  O87  1  0.31873000  0.32918000  0.81221000  1.0 -0.5366067637
O  O88  1  0.31873000  0.67082000  0.18779000  1.0 -0.5366067637
O  O89  1  0.81221000  0.68127000  0.67082000  1.0 -0.5366067637
O  O90  1  0.18779000  0.68127000  0.32918000  1.0 -0.5366067637
O  O91  1  0.81221000  0.31873000  0.32918000  1.0 -0.5366067637
O  O92  1  0.18779000  0.31873000  0.67082000  1.0 -0.5366067637
O  O93  1  0.31221000  0.17082000  0.18127000  1.0 -0.5366067637
O  O94  1  0.68779000  0.82918000  0.18127000  1.0 -0.5366067637
O  O95  1  0.31221000  0.82918000  0.81873000  1.0 -0.5366067637
O  O96  1  0.68779000  0.17082000  0.81873000  1.0 -0.5366067637
O  O97  1  0.17082000  0.18127000  0.31221000  1.0 -0.5366067637
O  O98  1  0.82918000  0.18127000  0.68779000  1.0 -0.5366067637
O  O99  1  0.82918000  0.81873000  0.31221000  1.0 -0.5366067637
O  O100  1  0.17082000  0.81873000  0.68779000  1.0 -0.5366067637
O  O101  1  0.18127000  0.31221000  0.17082000  1.0 -0.5366067637
O  O102  1  0.18127000  0.68779000  0.82918000  1.0 -0.5366067637
O  O103  1  0.81873000  0.31221000  0.82918000  1.0 -0.5366067637
O  O104  1  0.81873000  0.68779000  0.17082000  1.0 -0.5366067637
