# DDEC6 charges by PACMAN v1.1 (https://github.com/mtap-research/PACMAN-charge/)
data_LICYAB_ASR_pacman
_symmetry_space_group_name_H-M   'P 1'
_cell_length_a   21.87340000
_cell_length_b   21.87340000
_cell_length_c   21.87340000
_cell_angle_alpha   90.00000000
_cell_angle_beta   90.00000000
_cell_angle_gamma   90.00000000
_symmetry_Int_Tables_number   1
_chemical_formula_structural   Fe3H9C24N3O13
_chemical_formula_sum   'Fe24 H72 C192 N24 O104'
_cell_volume   10465.23258987
_cell_formula_units_Z   8
loop_
 _symmetry_equiv_pos_site_id
 _symmetry_equiv_pos_as_xyz
  1  'x, y, z'
loop_
 _atom_site_type_symbol
 _atom_site_label
 _atom_site_symmetry_multiplicity
 _atom_site_fract_x
 _atom_site_fract_y
 _atom_site_fract_z
 _atom_site_occupancy
 _atom_site_charge
Fe  Fe1  1  0.73967000  0.68277000  0.19868000  1.0 1.1322820523
Fe  Fe2  1  0.26033000  0.31723000  0.19868000  1.0 1.1322820523
Fe  Fe3  1  0.26033000  0.68277000  0.80132000  1.0 1.1322820523
Fe  Fe4  1  0.73967000  0.31723000  0.80132000  1.0 1.1322820523
Fe  Fe5  1  0.19868000  0.73967000  0.68277000  1.0 1.1322820523
Fe  Fe6  1  0.19868000  0.26033000  0.31723000  1.0 1.1322820523
Fe  Fe7  1  0.80132000  0.26033000  0.68277000  1.0 1.1322820523
Fe  Fe8  1  0.80132000  0.73967000  0.31723000  1.0 1.1322820523
Fe  Fe9  1  0.68277000  0.19868000  0.73967000  1.0 1.1322820523
Fe  Fe10  1  0.31723000  0.19868000  0.26033000  1.0 1.1322820523
Fe  Fe11  1  0.68277000  0.80132000  0.26033000  1.0 1.1322820523
Fe  Fe12  1  0.31723000  0.80132000  0.73967000  1.0 1.1322820523
Fe  Fe13  1  0.18277000  0.23967000  0.69868000  1.0 1.1322820523
Fe  Fe14  1  0.81723000  0.76033000  0.69868000  1.0 1.1322820523
Fe  Fe15  1  0.18277000  0.76033000  0.30132000  1.0 1.1322820523
Fe  Fe16  1  0.81723000  0.23967000  0.30132000  1.0 1.1322820523
Fe  Fe17  1  0.23967000  0.69868000  0.18277000  1.0 1.1322820523
Fe  Fe18  1  0.76033000  0.69868000  0.81723000  1.0 1.1322820523
Fe  Fe19  1  0.76033000  0.30132000  0.18277000  1.0 1.1322820523
Fe  Fe20  1  0.23967000  0.30132000  0.81723000  1.0 1.1322820523
Fe  Fe21  1  0.69868000  0.18277000  0.23967000  1.0 1.1322820523
Fe  Fe22  1  0.69868000  0.81723000  0.76033000  1.0 1.1322820523
Fe  Fe23  1  0.30132000  0.18277000  0.76033000  1.0 1.1322820523
Fe  Fe24  1  0.30132000  0.81723000  0.23967000  1.0 1.1322820523
H  H1  1  0.77765000  0.49177000  0.25304000  1.0 0.1419965835
H  H2  1  0.22235000  0.50823000  0.25304000  1.0 0.1419965835
H  H3  1  0.22235000  0.49177000  0.74696000  1.0 0.1419965835
H  H4  1  0.77765000  0.50823000  0.74696000  1.0 0.1419965835
H  H5  1  0.25304000  0.77765000  0.49177000  1.0 0.1419965835
H  H6  1  0.25304000  0.22235000  0.50823000  1.0 0.1419965835
H  H7  1  0.74696000  0.22235000  0.49177000  1.0 0.1419965835
H  H8  1  0.74696000  0.77765000  0.50823000  1.0 0.1419965835
H  H9  1  0.49177000  0.25304000  0.77765000  1.0 0.1419965835
H  H10  1  0.50823000  0.25304000  0.22235000  1.0 0.1419965835
H  H11  1  0.49177000  0.74696000  0.22235000  1.0 0.1419965835
H  H12  1  0.50823000  0.74696000  0.77765000  1.0 0.1419965835
H  H13  1  0.99177000  0.27765000  0.75304000  1.0 0.1419965835
H  H14  1  0.00823000  0.72235000  0.75304000  1.0 0.1419965835
H  H15  1  0.99177000  0.72235000  0.24696000  1.0 0.1419965835
H  H16  1  0.00823000  0.27765000  0.24696000  1.0 0.1419965835
H  H17  1  0.27765000  0.75304000  0.99177000  1.0 0.1419965835
H  H18  1  0.72235000  0.75304000  0.00823000  1.0 0.1419965835
H  H19  1  0.72235000  0.24696000  0.99177000  1.0 0.1419965835
H  H20  1  0.27765000  0.24696000  0.00823000  1.0 0.1419965835
H  H21  1  0.75304000  0.99177000  0.27765000  1.0 0.1419965835
H  H22  1  0.75304000  0.00823000  0.72235000  1.0 0.1419965835
H  H23  1  0.24696000  0.99177000  0.72235000  1.0 0.1419965835
H  H24  1  0.24696000  0.00823000  0.27765000  1.0 0.1419965835
H  H25  1  0.79118000  0.57667000  0.41508000  1.0 0.1419965835
H  H26  1  0.20882000  0.42333000  0.41508000  1.0 0.1419965835
H  H27  1  0.20882000  0.57667000  0.58492000  1.0 0.1419965835
H  H28  1  0.79118000  0.42333000  0.58492000  1.0 0.1419965835
H  H29  1  0.41508000  0.79118000  0.57667000  1.0 0.1419965835
H  H30  1  0.41508000  0.20882000  0.42333000  1.0 0.1419965835
H  H31  1  0.58492000  0.20882000  0.57667000  1.0 0.1419965835
H  H32  1  0.58492000  0.79118000  0.42333000  1.0 0.1419965835
H  H33  1  0.57667000  0.41508000  0.79118000  1.0 0.1419965835
H  H34  1  0.42333000  0.41508000  0.20882000  1.0 0.1419965835
H  H35  1  0.57667000  0.58492000  0.20882000  1.0 0.1419965835
H  H36  1  0.42333000  0.58492000  0.79118000  1.0 0.1419965835
H  H37  1  0.07667000  0.29118000  0.91508000  1.0 0.1419965835
H  H38  1  0.92333000  0.70882000  0.91508000  1.0 0.1419965835
H  H39  1  0.07667000  0.70882000  0.08492000  1.0 0.1419965835
H  H40  1  0.92333000  0.29118000  0.08492000  1.0 0.1419965835
H  H41  1  0.29118000  0.91508000  0.07667000  1.0 0.1419965835
H  H42  1  0.70882000  0.91508000  0.92333000  1.0 0.1419965835
H  H43  1  0.70882000  0.08492000  0.07667000  1.0 0.1419965835
H  H44  1  0.29118000  0.08492000  0.92333000  1.0 0.1419965835
H  H45  1  0.91508000  0.07667000  0.29118000  1.0 0.1419965835
H  H46  1  0.91508000  0.92333000  0.70882000  1.0 0.1419965835
H  H47  1  0.08492000  0.07667000  0.70882000  1.0 0.1419965835
H  H48  1  0.08492000  0.92333000  0.29118000  1.0 0.1419965835
H  H49  1  0.80169000  0.39403000  0.40638000  1.0 0.1419965835
H  H50  1  0.19831000  0.60597000  0.40638000  1.0 0.1419965835
H  H51  1  0.19831000  0.39403000  0.59362000  1.0 0.1419965835
H  H52  1  0.80169000  0.60597000  0.59362000  1.0 0.1419965835
H  H53  1  0.40638000  0.80169000  0.39403000  1.0 0.1419965835
H  H54  1  0.40638000  0.19831000  0.60597000  1.0 0.1419965835
H  H55  1  0.59362000  0.19831000  0.39403000  1.0 0.1419965835
H  H56  1  0.59362000  0.80169000  0.60597000  1.0 0.1419965835
H  H57  1  0.39403000  0.40638000  0.80169000  1.0 0.1419965835
H  H58  1  0.60597000  0.40638000  0.19831000  1.0 0.1419965835
H  H59  1  0.39403000  0.59362000  0.19831000  1.0 0.1419965835
H  H60  1  0.60597000  0.59362000  0.80169000  1.0 0.1419965835
H  H61  1  0.89403000  0.30169000  0.90638000  1.0 0.1419965835
H  H62  1  0.10597000  0.69831000  0.90638000  1.0 0.1419965835
H  H63  1  0.89403000  0.69831000  0.09362000  1.0 0.1419965835
H  H64  1  0.10597000  0.30169000  0.09362000  1.0 0.1419965835
H  H65  1  0.30169000  0.90638000  0.89403000  1.0 0.1419965835
H  H66  1  0.69831000  0.90638000  0.10597000  1.0 0.1419965835
H  H67  1  0.69831000  0.09362000  0.89403000  1.0 0.1419965835
H  H68  1  0.30169000  0.09362000  0.10597000  1.0 0.1419965835
H  H69  1  0.90638000  0.89403000  0.30169000  1.0 0.1419965835
H  H70  1  0.90638000  0.10597000  0.69831000  1.0 0.1419965835
H  H71  1  0.09362000  0.89403000  0.69831000  1.0 0.1419965835
H  H72  1  0.09362000  0.10597000  0.30169000  1.0 0.1419965835
C  C1  1  0.77816000  0.60477000  0.30057000  1.0 0.6047433696
C  C2  1  0.22184000  0.39523000  0.30057000  1.0 0.6047433696
C  C3  1  0.22184000  0.60477000  0.69943000  1.0 0.6047433696
C  C4  1  0.77816000  0.39523000  0.69943000  1.0 0.6047433696
C  C5  1  0.30057000  0.77816000  0.60477000  1.0 0.6047433696
C  C6  1  0.30057000  0.22184000  0.39523000  1.0 0.6047433696
C  C7  1  0.69943000  0.22184000  0.60477000  1.0 0.6047433696
C  C8  1  0.69943000  0.77816000  0.39523000  1.0 0.6047433696
C  C9  1  0.60477000  0.30057000  0.77816000  1.0 0.6047433696
C  C10  1  0.39523000  0.30057000  0.22184000  1.0 0.6047433696
C  C11  1  0.60477000  0.69943000  0.22184000  1.0 0.6047433696
C  C12  1  0.39523000  0.69943000  0.77816000  1.0 0.6047433696
C  C13  1  0.10477000  0.27816000  0.80057000  1.0 0.6047433696
C  C14  1  0.89523000  0.72184000  0.80057000  1.0 0.6047433696
C  C15  1  0.10477000  0.72184000  0.19943000  1.0 0.6047433696
C  C16  1  0.89523000  0.27816000  0.19943000  1.0 0.6047433696
C  C17  1  0.27816000  0.80057000  0.10477000  1.0 0.6047433696
C  C18  1  0.72184000  0.80057000  0.89523000  1.0 0.6047433696
C  C19  1  0.72184000  0.19943000  0.10477000  1.0 0.6047433696
C  C20  1  0.27816000  0.19943000  0.89523000  1.0 0.6047433696
C  C21  1  0.80057000  0.10477000  0.27816000  1.0 0.6047433696
C  C22  1  0.80057000  0.89523000  0.72184000  1.0 0.6047433696
C  C23  1  0.19943000  0.10477000  0.72184000  1.0 0.6047433696
C  C24  1  0.19943000  0.89523000  0.27816000  1.0 0.6047433696
C  C25  1  0.78400000  0.54320000  0.32927000  1.0 -0.0214864803
C  C26  1  0.21600000  0.45680000  0.32927000  1.0 -0.0214864803
C  C27  1  0.21600000  0.54320000  0.67073000  1.0 -0.0214864803
C  C28  1  0.78400000  0.45680000  0.67073000  1.0 -0.0214864803
C  C29  1  0.32927000  0.78400000  0.54320000  1.0 -0.0214864803
C  C30  1  0.32927000  0.21600000  0.45680000  1.0 -0.0214864803
C  C31  1  0.67073000  0.21600000  0.54320000  1.0 -0.0214864803
C  C32  1  0.67073000  0.78400000  0.45680000  1.0 -0.0214864803
C  C33  1  0.54320000  0.32927000  0.78400000  1.0 -0.0214864803
C  C34  1  0.45680000  0.32927000  0.21600000  1.0 -0.0214864803
C  C35  1  0.54320000  0.67073000  0.21600000  1.0 -0.0214864803
C  C36  1  0.45680000  0.67073000  0.78400000  1.0 -0.0214864803
C  C37  1  0.04320000  0.28400000  0.82927000  1.0 -0.0214864803
C  C38  1  0.95680000  0.71600000  0.82927000  1.0 -0.0214864803
C  C39  1  0.04320000  0.71600000  0.17073000  1.0 -0.0214864803
C  C40  1  0.95680000  0.28400000  0.17073000  1.0 -0.0214864803
C  C41  1  0.28400000  0.82927000  0.04320000  1.0 -0.0214864803
C  C42  1  0.71600000  0.82927000  0.95680000  1.0 -0.0214864803
C  C43  1  0.71600000  0.17073000  0.04320000  1.0 -0.0214864803
C  C44  1  0.28400000  0.17073000  0.95680000  1.0 -0.0214864803
C  C45  1  0.82927000  0.04320000  0.28400000  1.0 -0.0214864803
C  C46  1  0.82927000  0.95680000  0.71600000  1.0 -0.0214864803
C  C47  1  0.17073000  0.04320000  0.71600000  1.0 -0.0214864803
C  C48  1  0.17073000  0.95680000  0.28400000  1.0 -0.0214864803
C  C49  1  0.79088000  0.43358000  0.32370000  1.0 -0.0256527068
C  C50  1  0.20912000  0.56642000  0.32370000  1.0 -0.0256527068
C  C51  1  0.20912000  0.43358000  0.67630000  1.0 -0.0256527068
C  C52  1  0.79088000  0.56642000  0.67630000  1.0 -0.0256527068
C  C53  1  0.32370000  0.79088000  0.43358000  1.0 -0.0256527068
C  C54  1  0.32370000  0.20912000  0.56642000  1.0 -0.0256527068
C  C55  1  0.67630000  0.20912000  0.43358000  1.0 -0.0256527068
C  C56  1  0.67630000  0.79088000  0.56642000  1.0 -0.0256527068
C  C57  1  0.43358000  0.32370000  0.79088000  1.0 -0.0256527068
C  C58  1  0.56642000  0.32370000  0.20912000  1.0 -0.0256527068
C  C59  1  0.43358000  0.67630000  0.20912000  1.0 -0.0256527068
C  C60  1  0.56642000  0.67630000  0.79088000  1.0 -0.0256527068
C  C61  1  0.93358000  0.29088000  0.82370000  1.0 -0.0256527068
C  C62  1  0.06642000  0.70912000  0.82370000  1.0 -0.0256527068
C  C63  1  0.93358000  0.70912000  0.17630000  1.0 -0.0256527068
C  C64  1  0.06642000  0.29088000  0.17630000  1.0 -0.0256527068
C  C65  1  0.29088000  0.82370000  0.93358000  1.0 -0.0256527068
C  C66  1  0.70912000  0.82370000  0.06642000  1.0 -0.0256527068
C  C67  1  0.70912000  0.17630000  0.93358000  1.0 -0.0256527068
C  C68  1  0.29088000  0.17630000  0.06642000  1.0 -0.0256527068
C  C69  1  0.82370000  0.93358000  0.29088000  1.0 -0.0256527068
C  C70  1  0.82370000  0.06642000  0.70912000  1.0 -0.0256527068
C  C71  1  0.17630000  0.93358000  0.70912000  1.0 -0.0256527068
C  C72  1  0.17630000  0.06642000  0.29088000  1.0 -0.0256527068
C  C73  1  0.79233000  0.37482000  0.28948000  1.0 0.6047433696
C  C74  1  0.20767000  0.62518000  0.28948000  1.0 0.6047433696
C  C75  1  0.20767000  0.37482000  0.71052000  1.0 0.6047433696
C  C76  1  0.79233000  0.62518000  0.71052000  1.0 0.6055224874
C  C77  1  0.28948000  0.79233000  0.37482000  1.0 0.6055224874
C  C78  1  0.28948000  0.20767000  0.62518000  1.0 0.6047433696
C  C79  1  0.71052000  0.20767000  0.37482000  1.0 0.6047433696
C  C80  1  0.71052000  0.79233000  0.62518000  1.0 0.6055224874
C  C81  1  0.37482000  0.28948000  0.79233000  1.0 0.6047433696
C  C82  1  0.62518000  0.28948000  0.20767000  1.0 0.6047433696
C  C83  1  0.37482000  0.71052000  0.20767000  1.0 0.6047433696
C  C84  1  0.62518000  0.71052000  0.79233000  1.0 0.6055224874
C  C85  1  0.87482000  0.29233000  0.78948000  1.0 0.6055224874
C  C86  1  0.12518000  0.70767000  0.78948000  1.0 0.6055224874
C  C87  1  0.87482000  0.70767000  0.21052000  1.0 0.6055224874
C  C88  1  0.12518000  0.29233000  0.21052000  1.0 0.6047433696
C  C89  1  0.29233000  0.78948000  0.87482000  1.0 0.6055224874
C  C90  1  0.70767000  0.78948000  0.12518000  1.0 0.6055224874
C  C91  1  0.70767000  0.21052000  0.87482000  1.0 0.6055224874
C  C92  1  0.29233000  0.21052000  0.12518000  1.0 0.6047433696
C  C93  1  0.78948000  0.87482000  0.29233000  1.0 0.6055224874
C  C94  1  0.78948000  0.12518000  0.70767000  1.0 0.6055224874
C  C95  1  0.21052000  0.87482000  0.70767000  1.0 0.6055224874
C  C96  1  0.21052000  0.12518000  0.29233000  1.0 0.6047433696
C  C97  1  0.78325000  0.48992000  0.29514000  1.0 -0.0924748874
C  C98  1  0.21675000  0.51008000  0.29514000  1.0 -0.0924748874
C  C99  1  0.21675000  0.48992000  0.70486000  1.0 -0.0924748874
C  C100  1  0.78325000  0.51008000  0.70486000  1.0 -0.0924748874
C  C101  1  0.29514000  0.78325000  0.48992000  1.0 -0.0924748874
C  C102  1  0.29514000  0.21675000  0.51008000  1.0 -0.0924748874
C  C103  1  0.70486000  0.21675000  0.48992000  1.0 -0.0924748874
C  C104  1  0.70486000  0.78325000  0.51008000  1.0 -0.0924748874
C  C105  1  0.48992000  0.29514000  0.78325000  1.0 -0.0924748874
C  C106  1  0.51008000  0.29514000  0.21675000  1.0 -0.0924748874
C  C107  1  0.48992000  0.70486000  0.21675000  1.0 -0.0924748874
C  C108  1  0.51008000  0.70486000  0.78325000  1.0 -0.0924748874
C  C109  1  0.98992000  0.28325000  0.79514000  1.0 -0.0924748874
C  C110  1  0.01008000  0.71675000  0.79514000  1.0 -0.0924748874
C  C111  1  0.98992000  0.71675000  0.20486000  1.0 -0.0924748874
C  C112  1  0.01008000  0.28325000  0.20486000  1.0 -0.0924748874
C  C113  1  0.28325000  0.79514000  0.98992000  1.0 -0.0924748874
C  C114  1  0.71675000  0.79514000  0.01008000  1.0 -0.0924748874
C  C115  1  0.71675000  0.20486000  0.98992000  1.0 -0.0924748874
C  C116  1  0.28325000  0.20486000  0.01008000  1.0 -0.0924748874
C  C117  1  0.79514000  0.98992000  0.28325000  1.0 -0.0924748874
C  C118  1  0.79514000  0.01008000  0.71675000  1.0 -0.0924748874
C  C119  1  0.20486000  0.98992000  0.71675000  1.0 -0.0924748874
C  C120  1  0.20486000  0.01008000  0.28325000  1.0 -0.0924748874
C  C121  1  0.79010000  0.54086000  0.39219000  1.0 -0.1386593371
C  C122  1  0.20990000  0.45914000  0.39219000  1.0 -0.1386593371
C  C123  1  0.20990000  0.54086000  0.60781000  1.0 -0.1386593371
C  C124  1  0.79010000  0.45914000  0.60781000  1.0 -0.1386593371
C  C125  1  0.39219000  0.79010000  0.54086000  1.0 -0.1386593371
C  C126  1  0.39219000  0.20990000  0.45914000  1.0 -0.1386593371
C  C127  1  0.60781000  0.20990000  0.54086000  1.0 -0.1386593371
C  C128  1  0.60781000  0.79010000  0.45914000  1.0 -0.1386593371
C  C129  1  0.54086000  0.39219000  0.79010000  1.0 -0.1386593371
C  C130  1  0.45914000  0.39219000  0.20990000  1.0 -0.1386593371
C  C131  1  0.54086000  0.60781000  0.20990000  1.0 -0.1386593371
C  C132  1  0.45914000  0.60781000  0.79010000  1.0 -0.1386593371
C  C133  1  0.04086000  0.29010000  0.89219000  1.0 -0.1386593371
C  C134  1  0.95914000  0.70990000  0.89219000  1.0 -0.1386593371
C  C135  1  0.04086000  0.70990000  0.10781000  1.0 -0.1386593371
C  C136  1  0.95914000  0.29010000  0.10781000  1.0 -0.1386593371
C  C137  1  0.29010000  0.89219000  0.04086000  1.0 -0.1386593371
C  C138  1  0.70990000  0.89219000  0.95914000  1.0 -0.1386593371
C  C139  1  0.70990000  0.10781000  0.04086000  1.0 -0.1386593371
C  C140  1  0.29010000  0.10781000  0.95914000  1.0 -0.1386593371
C  C141  1  0.89219000  0.04086000  0.29010000  1.0 -0.1386593371
C  C142  1  0.89219000  0.95914000  0.70990000  1.0 -0.1386593371
C  C143  1  0.10781000  0.04086000  0.70990000  1.0 -0.1386593371
C  C144  1  0.10781000  0.95914000  0.29010000  1.0 -0.1386593371
C  C145  1  0.79650000  0.43145000  0.38686000  1.0 -0.1386593371
C  C146  1  0.20350000  0.56855000  0.38686000  1.0 -0.1386593371
C  C147  1  0.20350000  0.43145000  0.61314000  1.0 -0.1386593371
C  C148  1  0.79650000  0.56855000  0.61314000  1.0 -0.1386593371
C  C149  1  0.38686000  0.79650000  0.43145000  1.0 -0.1386593371
C  C150  1  0.38686000  0.20350000  0.56855000  1.0 -0.1386593371
C  C151  1  0.61314000  0.20350000  0.43145000  1.0 -0.1386593371
C  C152  1  0.61314000  0.79650000  0.56855000  1.0 -0.1386593371
C  C153  1  0.43145000  0.38686000  0.79650000  1.0 -0.1386593371
C  C154  1  0.56855000  0.38686000  0.20350000  1.0 -0.1386593371
C  C155  1  0.43145000  0.61314000  0.20350000  1.0 -0.1386593371
C  C156  1  0.56855000  0.61314000  0.79650000  1.0 -0.1386593371
C  C157  1  0.93145000  0.29650000  0.88686000  1.0 -0.1386593371
C  C158  1  0.06855000  0.70350000  0.88686000  1.0 -0.1386593371
C  C159  1  0.93145000  0.70350000  0.11314000  1.0 -0.1386593371
C  C160  1  0.06855000  0.29650000  0.11314000  1.0 -0.1386593371
C  C161  1  0.29650000  0.88686000  0.93145000  1.0 -0.1386593371
C  C162  1  0.70350000  0.88686000  0.06855000  1.0 -0.1386593371
C  C163  1  0.70350000  0.11314000  0.93145000  1.0 -0.1386593371
C  C164  1  0.29650000  0.11314000  0.06855000  1.0 -0.1386593371
C  C165  1  0.88686000  0.93145000  0.29650000  1.0 -0.1386593371
C  C166  1  0.88686000  0.06855000  0.70350000  1.0 -0.1386593371
C  C167  1  0.11314000  0.93145000  0.70350000  1.0 -0.1386593371
C  C168  1  0.11314000  0.06855000  0.29650000  1.0 -0.1386593371
C  C169  1  0.79460000  0.48431000  0.42070000  1.0 0.152486579
C  C170  1  0.20540000  0.51569000  0.42070000  1.0 0.152486579
C  C171  1  0.20540000  0.48431000  0.57930000  1.0 0.152486579
C  C172  1  0.79460000  0.51569000  0.57930000  1.0 0.152486579
C  C173  1  0.42070000  0.79460000  0.48431000  1.0 0.152486579
C  C174  1  0.42070000  0.20540000  0.51569000  1.0 0.152486579
C  C175  1  0.57930000  0.20540000  0.48431000  1.0 0.152486579
C  C176  1  0.57930000  0.79460000  0.51569000  1.0 0.152486579
C  C177  1  0.48431000  0.42070000  0.79460000  1.0 0.152486579
C  C178  1  0.51569000  0.42070000  0.20540000  1.0 0.152486579
C  C179  1  0.48431000  0.57930000  0.20540000  1.0 0.152486579
C  C180  1  0.51569000  0.57930000  0.79460000  1.0 0.152486579
C  C181  1  0.98431000  0.29460000  0.92070000  1.0 0.152486579
C  C182  1  0.01569000  0.70540000  0.92070000  1.0 0.152486579
C  C183  1  0.98431000  0.70540000  0.07930000  1.0 0.152486579
C  C184  1  0.01569000  0.29460000  0.07930000  1.0 0.152486579
C  C185  1  0.29460000  0.92070000  0.98431000  1.0 0.152486579
C  C186  1  0.70540000  0.92070000  0.01569000  1.0 0.152486579
C  C187  1  0.70540000  0.07930000  0.98431000  1.0 0.152486579
C  C188  1  0.29460000  0.07930000  0.01569000  1.0 0.152486579
C  C189  1  0.92070000  0.98431000  0.29460000  1.0 0.152486579
C  C190  1  0.92070000  0.01569000  0.70540000  1.0 0.152486579
C  C191  1  0.07930000  0.98431000  0.70540000  1.0 0.152486579
C  C192  1  0.07930000  0.01569000  0.29460000  1.0 0.152486579
N  N1  1  0.79670000  0.47665000  0.48579000  1.0 -0.1087757708
N  N2  1  0.20330000  0.52335000  0.48579000  1.0 -0.1087757708
N  N3  1  0.20330000  0.47665000  0.51421000  1.0 -0.1087757708
N  N4  1  0.79670000  0.52335000  0.51421000  1.0 -0.1087757708
N  N5  1  0.48579000  0.79670000  0.47665000  1.0 -0.1087757708
N  N6  1  0.48579000  0.20330000  0.52335000  1.0 -0.1087757708
N  N7  1  0.51421000  0.20330000  0.47665000  1.0 -0.1087757708
N  N8  1  0.51421000  0.79670000  0.52335000  1.0 -0.1087757708
N  N9  1  0.47665000  0.48579000  0.79670000  1.0 -0.1087757708
N  N10  1  0.52335000  0.48579000  0.20330000  1.0 -0.1087757708
N  N11  1  0.47665000  0.51421000  0.20330000  1.0 -0.1087757708
N  N12  1  0.52335000  0.51421000  0.79670000  1.0 -0.1087757708
N  N13  1  0.97665000  0.29670000  0.98579000  1.0 -0.1087757708
N  N14  1  0.02335000  0.70330000  0.98579000  1.0 -0.1087757708
N  N15  1  0.97665000  0.70330000  0.01421000  1.0 -0.1087757708
N  N16  1  0.02335000  0.29670000  0.01421000  1.0 -0.1087757708
N  N17  1  0.29670000  0.98579000  0.97665000  1.0 -0.1087757708
N  N18  1  0.70330000  0.98579000  0.02335000  1.0 -0.1087757708
N  N19  1  0.70330000  0.01421000  0.97665000  1.0 -0.1087757708
N  N20  1  0.29670000  0.01421000  0.02335000  1.0 -0.1087757708
N  N21  1  0.98579000  0.97665000  0.29670000  1.0 -0.1087757708
N  N22  1  0.98579000  0.02335000  0.70330000  1.0 -0.1087757708
N  N23  1  0.01421000  0.97665000  0.70330000  1.0 -0.1087757708
N  N24  1  0.01421000  0.02335000  0.29670000  1.0 -0.1087757708
O  O1  1  0.74102000  0.74102000  0.25898000  1.0 -0.8007601164
O  O2  1  0.25898000  0.25898000  0.25898000  1.0 -0.8007601164
O  O3  1  0.25898000  0.74102000  0.74102000  1.0 -0.8007601164
O  O4  1  0.74102000  0.25898000  0.74102000  1.0 -0.8007601164
O  O5  1  0.24102000  0.24102000  0.75898000  1.0 -0.8007601164
O  O6  1  0.75898000  0.75898000  0.75898000  1.0 -0.8007601164
O  O7  1  0.24102000  0.75898000  0.24102000  1.0 -0.8007601164
O  O8  1  0.75898000  0.24102000  0.24102000  1.0 -0.8007601164
O  O9  1  0.79593000  0.64979000  0.33185000  1.0 -0.5320096462
O  O10  1  0.20407000  0.35021000  0.33185000  1.0 -0.5320096462
O  O11  1  0.20407000  0.64979000  0.66815000  1.0 -0.5320096462
O  O12  1  0.79593000  0.35021000  0.66815000  1.0 -0.5320096462
O  O13  1  0.33185000  0.79593000  0.64979000  1.0 -0.5320096462
O  O14  1  0.33185000  0.20407000  0.35021000  1.0 -0.5320096462
O  O15  1  0.66815000  0.20407000  0.64979000  1.0 -0.5320096462
O  O16  1  0.66815000  0.79593000  0.35021000  1.0 -0.5320096462
O  O17  1  0.64979000  0.33185000  0.79593000  1.0 -0.5320096462
O  O18  1  0.35021000  0.33185000  0.20407000  1.0 -0.5320096462
O  O19  1  0.64979000  0.66815000  0.20407000  1.0 -0.5320096462
O  O20  1  0.35021000  0.66815000  0.79593000  1.0 -0.5320096462
O  O21  1  0.14979000  0.29593000  0.83185000  1.0 -0.5320096462
O  O22  1  0.85021000  0.70407000  0.83185000  1.0 -0.5320096462
O  O23  1  0.14979000  0.70407000  0.16815000  1.0 -0.5320096462
O  O24  1  0.85021000  0.29593000  0.16815000  1.0 -0.5320096462
O  O25  1  0.29593000  0.83185000  0.14979000  1.0 -0.5320096462
O  O26  1  0.70407000  0.83185000  0.85021000  1.0 -0.5320096462
O  O27  1  0.70407000  0.16815000  0.14979000  1.0 -0.5320096462
O  O28  1  0.29593000  0.16815000  0.85021000  1.0 -0.5320096462
O  O29  1  0.83185000  0.14979000  0.29593000  1.0 -0.5320096462
O  O30  1  0.83185000  0.85021000  0.70407000  1.0 -0.5320096462
O  O31  1  0.16815000  0.14979000  0.70407000  1.0 -0.5320096462
O  O32  1  0.16815000  0.85021000  0.29593000  1.0 -0.5320096462
O  O33  1  0.77426000  0.37514000  0.23467000  1.0 -0.5320096462
O  O34  1  0.22574000  0.62486000  0.23467000  1.0 -0.5320096462
O  O35  1  0.22574000  0.37514000  0.76533000  1.0 -0.5320096462
O  O36  1  0.77426000  0.62486000  0.76533000  1.0 -0.5320096462
O  O37  1  0.23467000  0.77426000  0.37514000  1.0 -0.5320096462
O  O38  1  0.23467000  0.22574000  0.62486000  1.0 -0.5320096462
O  O39  1  0.76533000  0.22574000  0.37514000  1.0 -0.5320096462
O  O40  1  0.76533000  0.77426000  0.62486000  1.0 -0.5320096462
O  O41  1  0.37514000  0.23467000  0.77426000  1.0 -0.5320096462
O  O42  1  0.62486000  0.23467000  0.22574000  1.0 -0.5320096462
O  O43  1  0.37514000  0.76533000  0.22574000  1.0 -0.5320096462
O  O44  1  0.62486000  0.76533000  0.77426000  1.0 -0.5320096462
O  O45  1  0.87514000  0.27426000  0.73467000  1.0 -0.5320096462
O  O46  1  0.12486000  0.72574000  0.73467000  1.0 -0.5320096462
O  O47  1  0.87514000  0.72574000  0.26533000  1.0 -0.5320096462
O  O48  1  0.12486000  0.27426000  0.26533000  1.0 -0.5320096462
O  O49  1  0.27426000  0.73467000  0.87514000  1.0 -0.5320096462
O  O50  1  0.72574000  0.73467000  0.12486000  1.0 -0.5320096462
O  O51  1  0.72574000  0.26533000  0.87514000  1.0 -0.5320096462
O  O52  1  0.27426000  0.26533000  0.12486000  1.0 -0.5320096462
O  O53  1  0.73467000  0.87514000  0.27426000  1.0 -0.5320096462
O  O54  1  0.73467000  0.12486000  0.72574000  1.0 -0.5320096462
O  O55  1  0.26533000  0.87514000  0.72574000  1.0 -0.5320096462
O  O56  1  0.26533000  0.12486000  0.27426000  1.0 -0.5320096462
O  O57  1  0.75572000  0.60751000  0.24713000  1.0 -0.5320096462
O  O58  1  0.24428000  0.39249000  0.24713000  1.0 -0.5320096462
O  O59  1  0.24428000  0.60751000  0.75287000  1.0 -0.5320096462
O  O60  1  0.75572000  0.39249000  0.75287000  1.0 -0.5320096462
O  O61  1  0.24713000  0.75572000  0.60751000  1.0 -0.5320096462
O  O62  1  0.24713000  0.24428000  0.39249000  1.0 -0.5320096462
O  O63  1  0.75287000  0.24428000  0.60751000  1.0 -0.5320096462
O  O64  1  0.75287000  0.75572000  0.39249000  1.0 -0.5320096462
O  O65  1  0.60751000  0.24713000  0.75572000  1.0 -0.5320096462
O  O66  1  0.39249000  0.24713000  0.24428000  1.0 -0.5320096462
O  O67  1  0.60751000  0.75287000  0.24428000  1.0 -0.5320096462
O  O68  1  0.39249000  0.75287000  0.75572000  1.0 -0.5320096462
O  O69  1  0.10751000  0.25572000  0.74713000  1.0 -0.5320096462
O  O70  1  0.89249000  0.74428000  0.74713000  1.0 -0.5320096462
O  O71  1  0.10751000  0.74428000  0.25287000  1.0 -0.5320096462
O  O72  1  0.89249000  0.25572000  0.25287000  1.0 -0.5320096462
O  O73  1  0.25572000  0.74713000  0.10751000  1.0 -0.5320096462
O  O74  1  0.74428000  0.74713000  0.89249000  1.0 -0.5320096462
O  O75  1  0.74428000  0.25287000  0.10751000  1.0 -0.5320096462
O  O76  1  0.25572000  0.25287000  0.89249000  1.0 -0.5320096462
O  O77  1  0.74713000  0.10751000  0.25572000  1.0 -0.5320096462
O  O78  1  0.74713000  0.89249000  0.74428000  1.0 -0.5320096462
O  O79  1  0.25287000  0.10751000  0.74428000  1.0 -0.5320096462
O  O80  1  0.25287000  0.89249000  0.25572000  1.0 -0.5320096462
O  O81  1  0.81200000  0.32939000  0.31832000  1.0 -0.5320096462
O  O82  1  0.18800000  0.67061000  0.31832000  1.0 -0.5320096462
O  O83  1  0.18800000  0.32939000  0.68168000  1.0 -0.5320096462
O  O84  1  0.81200000  0.67061000  0.68168000  1.0 -0.5320096462
O  O85  1  0.31832000  0.81200000  0.32939000  1.0 -0.5320096462
O  O86  1  0.31832000  0.18800000  0.67061000  1.0 -0.5320096462
O  O87  1  0.68168000  0.18800000  0.32939000  1.0 -0.5320096462
O  O88  1  0.68168000  0.81200000  0.67061000  1.0 -0.5320096462
O  O89  1  0.32939000  0.31832000  0.81200000  1.0 -0.5320096462
O  O90  1  0.67061000  0.31832000  0.18800000  1.0 -0.5320096462
O  O91  1  0.32939000  0.68168000  0.18800000  1.0 -0.5320096462
O  O92  1  0.67061000  0.68168000  0.81200000  1.0 -0.5320096462
O  O93  1  0.82939000  0.31200000  0.81832000  1.0 -0.5320096462
O  O94  1  0.17061000  0.68800000  0.81832000  1.0 -0.5320096462
O  O95  1  0.82939000  0.68800000  0.18168000  1.0 -0.5320096462
O  O96  1  0.17061000  0.31200000  0.18168000  1.0 -0.5320096462
O  O97  1  0.31200000  0.81832000  0.82939000  1.0 -0.5320096462
O  O98  1  0.68800000  0.81832000  0.17061000  1.0 -0.5320096462
O  O99  1  0.68800000  0.18168000  0.82939000  1.0 -0.5320096462
O  O100  1  0.31200000  0.18168000  0.17061000  1.0 -0.5320096462
O  O101  1  0.81832000  0.82939000  0.31200000  1.0 -0.5320096462
O  O102  1  0.81832000  0.17061000  0.68800000  1.0 -0.5320096462
O  O103  1  0.18168000  0.82939000  0.68800000  1.0 -0.5320096462
O  O104  1  0.18168000  0.17061000  0.31200000  1.0 -0.5320096462
