# DDEC6 charges by PACMAN v1.1 (https://github.com/mtap-research/PACMAN-charge/)
data_LICZOQ_ASR_pacman
_symmetry_space_group_name_H-M   'P 1'
_cell_length_a   21.92520000
_cell_length_b   21.92520000
_cell_length_c   21.92520000
_cell_angle_alpha   90.00000000
_cell_angle_beta   90.00000000
_cell_angle_gamma   90.00000000
_symmetry_Int_Tables_number   1
_chemical_formula_structural   Fe3H9C24N3O13
_chemical_formula_sum   'Fe24 H72 C192 N24 O104'
_cell_volume   10539.75925413
_cell_formula_units_Z   8
loop_
 _symmetry_equiv_pos_site_id
 _symmetry_equiv_pos_as_xyz
  1  'x, y, z'
loop_
 _atom_site_type_symbol
 _atom_site_label
 _atom_site_symmetry_multiplicity
 _atom_site_fract_x
 _atom_site_fract_y
 _atom_site_fract_z
 _atom_site_occupancy
 _atom_site_charge
Fe  Fe1  1  0.31774000  0.73929000  0.19860000  1.0 1.1719088941
Fe  Fe2  1  0.68226000  0.26071000  0.19860000  1.0 1.1719088941
Fe  Fe3  1  0.68226000  0.73929000  0.80140000  1.0 1.1719088941
Fe  Fe4  1  0.31774000  0.26071000  0.80140000  1.0 1.1719088941
Fe  Fe5  1  0.19860000  0.31774000  0.73929000  1.0 1.1719088941
Fe  Fe6  1  0.19860000  0.68226000  0.26071000  1.0 1.1719088941
Fe  Fe7  1  0.80140000  0.68226000  0.73929000  1.0 1.1719088941
Fe  Fe8  1  0.80140000  0.31774000  0.26071000  1.0 1.1719088941
Fe  Fe9  1  0.73929000  0.19860000  0.31774000  1.0 1.1719088941
Fe  Fe10  1  0.26071000  0.19860000  0.68226000  1.0 1.1719088941
Fe  Fe11  1  0.73929000  0.80140000  0.68226000  1.0 1.1719088941
Fe  Fe12  1  0.26071000  0.80140000  0.31774000  1.0 1.1719088941
Fe  Fe13  1  0.23929000  0.81774000  0.69860000  1.0 1.1719088941
Fe  Fe14  1  0.76071000  0.18226000  0.69860000  1.0 1.1719088941
Fe  Fe15  1  0.23929000  0.18226000  0.30140000  1.0 1.1719088941
Fe  Fe16  1  0.76071000  0.81774000  0.30140000  1.0 1.1719088941
Fe  Fe17  1  0.81774000  0.69860000  0.23929000  1.0 1.1719088941
Fe  Fe18  1  0.18226000  0.69860000  0.76071000  1.0 1.1719088941
Fe  Fe19  1  0.18226000  0.30140000  0.23929000  1.0 1.1719088941
Fe  Fe20  1  0.81774000  0.30140000  0.76071000  1.0 1.1719088941
Fe  Fe21  1  0.69860000  0.23929000  0.81774000  1.0 1.1719088941
Fe  Fe22  1  0.69860000  0.76071000  0.18226000  1.0 1.1719088941
Fe  Fe23  1  0.30140000  0.23929000  0.18226000  1.0 1.1719088941
Fe  Fe24  1  0.30140000  0.76071000  0.81774000  1.0 1.1719088941
H  H1  1  0.25373000  0.49123000  0.22151000  1.0 0.1398923256
H  H2  1  0.74627000  0.50877000  0.22151000  1.0 0.1398923256
H  H3  1  0.74627000  0.49123000  0.77849000  1.0 0.1398923256
H  H4  1  0.25373000  0.50877000  0.77849000  1.0 0.1398923256
H  H5  1  0.22151000  0.25373000  0.49123000  1.0 0.1398923256
H  H6  1  0.22151000  0.74627000  0.50877000  1.0 0.1398923256
H  H7  1  0.77849000  0.74627000  0.49123000  1.0 0.1398923256
H  H8  1  0.77849000  0.25373000  0.50877000  1.0 0.1398923256
H  H9  1  0.49123000  0.22151000  0.25373000  1.0 0.1398923256
H  H10  1  0.50877000  0.22151000  0.74627000  1.0 0.1398923256
H  H11  1  0.49123000  0.77849000  0.74627000  1.0 0.1398923256
H  H12  1  0.50877000  0.77849000  0.25373000  1.0 0.1398923256
H  H13  1  0.99123000  0.75373000  0.72151000  1.0 0.1398923256
H  H14  1  0.00877000  0.24627000  0.72151000  1.0 0.1398923256
H  H15  1  0.99123000  0.24627000  0.27849000  1.0 0.1398923256
H  H16  1  0.00877000  0.75373000  0.27849000  1.0 0.1398923256
H  H17  1  0.75373000  0.72151000  0.99123000  1.0 0.1398923256
H  H18  1  0.24627000  0.72151000  0.00877000  1.0 0.1398923256
H  H19  1  0.24627000  0.27849000  0.99123000  1.0 0.1398923256
H  H20  1  0.75373000  0.27849000  0.00877000  1.0 0.1398923256
H  H21  1  0.72151000  0.99123000  0.75373000  1.0 0.1398923256
H  H22  1  0.72151000  0.00877000  0.24627000  1.0 0.1398923256
H  H23  1  0.27849000  0.99123000  0.24627000  1.0 0.1398923256
H  H24  1  0.27849000  0.00877000  0.75373000  1.0 0.1398923256
H  H25  1  0.41532000  0.57538000  0.20941000  1.0 0.1347967326
H  H26  1  0.58468000  0.42462000  0.20941000  1.0 0.1347967326
H  H27  1  0.58468000  0.57538000  0.79059000  1.0 0.1347967326
H  H28  1  0.41532000  0.42462000  0.79059000  1.0 0.1347967326
H  H29  1  0.20941000  0.41532000  0.57538000  1.0 0.1347967326
H  H30  1  0.20941000  0.58468000  0.42462000  1.0 0.1347967326
H  H31  1  0.79059000  0.58468000  0.57538000  1.0 0.1347967326
H  H32  1  0.79059000  0.41532000  0.42462000  1.0 0.1347967326
H  H33  1  0.57538000  0.20941000  0.41532000  1.0 0.1347967326
H  H34  1  0.42462000  0.20941000  0.58468000  1.0 0.1347967326
H  H35  1  0.57538000  0.79059000  0.58468000  1.0 0.1347967326
H  H36  1  0.42462000  0.79059000  0.41532000  1.0 0.1347967326
H  H37  1  0.07538000  0.91532000  0.70941000  1.0 0.1347967326
H  H38  1  0.92462000  0.08468000  0.70941000  1.0 0.1347967326
H  H39  1  0.07538000  0.08468000  0.29059000  1.0 0.1347967326
H  H40  1  0.92462000  0.91532000  0.29059000  1.0 0.1347967326
H  H41  1  0.91532000  0.70941000  0.07538000  1.0 0.1347967326
H  H42  1  0.08468000  0.70941000  0.92462000  1.0 0.1347967326
H  H43  1  0.08468000  0.29059000  0.07538000  1.0 0.1347967326
H  H44  1  0.91532000  0.29059000  0.92462000  1.0 0.1347967326
H  H45  1  0.70941000  0.07538000  0.91532000  1.0 0.1347967326
H  H46  1  0.70941000  0.92462000  0.08468000  1.0 0.1347967326
H  H47  1  0.29059000  0.07538000  0.08468000  1.0 0.1347967326
H  H48  1  0.29059000  0.92462000  0.91532000  1.0 0.1347967326
H  H49  1  0.40780000  0.39369000  0.20161000  1.0 0.1398923256
H  H50  1  0.59220000  0.60631000  0.20161000  1.0 0.1398923256
H  H51  1  0.59220000  0.39369000  0.79839000  1.0 0.1398923256
H  H52  1  0.40780000  0.60631000  0.79839000  1.0 0.1398923256
H  H53  1  0.20161000  0.40780000  0.39369000  1.0 0.1398923256
H  H54  1  0.20161000  0.59220000  0.60631000  1.0 0.1398923256
H  H55  1  0.79839000  0.59220000  0.39369000  1.0 0.1398923256
H  H56  1  0.79839000  0.40780000  0.60631000  1.0 0.1398923256
H  H57  1  0.39369000  0.20161000  0.40780000  1.0 0.1398923256
H  H58  1  0.60631000  0.20161000  0.59220000  1.0 0.1398923256
H  H59  1  0.39369000  0.79839000  0.59220000  1.0 0.1398923256
H  H60  1  0.60631000  0.79839000  0.40780000  1.0 0.1398923256
H  H61  1  0.89369000  0.90780000  0.70161000  1.0 0.1398923256
H  H62  1  0.10631000  0.09220000  0.70161000  1.0 0.1398923256
H  H63  1  0.89369000  0.09220000  0.29839000  1.0 0.1398923256
H  H64  1  0.10631000  0.90780000  0.29839000  1.0 0.1398923256
H  H65  1  0.90780000  0.70161000  0.89369000  1.0 0.1398923256
H  H66  1  0.09220000  0.70161000  0.10631000  1.0 0.1398923256
H  H67  1  0.09220000  0.29839000  0.89369000  1.0 0.1398923256
H  H68  1  0.90780000  0.29839000  0.10631000  1.0 0.1398923256
H  H69  1  0.70161000  0.89369000  0.90780000  1.0 0.1398923256
H  H70  1  0.70161000  0.10631000  0.09220000  1.0 0.1398923256
H  H71  1  0.29839000  0.89369000  0.09220000  1.0 0.1398923256
H  H72  1  0.29839000  0.10631000  0.90780000  1.0 0.1398923256
C  C1  1  0.30130000  0.60390000  0.22220000  1.0 0.604218328
C  C2  1  0.69870000  0.39610000  0.22220000  1.0 0.604218328
C  C3  1  0.69870000  0.60390000  0.77780000  1.0 0.604218328
C  C4  1  0.30130000  0.39610000  0.77780000  1.0 0.604218328
C  C5  1  0.22220000  0.30130000  0.60390000  1.0 0.604218328
C  C6  1  0.22220000  0.69870000  0.39610000  1.0 0.604218328
C  C7  1  0.77780000  0.69870000  0.60390000  1.0 0.604218328
C  C8  1  0.77780000  0.30130000  0.39610000  1.0 0.604218328
C  C9  1  0.60390000  0.22220000  0.30130000  1.0 0.604218328
C  C10  1  0.39610000  0.22220000  0.69870000  1.0 0.604218328
C  C11  1  0.60390000  0.77780000  0.69870000  1.0 0.604218328
C  C12  1  0.39610000  0.77780000  0.30130000  1.0 0.604218328
C  C13  1  0.10390000  0.80130000  0.72220000  1.0 0.604218328
C  C14  1  0.89610000  0.19870000  0.72220000  1.0 0.604218328
C  C15  1  0.10390000  0.19870000  0.27780000  1.0 0.604218328
C  C16  1  0.89610000  0.80130000  0.27780000  1.0 0.604218328
C  C17  1  0.80130000  0.72220000  0.10390000  1.0 0.604218328
C  C18  1  0.19870000  0.72220000  0.89610000  1.0 0.604218328
C  C19  1  0.19870000  0.27780000  0.10390000  1.0 0.604218328
C  C20  1  0.80130000  0.27780000  0.89610000  1.0 0.604218328
C  C21  1  0.72220000  0.10390000  0.80130000  1.0 0.604218328
C  C22  1  0.72220000  0.89610000  0.19870000  1.0 0.604218328
C  C23  1  0.27780000  0.10390000  0.19870000  1.0 0.604218328
C  C24  1  0.27780000  0.89610000  0.80130000  1.0 0.604218328
C  C25  1  0.29580000  0.48950000  0.21610000  1.0 -0.0883500456
C  C26  1  0.70420000  0.51050000  0.21610000  1.0 -0.0883500456
C  C27  1  0.70420000  0.48950000  0.78390000  1.0 -0.0883500456
C  C28  1  0.29580000  0.51050000  0.78390000  1.0 -0.0883500456
C  C29  1  0.21610000  0.29580000  0.48950000  1.0 -0.0883500456
C  C30  1  0.21610000  0.70420000  0.51050000  1.0 -0.0883500456
C  C31  1  0.78390000  0.70420000  0.48950000  1.0 -0.0883500456
C  C32  1  0.78390000  0.29580000  0.51050000  1.0 -0.0883500456
C  C33  1  0.48950000  0.21610000  0.29580000  1.0 -0.0883500456
C  C34  1  0.51050000  0.21610000  0.70420000  1.0 -0.0883500456
C  C35  1  0.48950000  0.78390000  0.70420000  1.0 -0.0883500456
C  C36  1  0.51050000  0.78390000  0.29580000  1.0 -0.0883500456
C  C37  1  0.98950000  0.79580000  0.71610000  1.0 -0.0883500456
C  C38  1  0.01050000  0.20420000  0.71610000  1.0 -0.0883500456
C  C39  1  0.98950000  0.20420000  0.28390000  1.0 -0.0883500456
C  C40  1  0.01050000  0.79580000  0.28390000  1.0 -0.0883500456
C  C41  1  0.79580000  0.71610000  0.98950000  1.0 -0.0883500456
C  C42  1  0.20420000  0.71610000  0.01050000  1.0 -0.0883500456
C  C43  1  0.20420000  0.28390000  0.98950000  1.0 -0.0883500456
C  C44  1  0.79580000  0.28390000  0.01050000  1.0 -0.0883500456
C  C45  1  0.71610000  0.98950000  0.79580000  1.0 -0.0883500456
C  C46  1  0.71610000  0.01050000  0.20420000  1.0 -0.0883500456
C  C47  1  0.28390000  0.98950000  0.20420000  1.0 -0.0883500456
C  C48  1  0.28390000  0.01050000  0.79580000  1.0 -0.0883500456
C  C49  1  0.29000000  0.37440000  0.20690000  1.0 0.6082575112
C  C50  1  0.71000000  0.62560000  0.20690000  1.0 0.6082575112
C  C51  1  0.71000000  0.37440000  0.79310000  1.0 0.6082575112
C  C52  1  0.29000000  0.62560000  0.79310000  1.0 0.6082575112
C  C53  1  0.20690000  0.29000000  0.37440000  1.0 0.6082575112
C  C54  1  0.20690000  0.71000000  0.62560000  1.0 0.6082575112
C  C55  1  0.79310000  0.71000000  0.37440000  1.0 0.6082575112
C  C56  1  0.79310000  0.29000000  0.62560000  1.0 0.6082575112
C  C57  1  0.37440000  0.20690000  0.29000000  1.0 0.6082575112
C  C58  1  0.62560000  0.20690000  0.71000000  1.0 0.6082575112
C  C59  1  0.37440000  0.79310000  0.71000000  1.0 0.6082575112
C  C60  1  0.62560000  0.79310000  0.29000000  1.0 0.6082575112
C  C61  1  0.87440000  0.79000000  0.70690000  1.0 0.6082575112
C  C62  1  0.12560000  0.21000000  0.70690000  1.0 0.6082575112
C  C63  1  0.87440000  0.21000000  0.29310000  1.0 0.6082575112
C  C64  1  0.12560000  0.79000000  0.29310000  1.0 0.6082575112
C  C65  1  0.79000000  0.70690000  0.87440000  1.0 0.6082575112
C  C66  1  0.21000000  0.70690000  0.12560000  1.0 0.6082575112
C  C67  1  0.21000000  0.29310000  0.87440000  1.0 0.6082575112
C  C68  1  0.79000000  0.29310000  0.12560000  1.0 0.6082575112
C  C69  1  0.70690000  0.87440000  0.79000000  1.0 0.6082575112
C  C70  1  0.70690000  0.12560000  0.21000000  1.0 0.6082575112
C  C71  1  0.29310000  0.87440000  0.21000000  1.0 0.6082575112
C  C72  1  0.29310000  0.12560000  0.79000000  1.0 0.6082575112
C  C73  1  0.33000000  0.54310000  0.21610000  1.0 -0.0297296209
C  C74  1  0.67000000  0.45690000  0.21610000  1.0 -0.0297296209
C  C75  1  0.67000000  0.54310000  0.78390000  1.0 -0.0297296209
C  C76  1  0.33000000  0.45690000  0.78390000  1.0 -0.0297296209
C  C77  1  0.21610000  0.33000000  0.54310000  1.0 -0.0297296209
C  C78  1  0.21610000  0.67000000  0.45690000  1.0 -0.0297296209
C  C79  1  0.78390000  0.67000000  0.54310000  1.0 -0.0297296209
C  C80  1  0.78390000  0.33000000  0.45690000  1.0 -0.0297296209
C  C81  1  0.54310000  0.21610000  0.33000000  1.0 -0.0297296209
C  C82  1  0.45690000  0.21610000  0.67000000  1.0 -0.0297296209
C  C83  1  0.54310000  0.78390000  0.67000000  1.0 -0.0297296209
C  C84  1  0.45690000  0.78390000  0.33000000  1.0 -0.0297296209
C  C85  1  0.04310000  0.83000000  0.71610000  1.0 -0.0297296209
C  C86  1  0.95690000  0.17000000  0.71610000  1.0 -0.0297296209
C  C87  1  0.04310000  0.17000000  0.28390000  1.0 -0.0297296209
C  C88  1  0.95690000  0.83000000  0.28390000  1.0 -0.0297296209
C  C89  1  0.83000000  0.71610000  0.04310000  1.0 -0.0297296209
C  C90  1  0.17000000  0.71610000  0.95690000  1.0 -0.0297296209
C  C91  1  0.17000000  0.28390000  0.04310000  1.0 -0.0297296209
C  C92  1  0.83000000  0.28390000  0.95690000  1.0 -0.0297296209
C  C93  1  0.71610000  0.04310000  0.83000000  1.0 -0.0297296209
C  C94  1  0.71610000  0.95690000  0.17000000  1.0 -0.0297296209
C  C95  1  0.28390000  0.04310000  0.17000000  1.0 -0.0297296209
C  C96  1  0.28390000  0.95690000  0.83000000  1.0 -0.0297296209
C  C97  1  0.32440000  0.43310000  0.20820000  1.0 -0.0206849937
C  C98  1  0.67560000  0.56690000  0.20820000  1.0 -0.0206849937
C  C99  1  0.67560000  0.43310000  0.79180000  1.0 -0.0206849937
C  C100  1  0.32440000  0.56690000  0.79180000  1.0 -0.0206849937
C  C101  1  0.20820000  0.32440000  0.43310000  1.0 -0.0206849937
C  C102  1  0.20820000  0.67560000  0.56690000  1.0 -0.0206849937
C  C103  1  0.79180000  0.67560000  0.43310000  1.0 -0.0206849937
C  C104  1  0.79180000  0.32440000  0.56690000  1.0 -0.0206849937
C  C105  1  0.43310000  0.20820000  0.32440000  1.0 -0.0206849937
C  C106  1  0.56690000  0.20820000  0.67560000  1.0 -0.0206849937
C  C107  1  0.43310000  0.79180000  0.67560000  1.0 -0.0206849937
C  C108  1  0.56690000  0.79180000  0.32440000  1.0 -0.0206849937
C  C109  1  0.93310000  0.82440000  0.70820000  1.0 -0.0206849937
C  C110  1  0.06690000  0.17560000  0.70820000  1.0 -0.0206849937
C  C111  1  0.93310000  0.17560000  0.29180000  1.0 -0.0206849937
C  C112  1  0.06690000  0.82440000  0.29180000  1.0 -0.0206849937
C  C113  1  0.82440000  0.70820000  0.93310000  1.0 -0.0206849937
C  C114  1  0.17560000  0.70820000  0.06690000  1.0 -0.0206849937
C  C115  1  0.17560000  0.29180000  0.93310000  1.0 -0.0206849937
C  C116  1  0.82440000  0.29180000  0.06690000  1.0 -0.0206849937
C  C117  1  0.70820000  0.93310000  0.82440000  1.0 -0.0206849937
C  C118  1  0.70820000  0.06690000  0.17560000  1.0 -0.0206849937
C  C119  1  0.29180000  0.93310000  0.17560000  1.0 -0.0206849937
C  C120  1  0.29180000  0.06690000  0.82440000  1.0 -0.0206849937
C  C121  1  0.39240000  0.53970000  0.21010000  1.0 -0.1297142386
C  C122  1  0.60760000  0.46030000  0.21010000  1.0 -0.1297142386
C  C123  1  0.60760000  0.53970000  0.78990000  1.0 -0.1297142386
C  C124  1  0.39240000  0.46030000  0.78990000  1.0 -0.1297142386
C  C125  1  0.21010000  0.39240000  0.53970000  1.0 -0.1297142386
C  C126  1  0.21010000  0.60760000  0.46030000  1.0 -0.1297142386
C  C127  1  0.78990000  0.60760000  0.53970000  1.0 -0.1297142386
C  C128  1  0.78990000  0.39240000  0.46030000  1.0 -0.1297142386
C  C129  1  0.53970000  0.21010000  0.39240000  1.0 -0.1297142386
C  C130  1  0.46030000  0.21010000  0.60760000  1.0 -0.1297142386
C  C131  1  0.53970000  0.78990000  0.60760000  1.0 -0.1297142386
C  C132  1  0.46030000  0.78990000  0.39240000  1.0 -0.1297142386
C  C133  1  0.03970000  0.89240000  0.71010000  1.0 -0.1297142386
C  C134  1  0.96030000  0.10760000  0.71010000  1.0 -0.1297142386
C  C135  1  0.03970000  0.10760000  0.28990000  1.0 -0.1297142386
C  C136  1  0.96030000  0.89240000  0.28990000  1.0 -0.1297142386
C  C137  1  0.89240000  0.71010000  0.03970000  1.0 -0.1297142386
C  C138  1  0.10760000  0.71010000  0.96030000  1.0 -0.1297142386
C  C139  1  0.10760000  0.28990000  0.03970000  1.0 -0.1297142386
C  C140  1  0.89240000  0.28990000  0.96030000  1.0 -0.1297142386
C  C141  1  0.71010000  0.03970000  0.89240000  1.0 -0.1297142386
C  C142  1  0.71010000  0.96030000  0.10760000  1.0 -0.1297142386
C  C143  1  0.28990000  0.03970000  0.10760000  1.0 -0.1297142386
C  C144  1  0.28990000  0.96030000  0.89240000  1.0 -0.1297142386
C  C145  1  0.38790000  0.43100000  0.20450000  1.0 -0.1413806774
C  C146  1  0.61210000  0.56900000  0.20450000  1.0 -0.1413806774
C  C147  1  0.61210000  0.43100000  0.79550000  1.0 -0.1413806774
C  C148  1  0.38790000  0.56900000  0.79550000  1.0 -0.1413806774
C  C149  1  0.20450000  0.38790000  0.43100000  1.0 -0.1413806774
C  C150  1  0.20450000  0.61210000  0.56900000  1.0 -0.1413806774
C  C151  1  0.79550000  0.61210000  0.43100000  1.0 -0.1413806774
C  C152  1  0.79550000  0.38790000  0.56900000  1.0 -0.1413806774
C  C153  1  0.43100000  0.20450000  0.38790000  1.0 -0.1413806774
C  C154  1  0.56900000  0.20450000  0.61210000  1.0 -0.1413806774
C  C155  1  0.43100000  0.79550000  0.61210000  1.0 -0.1413806774
C  C156  1  0.56900000  0.79550000  0.38790000  1.0 -0.1413806774
C  C157  1  0.93100000  0.88790000  0.70450000  1.0 -0.1413806774
C  C158  1  0.06900000  0.11210000  0.70450000  1.0 -0.1413806774
C  C159  1  0.93100000  0.11210000  0.29550000  1.0 -0.1413806774
C  C160  1  0.06900000  0.88790000  0.29550000  1.0 -0.1413806774
C  C161  1  0.88790000  0.70450000  0.93100000  1.0 -0.1413806774
C  C162  1  0.11210000  0.70450000  0.06900000  1.0 -0.1413806774
C  C163  1  0.11210000  0.29550000  0.93100000  1.0 -0.1413806774
C  C164  1  0.88790000  0.29550000  0.06900000  1.0 -0.1413806774
C  C165  1  0.70450000  0.93100000  0.88790000  1.0 -0.1413806774
C  C166  1  0.70450000  0.06900000  0.11210000  1.0 -0.1413806774
C  C167  1  0.29550000  0.93100000  0.11210000  1.0 -0.1413806774
C  C168  1  0.29550000  0.06900000  0.88790000  1.0 -0.1413806774
C  C169  1  0.42110000  0.48460000  0.20510000  1.0 0.1485995162
C  C170  1  0.57890000  0.51540000  0.20510000  1.0 0.1485995162
C  C171  1  0.57890000  0.48460000  0.79490000  1.0 0.1485995162
C  C172  1  0.42110000  0.51540000  0.79490000  1.0 0.1485995162
C  C173  1  0.20510000  0.42110000  0.48460000  1.0 0.1485995162
C  C174  1  0.20510000  0.57890000  0.51540000  1.0 0.1485995162
C  C175  1  0.79490000  0.57890000  0.48460000  1.0 0.1485995162
C  C176  1  0.79490000  0.42110000  0.51540000  1.0 0.1485995162
C  C177  1  0.48460000  0.20510000  0.42110000  1.0 0.1485995162
C  C178  1  0.51540000  0.20510000  0.57890000  1.0 0.1485995162
C  C179  1  0.48460000  0.79490000  0.57890000  1.0 0.1485995162
C  C180  1  0.51540000  0.79490000  0.42110000  1.0 0.1485995162
C  C181  1  0.98460000  0.92110000  0.70510000  1.0 0.1485995162
C  C182  1  0.01540000  0.07890000  0.70510000  1.0 0.1485995162
C  C183  1  0.98460000  0.07890000  0.29490000  1.0 0.1485995162
C  C184  1  0.01540000  0.92110000  0.29490000  1.0 0.1485995162
C  C185  1  0.92110000  0.70510000  0.98460000  1.0 0.1485995162
C  C186  1  0.07890000  0.70510000  0.01540000  1.0 0.1485995162
C  C187  1  0.07890000  0.29490000  0.98460000  1.0 0.1485995162
C  C188  1  0.92110000  0.29490000  0.01540000  1.0 0.1485995162
C  C189  1  0.70510000  0.98460000  0.92110000  1.0 0.1485995162
C  C190  1  0.70510000  0.01540000  0.07890000  1.0 0.1485995162
C  C191  1  0.29490000  0.98460000  0.07890000  1.0 0.1485995162
C  C192  1  0.29490000  0.01540000  0.92110000  1.0 0.1485995162
N  N1  1  0.48570000  0.47660000  0.20230000  1.0 -0.1077122823
N  N2  1  0.51430000  0.52340000  0.20230000  1.0 -0.1077122823
N  N3  1  0.51430000  0.47660000  0.79770000  1.0 -0.1077122823
N  N4  1  0.48570000  0.52340000  0.79770000  1.0 -0.1077122823
N  N5  1  0.20230000  0.48570000  0.47660000  1.0 -0.1077122823
N  N6  1  0.20230000  0.51430000  0.52340000  1.0 -0.1077122823
N  N7  1  0.79770000  0.51430000  0.47660000  1.0 -0.1077122823
N  N8  1  0.79770000  0.48570000  0.52340000  1.0 -0.1077122823
N  N9  1  0.47660000  0.20230000  0.48570000  1.0 -0.1077122823
N  N10  1  0.52340000  0.20230000  0.51430000  1.0 -0.1077122823
N  N11  1  0.47660000  0.79770000  0.51430000  1.0 -0.1077122823
N  N12  1  0.52340000  0.79770000  0.48570000  1.0 -0.1077122823
N  N13  1  0.97660000  0.98570000  0.70230000  1.0 -0.1077122823
N  N14  1  0.02340000  0.01430000  0.70230000  1.0 -0.1077122823
N  N15  1  0.97660000  0.01430000  0.29770000  1.0 -0.1077122823
N  N16  1  0.02340000  0.98570000  0.29770000  1.0 -0.1077122823
N  N17  1  0.98570000  0.70230000  0.97660000  1.0 -0.1077122823
N  N18  1  0.01430000  0.70230000  0.02340000  1.0 -0.1077122823
N  N19  1  0.01430000  0.29770000  0.97660000  1.0 -0.1077122823
N  N20  1  0.98570000  0.29770000  0.02340000  1.0 -0.1077122823
N  N21  1  0.70230000  0.97660000  0.98570000  1.0 -0.1077122823
N  N22  1  0.70230000  0.02340000  0.01430000  1.0 -0.1077122823
N  N23  1  0.29770000  0.97660000  0.01430000  1.0 -0.1077122823
N  N24  1  0.29770000  0.02340000  0.98570000  1.0 -0.1077122823
O  O1  1  0.25923000  0.74077000  0.25923000  1.0 -0.8327619195
O  O2  1  0.74077000  0.25923000  0.25923000  1.0 -0.8327619195
O  O3  1  0.74077000  0.74077000  0.74077000  1.0 -0.8327619195
O  O4  1  0.25923000  0.25923000  0.74077000  1.0 -0.8327619195
O  O5  1  0.24077000  0.75923000  0.75923000  1.0 -0.8327619195
O  O6  1  0.75923000  0.24077000  0.75923000  1.0 -0.8327619195
O  O7  1  0.24077000  0.24077000  0.24077000  1.0 -0.8327619195
O  O8  1  0.75923000  0.75923000  0.24077000  1.0 -0.8327619195
O  O9  1  0.33265000  0.64918000  0.20470000  1.0 -0.5445967054
O  O10  1  0.66735000  0.35082000  0.20470000  1.0 -0.5445967054
O  O11  1  0.66735000  0.64918000  0.79530000  1.0 -0.5445967054
O  O12  1  0.33265000  0.35082000  0.79530000  1.0 -0.5445967054
O  O13  1  0.20470000  0.33265000  0.64918000  1.0 -0.5445967054
O  O14  1  0.20470000  0.66735000  0.35082000  1.0 -0.5445967054
O  O15  1  0.79530000  0.66735000  0.64918000  1.0 -0.5445967054
O  O16  1  0.79530000  0.33265000  0.35082000  1.0 -0.5445967054
O  O17  1  0.64918000  0.20470000  0.33265000  1.0 -0.5445967054
O  O18  1  0.35082000  0.20470000  0.66735000  1.0 -0.5445967054
O  O19  1  0.64918000  0.79530000  0.66735000  1.0 -0.5445967054
O  O20  1  0.35082000  0.79530000  0.33265000  1.0 -0.5445967054
O  O21  1  0.14918000  0.83265000  0.70470000  1.0 -0.5445967054
O  O22  1  0.85082000  0.16735000  0.70470000  1.0 -0.5445967054
O  O23  1  0.14918000  0.16735000  0.29530000  1.0 -0.5445967054
O  O24  1  0.85082000  0.83265000  0.29530000  1.0 -0.5445967054
O  O25  1  0.83265000  0.70470000  0.14918000  1.0 -0.5445967054
O  O26  1  0.16735000  0.70470000  0.85082000  1.0 -0.5445967054
O  O27  1  0.16735000  0.29530000  0.14918000  1.0 -0.5445967054
O  O28  1  0.83265000  0.29530000  0.85082000  1.0 -0.5445967054
O  O29  1  0.70470000  0.14918000  0.83265000  1.0 -0.5445967054
O  O30  1  0.70470000  0.85082000  0.16735000  1.0 -0.5445967054
O  O31  1  0.29530000  0.14918000  0.16735000  1.0 -0.5445967054
O  O32  1  0.29530000  0.85082000  0.83265000  1.0 -0.5445967054
O  O33  1  0.23549000  0.37521000  0.22470000  1.0 -0.5316065287
O  O34  1  0.76451000  0.62479000  0.22470000  1.0 -0.5316065287
O  O35  1  0.76451000  0.37521000  0.77530000  1.0 -0.5316065287
O  O36  1  0.23549000  0.62479000  0.77530000  1.0 -0.5316065287
O  O37  1  0.22470000  0.23549000  0.37521000  1.0 -0.5316065287
O  O38  1  0.22470000  0.76451000  0.62479000  1.0 -0.5316065287
O  O39  1  0.77530000  0.76451000  0.37521000  1.0 -0.5316065287
O  O40  1  0.77530000  0.23549000  0.62479000  1.0 -0.5316065287
O  O41  1  0.37521000  0.22470000  0.23549000  1.0 -0.5316065287
O  O42  1  0.62479000  0.22470000  0.76451000  1.0 -0.5316065287
O  O43  1  0.37521000  0.77530000  0.76451000  1.0 -0.5316065287
O  O44  1  0.62479000  0.77530000  0.23549000  1.0 -0.5316065287
O  O45  1  0.87521000  0.73549000  0.72470000  1.0 -0.5316065287
O  O46  1  0.12479000  0.26451000  0.72470000  1.0 -0.5316065287
O  O47  1  0.87521000  0.26451000  0.27530000  1.0 -0.5316065287
O  O48  1  0.12479000  0.73549000  0.27530000  1.0 -0.5316065287
O  O49  1  0.73549000  0.72470000  0.87521000  1.0 -0.5316065287
O  O50  1  0.26451000  0.72470000  0.12479000  1.0 -0.5316065287
O  O51  1  0.26451000  0.27530000  0.87521000  1.0 -0.5316065287
O  O52  1  0.73549000  0.27530000  0.12479000  1.0 -0.5316065287
O  O53  1  0.72470000  0.87521000  0.73549000  1.0 -0.5316065287
O  O54  1  0.72470000  0.12479000  0.26451000  1.0 -0.5316065287
O  O55  1  0.27530000  0.87521000  0.26451000  1.0 -0.5316065287
O  O56  1  0.27530000  0.12479000  0.73549000  1.0 -0.5316065287
O  O57  1  0.24835000  0.60668000  0.24389000  1.0 -0.5316065287
O  O58  1  0.75165000  0.39332000  0.24389000  1.0 -0.5316065287
O  O59  1  0.75165000  0.60668000  0.75611000  1.0 -0.5316065287
O  O60  1  0.24835000  0.39332000  0.75611000  1.0 -0.5316065287
O  O61  1  0.24389000  0.24835000  0.60668000  1.0 -0.5316065287
O  O62  1  0.24389000  0.75165000  0.39332000  1.0 -0.5316065287
O  O63  1  0.75611000  0.75165000  0.60668000  1.0 -0.5316065287
O  O64  1  0.75611000  0.24835000  0.39332000  1.0 -0.5316065287
O  O65  1  0.60668000  0.24389000  0.24835000  1.0 -0.5316065287
O  O66  1  0.39332000  0.24389000  0.75165000  1.0 -0.5316065287
O  O67  1  0.60668000  0.75611000  0.75165000  1.0 -0.5316065287
O  O68  1  0.39332000  0.75611000  0.24835000  1.0 -0.5316065287
O  O69  1  0.10668000  0.74835000  0.74389000  1.0 -0.5316065287
O  O70  1  0.89332000  0.25165000  0.74389000  1.0 -0.5316065287
O  O71  1  0.10668000  0.25165000  0.25611000  1.0 -0.5316065287
O  O72  1  0.89332000  0.74835000  0.25611000  1.0 -0.5316065287
O  O73  1  0.74835000  0.74389000  0.10668000  1.0 -0.5316065287
O  O74  1  0.25165000  0.74389000  0.89332000  1.0 -0.5316065287
O  O75  1  0.25165000  0.25611000  0.10668000  1.0 -0.5316065287
O  O76  1  0.74835000  0.25611000  0.89332000  1.0 -0.5316065287
O  O77  1  0.74389000  0.10668000  0.74835000  1.0 -0.5316065287
O  O78  1  0.74389000  0.89332000  0.25165000  1.0 -0.5316065287
O  O79  1  0.25611000  0.10668000  0.25165000  1.0 -0.5316065287
O  O80  1  0.25611000  0.89332000  0.74835000  1.0 -0.5316065287
O  O81  1  0.31945000  0.32883000  0.18780000  1.0 -0.5445967054
O  O82  1  0.68055000  0.67117000  0.18780000  1.0 -0.5445967054
O  O83  1  0.68055000  0.32883000  0.81220000  1.0 -0.5445967054
O  O84  1  0.31945000  0.67117000  0.81220000  1.0 -0.5445967054
O  O85  1  0.18780000  0.31945000  0.32883000  1.0 -0.5445967054
O  O86  1  0.18780000  0.68055000  0.67117000  1.0 -0.5445967054
O  O87  1  0.81220000  0.68055000  0.32883000  1.0 -0.5445967054
O  O88  1  0.81220000  0.31945000  0.67117000  1.0 -0.5445967054
O  O89  1  0.32883000  0.18780000  0.31945000  1.0 -0.5445967054
O  O90  1  0.67117000  0.18780000  0.68055000  1.0 -0.5445967054
O  O91  1  0.32883000  0.81220000  0.68055000  1.0 -0.5445967054
O  O92  1  0.67117000  0.81220000  0.31945000  1.0 -0.5445967054
O  O93  1  0.82883000  0.81945000  0.68780000  1.0 -0.5445967054
O  O94  1  0.17117000  0.18055000  0.68780000  1.0 -0.5445967054
O  O95  1  0.82883000  0.18055000  0.31220000  1.0 -0.5445967054
O  O96  1  0.17117000  0.81945000  0.31220000  1.0 -0.5445967054
O  O97  1  0.81945000  0.68780000  0.82883000  1.0 -0.5445967054
O  O98  1  0.18055000  0.68780000  0.17117000  1.0 -0.5445967054
O  O99  1  0.18055000  0.31220000  0.82883000  1.0 -0.5445967054
O  O100  1  0.81945000  0.31220000  0.17117000  1.0 -0.5445967054
O  O101  1  0.68780000  0.82883000  0.81945000  1.0 -0.5445967054
O  O102  1  0.68780000  0.17117000  0.18055000  1.0 -0.5445967054
O  O103  1  0.31220000  0.82883000  0.18055000  1.0 -0.5445967054
O  O104  1  0.31220000  0.17117000  0.81945000  1.0 -0.5445967054
