# DDEC6 charges by PACMAN v1.1 (https://github.com/mtap-research/PACMAN-charge/)
data_LICZUW_ASR_pacman
_symmetry_space_group_name_H-M   'P 1'
_cell_length_a   21.89450000
_cell_length_b   21.89450000
_cell_length_c   21.89450000
_cell_angle_alpha   90.00000000
_cell_angle_beta   90.00000000
_cell_angle_gamma   90.00000000
_symmetry_Int_Tables_number   1
_chemical_formula_structural   Fe3H9C24N3O13
_chemical_formula_sum   'Fe24 H72 C192 N24 O104'
_cell_volume   10495.54742226
_cell_formula_units_Z   8
loop_
 _symmetry_equiv_pos_site_id
 _symmetry_equiv_pos_as_xyz
  1  'x, y, z'
loop_
 _atom_site_type_symbol
 _atom_site_label
 _atom_site_symmetry_multiplicity
 _atom_site_fract_x
 _atom_site_fract_y
 _atom_site_fract_z
 _atom_site_occupancy
 _atom_site_charge
Fe  Fe1  1  0.26048000  0.68289000  0.19878000  1.0 1.1398468331
Fe  Fe2  1  0.73952000  0.31711000  0.19878000  1.0 1.1398468331
Fe  Fe3  1  0.73952000  0.68289000  0.80122000  1.0 1.1398468331
Fe  Fe4  1  0.26048000  0.31711000  0.80122000  1.0 1.1398468331
Fe  Fe5  1  0.19878000  0.26048000  0.68289000  1.0 1.1398468331
Fe  Fe6  1  0.19878000  0.73952000  0.31711000  1.0 1.1398468331
Fe  Fe7  1  0.80122000  0.73952000  0.68289000  1.0 1.1398468331
Fe  Fe8  1  0.80122000  0.26048000  0.31711000  1.0 1.1398468331
Fe  Fe9  1  0.68289000  0.19878000  0.26048000  1.0 1.1398468331
Fe  Fe10  1  0.31711000  0.19878000  0.73952000  1.0 1.1398468331
Fe  Fe11  1  0.68289000  0.80122000  0.73952000  1.0 1.1398468331
Fe  Fe12  1  0.31711000  0.80122000  0.26048000  1.0 1.1398468331
Fe  Fe13  1  0.18289000  0.76048000  0.69878000  1.0 1.1398468331
Fe  Fe14  1  0.81711000  0.23952000  0.69878000  1.0 1.1398468331
Fe  Fe15  1  0.18289000  0.23952000  0.30122000  1.0 1.1398468331
Fe  Fe16  1  0.81711000  0.76048000  0.30122000  1.0 1.1398468331
Fe  Fe17  1  0.76048000  0.69878000  0.18289000  1.0 1.1398468331
Fe  Fe18  1  0.23952000  0.69878000  0.81711000  1.0 1.1398468331
Fe  Fe19  1  0.23952000  0.30122000  0.18289000  1.0 1.1398468331
Fe  Fe20  1  0.76048000  0.30122000  0.81711000  1.0 1.1398468331
Fe  Fe21  1  0.69878000  0.18289000  0.76048000  1.0 1.1398468331
Fe  Fe22  1  0.69878000  0.81711000  0.23952000  1.0 1.1398468331
Fe  Fe23  1  0.30122000  0.18289000  0.23952000  1.0 1.1398468331
Fe  Fe24  1  0.30122000  0.81711000  0.76048000  1.0 1.1398468331
H  H1  1  0.50846000  0.74686000  0.22138000  1.0 0.1399233779
H  H2  1  0.49154000  0.25314000  0.22138000  1.0 0.1399233779
H  H3  1  0.49154000  0.74686000  0.77862000  1.0 0.1399233779
H  H4  1  0.50846000  0.25314000  0.77862000  1.0 0.1399233779
H  H5  1  0.22138000  0.50846000  0.74686000  1.0 0.1399233779
H  H6  1  0.22138000  0.49154000  0.25314000  1.0 0.1399233779
H  H7  1  0.77862000  0.49154000  0.74686000  1.0 0.1399233779
H  H8  1  0.77862000  0.50846000  0.25314000  1.0 0.1399233779
H  H9  1  0.74686000  0.22138000  0.50846000  1.0 0.1399233779
H  H10  1  0.25314000  0.22138000  0.49154000  1.0 0.1399233779
H  H11  1  0.74686000  0.77862000  0.49154000  1.0 0.1399233779
H  H12  1  0.25314000  0.77862000  0.50846000  1.0 0.1399233779
H  H13  1  0.24686000  0.00846000  0.72138000  1.0 0.1399233779
H  H14  1  0.75314000  0.99154000  0.72138000  1.0 0.1399233779
H  H15  1  0.24686000  0.99154000  0.27862000  1.0 0.1399233779
H  H16  1  0.75314000  0.00846000  0.27862000  1.0 0.1399233779
H  H17  1  0.00846000  0.72138000  0.24686000  1.0 0.1399233779
H  H18  1  0.99154000  0.72138000  0.75314000  1.0 0.1399233779
H  H19  1  0.99154000  0.27862000  0.24686000  1.0 0.1399233779
H  H20  1  0.00846000  0.27862000  0.75314000  1.0 0.1399233779
H  H21  1  0.72138000  0.24686000  0.00846000  1.0 0.1399233779
H  H22  1  0.72138000  0.75314000  0.99154000  1.0 0.1399233779
H  H23  1  0.27862000  0.24686000  0.99154000  1.0 0.1399233779
H  H24  1  0.27862000  0.75314000  0.00846000  1.0 0.1399233779
H  H25  1  0.42433000  0.58483000  0.21026000  1.0 0.1399233779
H  H26  1  0.57567000  0.41517000  0.21026000  1.0 0.1399233779
H  H27  1  0.57567000  0.58483000  0.78974000  1.0 0.1399233779
H  H28  1  0.42433000  0.41517000  0.78974000  1.0 0.1399233779
H  H29  1  0.21026000  0.42433000  0.58483000  1.0 0.1399233779
H  H30  1  0.21026000  0.57567000  0.41517000  1.0 0.1399233779
H  H31  1  0.78974000  0.57567000  0.58483000  1.0 0.1399233779
H  H32  1  0.78974000  0.42433000  0.41517000  1.0 0.1399233779
H  H33  1  0.58483000  0.21026000  0.42433000  1.0 0.1399233779
H  H34  1  0.41517000  0.21026000  0.57567000  1.0 0.1399233779
H  H35  1  0.58483000  0.78974000  0.57567000  1.0 0.1399233779
H  H36  1  0.41517000  0.78974000  0.42433000  1.0 0.1399233779
H  H37  1  0.08483000  0.92433000  0.71026000  1.0 0.1399233779
H  H38  1  0.91517000  0.07567000  0.71026000  1.0 0.1399233779
H  H39  1  0.08483000  0.07567000  0.28974000  1.0 0.1399233779
H  H40  1  0.91517000  0.92433000  0.28974000  1.0 0.1399233779
H  H41  1  0.92433000  0.71026000  0.08483000  1.0 0.1399233779
H  H42  1  0.07567000  0.71026000  0.91517000  1.0 0.1399233779
H  H43  1  0.07567000  0.28974000  0.08483000  1.0 0.1399233779
H  H44  1  0.92433000  0.28974000  0.91517000  1.0 0.1399233779
H  H45  1  0.71026000  0.08483000  0.92433000  1.0 0.1399233779
H  H46  1  0.71026000  0.91517000  0.07567000  1.0 0.1399233779
H  H47  1  0.28974000  0.08483000  0.07567000  1.0 0.1399233779
H  H48  1  0.28974000  0.91517000  0.92433000  1.0 0.1399233779
H  H49  1  0.60628000  0.59263000  0.20064000  1.0 0.1399233779
H  H50  1  0.39372000  0.40737000  0.20064000  1.0 0.1399233779
H  H51  1  0.39372000  0.59263000  0.79936000  1.0 0.1399233779
H  H52  1  0.60628000  0.40737000  0.79936000  1.0 0.1399233779
H  H53  1  0.20064000  0.60628000  0.59263000  1.0 0.1399233779
H  H54  1  0.20064000  0.39372000  0.40737000  1.0 0.1399233779
H  H55  1  0.79936000  0.39372000  0.59263000  1.0 0.1399233779
H  H56  1  0.79936000  0.60628000  0.40737000  1.0 0.1399233779
H  H57  1  0.59263000  0.20064000  0.60628000  1.0 0.1399233779
H  H58  1  0.40737000  0.20064000  0.39372000  1.0 0.1399233779
H  H59  1  0.59263000  0.79936000  0.39372000  1.0 0.1399233779
H  H60  1  0.40737000  0.79936000  0.60628000  1.0 0.1399233779
H  H61  1  0.09263000  0.10628000  0.70064000  1.0 0.1399233779
H  H62  1  0.90737000  0.89372000  0.70064000  1.0 0.1399233779
H  H63  1  0.09263000  0.89372000  0.29936000  1.0 0.1399233779
H  H64  1  0.90737000  0.10628000  0.29936000  1.0 0.1399233779
H  H65  1  0.10628000  0.70064000  0.09263000  1.0 0.1399233779
H  H66  1  0.89372000  0.70064000  0.90737000  1.0 0.1399233779
H  H67  1  0.89372000  0.29936000  0.09263000  1.0 0.1399233779
H  H68  1  0.10628000  0.29936000  0.90737000  1.0 0.1399233779
H  H69  1  0.70064000  0.09263000  0.10628000  1.0 0.1399233779
H  H70  1  0.70064000  0.90737000  0.89372000  1.0 0.1399233779
H  H71  1  0.29936000  0.09263000  0.89372000  1.0 0.1399233779
H  H72  1  0.29936000  0.90737000  0.10628000  1.0 0.1399233779
C  C1  1  0.39550000  0.69890000  0.22120000  1.0 0.603290768
C  C2  1  0.60450000  0.30110000  0.22120000  1.0 0.603290768
C  C3  1  0.60450000  0.69890000  0.77880000  1.0 0.603290768
C  C4  1  0.39550000  0.30110000  0.77880000  1.0 0.603290768
C  C5  1  0.22120000  0.39550000  0.69890000  1.0 0.603290768
C  C6  1  0.22120000  0.60450000  0.30110000  1.0 0.603290768
C  C7  1  0.77880000  0.60450000  0.69890000  1.0 0.603290768
C  C8  1  0.77880000  0.39550000  0.30110000  1.0 0.603290768
C  C9  1  0.69890000  0.22120000  0.39550000  1.0 0.603290768
C  C10  1  0.30110000  0.22120000  0.60450000  1.0 0.603290768
C  C11  1  0.69890000  0.77880000  0.60450000  1.0 0.603290768
C  C12  1  0.30110000  0.77880000  0.39550000  1.0 0.603290768
C  C13  1  0.19890000  0.89550000  0.72120000  1.0 0.603290768
C  C14  1  0.80110000  0.10450000  0.72120000  1.0 0.603290768
C  C15  1  0.19890000  0.10450000  0.27880000  1.0 0.603290768
C  C16  1  0.80110000  0.89550000  0.27880000  1.0 0.603290768
C  C17  1  0.89550000  0.72120000  0.19890000  1.0 0.603290768
C  C18  1  0.10450000  0.72120000  0.80110000  1.0 0.603290768
C  C19  1  0.10450000  0.27880000  0.19890000  1.0 0.603290768
C  C20  1  0.89550000  0.27880000  0.80110000  1.0 0.603290768
C  C21  1  0.72120000  0.19890000  0.89550000  1.0 0.603290768
C  C22  1  0.72120000  0.80110000  0.10450000  1.0 0.603290768
C  C23  1  0.27880000  0.19890000  0.10450000  1.0 0.603290768
C  C24  1  0.27880000  0.80110000  0.89550000  1.0 0.603290768
C  C25  1  0.51030000  0.70470000  0.21620000  1.0 -0.0861464957
C  C26  1  0.48970000  0.29530000  0.21620000  1.0 -0.0861464957
C  C27  1  0.48970000  0.70470000  0.78380000  1.0 -0.0861464957
C  C28  1  0.51030000  0.29530000  0.78380000  1.0 -0.0861464957
C  C29  1  0.21620000  0.51030000  0.70470000  1.0 -0.0861464957
C  C30  1  0.21620000  0.48970000  0.29530000  1.0 -0.0861464957
C  C31  1  0.78380000  0.48970000  0.70470000  1.0 -0.0861464957
C  C32  1  0.78380000  0.51030000  0.29530000  1.0 -0.0861464957
C  C33  1  0.70470000  0.21620000  0.51030000  1.0 -0.0861464957
C  C34  1  0.29530000  0.21620000  0.48970000  1.0 -0.0861464957
C  C35  1  0.70470000  0.78380000  0.48970000  1.0 -0.0861464957
C  C36  1  0.29530000  0.78380000  0.51030000  1.0 -0.0861464957
C  C37  1  0.20470000  0.01030000  0.71620000  1.0 -0.0861464957
C  C38  1  0.79530000  0.98970000  0.71620000  1.0 -0.0861464957
C  C39  1  0.20470000  0.98970000  0.28380000  1.0 -0.0861464957
C  C40  1  0.79530000  0.01030000  0.28380000  1.0 -0.0861464957
C  C41  1  0.01030000  0.71620000  0.20470000  1.0 -0.0861464957
C  C42  1  0.98970000  0.71620000  0.79530000  1.0 -0.0861464957
C  C43  1  0.98970000  0.28380000  0.20470000  1.0 -0.0861464957
C  C44  1  0.01030000  0.28380000  0.79530000  1.0 -0.0861464957
C  C45  1  0.71620000  0.20470000  0.01030000  1.0 -0.0861464957
C  C46  1  0.71620000  0.79530000  0.98970000  1.0 -0.0861464957
C  C47  1  0.28380000  0.20470000  0.98970000  1.0 -0.0861464957
C  C48  1  0.28380000  0.79530000  0.01030000  1.0 -0.0861464957
C  C49  1  0.62500000  0.71020000  0.20800000  1.0 0.6063961104
C  C50  1  0.37500000  0.28980000  0.20800000  1.0 0.6063961104
C  C51  1  0.37500000  0.71020000  0.79200000  1.0 0.6063961104
C  C52  1  0.62500000  0.28980000  0.79200000  1.0 0.6063961104
C  C53  1  0.20800000  0.62500000  0.71020000  1.0 0.6063961104
C  C54  1  0.20800000  0.37500000  0.28980000  1.0 0.6063961104
C  C55  1  0.79200000  0.37500000  0.71020000  1.0 0.6063961104
C  C56  1  0.79200000  0.62500000  0.28980000  1.0 0.6063961104
C  C57  1  0.71020000  0.20800000  0.62500000  1.0 0.6063961104
C  C58  1  0.28980000  0.20800000  0.37500000  1.0 0.6063961104
C  C59  1  0.71020000  0.79200000  0.37500000  1.0 0.6063961104
C  C60  1  0.28980000  0.79200000  0.62500000  1.0 0.6063961104
C  C61  1  0.21020000  0.12500000  0.70800000  1.0 0.6063961104
C  C62  1  0.78980000  0.87500000  0.70800000  1.0 0.6063961104
C  C63  1  0.21020000  0.87500000  0.29200000  1.0 0.6063961104
C  C64  1  0.78980000  0.12500000  0.29200000  1.0 0.6063961104
C  C65  1  0.12500000  0.70800000  0.21020000  1.0 0.6063961104
C  C66  1  0.87500000  0.70800000  0.78980000  1.0 0.6063961104
C  C67  1  0.87500000  0.29200000  0.21020000  1.0 0.6063961104
C  C68  1  0.12500000  0.29200000  0.78980000  1.0 0.6063961104
C  C69  1  0.70800000  0.21020000  0.12500000  1.0 0.6063961104
C  C70  1  0.70800000  0.78980000  0.87500000  1.0 0.6063961104
C  C71  1  0.29200000  0.21020000  0.87500000  1.0 0.6063961104
C  C72  1  0.29200000  0.78980000  0.12500000  1.0 0.6063961104
C  C73  1  0.45670000  0.67020000  0.21570000  1.0 -0.024199008
C  C74  1  0.54330000  0.32980000  0.21570000  1.0 -0.024199008
C  C75  1  0.54330000  0.67020000  0.78430000  1.0 -0.024199008
C  C76  1  0.45670000  0.32980000  0.78430000  1.0 -0.024199008
C  C77  1  0.21570000  0.45670000  0.67020000  1.0 -0.024199008
C  C78  1  0.21570000  0.54330000  0.32980000  1.0 -0.024199008
C  C79  1  0.78430000  0.54330000  0.67020000  1.0 -0.024199008
C  C80  1  0.78430000  0.45670000  0.32980000  1.0 -0.024199008
C  C81  1  0.67020000  0.21570000  0.45670000  1.0 -0.024199008
C  C82  1  0.32980000  0.21570000  0.54330000  1.0 -0.024199008
C  C83  1  0.67020000  0.78430000  0.54330000  1.0 -0.024199008
C  C84  1  0.32980000  0.78430000  0.45670000  1.0 -0.024199008
C  C85  1  0.17020000  0.95670000  0.71570000  1.0 -0.024199008
C  C86  1  0.82980000  0.04330000  0.71570000  1.0 -0.024199008
C  C87  1  0.17020000  0.04330000  0.28430000  1.0 -0.024199008
C  C88  1  0.82980000  0.95670000  0.28430000  1.0 -0.024199008
C  C89  1  0.95670000  0.71570000  0.17020000  1.0 -0.024199008
C  C90  1  0.04330000  0.71570000  0.82980000  1.0 -0.024199008
C  C91  1  0.04330000  0.28430000  0.17020000  1.0 -0.024199008
C  C92  1  0.95670000  0.28430000  0.82980000  1.0 -0.024199008
C  C93  1  0.71570000  0.17020000  0.95670000  1.0 -0.024199008
C  C94  1  0.71570000  0.82980000  0.04330000  1.0 -0.024199008
C  C95  1  0.28430000  0.17020000  0.04330000  1.0 -0.024199008
C  C96  1  0.28430000  0.82980000  0.95670000  1.0 -0.024199008
C  C97  1  0.56640000  0.67610000  0.20910000  1.0 -0.024199008
C  C98  1  0.43360000  0.32390000  0.20910000  1.0 -0.024199008
C  C99  1  0.43360000  0.67610000  0.79090000  1.0 -0.024199008
C  C100  1  0.56640000  0.32390000  0.79090000  1.0 -0.024199008
C  C101  1  0.20910000  0.56640000  0.67610000  1.0 -0.024199008
C  C102  1  0.20910000  0.43360000  0.32390000  1.0 -0.024199008
C  C103  1  0.79090000  0.43360000  0.67610000  1.0 -0.024199008
C  C104  1  0.79090000  0.56640000  0.32390000  1.0 -0.024199008
C  C105  1  0.67610000  0.20910000  0.56640000  1.0 -0.024199008
C  C106  1  0.32390000  0.20910000  0.43360000  1.0 -0.024199008
C  C107  1  0.67610000  0.79090000  0.43360000  1.0 -0.024199008
C  C108  1  0.32390000  0.79090000  0.56640000  1.0 -0.024199008
C  C109  1  0.17610000  0.06640000  0.70910000  1.0 -0.024199008
C  C110  1  0.82390000  0.93360000  0.70910000  1.0 -0.024199008
C  C111  1  0.17610000  0.93360000  0.29090000  1.0 -0.024199008
C  C112  1  0.82390000  0.06640000  0.29090000  1.0 -0.024199008
C  C113  1  0.06640000  0.70910000  0.17610000  1.0 -0.024199008
C  C114  1  0.93360000  0.70910000  0.82390000  1.0 -0.024199008
C  C115  1  0.93360000  0.29090000  0.17610000  1.0 -0.024199008
C  C116  1  0.06640000  0.29090000  0.82390000  1.0 -0.024199008
C  C117  1  0.70910000  0.17610000  0.06640000  1.0 -0.024199008
C  C118  1  0.70910000  0.82390000  0.93360000  1.0 -0.024199008
C  C119  1  0.29090000  0.17610000  0.93360000  1.0 -0.024199008
C  C120  1  0.29090000  0.82390000  0.06640000  1.0 -0.024199008
C  C121  1  0.46010000  0.60780000  0.21060000  1.0 -0.1296765429
C  C122  1  0.53990000  0.39220000  0.21060000  1.0 -0.1296765429
C  C123  1  0.53990000  0.60780000  0.78940000  1.0 -0.1296765429
C  C124  1  0.46010000  0.39220000  0.78940000  1.0 -0.1296765429
C  C125  1  0.21060000  0.46010000  0.60780000  1.0 -0.1296765429
C  C126  1  0.21060000  0.53990000  0.39220000  1.0 -0.1296765429
C  C127  1  0.78940000  0.53990000  0.60780000  1.0 -0.1296765429
C  C128  1  0.78940000  0.46010000  0.39220000  1.0 -0.1296765429
C  C129  1  0.60780000  0.21060000  0.46010000  1.0 -0.1296765429
C  C130  1  0.39220000  0.21060000  0.53990000  1.0 -0.1296765429
C  C131  1  0.60780000  0.78940000  0.53990000  1.0 -0.1296765429
C  C132  1  0.39220000  0.78940000  0.46010000  1.0 -0.1296765429
C  C133  1  0.10780000  0.96010000  0.71060000  1.0 -0.1296765429
C  C134  1  0.89220000  0.03990000  0.71060000  1.0 -0.1296765429
C  C135  1  0.10780000  0.03990000  0.28940000  1.0 -0.1296765429
C  C136  1  0.89220000  0.96010000  0.28940000  1.0 -0.1296765429
C  C137  1  0.96010000  0.71060000  0.10780000  1.0 -0.1296765429
C  C138  1  0.03990000  0.71060000  0.89220000  1.0 -0.1296765429
C  C139  1  0.03990000  0.28940000  0.10780000  1.0 -0.1296765429
C  C140  1  0.96010000  0.28940000  0.89220000  1.0 -0.1296765429
C  C141  1  0.71060000  0.10780000  0.96010000  1.0 -0.1296765429
C  C142  1  0.71060000  0.89220000  0.03990000  1.0 -0.1296765429
C  C143  1  0.28940000  0.10780000  0.03990000  1.0 -0.1296765429
C  C144  1  0.28940000  0.89220000  0.96010000  1.0 -0.1296765429
C  C145  1  0.56880000  0.61230000  0.20450000  1.0 -0.1421607494
C  C146  1  0.43120000  0.38770000  0.20450000  1.0 -0.1421607494
C  C147  1  0.43120000  0.61230000  0.79550000  1.0 -0.1421607494
C  C148  1  0.56880000  0.38770000  0.79550000  1.0 -0.1421607494
C  C149  1  0.20450000  0.56880000  0.61230000  1.0 -0.1421607494
C  C150  1  0.20450000  0.43120000  0.38770000  1.0 -0.1421607494
C  C151  1  0.79550000  0.43120000  0.61230000  1.0 -0.1421607494
C  C152  1  0.79550000  0.56880000  0.38770000  1.0 -0.1421607494
C  C153  1  0.61230000  0.20450000  0.56880000  1.0 -0.1421607494
C  C154  1  0.38770000  0.20450000  0.43120000  1.0 -0.1421607494
C  C155  1  0.61230000  0.79550000  0.43120000  1.0 -0.1421607494
C  C156  1  0.38770000  0.79550000  0.56880000  1.0 -0.1421607494
C  C157  1  0.11230000  0.06880000  0.70450000  1.0 -0.1421607494
C  C158  1  0.88770000  0.93120000  0.70450000  1.0 -0.1421607494
C  C159  1  0.11230000  0.93120000  0.29550000  1.0 -0.1421607494
C  C160  1  0.88770000  0.06880000  0.29550000  1.0 -0.1421607494
C  C161  1  0.06880000  0.70450000  0.11230000  1.0 -0.1421607494
C  C162  1  0.93120000  0.70450000  0.88770000  1.0 -0.1421607494
C  C163  1  0.93120000  0.29550000  0.11230000  1.0 -0.1421607494
C  C164  1  0.06880000  0.29550000  0.88770000  1.0 -0.1421607494
C  C165  1  0.70450000  0.11230000  0.06880000  1.0 -0.1421607494
C  C166  1  0.70450000  0.88770000  0.93120000  1.0 -0.1421607494
C  C167  1  0.29550000  0.11230000  0.93120000  1.0 -0.1421607494
C  C168  1  0.29550000  0.88770000  0.06880000  1.0 -0.1421607494
C  C169  1  0.51560000  0.57880000  0.20590000  1.0 0.1505387677
C  C170  1  0.48440000  0.42120000  0.20590000  1.0 0.1505387677
C  C171  1  0.48440000  0.57880000  0.79410000  1.0 0.1505387677
C  C172  1  0.51560000  0.42120000  0.79410000  1.0 0.1505387677
C  C173  1  0.20590000  0.51560000  0.57880000  1.0 0.1505387677
C  C174  1  0.20590000  0.48440000  0.42120000  1.0 0.1505387677
C  C175  1  0.79410000  0.48440000  0.57880000  1.0 0.1505387677
C  C176  1  0.79410000  0.51560000  0.42120000  1.0 0.1505387677
C  C177  1  0.57880000  0.20590000  0.51560000  1.0 0.1505387677
C  C178  1  0.42120000  0.20590000  0.48440000  1.0 0.1505387677
C  C179  1  0.57880000  0.79410000  0.48440000  1.0 0.1505387677
C  C180  1  0.42120000  0.79410000  0.51560000  1.0 0.1505387677
C  C181  1  0.07880000  0.01560000  0.70590000  1.0 0.1505387677
C  C182  1  0.92120000  0.98440000  0.70590000  1.0 0.1505387677
C  C183  1  0.07880000  0.98440000  0.29410000  1.0 0.1505387677
C  C184  1  0.92120000  0.01560000  0.29410000  1.0 0.1505387677
C  C185  1  0.01560000  0.70590000  0.07880000  1.0 0.1505387677
C  C186  1  0.98440000  0.70590000  0.92120000  1.0 0.1505387677
C  C187  1  0.98440000  0.29410000  0.07880000  1.0 0.1505387677
C  C188  1  0.01560000  0.29410000  0.92120000  1.0 0.1505387677
C  C189  1  0.70590000  0.07880000  0.01560000  1.0 0.1505387677
C  C190  1  0.70590000  0.92120000  0.98440000  1.0 0.1505387677
C  C191  1  0.29410000  0.07880000  0.98440000  1.0 0.1505387677
C  C192  1  0.29410000  0.92120000  0.01560000  1.0 0.1505387677
N  N1  1  0.52340000  0.51440000  0.20300000  1.0 -0.1113331545
N  N2  1  0.47660000  0.48560000  0.20300000  1.0 -0.1113331545
N  N3  1  0.47660000  0.51440000  0.79700000  1.0 -0.1113331545
N  N4  1  0.52340000  0.48560000  0.79700000  1.0 -0.1113331545
N  N5  1  0.20300000  0.52340000  0.51440000  1.0 -0.1113331545
N  N6  1  0.20300000  0.47660000  0.48560000  1.0 -0.1113331545
N  N7  1  0.79700000  0.47660000  0.51440000  1.0 -0.1113331545
N  N8  1  0.79700000  0.52340000  0.48560000  1.0 -0.1113331545
N  N9  1  0.51440000  0.20300000  0.52340000  1.0 -0.1113331545
N  N10  1  0.48560000  0.20300000  0.47660000  1.0 -0.1113331545
N  N11  1  0.51440000  0.79700000  0.47660000  1.0 -0.1113331545
N  N12  1  0.48560000  0.79700000  0.52340000  1.0 -0.1113331545
N  N13  1  0.01440000  0.02340000  0.70300000  1.0 -0.1113331545
N  N14  1  0.98560000  0.97660000  0.70300000  1.0 -0.1113331545
N  N15  1  0.01440000  0.97660000  0.29700000  1.0 -0.1113331545
N  N16  1  0.98560000  0.02340000  0.29700000  1.0 -0.1113331545
N  N17  1  0.02340000  0.70300000  0.01440000  1.0 -0.1113331545
N  N18  1  0.97660000  0.70300000  0.98560000  1.0 -0.1113331545
N  N19  1  0.97660000  0.29700000  0.01440000  1.0 -0.1113331545
N  N20  1  0.02340000  0.29700000  0.98560000  1.0 -0.1113331545
N  N21  1  0.70300000  0.01440000  0.02340000  1.0 -0.1113331545
N  N22  1  0.70300000  0.98560000  0.97660000  1.0 -0.1113331545
N  N23  1  0.29700000  0.01440000  0.97660000  1.0 -0.1113331545
N  N24  1  0.29700000  0.98560000  0.02340000  1.0 -0.1113331545
O  O1  1  0.25902000  0.74098000  0.25902000  1.0 -0.7980925128
O  O2  1  0.74098000  0.25902000  0.25902000  1.0 -0.7980925128
O  O3  1  0.74098000  0.74098000  0.74098000  1.0 -0.7980925128
O  O4  1  0.25902000  0.25902000  0.74098000  1.0 -0.7980925128
O  O5  1  0.24098000  0.75902000  0.75902000  1.0 -0.7980925128
O  O6  1  0.75902000  0.24098000  0.75902000  1.0 -0.7980925128
O  O7  1  0.24098000  0.24098000  0.24098000  1.0 -0.7980925128
O  O8  1  0.75902000  0.75902000  0.24098000  1.0 -0.7980925128
O  O9  1  0.35042000  0.66783000  0.20430000  1.0 -0.5325949649
O  O10  1  0.64958000  0.33217000  0.20430000  1.0 -0.5325949649
O  O11  1  0.64958000  0.66783000  0.79570000  1.0 -0.5325949649
O  O12  1  0.35042000  0.33217000  0.79570000  1.0 -0.5325949649
O  O13  1  0.20430000  0.35042000  0.66783000  1.0 -0.5325949649
O  O14  1  0.20430000  0.64958000  0.33217000  1.0 -0.5325949649
O  O15  1  0.79570000  0.64958000  0.66783000  1.0 -0.5325949649
O  O16  1  0.79570000  0.35042000  0.33217000  1.0 -0.5325949649
O  O17  1  0.66783000  0.20430000  0.35042000  1.0 -0.5325949649
O  O18  1  0.33217000  0.20430000  0.64958000  1.0 -0.5325949649
O  O19  1  0.66783000  0.79570000  0.64958000  1.0 -0.5325949649
O  O20  1  0.33217000  0.79570000  0.35042000  1.0 -0.5325949649
O  O21  1  0.16783000  0.85042000  0.70430000  1.0 -0.5325949649
O  O22  1  0.83217000  0.14958000  0.70430000  1.0 -0.5325949649
O  O23  1  0.16783000  0.14958000  0.29570000  1.0 -0.5325949649
O  O24  1  0.83217000  0.85042000  0.29570000  1.0 -0.5325949649
O  O25  1  0.85042000  0.70430000  0.16783000  1.0 -0.5325949649
O  O26  1  0.14958000  0.70430000  0.83217000  1.0 -0.5325949649
O  O27  1  0.14958000  0.29570000  0.16783000  1.0 -0.5325949649
O  O28  1  0.85042000  0.29570000  0.83217000  1.0 -0.5325949649
O  O29  1  0.70430000  0.16783000  0.85042000  1.0 -0.5325949649
O  O30  1  0.70430000  0.83217000  0.14958000  1.0 -0.5325949649
O  O31  1  0.29570000  0.16783000  0.14958000  1.0 -0.5325949649
O  O32  1  0.29570000  0.83217000  0.85042000  1.0 -0.5325949649
O  O33  1  0.39307000  0.75229000  0.24362000  1.0 -0.5400518611
O  O34  1  0.60693000  0.24771000  0.24362000  1.0 -0.5400518611
O  O35  1  0.60693000  0.75229000  0.75638000  1.0 -0.5400518611
O  O36  1  0.39307000  0.24771000  0.75638000  1.0 -0.5400518611
O  O37  1  0.24362000  0.39307000  0.75229000  1.0 -0.5400518611
O  O38  1  0.24362000  0.60693000  0.24771000  1.0 -0.5400518611
O  O39  1  0.75638000  0.60693000  0.75229000  1.0 -0.5400518611
O  O40  1  0.75638000  0.39307000  0.24771000  1.0 -0.5400518611
O  O41  1  0.75229000  0.24362000  0.39307000  1.0 -0.5400518611
O  O42  1  0.24771000  0.24362000  0.60693000  1.0 -0.5400518611
O  O43  1  0.75229000  0.75638000  0.60693000  1.0 -0.5400518611
O  O44  1  0.24771000  0.75638000  0.39307000  1.0 -0.5400518611
O  O45  1  0.25229000  0.89307000  0.74362000  1.0 -0.5400518611
O  O46  1  0.74771000  0.10693000  0.74362000  1.0 -0.5400518611
O  O47  1  0.25229000  0.10693000  0.25638000  1.0 -0.5400518611
O  O48  1  0.74771000  0.89307000  0.25638000  1.0 -0.5400518611
O  O49  1  0.89307000  0.74362000  0.25229000  1.0 -0.5400518611
O  O50  1  0.10693000  0.74362000  0.74771000  1.0 -0.5400518611
O  O51  1  0.10693000  0.25638000  0.25229000  1.0 -0.5400518611
O  O52  1  0.89307000  0.25638000  0.74771000  1.0 -0.5400518611
O  O53  1  0.74362000  0.25229000  0.89307000  1.0 -0.5400518611
O  O54  1  0.74362000  0.74771000  0.10693000  1.0 -0.5400518611
O  O55  1  0.25638000  0.25229000  0.10693000  1.0 -0.5400518611
O  O56  1  0.25638000  0.74771000  0.89307000  1.0 -0.5400518611
O  O57  1  0.62480000  0.76488000  0.22530000  1.0 -0.5233981296
O  O58  1  0.37520000  0.23512000  0.22530000  1.0 -0.5233981296
O  O59  1  0.37520000  0.76488000  0.77470000  1.0 -0.5233981296
O  O60  1  0.62480000  0.23512000  0.77470000  1.0 -0.5233981296
O  O61  1  0.22530000  0.62480000  0.76488000  1.0 -0.5233981296
O  O62  1  0.22530000  0.37520000  0.23512000  1.0 -0.5233981296
O  O63  1  0.77470000  0.37520000  0.76488000  1.0 -0.5233981296
O  O64  1  0.77470000  0.62480000  0.23512000  1.0 -0.5233981296
O  O65  1  0.76488000  0.22530000  0.62480000  1.0 -0.5233981296
O  O66  1  0.23512000  0.22530000  0.37520000  1.0 -0.5233981296
O  O67  1  0.76488000  0.77470000  0.37520000  1.0 -0.5233981296
O  O68  1  0.23512000  0.77470000  0.62480000  1.0 -0.5233981296
O  O69  1  0.26488000  0.12480000  0.72530000  1.0 -0.5233981296
O  O70  1  0.73512000  0.87520000  0.72530000  1.0 -0.5233981296
O  O71  1  0.26488000  0.87520000  0.27470000  1.0 -0.5233981296
O  O72  1  0.73512000  0.12480000  0.27470000  1.0 -0.5233981296
O  O73  1  0.12480000  0.72530000  0.26488000  1.0 -0.5233981296
O  O74  1  0.87520000  0.72530000  0.73512000  1.0 -0.5233981296
O  O75  1  0.87520000  0.27470000  0.26488000  1.0 -0.5233981296
O  O76  1  0.12480000  0.27470000  0.73512000  1.0 -0.5233981296
O  O77  1  0.72530000  0.26488000  0.12480000  1.0 -0.5233981296
O  O78  1  0.72530000  0.73512000  0.87520000  1.0 -0.5233981296
O  O79  1  0.27470000  0.26488000  0.87520000  1.0 -0.5233981296
O  O80  1  0.27470000  0.73512000  0.12480000  1.0 -0.5233981296
O  O81  1  0.67076000  0.68110000  0.18830000  1.0 -0.5400518611
O  O82  1  0.32924000  0.31890000  0.18830000  1.0 -0.5400518611
O  O83  1  0.32924000  0.68110000  0.81170000  1.0 -0.5400518611
O  O84  1  0.67076000  0.31890000  0.81170000  1.0 -0.5400518611
O  O85  1  0.18830000  0.67076000  0.68110000  1.0 -0.5400518611
O  O86  1  0.18830000  0.32924000  0.31890000  1.0 -0.5400518611
O  O87  1  0.81170000  0.32924000  0.68110000  1.0 -0.5400518611
O  O88  1  0.81170000  0.67076000  0.31890000  1.0 -0.5400518611
O  O89  1  0.68110000  0.18830000  0.67076000  1.0 -0.5400518611
O  O90  1  0.31890000  0.18830000  0.32924000  1.0 -0.5400518611
O  O91  1  0.68110000  0.81170000  0.32924000  1.0 -0.5400518611
O  O92  1  0.31890000  0.81170000  0.67076000  1.0 -0.5400518611
O  O93  1  0.18110000  0.17076000  0.68830000  1.0 -0.5400518611
O  O94  1  0.81890000  0.82924000  0.68830000  1.0 -0.5400518611
O  O95  1  0.18110000  0.82924000  0.31170000  1.0 -0.5400518611
O  O96  1  0.81890000  0.17076000  0.31170000  1.0 -0.5400518611
O  O97  1  0.17076000  0.68830000  0.18110000  1.0 -0.5400518611
O  O98  1  0.82924000  0.68830000  0.81890000  1.0 -0.5400518611
O  O99  1  0.82924000  0.31170000  0.18110000  1.0 -0.5400518611
O  O100  1  0.17076000  0.31170000  0.81890000  1.0 -0.5400518611
O  O101  1  0.68830000  0.18110000  0.17076000  1.0 -0.5400518611
O  O102  1  0.68830000  0.81890000  0.82924000  1.0 -0.5400518611
O  O103  1  0.31170000  0.18110000  0.82924000  1.0 -0.5400518611
O  O104  1  0.31170000  0.81890000  0.17076000  1.0 -0.5400518611
