# DDEC6 charges by PACMAN v1.1 (https://github.com/mtap-research/PACMAN-charge/)
data_LICZIK_ASR_pacman
_symmetry_space_group_name_H-M   'P 1'
_cell_length_a   21.95250000
_cell_length_b   21.95250000
_cell_length_c   21.95250000
_cell_angle_alpha   90.00000000
_cell_angle_beta   90.00000000
_cell_angle_gamma   90.00000000
_symmetry_Int_Tables_number   1
_chemical_formula_structural   Fe3H9C24N3O13
_chemical_formula_sum   'Fe24 H72 C192 N24 O104'
_cell_volume   10579.17880533
_cell_formula_units_Z   8
loop_
 _symmetry_equiv_pos_site_id
 _symmetry_equiv_pos_as_xyz
  1  'x, y, z'
loop_
 _atom_site_type_symbol
 _atom_site_label
 _atom_site_symmetry_multiplicity
 _atom_site_fract_x
 _atom_site_fract_y
 _atom_site_fract_z
 _atom_site_occupancy
 _atom_site_charge
Fe  Fe1  1  0.30192000  0.23898000  0.81857000  1.0 1.2236752361
Fe  Fe2  1  0.69808000  0.76102000  0.81857000  1.0 1.2236752361
Fe  Fe3  1  0.69808000  0.23898000  0.18143000  1.0 1.2236752361
Fe  Fe4  1  0.30192000  0.76102000  0.18143000  1.0 1.2236752361
Fe  Fe5  1  0.81857000  0.30192000  0.23898000  1.0 1.2236752361
Fe  Fe6  1  0.81857000  0.69808000  0.76102000  1.0 1.2236752361
Fe  Fe7  1  0.18143000  0.69808000  0.23898000  1.0 1.2236752361
Fe  Fe8  1  0.18143000  0.30192000  0.76102000  1.0 1.2236752361
Fe  Fe9  1  0.23898000  0.81857000  0.30192000  1.0 1.2236752361
Fe  Fe10  1  0.76102000  0.81857000  0.69808000  1.0 1.2236752361
Fe  Fe11  1  0.23898000  0.18143000  0.69808000  1.0 1.2236752361
Fe  Fe12  1  0.76102000  0.18143000  0.30192000  1.0 1.2236752361
Fe  Fe13  1  0.73898000  0.80192000  0.31857000  1.0 1.2236752361
Fe  Fe14  1  0.26102000  0.19808000  0.31857000  1.0 1.2236752361
Fe  Fe15  1  0.73898000  0.19808000  0.68143000  1.0 1.2236752361
Fe  Fe16  1  0.26102000  0.80192000  0.68143000  1.0 1.2236752361
Fe  Fe17  1  0.80192000  0.31857000  0.73898000  1.0 1.2236752361
Fe  Fe18  1  0.19808000  0.31857000  0.26102000  1.0 1.2236752361
Fe  Fe19  1  0.19808000  0.68143000  0.73898000  1.0 1.2236752361
Fe  Fe20  1  0.80192000  0.68143000  0.26102000  1.0 1.2236752361
Fe  Fe21  1  0.31857000  0.73898000  0.80192000  1.0 1.2236752361
Fe  Fe22  1  0.31857000  0.26102000  0.19808000  1.0 1.2236752361
Fe  Fe23  1  0.68143000  0.73898000  0.19808000  1.0 1.2236752361
Fe  Fe24  1  0.68143000  0.26102000  0.80192000  1.0 1.2236752361
H  H1  1  0.25428000  0.49044000  0.77804000  1.0 0.1387324175
H  H2  1  0.74572000  0.50956000  0.77804000  1.0 0.1387324175
H  H3  1  0.74572000  0.49044000  0.22196000  1.0 0.1387324175
H  H4  1  0.25428000  0.50956000  0.22196000  1.0 0.1387324175
H  H5  1  0.77804000  0.25428000  0.49044000  1.0 0.1387324175
H  H6  1  0.77804000  0.74572000  0.50956000  1.0 0.1387324175
H  H7  1  0.22196000  0.74572000  0.49044000  1.0 0.1387324175
H  H8  1  0.22196000  0.25428000  0.50956000  1.0 0.1387324175
H  H9  1  0.49044000  0.77804000  0.25428000  1.0 0.1387324175
H  H10  1  0.50956000  0.77804000  0.74572000  1.0 0.1387324175
H  H11  1  0.49044000  0.22196000  0.74572000  1.0 0.1387324175
H  H12  1  0.50956000  0.22196000  0.25428000  1.0 0.1387324175
H  H13  1  0.99044000  0.75428000  0.27804000  1.0 0.1387324175
H  H14  1  0.00956000  0.24572000  0.27804000  1.0 0.1387324175
H  H15  1  0.99044000  0.24572000  0.72196000  1.0 0.1387324175
H  H16  1  0.00956000  0.75428000  0.72196000  1.0 0.1387324175
H  H17  1  0.75428000  0.27804000  0.99044000  1.0 0.1387324175
H  H18  1  0.24572000  0.27804000  0.00956000  1.0 0.1387324175
H  H19  1  0.24572000  0.72196000  0.99044000  1.0 0.1387324175
H  H20  1  0.75428000  0.72196000  0.00956000  1.0 0.1387324175
H  H21  1  0.27804000  0.99044000  0.75428000  1.0 0.1387324175
H  H22  1  0.27804000  0.00956000  0.24572000  1.0 0.1387324175
H  H23  1  0.72196000  0.99044000  0.24572000  1.0 0.1387324175
H  H24  1  0.72196000  0.00956000  0.75428000  1.0 0.1387324175
H  H25  1  0.41655000  0.57492000  0.79099000  1.0 0.1340198455
H  H26  1  0.58345000  0.42508000  0.79099000  1.0 0.1340198455
H  H27  1  0.58345000  0.57492000  0.20901000  1.0 0.1340198455
H  H28  1  0.41655000  0.42508000  0.20901000  1.0 0.1340198455
H  H29  1  0.79099000  0.41655000  0.57492000  1.0 0.1340198455
H  H30  1  0.79099000  0.58345000  0.42508000  1.0 0.1340198455
H  H31  1  0.20901000  0.58345000  0.57492000  1.0 0.1340198455
H  H32  1  0.20901000  0.41655000  0.42508000  1.0 0.1340198455
H  H33  1  0.57492000  0.79099000  0.41655000  1.0 0.1340198455
H  H34  1  0.42508000  0.79099000  0.58345000  1.0 0.1340198455
H  H35  1  0.57492000  0.20901000  0.58345000  1.0 0.1340198455
H  H36  1  0.42508000  0.20901000  0.41655000  1.0 0.1340198455
H  H37  1  0.07492000  0.91655000  0.29099000  1.0 0.1340198455
H  H38  1  0.92508000  0.08345000  0.29099000  1.0 0.1340198455
H  H39  1  0.07492000  0.08345000  0.70901000  1.0 0.1340198455
H  H40  1  0.92508000  0.91655000  0.70901000  1.0 0.1340198455
H  H41  1  0.91655000  0.29099000  0.07492000  1.0 0.1340198455
H  H42  1  0.08345000  0.29099000  0.92508000  1.0 0.1340198455
H  H43  1  0.08345000  0.70901000  0.07492000  1.0 0.1340198455
H  H44  1  0.91655000  0.70901000  0.92508000  1.0 0.1340198455
H  H45  1  0.29099000  0.07492000  0.91655000  1.0 0.1340198455
H  H46  1  0.29099000  0.92508000  0.08345000  1.0 0.1340198455
H  H47  1  0.70901000  0.07492000  0.08345000  1.0 0.1340198455
H  H48  1  0.70901000  0.92508000  0.91655000  1.0 0.1340198455
H  H49  1  0.40766000  0.39409000  0.80128000  1.0 0.1387324175
H  H50  1  0.59234000  0.60591000  0.80128000  1.0 0.1387324175
H  H51  1  0.59234000  0.39409000  0.19872000  1.0 0.1387324175
H  H52  1  0.40766000  0.60591000  0.19872000  1.0 0.1387324175
H  H53  1  0.80128000  0.40766000  0.39409000  1.0 0.1387324175
H  H54  1  0.80128000  0.59234000  0.60591000  1.0 0.1387324175
H  H55  1  0.19872000  0.59234000  0.39409000  1.0 0.1387324175
H  H56  1  0.19872000  0.40766000  0.60591000  1.0 0.1387324175
H  H57  1  0.39409000  0.80128000  0.40766000  1.0 0.1387324175
H  H58  1  0.60591000  0.80128000  0.59234000  1.0 0.1387324175
H  H59  1  0.39409000  0.19872000  0.59234000  1.0 0.1387324175
H  H60  1  0.60591000  0.19872000  0.40766000  1.0 0.1387324175
H  H61  1  0.89409000  0.90766000  0.30128000  1.0 0.1387324175
H  H62  1  0.10591000  0.09234000  0.30128000  1.0 0.1387324175
H  H63  1  0.89409000  0.09234000  0.69872000  1.0 0.1387324175
H  H64  1  0.10591000  0.90766000  0.69872000  1.0 0.1387324175
H  H65  1  0.90766000  0.30128000  0.89409000  1.0 0.1387324175
H  H66  1  0.09234000  0.30128000  0.10591000  1.0 0.1387324175
H  H67  1  0.09234000  0.69872000  0.89409000  1.0 0.1387324175
H  H68  1  0.90766000  0.69872000  0.10591000  1.0 0.1387324175
H  H69  1  0.30128000  0.89409000  0.90766000  1.0 0.1387324175
H  H70  1  0.30128000  0.10591000  0.09234000  1.0 0.1387324175
H  H71  1  0.69872000  0.89409000  0.09234000  1.0 0.1387324175
H  H72  1  0.69872000  0.10591000  0.90766000  1.0 0.1387324175
C  C1  1  0.29620000  0.48890000  0.78380000  1.0 -0.0892250957
C  C2  1  0.70380000  0.51110000  0.78380000  1.0 -0.0892250957
C  C3  1  0.70380000  0.48890000  0.21620000  1.0 -0.0892250957
C  C4  1  0.29620000  0.51110000  0.21620000  1.0 -0.0892250957
C  C5  1  0.78380000  0.29620000  0.48890000  1.0 -0.0892250957
C  C6  1  0.78380000  0.70380000  0.51110000  1.0 -0.0892250957
C  C7  1  0.21620000  0.70380000  0.48890000  1.0 -0.0892250957
C  C8  1  0.21620000  0.29620000  0.51110000  1.0 -0.0892250957
C  C9  1  0.48890000  0.78380000  0.29620000  1.0 -0.0892250957
C  C10  1  0.51110000  0.78380000  0.70380000  1.0 -0.0892250957
C  C11  1  0.48890000  0.21620000  0.70380000  1.0 -0.0892250957
C  C12  1  0.51110000  0.21620000  0.29620000  1.0 -0.0892250957
C  C13  1  0.98890000  0.79620000  0.28380000  1.0 -0.0892250957
C  C14  1  0.01110000  0.20380000  0.28380000  1.0 -0.0892250957
C  C15  1  0.98890000  0.20380000  0.71620000  1.0 -0.0892250957
C  C16  1  0.01110000  0.79620000  0.71620000  1.0 -0.0892250957
C  C17  1  0.79620000  0.28380000  0.98890000  1.0 -0.0892250957
C  C18  1  0.20380000  0.28380000  0.01110000  1.0 -0.0892250957
C  C19  1  0.20380000  0.71620000  0.98890000  1.0 -0.0892250957
C  C20  1  0.79620000  0.71620000  0.01110000  1.0 -0.0892250957
C  C21  1  0.28380000  0.98890000  0.79620000  1.0 -0.0892250957
C  C22  1  0.28380000  0.01110000  0.20380000  1.0 -0.0892250957
C  C23  1  0.71620000  0.98890000  0.20380000  1.0 -0.0892250957
C  C24  1  0.71620000  0.01110000  0.79620000  1.0 -0.0892250957
C  C25  1  0.33020000  0.54280000  0.78390000  1.0 -0.0362723177
C  C26  1  0.66980000  0.45720000  0.78390000  1.0 -0.0362723177
C  C27  1  0.66980000  0.54280000  0.21610000  1.0 -0.0362723177
C  C28  1  0.33020000  0.45720000  0.21610000  1.0 -0.0362723177
C  C29  1  0.78390000  0.33020000  0.54280000  1.0 -0.0362723177
C  C30  1  0.78390000  0.66980000  0.45720000  1.0 -0.0362723177
C  C31  1  0.21610000  0.66980000  0.54280000  1.0 -0.0362723177
C  C32  1  0.21610000  0.33020000  0.45720000  1.0 -0.0362723177
C  C33  1  0.54280000  0.78390000  0.33020000  1.0 -0.0362723177
C  C34  1  0.45720000  0.78390000  0.66980000  1.0 -0.0362723177
C  C35  1  0.54280000  0.21610000  0.66980000  1.0 -0.0362723177
C  C36  1  0.45720000  0.21610000  0.33020000  1.0 -0.0362723177
C  C37  1  0.04280000  0.83020000  0.28390000  1.0 -0.0362723177
C  C38  1  0.95720000  0.16980000  0.28390000  1.0 -0.0362723177
C  C39  1  0.04280000  0.16980000  0.71610000  1.0 -0.0362723177
C  C40  1  0.95720000  0.83020000  0.71610000  1.0 -0.0362723177
C  C41  1  0.83020000  0.28390000  0.04280000  1.0 -0.0362723177
C  C42  1  0.16980000  0.28390000  0.95720000  1.0 -0.0362723177
C  C43  1  0.16980000  0.71610000  0.04280000  1.0 -0.0362723177
C  C44  1  0.83020000  0.71610000  0.95720000  1.0 -0.0362723177
C  C45  1  0.28390000  0.04280000  0.83020000  1.0 -0.0362723177
C  C46  1  0.28390000  0.95720000  0.16980000  1.0 -0.0362723177
C  C47  1  0.71610000  0.04280000  0.16980000  1.0 -0.0362723177
C  C48  1  0.71610000  0.95720000  0.83020000  1.0 -0.0362723177
C  C49  1  0.30170000  0.60300000  0.77770000  1.0 0.6014713496
C  C50  1  0.69830000  0.39700000  0.77770000  1.0 0.6014713496
C  C51  1  0.69830000  0.60300000  0.22230000  1.0 0.6014713496
C  C52  1  0.30170000  0.39700000  0.22230000  1.0 0.6014713496
C  C53  1  0.77770000  0.30170000  0.60300000  1.0 0.6014713496
C  C54  1  0.77770000  0.69830000  0.39700000  1.0 0.6014713496
C  C55  1  0.22230000  0.69830000  0.60300000  1.0 0.6014713496
C  C56  1  0.22230000  0.30170000  0.39700000  1.0 0.6014713496
C  C57  1  0.60300000  0.77770000  0.30170000  1.0 0.6014713496
C  C58  1  0.39700000  0.77770000  0.69830000  1.0 0.6014713496
C  C59  1  0.60300000  0.22230000  0.69830000  1.0 0.6014713496
C  C60  1  0.39700000  0.22230000  0.30170000  1.0 0.6014713496
C  C61  1  0.10300000  0.80170000  0.27770000  1.0 0.6014713496
C  C62  1  0.89700000  0.19830000  0.27770000  1.0 0.6014713496
C  C63  1  0.10300000  0.19830000  0.72230000  1.0 0.6014713496
C  C64  1  0.89700000  0.80170000  0.72230000  1.0 0.6014713496
C  C65  1  0.80170000  0.27770000  0.10300000  1.0 0.6014713496
C  C66  1  0.19830000  0.27770000  0.89700000  1.0 0.6014713496
C  C67  1  0.19830000  0.72230000  0.10300000  1.0 0.6014713496
C  C68  1  0.80170000  0.72230000  0.89700000  1.0 0.6014713496
C  C69  1  0.27770000  0.10300000  0.80170000  1.0 0.6014713496
C  C70  1  0.27770000  0.89700000  0.19830000  1.0 0.6014713496
C  C71  1  0.72230000  0.10300000  0.19830000  1.0 0.6014713496
C  C72  1  0.72230000  0.89700000  0.80170000  1.0 0.6014713496
C  C73  1  0.32470000  0.43320000  0.79210000  1.0 -0.0170195642
C  C74  1  0.67530000  0.56680000  0.79210000  1.0 -0.0170195642
C  C75  1  0.67530000  0.43320000  0.20790000  1.0 -0.0170195642
C  C76  1  0.32470000  0.56680000  0.20790000  1.0 -0.0170195642
C  C77  1  0.79210000  0.32470000  0.43320000  1.0 -0.0170195642
C  C78  1  0.79210000  0.67530000  0.56680000  1.0 -0.0170195642
C  C79  1  0.20790000  0.67530000  0.43320000  1.0 -0.0170195642
C  C80  1  0.20790000  0.32470000  0.56680000  1.0 -0.0170195642
C  C81  1  0.43320000  0.79210000  0.32470000  1.0 -0.0170195642
C  C82  1  0.56680000  0.79210000  0.67530000  1.0 -0.0170195642
C  C83  1  0.43320000  0.20790000  0.67530000  1.0 -0.0170195642
C  C84  1  0.56680000  0.20790000  0.32470000  1.0 -0.0170195642
C  C85  1  0.93320000  0.82470000  0.29210000  1.0 -0.0170195642
C  C86  1  0.06680000  0.17530000  0.29210000  1.0 -0.0170195642
C  C87  1  0.93320000  0.17530000  0.70790000  1.0 -0.0170195642
C  C88  1  0.06680000  0.82470000  0.70790000  1.0 -0.0170195642
C  C89  1  0.82470000  0.29210000  0.93320000  1.0 -0.0170195642
C  C90  1  0.17530000  0.29210000  0.06680000  1.0 -0.0170195642
C  C91  1  0.17530000  0.70790000  0.93320000  1.0 -0.0170195642
C  C92  1  0.82470000  0.70790000  0.06680000  1.0 -0.0170195642
C  C93  1  0.29210000  0.93320000  0.82470000  1.0 -0.0170195642
C  C94  1  0.29210000  0.06680000  0.17530000  1.0 -0.0170195642
C  C95  1  0.70790000  0.93320000  0.17530000  1.0 -0.0170195642
C  C96  1  0.70790000  0.06680000  0.82470000  1.0 -0.0170195642
C  C97  1  0.29070000  0.37400000  0.79350000  1.0 0.6094671339
C  C98  1  0.70930000  0.62600000  0.79350000  1.0 0.6094671339
C  C99  1  0.70930000  0.37400000  0.20650000  1.0 0.6094671339
C  C100  1  0.29070000  0.62600000  0.20650000  1.0 0.6094671339
C  C101  1  0.79350000  0.29070000  0.37400000  1.0 0.6094671339
C  C102  1  0.79350000  0.70930000  0.62600000  1.0 0.6094671339
C  C103  1  0.20650000  0.70930000  0.37400000  1.0 0.6094671339
C  C104  1  0.20650000  0.29070000  0.62600000  1.0 0.6094671339
C  C105  1  0.37400000  0.79350000  0.29070000  1.0 0.6094671339
C  C106  1  0.62600000  0.79350000  0.70930000  1.0 0.6094671339
C  C107  1  0.37400000  0.20650000  0.70930000  1.0 0.6094671339
C  C108  1  0.62600000  0.20650000  0.29070000  1.0 0.6094671339
C  C109  1  0.87400000  0.79070000  0.29350000  1.0 0.6094671339
C  C110  1  0.12600000  0.20930000  0.29350000  1.0 0.6094671339
C  C111  1  0.87400000  0.20930000  0.70650000  1.0 0.6094671339
C  C112  1  0.12600000  0.79070000  0.70650000  1.0 0.6094671339
C  C113  1  0.79070000  0.29350000  0.87400000  1.0 0.6094671339
C  C114  1  0.20930000  0.29350000  0.12600000  1.0 0.6094671339
C  C115  1  0.20930000  0.70650000  0.87400000  1.0 0.6094671339
C  C116  1  0.79070000  0.70650000  0.12600000  1.0 0.6094671339
C  C117  1  0.29350000  0.87400000  0.79070000  1.0 0.6094671339
C  C118  1  0.29350000  0.12600000  0.20930000  1.0 0.6094671339
C  C119  1  0.70650000  0.87400000  0.20930000  1.0 0.6094671339
C  C120  1  0.70650000  0.12600000  0.79070000  1.0 0.6094671339
C  C121  1  0.39340000  0.53950000  0.79030000  1.0 -0.1377581426
C  C122  1  0.60660000  0.46050000  0.79030000  1.0 -0.1377581426
C  C123  1  0.60660000  0.53950000  0.20970000  1.0 -0.1377581426
C  C124  1  0.39340000  0.46050000  0.20970000  1.0 -0.1377581426
C  C125  1  0.79030000  0.39340000  0.53950000  1.0 -0.1377581426
C  C126  1  0.79030000  0.60660000  0.46050000  1.0 -0.1377581426
C  C127  1  0.20970000  0.60660000  0.53950000  1.0 -0.1377581426
C  C128  1  0.20970000  0.39340000  0.46050000  1.0 -0.1377581426
C  C129  1  0.53950000  0.79030000  0.39340000  1.0 -0.1377581426
C  C130  1  0.46050000  0.79030000  0.60660000  1.0 -0.1377581426
C  C131  1  0.53950000  0.20970000  0.60660000  1.0 -0.1377581426
C  C132  1  0.46050000  0.20970000  0.39340000  1.0 -0.1377581426
C  C133  1  0.03950000  0.89340000  0.29030000  1.0 -0.1377581426
C  C134  1  0.96050000  0.10660000  0.29030000  1.0 -0.1377581426
C  C135  1  0.03950000  0.10660000  0.70970000  1.0 -0.1377581426
C  C136  1  0.96050000  0.89340000  0.70970000  1.0 -0.1377581426
C  C137  1  0.89340000  0.29030000  0.03950000  1.0 -0.1377581426
C  C138  1  0.10660000  0.29030000  0.96050000  1.0 -0.1377581426
C  C139  1  0.10660000  0.70970000  0.03950000  1.0 -0.1377581426
C  C140  1  0.89340000  0.70970000  0.96050000  1.0 -0.1377581426
C  C141  1  0.29030000  0.03950000  0.89340000  1.0 -0.1377581426
C  C142  1  0.29030000  0.96050000  0.10660000  1.0 -0.1377581426
C  C143  1  0.70970000  0.03950000  0.10660000  1.0 -0.1377581426
C  C144  1  0.70970000  0.96050000  0.89340000  1.0 -0.1377581426
C  C145  1  0.42110000  0.48400000  0.79540000  1.0 0.1477690631
C  C146  1  0.57890000  0.51600000  0.79540000  1.0 0.1477690631
C  C147  1  0.57890000  0.48400000  0.20460000  1.0 0.1477690631
C  C148  1  0.42110000  0.51600000  0.20460000  1.0 0.1477690631
C  C149  1  0.79540000  0.42110000  0.48400000  1.0 0.1477690631
C  C150  1  0.79540000  0.57890000  0.51600000  1.0 0.1477690631
C  C151  1  0.20460000  0.57890000  0.48400000  1.0 0.1477690631
C  C152  1  0.20460000  0.42110000  0.51600000  1.0 0.1477690631
C  C153  1  0.48400000  0.79540000  0.42110000  1.0 0.1477690631
C  C154  1  0.51600000  0.79540000  0.57890000  1.0 0.1477690631
C  C155  1  0.48400000  0.20460000  0.57890000  1.0 0.1477690631
C  C156  1  0.51600000  0.20460000  0.42110000  1.0 0.1477690631
C  C157  1  0.98400000  0.92110000  0.29540000  1.0 0.1477690631
C  C158  1  0.01600000  0.07890000  0.29540000  1.0 0.1477690631
C  C159  1  0.98400000  0.07890000  0.70460000  1.0 0.1477690631
C  C160  1  0.01600000  0.92110000  0.70460000  1.0 0.1477690631
C  C161  1  0.92110000  0.29540000  0.98400000  1.0 0.1477690631
C  C162  1  0.07890000  0.29540000  0.01600000  1.0 0.1477690631
C  C163  1  0.07890000  0.70460000  0.98400000  1.0 0.1477690631
C  C164  1  0.92110000  0.70460000  0.01600000  1.0 0.1477690631
C  C165  1  0.29540000  0.98400000  0.92110000  1.0 0.1477690631
C  C166  1  0.29540000  0.01600000  0.07890000  1.0 0.1477690631
C  C167  1  0.70460000  0.98400000  0.07890000  1.0 0.1477690631
C  C168  1  0.70460000  0.01600000  0.92110000  1.0 0.1477690631
C  C169  1  0.38790000  0.43130000  0.79700000  1.0 -0.1377581426
C  C170  1  0.61210000  0.56870000  0.79700000  1.0 -0.1377581426
C  C171  1  0.61210000  0.43130000  0.20300000  1.0 -0.1377581426
C  C172  1  0.38790000  0.56870000  0.20300000  1.0 -0.1377581426
C  C173  1  0.79700000  0.38790000  0.43130000  1.0 -0.1377581426
C  C174  1  0.79700000  0.61210000  0.56870000  1.0 -0.1377581426
C  C175  1  0.20300000  0.61210000  0.43130000  1.0 -0.1377581426
C  C176  1  0.20300000  0.38790000  0.56870000  1.0 -0.1377581426
C  C177  1  0.43130000  0.79700000  0.38790000  1.0 -0.1377581426
C  C178  1  0.56870000  0.79700000  0.61210000  1.0 -0.1377581426
C  C179  1  0.43130000  0.20300000  0.61210000  1.0 -0.1377581426
C  C180  1  0.56870000  0.20300000  0.38790000  1.0 -0.1377581426
C  C181  1  0.93130000  0.88790000  0.29700000  1.0 -0.1377581426
C  C182  1  0.06870000  0.11210000  0.29700000  1.0 -0.1377581426
C  C183  1  0.93130000  0.11210000  0.70300000  1.0 -0.1377581426
C  C184  1  0.06870000  0.88790000  0.70300000  1.0 -0.1377581426
C  C185  1  0.88790000  0.29700000  0.93130000  1.0 -0.1377581426
C  C186  1  0.11210000  0.29700000  0.06870000  1.0 -0.1377581426
C  C187  1  0.11210000  0.70300000  0.93130000  1.0 -0.1377581426
C  C188  1  0.88790000  0.70300000  0.06870000  1.0 -0.1377581426
C  C189  1  0.29700000  0.93130000  0.88790000  1.0 -0.1377581426
C  C190  1  0.29700000  0.06870000  0.11210000  1.0 -0.1377581426
C  C191  1  0.70300000  0.93130000  0.11210000  1.0 -0.1377581426
C  C192  1  0.70300000  0.06870000  0.88790000  1.0 -0.1377581426
N  N1  1  0.48580000  0.47600000  0.79910000  1.0 -0.1122827362
N  N2  1  0.51420000  0.52400000  0.79910000  1.0 -0.1122827362
N  N3  1  0.51420000  0.47600000  0.20090000  1.0 -0.1122827362
N  N4  1  0.48580000  0.52400000  0.20090000  1.0 -0.1122827362
N  N5  1  0.79910000  0.48580000  0.47600000  1.0 -0.1122827362
N  N6  1  0.79910000  0.51420000  0.52400000  1.0 -0.1122827362
N  N7  1  0.20090000  0.51420000  0.47600000  1.0 -0.1122827362
N  N8  1  0.20090000  0.48580000  0.52400000  1.0 -0.1122827362
N  N9  1  0.47600000  0.79910000  0.48580000  1.0 -0.1122827362
N  N10  1  0.52400000  0.79910000  0.51420000  1.0 -0.1122827362
N  N11  1  0.47600000  0.20090000  0.51420000  1.0 -0.1122827362
N  N12  1  0.52400000  0.20090000  0.48580000  1.0 -0.1122827362
N  N13  1  0.97600000  0.98580000  0.29910000  1.0 -0.1122827362
N  N14  1  0.02400000  0.01420000  0.29910000  1.0 -0.1122827362
N  N15  1  0.97600000  0.01420000  0.70090000  1.0 -0.1122827362
N  N16  1  0.02400000  0.98580000  0.70090000  1.0 -0.1122827362
N  N17  1  0.98580000  0.29910000  0.97600000  1.0 -0.1122827362
N  N18  1  0.01420000  0.29910000  0.02400000  1.0 -0.1122827362
N  N19  1  0.01420000  0.70090000  0.97600000  1.0 -0.1122827362
N  N20  1  0.98580000  0.70090000  0.02400000  1.0 -0.1122827362
N  N21  1  0.29910000  0.97600000  0.98580000  1.0 -0.1122827362
N  N22  1  0.29910000  0.02400000  0.01420000  1.0 -0.1122827362
N  N23  1  0.70090000  0.97600000  0.01420000  1.0 -0.1122827362
N  N24  1  0.70090000  0.02400000  0.98580000  1.0 -0.1122827362
O  O1  1  0.24053000  0.24053000  0.75947000  1.0 -0.8770619183
O  O2  1  0.75947000  0.75947000  0.75947000  1.0 -0.8770619183
O  O3  1  0.75947000  0.24053000  0.24053000  1.0 -0.8770619183
O  O4  1  0.24053000  0.75947000  0.24053000  1.0 -0.8770619183
O  O5  1  0.74053000  0.74053000  0.25947000  1.0 -0.8770619183
O  O6  1  0.25947000  0.25947000  0.25947000  1.0 -0.8770619183
O  O7  1  0.74053000  0.25947000  0.74053000  1.0 -0.8770619183
O  O8  1  0.25947000  0.74053000  0.74053000  1.0 -0.8770619183
O  O9  1  0.33343000  0.64876000  0.79440000  1.0 -0.5488749022
O  O10  1  0.66657000  0.35124000  0.79440000  1.0 -0.5488749022
O  O11  1  0.66657000  0.64876000  0.20560000  1.0 -0.5488749022
O  O12  1  0.33343000  0.35124000  0.20560000  1.0 -0.5488749022
O  O13  1  0.79440000  0.33343000  0.64876000  1.0 -0.5488749022
O  O14  1  0.79440000  0.66657000  0.35124000  1.0 -0.5488749022
O  O15  1  0.20560000  0.66657000  0.64876000  1.0 -0.5488749022
O  O16  1  0.20560000  0.33343000  0.35124000  1.0 -0.5488749022
O  O17  1  0.64876000  0.79440000  0.33343000  1.0 -0.5488749022
O  O18  1  0.35124000  0.79440000  0.66657000  1.0 -0.5488749022
O  O19  1  0.64876000  0.20560000  0.66657000  1.0 -0.5488749022
O  O20  1  0.35124000  0.20560000  0.33343000  1.0 -0.5488749022
O  O21  1  0.14876000  0.83343000  0.29440000  1.0 -0.5488749022
O  O22  1  0.85124000  0.16657000  0.29440000  1.0 -0.5488749022
O  O23  1  0.14876000  0.16657000  0.70560000  1.0 -0.5488749022
O  O24  1  0.85124000  0.83343000  0.70560000  1.0 -0.5488749022
O  O25  1  0.83343000  0.29440000  0.14876000  1.0 -0.5488749022
O  O26  1  0.16657000  0.29440000  0.85124000  1.0 -0.5488749022
O  O27  1  0.16657000  0.70560000  0.14876000  1.0 -0.5488749022
O  O28  1  0.83343000  0.70560000  0.85124000  1.0 -0.5488749022
O  O29  1  0.29440000  0.14876000  0.83343000  1.0 -0.5488749022
O  O30  1  0.29440000  0.85124000  0.16657000  1.0 -0.5488749022
O  O31  1  0.70560000  0.14876000  0.16657000  1.0 -0.5488749022
O  O32  1  0.70560000  0.85124000  0.83343000  1.0 -0.5488749022
O  O33  1  0.24891000  0.60612000  0.75577000  1.0 -0.5367238434
O  O34  1  0.75109000  0.39388000  0.75577000  1.0 -0.5367238434
O  O35  1  0.75109000  0.60612000  0.24423000  1.0 -0.5367238434
O  O36  1  0.24891000  0.39388000  0.24423000  1.0 -0.5367238434
O  O37  1  0.75577000  0.24891000  0.60612000  1.0 -0.5367238434
O  O38  1  0.75577000  0.75109000  0.39388000  1.0 -0.5367238434
O  O39  1  0.24423000  0.75109000  0.60612000  1.0 -0.5367238434
O  O40  1  0.24423000  0.24891000  0.39388000  1.0 -0.5367238434
O  O41  1  0.60612000  0.75577000  0.24891000  1.0 -0.5367238434
O  O42  1  0.39388000  0.75577000  0.75109000  1.0 -0.5367238434
O  O43  1  0.60612000  0.24423000  0.75109000  1.0 -0.5367238434
O  O44  1  0.39388000  0.24423000  0.24891000  1.0 -0.5367238434
O  O45  1  0.10612000  0.74891000  0.25577000  1.0 -0.5367238434
O  O46  1  0.89388000  0.25109000  0.25577000  1.0 -0.5367238434
O  O47  1  0.10612000  0.25109000  0.74423000  1.0 -0.5367238434
O  O48  1  0.89388000  0.74891000  0.74423000  1.0 -0.5367238434
O  O49  1  0.74891000  0.25577000  0.10612000  1.0 -0.5367238434
O  O50  1  0.25109000  0.25577000  0.89388000  1.0 -0.5367238434
O  O51  1  0.25109000  0.74423000  0.10612000  1.0 -0.5367238434
O  O52  1  0.74891000  0.74423000  0.89388000  1.0 -0.5367238434
O  O53  1  0.25577000  0.10612000  0.74891000  1.0 -0.5367238434
O  O54  1  0.25577000  0.89388000  0.25109000  1.0 -0.5367238434
O  O55  1  0.74423000  0.10612000  0.25109000  1.0 -0.5367238434
O  O56  1  0.74423000  0.89388000  0.74891000  1.0 -0.5367238434
O  O57  1  0.31987000  0.32828000  0.81250000  1.0 -0.5488749022
O  O58  1  0.68013000  0.67172000  0.81250000  1.0 -0.5488749022
O  O59  1  0.68013000  0.32828000  0.18750000  1.0 -0.5488749022
O  O60  1  0.31987000  0.67172000  0.18750000  1.0 -0.5488749022
O  O61  1  0.81250000  0.31987000  0.32828000  1.0 -0.5488749022
O  O62  1  0.81250000  0.68013000  0.67172000  1.0 -0.5488749022
O  O63  1  0.18750000  0.68013000  0.32828000  1.0 -0.5488749022
O  O64  1  0.18750000  0.31987000  0.67172000  1.0 -0.5488749022
O  O65  1  0.32828000  0.81250000  0.31987000  1.0 -0.5488749022
O  O66  1  0.67172000  0.81250000  0.68013000  1.0 -0.5488749022
O  O67  1  0.32828000  0.18750000  0.68013000  1.0 -0.5488749022
O  O68  1  0.67172000  0.18750000  0.31987000  1.0 -0.5488749022
O  O69  1  0.82828000  0.81987000  0.31250000  1.0 -0.5488749022
O  O70  1  0.17172000  0.18013000  0.31250000  1.0 -0.5488749022
O  O71  1  0.82828000  0.18013000  0.68750000  1.0 -0.5488749022
O  O72  1  0.17172000  0.81987000  0.68750000  1.0 -0.5488749022
O  O73  1  0.81987000  0.31250000  0.82828000  1.0 -0.5488749022
O  O74  1  0.18013000  0.31250000  0.17172000  1.0 -0.5488749022
O  O75  1  0.18013000  0.68750000  0.82828000  1.0 -0.5488749022
O  O76  1  0.81987000  0.68750000  0.17172000  1.0 -0.5488749022
O  O77  1  0.31250000  0.82828000  0.81987000  1.0 -0.5488749022
O  O78  1  0.31250000  0.17172000  0.18013000  1.0 -0.5488749022
O  O79  1  0.68750000  0.82828000  0.18013000  1.0 -0.5488749022
O  O80  1  0.68750000  0.17172000  0.81987000  1.0 -0.5488749022
O  O81  1  0.23582000  0.37491000  0.77590000  1.0 -0.5367238434
O  O82  1  0.76418000  0.62509000  0.77590000  1.0 -0.5367238434
O  O83  1  0.76418000  0.37491000  0.22410000  1.0 -0.5367238434
O  O84  1  0.23582000  0.62509000  0.22410000  1.0 -0.5367238434
O  O85  1  0.77590000  0.23582000  0.37491000  1.0 -0.5367238434
O  O86  1  0.77590000  0.76418000  0.62509000  1.0 -0.5367238434
O  O87  1  0.22410000  0.76418000  0.37491000  1.0 -0.5367238434
O  O88  1  0.22410000  0.23582000  0.62509000  1.0 -0.5367238434
O  O89  1  0.37491000  0.77590000  0.23582000  1.0 -0.5367238434
O  O90  1  0.62509000  0.77590000  0.76418000  1.0 -0.5367238434
O  O91  1  0.37491000  0.22410000  0.76418000  1.0 -0.5367238434
O  O92  1  0.62509000  0.22410000  0.23582000  1.0 -0.5367238434
O  O93  1  0.87491000  0.73582000  0.27590000  1.0 -0.5367238434
O  O94  1  0.12509000  0.26418000  0.27590000  1.0 -0.5367238434
O  O95  1  0.87491000  0.26418000  0.72410000  1.0 -0.5367238434
O  O96  1  0.12509000  0.73582000  0.72410000  1.0 -0.5367238434
O  O97  1  0.73582000  0.27590000  0.87491000  1.0 -0.5367238434
O  O98  1  0.26418000  0.27590000  0.12509000  1.0 -0.5367238434
O  O99  1  0.26418000  0.72410000  0.87491000  1.0 -0.5367238434
O  O100  1  0.73582000  0.72410000  0.12509000  1.0 -0.5367238434
O  O101  1  0.27590000  0.87491000  0.73582000  1.0 -0.5367238434
O  O102  1  0.27590000  0.12509000  0.26418000  1.0 -0.5367238434
O  O103  1  0.72410000  0.87491000  0.26418000  1.0 -0.5367238434
O  O104  1  0.72410000  0.12509000  0.73582000  1.0 -0.5367238434
