# DDEC6 charges by PACMAN v1.1 (https://github.com/mtap-research/PACMAN-charge/)
data_LIDBUZ_ASR_pacman
_symmetry_space_group_name_H-M   'P 1'
_cell_length_a   21.89550000
_cell_length_b   21.89550000
_cell_length_c   21.89550000
_cell_angle_alpha   90.00000000
_cell_angle_beta   90.00000000
_cell_angle_gamma   90.00000000
_symmetry_Int_Tables_number   1
_chemical_formula_structural   Fe3H9C24N3O13
_chemical_formula_sum   'Fe24 H72 C192 N24 O104'
_cell_volume   10496.98559533
_cell_formula_units_Z   8
loop_
 _symmetry_equiv_pos_site_id
 _symmetry_equiv_pos_as_xyz
  1  'x, y, z'
loop_
 _atom_site_type_symbol
 _atom_site_label
 _atom_site_symmetry_multiplicity
 _atom_site_fract_x
 _atom_site_fract_y
 _atom_site_fract_z
 _atom_site_occupancy
 _atom_site_charge
Fe  Fe1  1  0.81830000  0.23928000  0.30206000  1.0 1.1777606239
Fe  Fe2  1  0.18170000  0.76072000  0.30206000  1.0 1.1777606239
Fe  Fe3  1  0.18170000  0.23928000  0.69794000  1.0 1.1777606239
Fe  Fe4  1  0.81830000  0.76072000  0.69794000  1.0 1.1777606239
Fe  Fe5  1  0.30206000  0.81830000  0.23928000  1.0 1.1777606239
Fe  Fe6  1  0.30206000  0.18170000  0.76072000  1.0 1.1777606239
Fe  Fe7  1  0.69794000  0.18170000  0.23928000  1.0 1.1777606239
Fe  Fe8  1  0.69794000  0.81830000  0.76072000  1.0 1.1777606239
Fe  Fe9  1  0.23928000  0.30206000  0.81830000  1.0 1.1777606239
Fe  Fe10  1  0.76072000  0.30206000  0.18170000  1.0 1.1777606239
Fe  Fe11  1  0.23928000  0.69794000  0.18170000  1.0 1.1777606239
Fe  Fe12  1  0.76072000  0.69794000  0.81830000  1.0 1.1777606239
Fe  Fe13  1  0.73928000  0.31830000  0.80206000  1.0 1.1777606239
Fe  Fe14  1  0.26072000  0.68170000  0.80206000  1.0 1.1777606239
Fe  Fe15  1  0.73928000  0.68170000  0.19794000  1.0 1.1777606239
Fe  Fe16  1  0.26072000  0.31830000  0.19794000  1.0 1.1777606239
Fe  Fe17  1  0.31830000  0.80206000  0.73928000  1.0 1.1777606239
Fe  Fe18  1  0.68170000  0.80206000  0.26072000  1.0 1.1777606239
Fe  Fe19  1  0.68170000  0.19794000  0.73928000  1.0 1.1777606239
Fe  Fe20  1  0.31830000  0.19794000  0.26072000  1.0 1.1777606239
Fe  Fe21  1  0.80206000  0.73928000  0.31830000  1.0 1.1777606239
Fe  Fe22  1  0.80206000  0.26072000  0.68170000  1.0 1.1777606239
Fe  Fe23  1  0.19794000  0.73928000  0.68170000  1.0 1.1777606239
Fe  Fe24  1  0.19794000  0.26072000  0.31830000  1.0 1.1777606239
H  H1  1  0.74681000  0.22326000  0.49132000  1.0 0.1388706874
H  H2  1  0.25319000  0.77674000  0.49132000  1.0 0.1388706874
H  H3  1  0.25319000  0.22326000  0.50868000  1.0 0.1388706874
H  H4  1  0.74681000  0.77674000  0.50868000  1.0 0.1388706874
H  H5  1  0.49132000  0.74681000  0.22326000  1.0 0.1388706874
H  H6  1  0.49132000  0.25319000  0.77674000  1.0 0.1388706874
H  H7  1  0.50868000  0.25319000  0.22326000  1.0 0.1388706874
H  H8  1  0.50868000  0.74681000  0.77674000  1.0 0.1388706874
H  H9  1  0.22326000  0.49132000  0.74681000  1.0 0.1388706874
H  H10  1  0.77674000  0.49132000  0.25319000  1.0 0.1388706874
H  H11  1  0.22326000  0.50868000  0.25319000  1.0 0.1388706874
H  H12  1  0.77674000  0.50868000  0.74681000  1.0 0.1388706874
H  H13  1  0.72326000  0.24681000  0.99132000  1.0 0.1388706874
H  H14  1  0.27674000  0.75319000  0.99132000  1.0 0.1388706874
H  H15  1  0.72326000  0.75319000  0.00868000  1.0 0.1388706874
H  H16  1  0.27674000  0.24681000  0.00868000  1.0 0.1388706874
H  H17  1  0.24681000  0.99132000  0.72326000  1.0 0.1388706874
H  H18  1  0.75319000  0.99132000  0.27674000  1.0 0.1388706874
H  H19  1  0.75319000  0.00868000  0.72326000  1.0 0.1388706874
H  H20  1  0.24681000  0.00868000  0.27674000  1.0 0.1388706874
H  H21  1  0.99132000  0.72326000  0.24681000  1.0 0.1388706874
H  H22  1  0.99132000  0.27674000  0.75319000  1.0 0.1388706874
H  H23  1  0.00868000  0.72326000  0.75319000  1.0 0.1388706874
H  H24  1  0.00868000  0.27674000  0.24681000  1.0 0.1388706874
H  H25  1  0.58506000  0.20780000  0.57606000  1.0 0.1388706874
H  H26  1  0.41494000  0.79220000  0.57606000  1.0 0.1388706874
H  H27  1  0.41494000  0.20780000  0.42394000  1.0 0.1388706874
H  H28  1  0.58506000  0.79220000  0.42394000  1.0 0.1388706874
H  H29  1  0.57606000  0.58506000  0.20780000  1.0 0.1388706874
H  H30  1  0.57606000  0.41494000  0.79220000  1.0 0.1388706874
H  H31  1  0.42394000  0.41494000  0.20780000  1.0 0.1388706874
H  H32  1  0.42394000  0.58506000  0.79220000  1.0 0.1388706874
H  H33  1  0.20780000  0.57606000  0.58506000  1.0 0.1388706874
H  H34  1  0.79220000  0.57606000  0.41494000  1.0 0.1388706874
H  H35  1  0.20780000  0.42394000  0.41494000  1.0 0.1388706874
H  H36  1  0.79220000  0.42394000  0.58506000  1.0 0.1388706874
H  H37  1  0.70780000  0.08506000  0.07606000  1.0 0.1388706874
H  H38  1  0.29220000  0.91494000  0.07606000  1.0 0.1388706874
H  H39  1  0.70780000  0.91494000  0.92394000  1.0 0.1388706874
H  H40  1  0.29220000  0.08506000  0.92394000  1.0 0.1388706874
H  H41  1  0.08506000  0.07606000  0.70780000  1.0 0.1388706874
H  H42  1  0.91494000  0.07606000  0.29220000  1.0 0.1388706874
H  H43  1  0.91494000  0.92394000  0.70780000  1.0 0.1388706874
H  H44  1  0.08506000  0.92394000  0.29220000  1.0 0.1388706874
H  H45  1  0.07606000  0.70780000  0.08506000  1.0 0.1388706874
H  H46  1  0.07606000  0.29220000  0.91494000  1.0 0.1388706874
H  H47  1  0.92394000  0.70780000  0.91494000  1.0 0.1388706874
H  H48  1  0.92394000  0.29220000  0.08506000  1.0 0.1388706874
H  H49  1  0.59379000  0.19853000  0.39296000  1.0 0.1388706874
H  H50  1  0.40621000  0.80147000  0.39296000  1.0 0.1388706874
H  H51  1  0.40621000  0.19853000  0.60704000  1.0 0.1388706874
H  H52  1  0.59379000  0.80147000  0.60704000  1.0 0.1388706874
H  H53  1  0.39296000  0.59379000  0.19853000  1.0 0.1388706874
H  H54  1  0.39296000  0.40621000  0.80147000  1.0 0.1388706874
H  H55  1  0.60704000  0.40621000  0.19853000  1.0 0.1388706874
H  H56  1  0.60704000  0.59379000  0.80147000  1.0 0.1388706874
H  H57  1  0.19853000  0.39296000  0.59379000  1.0 0.1388706874
H  H58  1  0.80147000  0.39296000  0.40621000  1.0 0.1388706874
H  H59  1  0.19853000  0.60704000  0.40621000  1.0 0.1388706874
H  H60  1  0.80147000  0.60704000  0.59379000  1.0 0.1388706874
H  H61  1  0.69853000  0.09379000  0.89296000  1.0 0.1388706874
H  H62  1  0.30147000  0.90621000  0.89296000  1.0 0.1388706874
H  H63  1  0.69853000  0.90621000  0.10704000  1.0 0.1388706874
H  H64  1  0.30147000  0.09379000  0.10704000  1.0 0.1388706874
H  H65  1  0.09379000  0.89296000  0.69853000  1.0 0.1388706874
H  H66  1  0.90621000  0.89296000  0.30147000  1.0 0.1388706874
H  H67  1  0.90621000  0.10704000  0.69853000  1.0 0.1388706874
H  H68  1  0.09379000  0.10704000  0.30147000  1.0 0.1388706874
H  H69  1  0.89296000  0.69853000  0.09379000  1.0 0.1388706874
H  H70  1  0.89296000  0.30147000  0.90621000  1.0 0.1388706874
H  H71  1  0.10704000  0.69853000  0.90621000  1.0 0.1388706874
H  H72  1  0.10704000  0.30147000  0.09379000  1.0 0.1388706874
C  C1  1  0.69870000  0.22170000  0.60420000  1.0 0.6021569451
C  C2  1  0.30130000  0.77830000  0.60420000  1.0 0.6021569451
C  C3  1  0.30130000  0.22170000  0.39580000  1.0 0.6021569451
C  C4  1  0.69870000  0.77830000  0.39580000  1.0 0.6021569451
C  C5  1  0.60420000  0.69870000  0.22170000  1.0 0.6021569451
C  C6  1  0.60420000  0.30130000  0.77830000  1.0 0.6021569451
C  C7  1  0.39580000  0.30130000  0.22170000  1.0 0.6021569451
C  C8  1  0.39580000  0.69870000  0.77830000  1.0 0.6021569451
C  C9  1  0.22170000  0.60420000  0.69870000  1.0 0.6021569451
C  C10  1  0.77830000  0.60420000  0.30130000  1.0 0.6021569451
C  C11  1  0.22170000  0.39580000  0.30130000  1.0 0.6021569451
C  C12  1  0.77830000  0.39580000  0.69870000  1.0 0.6021569451
C  C13  1  0.72170000  0.19870000  0.10420000  1.0 0.6021569451
C  C14  1  0.27830000  0.80130000  0.10420000  1.0 0.6021569451
C  C15  1  0.72170000  0.80130000  0.89580000  1.0 0.6021569451
C  C16  1  0.27830000  0.19870000  0.89580000  1.0 0.6021569451
C  C17  1  0.19870000  0.10420000  0.72170000  1.0 0.6021569451
C  C18  1  0.80130000  0.10420000  0.27830000  1.0 0.6021569451
C  C19  1  0.80130000  0.89580000  0.72170000  1.0 0.6021569451
C  C20  1  0.19870000  0.89580000  0.27830000  1.0 0.6021569451
C  C21  1  0.10420000  0.72170000  0.19870000  1.0 0.6021569451
C  C22  1  0.10420000  0.27830000  0.80130000  1.0 0.6021569451
C  C23  1  0.89580000  0.72170000  0.80130000  1.0 0.6021569451
C  C24  1  0.89580000  0.27830000  0.19870000  1.0 0.6021569451
C  C25  1  0.66980000  0.21630000  0.54280000  1.0 -0.0215761193
C  C26  1  0.33020000  0.78370000  0.54280000  1.0 -0.0215761193
C  C27  1  0.33020000  0.21630000  0.45720000  1.0 -0.0215761193
C  C28  1  0.66980000  0.78370000  0.45720000  1.0 -0.0215761193
C  C29  1  0.54280000  0.66980000  0.21630000  1.0 -0.0215761193
C  C30  1  0.54280000  0.33020000  0.78370000  1.0 -0.0215761193
C  C31  1  0.45720000  0.33020000  0.21630000  1.0 -0.0215761193
C  C32  1  0.45720000  0.66980000  0.78370000  1.0 -0.0215761193
C  C33  1  0.21630000  0.54280000  0.66980000  1.0 -0.0215761193
C  C34  1  0.78370000  0.54280000  0.33020000  1.0 -0.0215761193
C  C35  1  0.21630000  0.45720000  0.33020000  1.0 -0.0215761193
C  C36  1  0.78370000  0.45720000  0.66980000  1.0 -0.0215761193
C  C37  1  0.71630000  0.16980000  0.04280000  1.0 -0.0215761193
C  C38  1  0.28370000  0.83020000  0.04280000  1.0 -0.0215761193
C  C39  1  0.71630000  0.83020000  0.95720000  1.0 -0.0215761193
C  C40  1  0.28370000  0.16980000  0.95720000  1.0 -0.0215761193
C  C41  1  0.16980000  0.04280000  0.71630000  1.0 -0.0215761193
C  C42  1  0.83020000  0.04280000  0.28370000  1.0 -0.0215761193
C  C43  1  0.83020000  0.95720000  0.71630000  1.0 -0.0215761193
C  C44  1  0.16980000  0.95720000  0.28370000  1.0 -0.0215761193
C  C45  1  0.04280000  0.71630000  0.16980000  1.0 -0.0215761193
C  C46  1  0.04280000  0.28370000  0.83020000  1.0 -0.0215761193
C  C47  1  0.95720000  0.71630000  0.83020000  1.0 -0.0215761193
C  C48  1  0.95720000  0.28370000  0.16980000  1.0 -0.0215761193
C  C49  1  0.70480000  0.21740000  0.48950000  1.0 -0.0961381912
C  C50  1  0.29520000  0.78260000  0.48950000  1.0 -0.0961381912
C  C51  1  0.29520000  0.21740000  0.51050000  1.0 -0.0961381912
C  C52  1  0.70480000  0.78260000  0.51050000  1.0 -0.0961381912
C  C53  1  0.48950000  0.70480000  0.21740000  1.0 -0.0961381912
C  C54  1  0.48950000  0.29520000  0.78260000  1.0 -0.0961381912
C  C55  1  0.51050000  0.29520000  0.21740000  1.0 -0.0961381912
C  C56  1  0.51050000  0.70480000  0.78260000  1.0 -0.0961381912
C  C57  1  0.21740000  0.48950000  0.70480000  1.0 -0.0961381912
C  C58  1  0.78260000  0.48950000  0.29520000  1.0 -0.0961381912
C  C59  1  0.21740000  0.51050000  0.29520000  1.0 -0.0961381912
C  C60  1  0.78260000  0.51050000  0.70480000  1.0 -0.0961381912
C  C61  1  0.71740000  0.20480000  0.98950000  1.0 -0.0961381912
C  C62  1  0.28260000  0.79520000  0.98950000  1.0 -0.0961381912
C  C63  1  0.71740000  0.79520000  0.01050000  1.0 -0.0961381912
C  C64  1  0.28260000  0.20480000  0.01050000  1.0 -0.0961381912
C  C65  1  0.20480000  0.98950000  0.71740000  1.0 -0.0961381912
C  C66  1  0.79520000  0.98950000  0.28260000  1.0 -0.0961381912
C  C67  1  0.79520000  0.01050000  0.71740000  1.0 -0.0961381912
C  C68  1  0.20480000  0.01050000  0.28260000  1.0 -0.0961381912
C  C69  1  0.98950000  0.71740000  0.20480000  1.0 -0.0961381912
C  C70  1  0.98950000  0.28260000  0.79520000  1.0 -0.0942394852
C  C71  1  0.01050000  0.71740000  0.79520000  1.0 -0.0961381912
C  C72  1  0.01050000  0.28260000  0.20480000  1.0 -0.0961381912
C  C73  1  0.67570000  0.20940000  0.43350000  1.0 -0.0260716069
C  C74  1  0.32430000  0.79060000  0.43350000  1.0 -0.0260716069
C  C75  1  0.32430000  0.20940000  0.56650000  1.0 -0.0260716069
C  C76  1  0.67570000  0.79060000  0.56650000  1.0 -0.0260716069
C  C77  1  0.43350000  0.67570000  0.20940000  1.0 -0.0260716069
C  C78  1  0.43350000  0.32430000  0.79060000  1.0 -0.0260716069
C  C79  1  0.56650000  0.32430000  0.20940000  1.0 -0.0260716069
C  C80  1  0.56650000  0.67570000  0.79060000  1.0 -0.0260716069
C  C81  1  0.20940000  0.43350000  0.67570000  1.0 -0.0260716069
C  C82  1  0.79060000  0.43350000  0.32430000  1.0 -0.0260716069
C  C83  1  0.20940000  0.56650000  0.32430000  1.0 -0.0260716069
C  C84  1  0.79060000  0.56650000  0.67570000  1.0 -0.0260716069
C  C85  1  0.70940000  0.17570000  0.93350000  1.0 -0.0260716069
C  C86  1  0.29060000  0.82430000  0.93350000  1.0 -0.0260716069
C  C87  1  0.70940000  0.82430000  0.06650000  1.0 -0.0260716069
C  C88  1  0.29060000  0.17570000  0.06650000  1.0 -0.0260716069
C  C89  1  0.17570000  0.93350000  0.70940000  1.0 -0.0260716069
C  C90  1  0.82430000  0.93350000  0.29060000  1.0 -0.0260716069
C  C91  1  0.82430000  0.06650000  0.70940000  1.0 -0.0260716069
C  C92  1  0.17570000  0.06650000  0.29060000  1.0 -0.0260716069
C  C93  1  0.93350000  0.70940000  0.17570000  1.0 -0.0260716069
C  C94  1  0.93350000  0.29060000  0.82430000  1.0 -0.0260716069
C  C95  1  0.06650000  0.70940000  0.82430000  1.0 -0.0260716069
C  C96  1  0.06650000  0.29060000  0.17570000  1.0 -0.0260716069
C  C97  1  0.71030000  0.20720000  0.37510000  1.0 0.6021569451
C  C98  1  0.28970000  0.79280000  0.37510000  1.0 0.6054233023
C  C99  1  0.28970000  0.20720000  0.62490000  1.0 0.6054233023
C  C100  1  0.71030000  0.79280000  0.62490000  1.0 0.6054233023
C  C101  1  0.37510000  0.71030000  0.20720000  1.0 0.6021569451
C  C102  1  0.37510000  0.28970000  0.79280000  1.0 0.6054233023
C  C103  1  0.62490000  0.28970000  0.20720000  1.0 0.6054233023
C  C104  1  0.62490000  0.71030000  0.79280000  1.0 0.6054233023
C  C105  1  0.20720000  0.37510000  0.71030000  1.0 0.6021569451
C  C106  1  0.79280000  0.37510000  0.28970000  1.0 0.6054233023
C  C107  1  0.20720000  0.62490000  0.28970000  1.0 0.6054233023
C  C108  1  0.79280000  0.62490000  0.71030000  1.0 0.6054233023
C  C109  1  0.70720000  0.21030000  0.87510000  1.0 0.6054233023
C  C110  1  0.29280000  0.78970000  0.87510000  1.0 0.6054233023
C  C111  1  0.70720000  0.78970000  0.12490000  1.0 0.6054233023
C  C112  1  0.29280000  0.21030000  0.12490000  1.0 0.6054233023
C  C113  1  0.21030000  0.87510000  0.70720000  1.0 0.6054233023
C  C114  1  0.78970000  0.87510000  0.29280000  1.0 0.6054233023
C  C115  1  0.78970000  0.12490000  0.70720000  1.0 0.6054233023
C  C116  1  0.21030000  0.12490000  0.29280000  1.0 0.6054233023
C  C117  1  0.87510000  0.70720000  0.21030000  1.0 0.6054233023
C  C118  1  0.87510000  0.29280000  0.78970000  1.0 0.6054233023
C  C119  1  0.12490000  0.70720000  0.78970000  1.0 0.6054233023
C  C120  1  0.12490000  0.29280000  0.21030000  1.0 0.6054233023
C  C121  1  0.60770000  0.20970000  0.54020000  1.0 -0.1340789868
C  C122  1  0.39230000  0.79030000  0.54020000  1.0 -0.1340789868
C  C123  1  0.39230000  0.20970000  0.45980000  1.0 -0.1340789868
C  C124  1  0.60770000  0.79030000  0.45980000  1.0 -0.1399606043
C  C125  1  0.54020000  0.60770000  0.20970000  1.0 -0.1340789868
C  C126  1  0.54020000  0.39230000  0.79030000  1.0 -0.1340789868
C  C127  1  0.45980000  0.39230000  0.20970000  1.0 -0.1340789868
C  C128  1  0.45980000  0.60770000  0.79030000  1.0 -0.1340789868
C  C129  1  0.20970000  0.54020000  0.60770000  1.0 -0.1340789868
C  C130  1  0.79030000  0.54020000  0.39230000  1.0 -0.1340789868
C  C131  1  0.20970000  0.45980000  0.39230000  1.0 -0.1340789868
C  C132  1  0.79030000  0.45980000  0.60770000  1.0 -0.1340789868
C  C133  1  0.70970000  0.10770000  0.04020000  1.0 -0.1340789868
C  C134  1  0.29030000  0.89230000  0.04020000  1.0 -0.1340789868
C  C135  1  0.70970000  0.89230000  0.95980000  1.0 -0.1340789868
C  C136  1  0.29030000  0.10770000  0.95980000  1.0 -0.1340789868
C  C137  1  0.10770000  0.04020000  0.70970000  1.0 -0.1340789868
C  C138  1  0.89230000  0.04020000  0.29030000  1.0 -0.1340789868
C  C139  1  0.89230000  0.95980000  0.70970000  1.0 -0.1340789868
C  C140  1  0.10770000  0.95980000  0.29030000  1.0 -0.1340789868
C  C141  1  0.04020000  0.70970000  0.10770000  1.0 -0.1340789868
C  C142  1  0.04020000  0.29030000  0.89230000  1.0 -0.1340789868
C  C143  1  0.95980000  0.70970000  0.89230000  1.0 -0.1340789868
C  C144  1  0.95980000  0.29030000  0.10770000  1.0 -0.1340789868
C  C145  1  0.57860000  0.20570000  0.48480000  1.0 0.1531011132
C  C146  1  0.42140000  0.79430000  0.48480000  1.0 0.1531011132
C  C147  1  0.42140000  0.20570000  0.51520000  1.0 0.1531011132
C  C148  1  0.57860000  0.79430000  0.51520000  1.0 0.1531011132
C  C149  1  0.48480000  0.57860000  0.20570000  1.0 0.1531011132
C  C150  1  0.48480000  0.42140000  0.79430000  1.0 0.1531011132
C  C151  1  0.51520000  0.42140000  0.20570000  1.0 0.1531011132
C  C152  1  0.51520000  0.57860000  0.79430000  1.0 0.1531011132
C  C153  1  0.20570000  0.48480000  0.57860000  1.0 0.1531011132
C  C154  1  0.79430000  0.48480000  0.42140000  1.0 0.1531011132
C  C155  1  0.20570000  0.51520000  0.42140000  1.0 0.1531011132
C  C156  1  0.79430000  0.51520000  0.57860000  1.0 0.1531011132
C  C157  1  0.70570000  0.07860000  0.98480000  1.0 0.1531011132
C  C158  1  0.29430000  0.92140000  0.98480000  1.0 0.1531011132
C  C159  1  0.70570000  0.92140000  0.01520000  1.0 0.1531011132
C  C160  1  0.29430000  0.07860000  0.01520000  1.0 0.1531011132
C  C161  1  0.07860000  0.98480000  0.70570000  1.0 0.1531011132
C  C162  1  0.92140000  0.98480000  0.29430000  1.0 0.1531011132
C  C163  1  0.92140000  0.01520000  0.70570000  1.0 0.1531011132
C  C164  1  0.07860000  0.01520000  0.29430000  1.0 0.1531011132
C  C165  1  0.98480000  0.70570000  0.07860000  1.0 0.1531011132
C  C166  1  0.98480000  0.29430000  0.92140000  1.0 0.1531011132
C  C167  1  0.01520000  0.70570000  0.92140000  1.0 0.1531011132
C  C168  1  0.01520000  0.29430000  0.07860000  1.0 0.1531011132
C  C169  1  0.61310000  0.20370000  0.43050000  1.0 -0.1399606043
C  C170  1  0.38690000  0.79630000  0.43050000  1.0 -0.1399606043
C  C171  1  0.38690000  0.20370000  0.56950000  1.0 -0.1399606043
C  C172  1  0.61310000  0.79630000  0.56950000  1.0 -0.1399606043
C  C173  1  0.43050000  0.61310000  0.20370000  1.0 -0.1399606043
C  C174  1  0.43050000  0.38690000  0.79630000  1.0 -0.1399606043
C  C175  1  0.56950000  0.38690000  0.20370000  1.0 -0.1399606043
C  C176  1  0.56950000  0.61310000  0.79630000  1.0 -0.1399606043
C  C177  1  0.20370000  0.43050000  0.61310000  1.0 -0.1399606043
C  C178  1  0.79630000  0.43050000  0.38690000  1.0 -0.1399606043
C  C179  1  0.20370000  0.56950000  0.38690000  1.0 -0.1399606043
C  C180  1  0.79630000  0.56950000  0.61310000  1.0 -0.1399606043
C  C181  1  0.70370000  0.11310000  0.93050000  1.0 -0.1399606043
C  C182  1  0.29630000  0.88690000  0.93050000  1.0 -0.1399606043
C  C183  1  0.70370000  0.88690000  0.06950000  1.0 -0.1399606043
C  C184  1  0.29630000  0.11310000  0.06950000  1.0 -0.1399606043
C  C185  1  0.11310000  0.93050000  0.70370000  1.0 -0.1399606043
C  C186  1  0.88690000  0.93050000  0.29630000  1.0 -0.1399606043
C  C187  1  0.88690000  0.06950000  0.70370000  1.0 -0.1399606043
C  C188  1  0.11310000  0.06950000  0.29630000  1.0 -0.1399606043
C  C189  1  0.93050000  0.70370000  0.11310000  1.0 -0.1399606043
C  C190  1  0.93050000  0.29630000  0.88690000  1.0 -0.1399606043
C  C191  1  0.06950000  0.70370000  0.88690000  1.0 -0.1399606043
C  C192  1  0.06950000  0.29630000  0.11310000  1.0 -0.1399606043
N  N1  1  0.51410000  0.20240000  0.47650000  1.0 -0.1128268876
N  N2  1  0.48590000  0.79760000  0.47650000  1.0 -0.1128268876
N  N3  1  0.48590000  0.20240000  0.52350000  1.0 -0.1128268876
N  N4  1  0.51410000  0.79760000  0.52350000  1.0 -0.1128268876
N  N5  1  0.47650000  0.51410000  0.20240000  1.0 -0.1128268876
N  N6  1  0.47650000  0.48590000  0.79760000  1.0 -0.1128268876
N  N7  1  0.52350000  0.48590000  0.20240000  1.0 -0.1128268876
N  N8  1  0.52350000  0.51410000  0.79760000  1.0 -0.1128268876
N  N9  1  0.20240000  0.47650000  0.51410000  1.0 -0.1128268876
N  N10  1  0.79760000  0.47650000  0.48590000  1.0 -0.1128268876
N  N11  1  0.20240000  0.52350000  0.48590000  1.0 -0.1128268876
N  N12  1  0.79760000  0.52350000  0.51410000  1.0 -0.1128268876
N  N13  1  0.70240000  0.01410000  0.97650000  1.0 -0.1128268876
N  N14  1  0.29760000  0.98590000  0.97650000  1.0 -0.1128268876
N  N15  1  0.70240000  0.98590000  0.02350000  1.0 -0.1128268876
N  N16  1  0.29760000  0.01410000  0.02350000  1.0 -0.1128268876
N  N17  1  0.01410000  0.97650000  0.70240000  1.0 -0.1128268876
N  N18  1  0.98590000  0.97650000  0.29760000  1.0 -0.1128268876
N  N19  1  0.98590000  0.02350000  0.70240000  1.0 -0.1128268876
N  N20  1  0.01410000  0.02350000  0.29760000  1.0 -0.1128268876
N  N21  1  0.97650000  0.70240000  0.01410000  1.0 -0.1128268876
N  N22  1  0.97650000  0.29760000  0.98590000  1.0 -0.1128268876
N  N23  1  0.02350000  0.70240000  0.98590000  1.0 -0.1128268876
N  N24  1  0.02350000  0.29760000  0.01410000  1.0 -0.1128268876
O  O1  1  0.75902000  0.24098000  0.24098000  1.0 -0.8639717221
O  O2  1  0.24098000  0.75902000  0.24098000  1.0 -0.8650500893
O  O3  1  0.24098000  0.24098000  0.75902000  1.0 -0.8639717221
O  O4  1  0.75902000  0.75902000  0.75902000  1.0 -0.8639717221
O  O5  1  0.74098000  0.25902000  0.74098000  1.0 -0.8650500893
O  O6  1  0.25902000  0.74098000  0.74098000  1.0 -0.8650500893
O  O7  1  0.74098000  0.74098000  0.25902000  1.0 -0.8650500893
O  O8  1  0.25902000  0.25902000  0.25902000  1.0 -0.8650500893
O  O9  1  0.66768000  0.20490000  0.64895000  1.0 -0.5305804729
O  O10  1  0.33232000  0.79510000  0.64895000  1.0 -0.5305804729
O  O11  1  0.33232000  0.20490000  0.35105000  1.0 -0.5305804729
O  O12  1  0.66768000  0.79510000  0.35105000  1.0 -0.5305804729
O  O13  1  0.64895000  0.66768000  0.20490000  1.0 -0.5305804729
O  O14  1  0.64895000  0.33232000  0.79510000  1.0 -0.5305804729
O  O15  1  0.35105000  0.33232000  0.20490000  1.0 -0.5305804729
O  O16  1  0.35105000  0.66768000  0.79510000  1.0 -0.5305804729
O  O17  1  0.20490000  0.64895000  0.66768000  1.0 -0.5305804729
O  O18  1  0.79510000  0.64895000  0.33232000  1.0 -0.5305804729
O  O19  1  0.20490000  0.35105000  0.33232000  1.0 -0.5305804729
O  O20  1  0.79510000  0.35105000  0.66768000  1.0 -0.5305804729
O  O21  1  0.70490000  0.16768000  0.14895000  1.0 -0.5305804729
O  O22  1  0.29510000  0.83232000  0.14895000  1.0 -0.5305804729
O  O23  1  0.70490000  0.83232000  0.85105000  1.0 -0.5305804729
O  O24  1  0.29510000  0.16768000  0.85105000  1.0 -0.5305804729
O  O25  1  0.16768000  0.14895000  0.70490000  1.0 -0.5305804729
O  O26  1  0.83232000  0.14895000  0.29510000  1.0 -0.5305804729
O  O27  1  0.83232000  0.85105000  0.70490000  1.0 -0.5305804729
O  O28  1  0.16768000  0.85105000  0.29510000  1.0 -0.5305804729
O  O29  1  0.14895000  0.70490000  0.16768000  1.0 -0.5305804729
O  O30  1  0.14895000  0.29510000  0.83232000  1.0 -0.5305804729
O  O31  1  0.85105000  0.70490000  0.83232000  1.0 -0.5305804729
O  O32  1  0.85105000  0.29510000  0.16768000  1.0 -0.5305804729
O  O33  1  0.76468000  0.22490000  0.37485000  1.0 -0.5246053258
O  O34  1  0.23532000  0.77510000  0.37485000  1.0 -0.5246053258
O  O35  1  0.23532000  0.22490000  0.62515000  1.0 -0.5246053258
O  O36  1  0.76468000  0.77510000  0.62515000  1.0 -0.5246053258
O  O37  1  0.37485000  0.76468000  0.22490000  1.0 -0.5246053258
O  O38  1  0.37485000  0.23532000  0.77510000  1.0 -0.5246053258
O  O39  1  0.62515000  0.23532000  0.22490000  1.0 -0.5246053258
O  O40  1  0.62515000  0.76468000  0.77510000  1.0 -0.5246053258
O  O41  1  0.22490000  0.37485000  0.76468000  1.0 -0.5246053258
O  O42  1  0.77510000  0.37485000  0.23532000  1.0 -0.5246053258
O  O43  1  0.22490000  0.62515000  0.23532000  1.0 -0.5246053258
O  O44  1  0.77510000  0.62515000  0.76468000  1.0 -0.5246053258
O  O45  1  0.72490000  0.26468000  0.87485000  1.0 -0.5246053258
O  O46  1  0.27510000  0.73532000  0.87485000  1.0 -0.5246053258
O  O47  1  0.72490000  0.73532000  0.12515000  1.0 -0.5246053258
O  O48  1  0.27510000  0.26468000  0.12515000  1.0 -0.5246053258
O  O49  1  0.26468000  0.87485000  0.72490000  1.0 -0.5246053258
O  O50  1  0.73532000  0.87485000  0.27510000  1.0 -0.5246053258
O  O51  1  0.73532000  0.12515000  0.72490000  1.0 -0.5246053258
O  O52  1  0.26468000  0.12515000  0.27510000  1.0 -0.5246053258
O  O53  1  0.87485000  0.72490000  0.26468000  1.0 -0.5246053258
O  O54  1  0.87485000  0.27510000  0.73532000  1.0 -0.5246053258
O  O55  1  0.12515000  0.72490000  0.73532000  1.0 -0.5246053258
O  O56  1  0.12515000  0.27510000  0.26468000  1.0 -0.5246053258
O  O57  1  0.75194000  0.24410000  0.60700000  1.0 -0.5402131845
O  O58  1  0.24806000  0.75590000  0.60700000  1.0 -0.5402131845
O  O59  1  0.24806000  0.24410000  0.39300000  1.0 -0.5402131845
O  O60  1  0.75194000  0.75590000  0.39300000  1.0 -0.5402131845
O  O61  1  0.60700000  0.75194000  0.24410000  1.0 -0.5402131845
O  O62  1  0.60700000  0.24806000  0.75590000  1.0 -0.5402131845
O  O63  1  0.39300000  0.24806000  0.24410000  1.0 -0.5402131845
O  O64  1  0.39300000  0.75194000  0.75590000  1.0 -0.5402131845
O  O65  1  0.24410000  0.60700000  0.75194000  1.0 -0.5402131845
O  O66  1  0.75590000  0.60700000  0.24806000  1.0 -0.5402131845
O  O67  1  0.24410000  0.39300000  0.24806000  1.0 -0.5402131845
O  O68  1  0.75590000  0.39300000  0.75194000  1.0 -0.5402131845
O  O69  1  0.74410000  0.25194000  0.10700000  1.0 -0.5402131845
O  O70  1  0.25590000  0.74806000  0.10700000  1.0 -0.5402131845
O  O71  1  0.74410000  0.74806000  0.89300000  1.0 -0.5402131845
O  O72  1  0.25590000  0.25194000  0.89300000  1.0 -0.5402131845
O  O73  1  0.25194000  0.10700000  0.74410000  1.0 -0.5402131845
O  O74  1  0.74806000  0.10700000  0.25590000  1.0 -0.5402131845
O  O75  1  0.74806000  0.89300000  0.74410000  1.0 -0.5402131845
O  O76  1  0.25194000  0.89300000  0.25590000  1.0 -0.5402131845
O  O77  1  0.10700000  0.74410000  0.25194000  1.0 -0.5402131845
O  O78  1  0.10700000  0.25590000  0.74806000  1.0 -0.5402131845
O  O79  1  0.89300000  0.74410000  0.74806000  1.0 -0.5402131845
O  O80  1  0.89300000  0.25590000  0.25194000  1.0 -0.5402131845
O  O81  1  0.68097000  0.18790000  0.32967000  1.0 -0.5402131845
O  O82  1  0.31903000  0.81210000  0.32967000  1.0 -0.5402131845
O  O83  1  0.31903000  0.18790000  0.67033000  1.0 -0.5402131845
O  O84  1  0.68097000  0.81210000  0.67033000  1.0 -0.5402131845
O  O85  1  0.32967000  0.68097000  0.18790000  1.0 -0.5402131845
O  O86  1  0.32967000  0.31903000  0.81210000  1.0 -0.5402131845
O  O87  1  0.67033000  0.31903000  0.18790000  1.0 -0.5402131845
O  O88  1  0.67033000  0.68097000  0.81210000  1.0 -0.5402131845
O  O89  1  0.18790000  0.32967000  0.68097000  1.0 -0.5402131845
O  O90  1  0.81210000  0.32967000  0.31903000  1.0 -0.5402131845
O  O91  1  0.18790000  0.67033000  0.31903000  1.0 -0.5402131845
O  O92  1  0.81210000  0.67033000  0.68097000  1.0 -0.5402131845
O  O93  1  0.68790000  0.18097000  0.82967000  1.0 -0.5402131845
O  O94  1  0.31210000  0.81903000  0.82967000  1.0 -0.5402131845
O  O95  1  0.68790000  0.81903000  0.17033000  1.0 -0.5402131845
O  O96  1  0.31210000  0.18097000  0.17033000  1.0 -0.5402131845
O  O97  1  0.18097000  0.82967000  0.68790000  1.0 -0.5402131845
O  O98  1  0.81903000  0.82967000  0.31210000  1.0 -0.5402131845
O  O99  1  0.81903000  0.17033000  0.68790000  1.0 -0.5402131845
O  O100  1  0.18097000  0.17033000  0.31210000  1.0 -0.5402131845
O  O101  1  0.82967000  0.68790000  0.18097000  1.0 -0.5402131845
O  O102  1  0.82967000  0.31210000  0.81903000  1.0 -0.5402131845
O  O103  1  0.17033000  0.68790000  0.81903000  1.0 -0.5402131845
O  O104  1  0.17033000  0.31210000  0.18097000  1.0 -0.5402131845
