# DDEC6 charges by PACMAN v1.1 (https://github.com/mtap-research/PACMAN-charge/)
data_LIDBOT_ASR_pacman
_symmetry_space_group_name_H-M   'P 1'
_cell_length_a   21.94340000
_cell_length_b   21.94340000
_cell_length_c   21.94340000
_cell_angle_alpha   90.00000000
_cell_angle_beta   90.00000000
_cell_angle_gamma   90.00000000
_symmetry_Int_Tables_number   1
_chemical_formula_structural   Fe3H9C24N3O13
_chemical_formula_sum   'Fe24 H72 C192 N24 O104'
_cell_volume   10566.02805364
_cell_formula_units_Z   8
loop_
 _symmetry_equiv_pos_site_id
 _symmetry_equiv_pos_as_xyz
  1  'x, y, z'
loop_
 _atom_site_type_symbol
 _atom_site_label
 _atom_site_symmetry_multiplicity
 _atom_site_fract_x
 _atom_site_fract_y
 _atom_site_fract_z
 _atom_site_occupancy
 _atom_site_charge
Fe  Fe1  1  0.76110000  0.81931000  0.30263000  1.0 1.2127359335
Fe  Fe2  1  0.23890000  0.18069000  0.30263000  1.0 1.2127359335
Fe  Fe3  1  0.23890000  0.81931000  0.69737000  1.0 1.2127359335
Fe  Fe4  1  0.76110000  0.18069000  0.69737000  1.0 1.2127359335
Fe  Fe5  1  0.30263000  0.76110000  0.81931000  1.0 1.2127359335
Fe  Fe6  1  0.30263000  0.23890000  0.18069000  1.0 1.2127359335
Fe  Fe7  1  0.69737000  0.23890000  0.81931000  1.0 1.2127359335
Fe  Fe8  1  0.69737000  0.76110000  0.18069000  1.0 1.2127359335
Fe  Fe9  1  0.81931000  0.30263000  0.76110000  1.0 1.2127359335
Fe  Fe10  1  0.18069000  0.30263000  0.23890000  1.0 1.2127359335
Fe  Fe11  1  0.81931000  0.69737000  0.23890000  1.0 1.2127359335
Fe  Fe12  1  0.18069000  0.69737000  0.76110000  1.0 1.2127359335
Fe  Fe13  1  0.31931000  0.26110000  0.80263000  1.0 1.2127359335
Fe  Fe14  1  0.68069000  0.73890000  0.80263000  1.0 1.2127359335
Fe  Fe15  1  0.31931000  0.73890000  0.19737000  1.0 1.2127359335
Fe  Fe16  1  0.68069000  0.26110000  0.19737000  1.0 1.2127359335
Fe  Fe17  1  0.26110000  0.80263000  0.31931000  1.0 1.2127359335
Fe  Fe18  1  0.73890000  0.80263000  0.68069000  1.0 1.2127359335
Fe  Fe19  1  0.73890000  0.19737000  0.31931000  1.0 1.2127359335
Fe  Fe20  1  0.26110000  0.19737000  0.68069000  1.0 1.2127359335
Fe  Fe21  1  0.80263000  0.31931000  0.26110000  1.0 1.2127359335
Fe  Fe22  1  0.80263000  0.68069000  0.73890000  1.0 1.2127359335
Fe  Fe23  1  0.19737000  0.31931000  0.73890000  1.0 1.2127359335
Fe  Fe24  1  0.19737000  0.68069000  0.26110000  1.0 1.2127359335
H  H1  1  0.77672000  0.74550000  0.49040000  1.0 0.1391678129
H  H2  1  0.22328000  0.25450000  0.49040000  1.0 0.1391678129
H  H3  1  0.22328000  0.74550000  0.50960000  1.0 0.1391678129
H  H4  1  0.77672000  0.25450000  0.50960000  1.0 0.1391678129
H  H5  1  0.49040000  0.77672000  0.74550000  1.0 0.1391678129
H  H6  1  0.49040000  0.22328000  0.25450000  1.0 0.1391678129
H  H7  1  0.50960000  0.22328000  0.74550000  1.0 0.1391678129
H  H8  1  0.50960000  0.77672000  0.25450000  1.0 0.1391678129
H  H9  1  0.74550000  0.49040000  0.77672000  1.0 0.1391678129
H  H10  1  0.25450000  0.49040000  0.22328000  1.0 0.1391678129
H  H11  1  0.74550000  0.50960000  0.22328000  1.0 0.1391678129
H  H12  1  0.25450000  0.50960000  0.77672000  1.0 0.1391678129
H  H13  1  0.24550000  0.27672000  0.99040000  1.0 0.1391678129
H  H14  1  0.75450000  0.72328000  0.99040000  1.0 0.1391678129
H  H15  1  0.24550000  0.72328000  0.00960000  1.0 0.1391678129
H  H16  1  0.75450000  0.27672000  0.00960000  1.0 0.1391678129
H  H17  1  0.27672000  0.99040000  0.24550000  1.0 0.1391678129
H  H18  1  0.72328000  0.99040000  0.75450000  1.0 0.1391678129
H  H19  1  0.72328000  0.00960000  0.24550000  1.0 0.1391678129
H  H20  1  0.27672000  0.00960000  0.75450000  1.0 0.1391678129
H  H21  1  0.99040000  0.24550000  0.27672000  1.0 0.1391678129
H  H22  1  0.99040000  0.75450000  0.72328000  1.0 0.1391678129
H  H23  1  0.00960000  0.24550000  0.72328000  1.0 0.1391678129
H  H24  1  0.00960000  0.75450000  0.27672000  1.0 0.1391678129
H  H25  1  0.79289000  0.58442000  0.57570000  1.0 0.1315529719
H  H26  1  0.20711000  0.41558000  0.57570000  1.0 0.1315529719
H  H27  1  0.20711000  0.58442000  0.42430000  1.0 0.1315529719
H  H28  1  0.79289000  0.41558000  0.42430000  1.0 0.1315529719
H  H29  1  0.57570000  0.79289000  0.58442000  1.0 0.1315529719
H  H30  1  0.57570000  0.20711000  0.41558000  1.0 0.1315529719
H  H31  1  0.42430000  0.20711000  0.58442000  1.0 0.1315529719
H  H32  1  0.42430000  0.79289000  0.41558000  1.0 0.1315529719
H  H33  1  0.58442000  0.57570000  0.79289000  1.0 0.1315529719
H  H34  1  0.41558000  0.57570000  0.20711000  1.0 0.1315529719
H  H35  1  0.58442000  0.42430000  0.20711000  1.0 0.1315529719
H  H36  1  0.41558000  0.42430000  0.79289000  1.0 0.1315529719
H  H37  1  0.08442000  0.29289000  0.07570000  1.0 0.1315529719
H  H38  1  0.91558000  0.70711000  0.07570000  1.0 0.1315529719
H  H39  1  0.08442000  0.70711000  0.92430000  1.0 0.1315529719
H  H40  1  0.91558000  0.29289000  0.92430000  1.0 0.1315529719
H  H41  1  0.29289000  0.07570000  0.08442000  1.0 0.1315529719
H  H42  1  0.70711000  0.07570000  0.91558000  1.0 0.1315529719
H  H43  1  0.70711000  0.92430000  0.08442000  1.0 0.1315529719
H  H44  1  0.29289000  0.92430000  0.91558000  1.0 0.1315529719
H  H45  1  0.07570000  0.08442000  0.29289000  1.0 0.1315529719
H  H46  1  0.07570000  0.91558000  0.70711000  1.0 0.1315529719
H  H47  1  0.92430000  0.08442000  0.70711000  1.0 0.1315529719
H  H48  1  0.92430000  0.91558000  0.29289000  1.0 0.1315529719
H  H49  1  0.80359000  0.59351000  0.39311000  1.0 0.1391678129
H  H50  1  0.19641000  0.40649000  0.39311000  1.0 0.1391678129
H  H51  1  0.19641000  0.59351000  0.60689000  1.0 0.1391678129
H  H52  1  0.80359000  0.40649000  0.60689000  1.0 0.1391678129
H  H53  1  0.39311000  0.80359000  0.59351000  1.0 0.1391678129
H  H54  1  0.39311000  0.19641000  0.40649000  1.0 0.1391678129
H  H55  1  0.60689000  0.19641000  0.59351000  1.0 0.1391678129
H  H56  1  0.60689000  0.80359000  0.40649000  1.0 0.1391678129
H  H57  1  0.59351000  0.39311000  0.80359000  1.0 0.1391678129
H  H58  1  0.40649000  0.39311000  0.19641000  1.0 0.1391678129
H  H59  1  0.59351000  0.60689000  0.19641000  1.0 0.1391678129
H  H60  1  0.40649000  0.60689000  0.80359000  1.0 0.1391678129
H  H61  1  0.09351000  0.30359000  0.89311000  1.0 0.1391678129
H  H62  1  0.90649000  0.69641000  0.89311000  1.0 0.1391678129
H  H63  1  0.09351000  0.69641000  0.10689000  1.0 0.1391678129
H  H64  1  0.90649000  0.30359000  0.10689000  1.0 0.1391678129
H  H65  1  0.30359000  0.89311000  0.09351000  1.0 0.1391678129
H  H66  1  0.69641000  0.89311000  0.90649000  1.0 0.1391678129
H  H67  1  0.69641000  0.10689000  0.09351000  1.0 0.1391678129
H  H68  1  0.30359000  0.10689000  0.90649000  1.0 0.1391678129
H  H69  1  0.89311000  0.09351000  0.30359000  1.0 0.1391678129
H  H70  1  0.89311000  0.90649000  0.69641000  1.0 0.1391678129
H  H71  1  0.10689000  0.09351000  0.69641000  1.0 0.1391678129
H  H72  1  0.10689000  0.90649000  0.30359000  1.0 0.1391678129
C  C1  1  0.77740000  0.69860000  0.60370000  1.0 0.6026093985
C  C2  1  0.22260000  0.30140000  0.60370000  1.0 0.6026093985
C  C3  1  0.22260000  0.69860000  0.39630000  1.0 0.6026093985
C  C4  1  0.77740000  0.30140000  0.39630000  1.0 0.6026093985
C  C5  1  0.60370000  0.77740000  0.69860000  1.0 0.6026093985
C  C6  1  0.60370000  0.22260000  0.30140000  1.0 0.6026093985
C  C7  1  0.39630000  0.22260000  0.69860000  1.0 0.6026093985
C  C8  1  0.39630000  0.77740000  0.30140000  1.0 0.6026093985
C  C9  1  0.69860000  0.60370000  0.77740000  1.0 0.6026093985
C  C10  1  0.30140000  0.60370000  0.22260000  1.0 0.6026093985
C  C11  1  0.69860000  0.39630000  0.22260000  1.0 0.6026093985
C  C12  1  0.30140000  0.39630000  0.77740000  1.0 0.6026093985
C  C13  1  0.19860000  0.27740000  0.10370000  1.0 0.6026093985
C  C14  1  0.80140000  0.72260000  0.10370000  1.0 0.6026093985
C  C15  1  0.19860000  0.72260000  0.89630000  1.0 0.6026093985
C  C16  1  0.80140000  0.27740000  0.89630000  1.0 0.6026093985
C  C17  1  0.27740000  0.10370000  0.19860000  1.0 0.6026093985
C  C18  1  0.72260000  0.10370000  0.80140000  1.0 0.6026093985
C  C19  1  0.72260000  0.89630000  0.19860000  1.0 0.6026093985
C  C20  1  0.27740000  0.89630000  0.80140000  1.0 0.6026093985
C  C21  1  0.10370000  0.19860000  0.27740000  1.0 0.6026093985
C  C22  1  0.10370000  0.80140000  0.72260000  1.0 0.6026093985
C  C23  1  0.89630000  0.19860000  0.72260000  1.0 0.6026093985
C  C24  1  0.89630000  0.80140000  0.27740000  1.0 0.6026093985
C  C25  1  0.78290000  0.70360000  0.48880000  1.0 -0.0956304241
C  C26  1  0.21710000  0.29640000  0.48880000  1.0 -0.0956304241
C  C27  1  0.21710000  0.70360000  0.51120000  1.0 -0.0956304241
C  C28  1  0.78290000  0.29640000  0.51120000  1.0 -0.0956304241
C  C29  1  0.48880000  0.78290000  0.70360000  1.0 -0.0956304241
C  C30  1  0.48880000  0.21710000  0.29640000  1.0 -0.0956304241
C  C31  1  0.51120000  0.21710000  0.70360000  1.0 -0.0956304241
C  C32  1  0.51120000  0.78290000  0.29640000  1.0 -0.0956304241
C  C33  1  0.70360000  0.48880000  0.78290000  1.0 -0.0956304241
C  C34  1  0.29640000  0.48880000  0.21710000  1.0 -0.0956304241
C  C35  1  0.70360000  0.51120000  0.21710000  1.0 -0.0956304241
C  C36  1  0.29640000  0.51120000  0.78290000  1.0 -0.0956304241
C  C37  1  0.20360000  0.28290000  0.98880000  1.0 -0.0956304241
C  C38  1  0.79640000  0.71710000  0.98880000  1.0 -0.0956304241
C  C39  1  0.20360000  0.71710000  0.01120000  1.0 -0.0956304241
C  C40  1  0.79640000  0.28290000  0.01120000  1.0 -0.0956304241
C  C41  1  0.28290000  0.98880000  0.20360000  1.0 -0.0956304241
C  C42  1  0.71710000  0.98880000  0.79640000  1.0 -0.0956304241
C  C43  1  0.71710000  0.01120000  0.20360000  1.0 -0.0956304241
C  C44  1  0.28290000  0.01120000  0.79640000  1.0 -0.0956304241
C  C45  1  0.98880000  0.20360000  0.28290000  1.0 -0.0956304241
C  C46  1  0.98880000  0.79640000  0.71710000  1.0 -0.0956304241
C  C47  1  0.01120000  0.20360000  0.71710000  1.0 -0.0956304241
C  C48  1  0.01120000  0.79640000  0.28290000  1.0 -0.0956304241
C  C49  1  0.79330000  0.70940000  0.37440000  1.0 0.6077337091
C  C50  1  0.20670000  0.29060000  0.37440000  1.0 0.6077337091
C  C51  1  0.20670000  0.70940000  0.62560000  1.0 0.6077337091
C  C52  1  0.79330000  0.29060000  0.62560000  1.0 0.6077337091
C  C53  1  0.37440000  0.79330000  0.70940000  1.0 0.6077337091
C  C54  1  0.37440000  0.20670000  0.29060000  1.0 0.6077337091
C  C55  1  0.62560000  0.20670000  0.70940000  1.0 0.6077337091
C  C56  1  0.62560000  0.79330000  0.29060000  1.0 0.6077337091
C  C57  1  0.70940000  0.37440000  0.79330000  1.0 0.6077337091
C  C58  1  0.29060000  0.37440000  0.20670000  1.0 0.6077337091
C  C59  1  0.70940000  0.62560000  0.20670000  1.0 0.6077337091
C  C60  1  0.29060000  0.62560000  0.79330000  1.0 0.6077337091
C  C61  1  0.20940000  0.29330000  0.87440000  1.0 0.6077337091
C  C62  1  0.79060000  0.70670000  0.87440000  1.0 0.6077337091
C  C63  1  0.20940000  0.70670000  0.12560000  1.0 0.6077337091
C  C64  1  0.79060000  0.29330000  0.12560000  1.0 0.6077337091
C  C65  1  0.29330000  0.87440000  0.20940000  1.0 0.6077337091
C  C66  1  0.70670000  0.87440000  0.79060000  1.0 0.6077337091
C  C67  1  0.70670000  0.12560000  0.20940000  1.0 0.6077337091
C  C68  1  0.29330000  0.12560000  0.79060000  1.0 0.6077337091
C  C69  1  0.87440000  0.20940000  0.29330000  1.0 0.6077337091
C  C70  1  0.87440000  0.79060000  0.70670000  1.0 0.6077337091
C  C71  1  0.12560000  0.20940000  0.70670000  1.0 0.6077337091
C  C72  1  0.12560000  0.79060000  0.29330000  1.0 0.6077337091
C  C73  1  0.78380000  0.66940000  0.54260000  1.0 -0.020911544
C  C74  1  0.21620000  0.33060000  0.54260000  1.0 -0.020911544
C  C75  1  0.21620000  0.66940000  0.45740000  1.0 -0.020911544
C  C76  1  0.78380000  0.33060000  0.45740000  1.0 -0.020911544
C  C77  1  0.54260000  0.78380000  0.66940000  1.0 -0.020911544
C  C78  1  0.54260000  0.21620000  0.33060000  1.0 -0.020911544
C  C79  1  0.45740000  0.21620000  0.66940000  1.0 -0.020911544
C  C80  1  0.45740000  0.78380000  0.33060000  1.0 -0.020911544
C  C81  1  0.66940000  0.54260000  0.78380000  1.0 -0.020911544
C  C82  1  0.33060000  0.54260000  0.21620000  1.0 -0.020911544
C  C83  1  0.66940000  0.45740000  0.21620000  1.0 -0.020911544
C  C84  1  0.33060000  0.45740000  0.78380000  1.0 -0.020911544
C  C85  1  0.16940000  0.28380000  0.04260000  1.0 -0.020911544
C  C86  1  0.83060000  0.71620000  0.04260000  1.0 -0.020911544
C  C87  1  0.16940000  0.71620000  0.95740000  1.0 -0.020911544
C  C88  1  0.83060000  0.28380000  0.95740000  1.0 -0.020911544
C  C89  1  0.28380000  0.04260000  0.16940000  1.0 -0.020911544
C  C90  1  0.71620000  0.04260000  0.83060000  1.0 -0.020911544
C  C91  1  0.71620000  0.95740000  0.16940000  1.0 -0.020911544
C  C92  1  0.28380000  0.95740000  0.83060000  1.0 -0.020911544
C  C93  1  0.04260000  0.16940000  0.28380000  1.0 -0.020911544
C  C94  1  0.04260000  0.83060000  0.71620000  1.0 -0.020911544
C  C95  1  0.95740000  0.16940000  0.71620000  1.0 -0.020911544
C  C96  1  0.95740000  0.83060000  0.28380000  1.0 -0.020911544
C  C97  1  0.79110000  0.67490000  0.43320000  1.0 -0.020911544
C  C98  1  0.20890000  0.32510000  0.43320000  1.0 -0.020911544
C  C99  1  0.20890000  0.67490000  0.56680000  1.0 -0.020911544
C  C100  1  0.79110000  0.32510000  0.56680000  1.0 -0.020911544
C  C101  1  0.43320000  0.79110000  0.67490000  1.0 -0.020911544
C  C102  1  0.43320000  0.20890000  0.32510000  1.0 -0.020911544
C  C103  1  0.56680000  0.20890000  0.67490000  1.0 -0.020911544
C  C104  1  0.56680000  0.79110000  0.32510000  1.0 -0.020911544
C  C105  1  0.67490000  0.43320000  0.79110000  1.0 -0.020911544
C  C106  1  0.32510000  0.43320000  0.20890000  1.0 -0.020911544
C  C107  1  0.67490000  0.56680000  0.20890000  1.0 -0.020911544
C  C108  1  0.32510000  0.56680000  0.79110000  1.0 -0.020911544
C  C109  1  0.17490000  0.29110000  0.93320000  1.0 -0.020911544
C  C110  1  0.82510000  0.70890000  0.93320000  1.0 -0.020911544
C  C111  1  0.17490000  0.70890000  0.06680000  1.0 -0.020911544
C  C112  1  0.82510000  0.29110000  0.06680000  1.0 -0.020911544
C  C113  1  0.29110000  0.93320000  0.17490000  1.0 -0.020911544
C  C114  1  0.70890000  0.93320000  0.82510000  1.0 -0.020911544
C  C115  1  0.70890000  0.06680000  0.17490000  1.0 -0.020911544
C  C116  1  0.29110000  0.06680000  0.82510000  1.0 -0.020911544
C  C117  1  0.93320000  0.17490000  0.29110000  1.0 -0.020911544
C  C118  1  0.93320000  0.82510000  0.70890000  1.0 -0.020911544
C  C119  1  0.06680000  0.17490000  0.70890000  1.0 -0.020911544
C  C120  1  0.06680000  0.82510000  0.29110000  1.0 -0.020911544
C  C121  1  0.79130000  0.60710000  0.53990000  1.0 -0.1416070952
C  C122  1  0.20870000  0.39290000  0.53990000  1.0 -0.1416070952
C  C123  1  0.20870000  0.60710000  0.46010000  1.0 -0.1416070952
C  C124  1  0.79130000  0.39290000  0.46010000  1.0 -0.1416070952
C  C125  1  0.53990000  0.79130000  0.60710000  1.0 -0.1416070952
C  C126  1  0.53990000  0.20870000  0.39290000  1.0 -0.1416070952
C  C127  1  0.46010000  0.20870000  0.60710000  1.0 -0.1416070952
C  C128  1  0.46010000  0.79130000  0.39290000  1.0 -0.1416070952
C  C129  1  0.60710000  0.53990000  0.79130000  1.0 -0.1416070952
C  C130  1  0.39290000  0.53990000  0.20870000  1.0 -0.1416070952
C  C131  1  0.60710000  0.46010000  0.20870000  1.0 -0.1416070952
C  C132  1  0.39290000  0.46010000  0.79130000  1.0 -0.1416070952
C  C133  1  0.10710000  0.29130000  0.03990000  1.0 -0.1416070952
C  C134  1  0.89290000  0.70870000  0.03990000  1.0 -0.1416070952
C  C135  1  0.10710000  0.70870000  0.96010000  1.0 -0.1416070952
C  C136  1  0.89290000  0.29130000  0.96010000  1.0 -0.1416070952
C  C137  1  0.29130000  0.03990000  0.10710000  1.0 -0.1416070952
C  C138  1  0.70870000  0.03990000  0.89290000  1.0 -0.1416070952
C  C139  1  0.70870000  0.96010000  0.10710000  1.0 -0.1416070952
C  C140  1  0.29130000  0.96010000  0.89290000  1.0 -0.1416070952
C  C141  1  0.03990000  0.10710000  0.29130000  1.0 -0.1416070952
C  C142  1  0.03990000  0.89290000  0.70870000  1.0 -0.1416070952
C  C143  1  0.96010000  0.10710000  0.70870000  1.0 -0.1416070952
C  C144  1  0.96010000  0.89290000  0.29130000  1.0 -0.1416070952
C  C145  1  0.79800000  0.61260000  0.43050000  1.0 -0.1416070952
C  C146  1  0.20200000  0.38740000  0.43050000  1.0 -0.1416070952
C  C147  1  0.20200000  0.61260000  0.56950000  1.0 -0.1416070952
C  C148  1  0.79800000  0.38740000  0.56950000  1.0 -0.1416070952
C  C149  1  0.43050000  0.79800000  0.61260000  1.0 -0.1416070952
C  C150  1  0.43050000  0.20200000  0.38740000  1.0 -0.1416070952
C  C151  1  0.56950000  0.20200000  0.61260000  1.0 -0.1416070952
C  C152  1  0.56950000  0.79800000  0.38740000  1.0 -0.1416070952
C  C153  1  0.61260000  0.43050000  0.79800000  1.0 -0.1416070952
C  C154  1  0.38740000  0.43050000  0.20200000  1.0 -0.1416070952
C  C155  1  0.61260000  0.56950000  0.20200000  1.0 -0.1416070952
C  C156  1  0.38740000  0.56950000  0.79800000  1.0 -0.1416070952
C  C157  1  0.11260000  0.29800000  0.93050000  1.0 -0.1416070952
C  C158  1  0.88740000  0.70200000  0.93050000  1.0 -0.1416070952
C  C159  1  0.11260000  0.70200000  0.06950000  1.0 -0.1416070952
C  C160  1  0.88740000  0.29800000  0.06950000  1.0 -0.1416070952
C  C161  1  0.29800000  0.93050000  0.11260000  1.0 -0.1416070952
C  C162  1  0.70200000  0.93050000  0.88740000  1.0 -0.1416070952
C  C163  1  0.70200000  0.06950000  0.11260000  1.0 -0.1416070952
C  C164  1  0.29800000  0.06950000  0.88740000  1.0 -0.1416070952
C  C165  1  0.93050000  0.11260000  0.29800000  1.0 -0.1416070952
C  C166  1  0.93050000  0.88740000  0.70200000  1.0 -0.1416070952
C  C167  1  0.06950000  0.11260000  0.70200000  1.0 -0.1416070952
C  C168  1  0.06950000  0.88740000  0.29800000  1.0 -0.1416070952
C  C169  1  0.79650000  0.57800000  0.48400000  1.0 0.1524415438
C  C170  1  0.20350000  0.42200000  0.48400000  1.0 0.1524415438
C  C171  1  0.20350000  0.57800000  0.51600000  1.0 0.1524415438
C  C172  1  0.79650000  0.42200000  0.51600000  1.0 0.1524415438
C  C173  1  0.48400000  0.79650000  0.57800000  1.0 0.1524415438
C  C174  1  0.48400000  0.20350000  0.42200000  1.0 0.1524415438
C  C175  1  0.51600000  0.20350000  0.57800000  1.0 0.1524415438
C  C176  1  0.51600000  0.79650000  0.42200000  1.0 0.1524415438
C  C177  1  0.57800000  0.48400000  0.79650000  1.0 0.1524415438
C  C178  1  0.42200000  0.48400000  0.20350000  1.0 0.1524415438
C  C179  1  0.57800000  0.51600000  0.20350000  1.0 0.1524415438
C  C180  1  0.42200000  0.51600000  0.79650000  1.0 0.1524415438
C  C181  1  0.07800000  0.29650000  0.98400000  1.0 0.1524415438
C  C182  1  0.92200000  0.70350000  0.98400000  1.0 0.1524415438
C  C183  1  0.07800000  0.70350000  0.01600000  1.0 0.1524415438
C  C184  1  0.92200000  0.29650000  0.01600000  1.0 0.1524415438
C  C185  1  0.29650000  0.98400000  0.07800000  1.0 0.1524415438
C  C186  1  0.70350000  0.98400000  0.92200000  1.0 0.1524415438
C  C187  1  0.70350000  0.01600000  0.07800000  1.0 0.1524415438
C  C188  1  0.29650000  0.01600000  0.92200000  1.0 0.1524415438
C  C189  1  0.98400000  0.07800000  0.29650000  1.0 0.1524415438
C  C190  1  0.98400000  0.92200000  0.70350000  1.0 0.1524415438
C  C191  1  0.01600000  0.07800000  0.70350000  1.0 0.1524415438
C  C192  1  0.01600000  0.92200000  0.29650000  1.0 0.1524415438
N  N1  1  0.80000000  0.51400000  0.47650000  1.0 -0.1107771341
N  N2  1  0.20000000  0.48600000  0.47650000  1.0 -0.1107771341
N  N3  1  0.20000000  0.51400000  0.52350000  1.0 -0.1107771341
N  N4  1  0.80000000  0.48600000  0.52350000  1.0 -0.1107771341
N  N5  1  0.47650000  0.80000000  0.51400000  1.0 -0.1107771341
N  N6  1  0.47650000  0.20000000  0.48600000  1.0 -0.1107771341
N  N7  1  0.52350000  0.20000000  0.51400000  1.0 -0.1107771341
N  N8  1  0.52350000  0.80000000  0.48600000  1.0 -0.1107771341
N  N9  1  0.51400000  0.47650000  0.80000000  1.0 -0.1107771341
N  N10  1  0.48600000  0.47650000  0.20000000  1.0 -0.1107771341
N  N11  1  0.51400000  0.52350000  0.20000000  1.0 -0.1107771341
N  N12  1  0.48600000  0.52350000  0.80000000  1.0 -0.1107771341
N  N13  1  0.01400000  0.30000000  0.97650000  1.0 -0.1107771341
N  N14  1  0.98600000  0.70000000  0.97650000  1.0 -0.1107771341
N  N15  1  0.01400000  0.70000000  0.02350000  1.0 -0.1107771341
N  N16  1  0.98600000  0.30000000  0.02350000  1.0 -0.1107771341
N  N17  1  0.30000000  0.97650000  0.01400000  1.0 -0.1107771341
N  N18  1  0.70000000  0.97650000  0.98600000  1.0 -0.1107771341
N  N19  1  0.70000000  0.02350000  0.01400000  1.0 -0.1107771341
N  N20  1  0.30000000  0.02350000  0.98600000  1.0 -0.1107771341
N  N21  1  0.97650000  0.01400000  0.30000000  1.0 -0.1107771341
N  N22  1  0.97650000  0.98600000  0.70000000  1.0 -0.1107771341
N  N23  1  0.02350000  0.01400000  0.70000000  1.0 -0.1107771341
N  N24  1  0.02350000  0.98600000  0.30000000  1.0 -0.1107771341
O  O1  1  0.75940000  0.75940000  0.24060000  1.0 -0.9079951669
O  O2  1  0.24060000  0.24060000  0.24060000  1.0 -0.9079951669
O  O3  1  0.24060000  0.75940000  0.75940000  1.0 -0.9079951669
O  O4  1  0.75940000  0.24060000  0.75940000  1.0 -0.9079951669
O  O5  1  0.25940000  0.25940000  0.74060000  1.0 -0.9079951669
O  O6  1  0.74060000  0.74060000  0.74060000  1.0 -0.9079951669
O  O7  1  0.25940000  0.74060000  0.25940000  1.0 -0.9079951669
O  O8  1  0.74060000  0.25940000  0.25940000  1.0 -0.9079951669
O  O9  1  0.77620000  0.76412000  0.37466000  1.0 -0.538431226
O  O10  1  0.22380000  0.23588000  0.37466000  1.0 -0.538431226
O  O11  1  0.22380000  0.76412000  0.62534000  1.0 -0.538431226
O  O12  1  0.77620000  0.23588000  0.62534000  1.0 -0.538431226
O  O13  1  0.37466000  0.77620000  0.76412000  1.0 -0.538431226
O  O14  1  0.37466000  0.22380000  0.23588000  1.0 -0.538431226
O  O15  1  0.62534000  0.22380000  0.76412000  1.0 -0.538431226
O  O16  1  0.62534000  0.77620000  0.23588000  1.0 -0.538431226
O  O17  1  0.76412000  0.37466000  0.77620000  1.0 -0.538431226
O  O18  1  0.23588000  0.37466000  0.22380000  1.0 -0.538431226
O  O19  1  0.76412000  0.62534000  0.22380000  1.0 -0.538431226
O  O20  1  0.23588000  0.62534000  0.77620000  1.0 -0.538431226
O  O21  1  0.26412000  0.27620000  0.87466000  1.0 -0.538431226
O  O22  1  0.73588000  0.72380000  0.87466000  1.0 -0.538431226
O  O23  1  0.26412000  0.72380000  0.12534000  1.0 -0.538431226
O  O24  1  0.73588000  0.27620000  0.12534000  1.0 -0.538431226
O  O25  1  0.27620000  0.87466000  0.26412000  1.0 -0.538431226
O  O26  1  0.72380000  0.87466000  0.73588000  1.0 -0.538431226
O  O27  1  0.72380000  0.12534000  0.26412000  1.0 -0.538431226
O  O28  1  0.27620000  0.12534000  0.73588000  1.0 -0.538431226
O  O29  1  0.87466000  0.26412000  0.27620000  1.0 -0.538431226
O  O30  1  0.87466000  0.73588000  0.72380000  1.0 -0.538431226
O  O31  1  0.12534000  0.26412000  0.72380000  1.0 -0.538431226
O  O32  1  0.12534000  0.73588000  0.27620000  1.0 -0.538431226
O  O33  1  0.75570000  0.75067000  0.60620000  1.0 -0.5292673335
O  O34  1  0.24430000  0.24933000  0.60620000  1.0 -0.5292673335
O  O35  1  0.24430000  0.75067000  0.39380000  1.0 -0.5292673335
O  O36  1  0.75570000  0.24933000  0.39380000  1.0 -0.5292673335
O  O37  1  0.60620000  0.75570000  0.75067000  1.0 -0.5292673335
O  O38  1  0.60620000  0.24430000  0.24933000  1.0 -0.5292673335
O  O39  1  0.39380000  0.24430000  0.75067000  1.0 -0.5292673335
O  O40  1  0.39380000  0.75570000  0.24933000  1.0 -0.5292673335
O  O41  1  0.75067000  0.60620000  0.75570000  1.0 -0.5292673335
O  O42  1  0.24933000  0.60620000  0.24430000  1.0 -0.5292673335
O  O43  1  0.75067000  0.39380000  0.24430000  1.0 -0.5292673335
O  O44  1  0.24933000  0.39380000  0.75570000  1.0 -0.5292673335
O  O45  1  0.25067000  0.25570000  0.10620000  1.0 -0.5292673335
O  O46  1  0.74933000  0.74430000  0.10620000  1.0 -0.5292673335
O  O47  1  0.25067000  0.74430000  0.89380000  1.0 -0.5292673335
O  O48  1  0.74933000  0.25570000  0.89380000  1.0 -0.5292673335
O  O49  1  0.25570000  0.10620000  0.25067000  1.0 -0.5292673335
O  O50  1  0.74430000  0.10620000  0.74933000  1.0 -0.5292673335
O  O51  1  0.74430000  0.89380000  0.25067000  1.0 -0.5292673335
O  O52  1  0.25570000  0.89380000  0.74933000  1.0 -0.5292673335
O  O53  1  0.10620000  0.25067000  0.25570000  1.0 -0.5292673335
O  O54  1  0.10620000  0.74933000  0.74430000  1.0 -0.5292673335
O  O55  1  0.89380000  0.25067000  0.74430000  1.0 -0.5292673335
O  O56  1  0.89380000  0.74933000  0.25570000  1.0 -0.5292673335
O  O57  1  0.79420000  0.66666667  0.64838000  1.0 -0.545169505
O  O58  1  0.20580000  0.33333333  0.64838000  1.0 -0.545169505
O  O59  1  0.20580000  0.66666667  0.35162000  1.0 -0.545169505
O  O60  1  0.79420000  0.33333333  0.35162000  1.0 -0.545169505
O  O61  1  0.64838000  0.79420000  0.66666667  1.0 -0.545169505
O  O62  1  0.64838000  0.20580000  0.33333333  1.0 -0.545169505
O  O63  1  0.35162000  0.20580000  0.66666667  1.0 -0.545169505
O  O64  1  0.35162000  0.79420000  0.33333333  1.0 -0.545169505
O  O65  1  0.66666667  0.64838000  0.79420000  1.0 -0.545169505
O  O66  1  0.33333333  0.64838000  0.20580000  1.0 -0.545169505
O  O67  1  0.66666667  0.35162000  0.20580000  1.0 -0.545169505
O  O68  1  0.33333333  0.35162000  0.79420000  1.0 -0.545169505
O  O69  1  0.16667000  0.29420000  0.14838000  1.0 -0.545169505
O  O70  1  0.83333000  0.70580000  0.14838000  1.0 -0.545169505
O  O71  1  0.16667000  0.70580000  0.85162000  1.0 -0.545169505
O  O72  1  0.83333000  0.29420000  0.85162000  1.0 -0.545169505
O  O73  1  0.29420000  0.14838000  0.16667000  1.0 -0.545169505
O  O74  1  0.70580000  0.14838000  0.83333000  1.0 -0.545169505
O  O75  1  0.70580000  0.85162000  0.16667000  1.0 -0.545169505
O  O76  1  0.29420000  0.85162000  0.83333000  1.0 -0.545169505
O  O77  1  0.14838000  0.16667000  0.29420000  1.0 -0.545169505
O  O78  1  0.14838000  0.83333000  0.70580000  1.0 -0.545169505
O  O79  1  0.85162000  0.16667000  0.70580000  1.0 -0.545169505
O  O80  1  0.85162000  0.83333000  0.29420000  1.0 -0.545169505
O  O81  1  0.81230000  0.68039000  0.32918000  1.0 -0.538431226
O  O82  1  0.18770000  0.31961000  0.32918000  1.0 -0.538431226
O  O83  1  0.18770000  0.68039000  0.67082000  1.0 -0.538431226
O  O84  1  0.81230000  0.31961000  0.67082000  1.0 -0.538431226
O  O85  1  0.32918000  0.81230000  0.68039000  1.0 -0.538431226
O  O86  1  0.32918000  0.18770000  0.31961000  1.0 -0.538431226
O  O87  1  0.67082000  0.18770000  0.68039000  1.0 -0.538431226
O  O88  1  0.67082000  0.81230000  0.31961000  1.0 -0.538431226
O  O89  1  0.68039000  0.32918000  0.81230000  1.0 -0.538431226
O  O90  1  0.31961000  0.32918000  0.18770000  1.0 -0.538431226
O  O91  1  0.68039000  0.67082000  0.18770000  1.0 -0.538431226
O  O92  1  0.31961000  0.67082000  0.81230000  1.0 -0.538431226
O  O93  1  0.18039000  0.31230000  0.82918000  1.0 -0.538431226
O  O94  1  0.81961000  0.68770000  0.82918000  1.0 -0.538431226
O  O95  1  0.18039000  0.68770000  0.17082000  1.0 -0.538431226
O  O96  1  0.81961000  0.31230000  0.17082000  1.0 -0.538431226
O  O97  1  0.31230000  0.82918000  0.18039000  1.0 -0.538431226
O  O98  1  0.68770000  0.82918000  0.81961000  1.0 -0.538431226
O  O99  1  0.68770000  0.17082000  0.18039000  1.0 -0.538431226
O  O100  1  0.31230000  0.17082000  0.81961000  1.0 -0.538431226
O  O101  1  0.82918000  0.18039000  0.31230000  1.0 -0.538431226
O  O102  1  0.82918000  0.81961000  0.68770000  1.0 -0.538431226
O  O103  1  0.17082000  0.18039000  0.68770000  1.0 -0.538431226
O  O104  1  0.17082000  0.81961000  0.31230000  1.0 -0.538431226
