# DDEC6 charges by PACMAN v1.1 (https://github.com/mtap-research/PACMAN-charge/)
data_LIDBEJ_ASR_pacman
_symmetry_space_group_name_H-M   'P 1'
_cell_length_a   21.89280000
_cell_length_b   21.89280000
_cell_length_c   21.89280000
_cell_angle_alpha   90.00000000
_cell_angle_beta   90.00000000
_cell_angle_gamma   90.00000000
_symmetry_Int_Tables_number   1
_chemical_formula_structural   Fe3H9C24N3O13
_chemical_formula_sum   'Fe24 H72 C192 N24 O104'
_cell_volume   10493.10282951
_cell_formula_units_Z   8
loop_
 _symmetry_equiv_pos_site_id
 _symmetry_equiv_pos_as_xyz
  1  'x, y, z'
loop_
 _atom_site_type_symbol
 _atom_site_label
 _atom_site_symmetry_multiplicity
 _atom_site_fract_x
 _atom_site_fract_y
 _atom_site_fract_z
 _atom_site_occupancy
 _atom_site_charge
Fe  Fe1  1  0.26047000  0.68292000  0.19895000  1.0 1.152046907
Fe  Fe2  1  0.73953000  0.31708000  0.19895000  1.0 1.152046907
Fe  Fe3  1  0.73953000  0.68292000  0.80105000  1.0 1.152046907
Fe  Fe4  1  0.26047000  0.31708000  0.80105000  1.0 1.152046907
Fe  Fe5  1  0.19895000  0.26047000  0.68292000  1.0 1.152046907
Fe  Fe6  1  0.19895000  0.73953000  0.31708000  1.0 1.152046907
Fe  Fe7  1  0.80105000  0.73953000  0.68292000  1.0 1.152046907
Fe  Fe8  1  0.80105000  0.26047000  0.31708000  1.0 1.152046907
Fe  Fe9  1  0.68292000  0.19895000  0.26047000  1.0 1.152046907
Fe  Fe10  1  0.31708000  0.19895000  0.73953000  1.0 1.152046907
Fe  Fe11  1  0.68292000  0.80105000  0.73953000  1.0 1.152046907
Fe  Fe12  1  0.31708000  0.80105000  0.26047000  1.0 1.152046907
Fe  Fe13  1  0.18292000  0.76047000  0.69895000  1.0 1.152046907
Fe  Fe14  1  0.81708000  0.23953000  0.69895000  1.0 1.152046907
Fe  Fe15  1  0.18292000  0.23953000  0.30105000  1.0 1.152046907
Fe  Fe16  1  0.81708000  0.76047000  0.30105000  1.0 1.152046907
Fe  Fe17  1  0.76047000  0.69895000  0.18292000  1.0 1.152046907
Fe  Fe18  1  0.23953000  0.69895000  0.81708000  1.0 1.152046907
Fe  Fe19  1  0.23953000  0.30105000  0.18292000  1.0 1.152046907
Fe  Fe20  1  0.76047000  0.30105000  0.81708000  1.0 1.152046907
Fe  Fe21  1  0.69895000  0.18292000  0.76047000  1.0 1.152046907
Fe  Fe22  1  0.69895000  0.81708000  0.23953000  1.0 1.152046907
Fe  Fe23  1  0.30105000  0.18292000  0.23953000  1.0 1.152046907
Fe  Fe24  1  0.30105000  0.81708000  0.76047000  1.0 1.152046907
H  H1  1  0.50853000  0.74714000  0.22340000  1.0 0.1402659986
H  H2  1  0.49147000  0.25286000  0.22340000  1.0 0.1402659986
H  H3  1  0.49147000  0.74714000  0.77660000  1.0 0.1402659986
H  H4  1  0.50853000  0.25286000  0.77660000  1.0 0.1402659986
H  H5  1  0.22340000  0.50853000  0.74714000  1.0 0.1402659986
H  H6  1  0.22340000  0.49147000  0.25286000  1.0 0.1402659986
H  H7  1  0.77660000  0.49147000  0.74714000  1.0 0.1402659986
H  H8  1  0.77660000  0.50853000  0.25286000  1.0 0.1402659986
H  H9  1  0.74714000  0.22340000  0.50853000  1.0 0.1402659986
H  H10  1  0.25286000  0.22340000  0.49147000  1.0 0.1402659986
H  H11  1  0.74714000  0.77660000  0.49147000  1.0 0.1402659986
H  H12  1  0.25286000  0.77660000  0.50853000  1.0 0.1402659986
H  H13  1  0.24714000  0.00853000  0.72340000  1.0 0.1402659986
H  H14  1  0.75286000  0.99147000  0.72340000  1.0 0.1402659986
H  H15  1  0.24714000  0.99147000  0.27660000  1.0 0.1402659986
H  H16  1  0.75286000  0.00853000  0.27660000  1.0 0.1402659986
H  H17  1  0.00853000  0.72340000  0.24714000  1.0 0.1402659986
H  H18  1  0.99147000  0.72340000  0.75286000  1.0 0.1402659986
H  H19  1  0.99147000  0.27660000  0.24714000  1.0 0.1402659986
H  H20  1  0.00853000  0.27660000  0.75286000  1.0 0.1402659986
H  H21  1  0.72340000  0.24714000  0.00853000  1.0 0.1402659986
H  H22  1  0.72340000  0.75286000  0.99147000  1.0 0.1402659986
H  H23  1  0.27660000  0.24714000  0.99147000  1.0 0.1402659986
H  H24  1  0.27660000  0.75286000  0.00853000  1.0 0.1402659986
H  H25  1  0.42416000  0.58426000  0.21029000  1.0 0.1348898739
H  H26  1  0.57584000  0.41574000  0.21029000  1.0 0.1348898739
H  H27  1  0.57584000  0.58426000  0.78971000  1.0 0.1402659986
H  H28  1  0.42416000  0.41574000  0.78971000  1.0 0.1402659986
H  H29  1  0.21029000  0.42416000  0.58426000  1.0 0.1402659986
H  H30  1  0.21029000  0.57584000  0.41574000  1.0 0.1348898739
H  H31  1  0.78971000  0.57584000  0.58426000  1.0 0.1402659986
H  H32  1  0.78971000  0.42416000  0.41574000  1.0 0.1348898739
H  H33  1  0.58426000  0.21029000  0.42416000  1.0 0.1348898739
H  H34  1  0.41574000  0.21029000  0.57584000  1.0 0.1348898739
H  H35  1  0.58426000  0.78971000  0.57584000  1.0 0.1402659986
H  H36  1  0.41574000  0.78971000  0.42416000  1.0 0.1402659986
H  H37  1  0.08426000  0.92416000  0.71029000  1.0 0.1402659986
H  H38  1  0.91574000  0.07584000  0.71029000  1.0 0.1402659986
H  H39  1  0.08426000  0.07584000  0.28971000  1.0 0.1348898739
H  H40  1  0.91574000  0.92416000  0.28971000  1.0 0.1402659986
H  H41  1  0.92416000  0.71029000  0.08426000  1.0 0.1348898739
H  H42  1  0.07584000  0.71029000  0.91574000  1.0 0.1402659986
H  H43  1  0.07584000  0.28971000  0.08426000  1.0 0.1348898739
H  H44  1  0.92416000  0.28971000  0.91574000  1.0 0.1402659986
H  H45  1  0.71029000  0.08426000  0.92416000  1.0 0.1348898739
H  H46  1  0.71029000  0.91574000  0.07584000  1.0 0.1402659986
H  H47  1  0.28971000  0.08426000  0.07584000  1.0 0.1348898739
H  H48  1  0.28971000  0.91574000  0.92416000  1.0 0.1402659986
H  H49  1  0.60643000  0.59367000  0.20092000  1.0 0.1402659986
H  H50  1  0.39357000  0.40633000  0.20092000  1.0 0.1402659986
H  H51  1  0.39357000  0.59367000  0.79908000  1.0 0.1402659986
H  H52  1  0.60643000  0.40633000  0.79908000  1.0 0.1402659986
H  H53  1  0.20092000  0.60643000  0.59367000  1.0 0.1402659986
H  H54  1  0.20092000  0.39357000  0.40633000  1.0 0.1402659986
H  H55  1  0.79908000  0.39357000  0.59367000  1.0 0.1402659986
H  H56  1  0.79908000  0.60643000  0.40633000  1.0 0.1402659986
H  H57  1  0.59367000  0.20092000  0.60643000  1.0 0.1402659986
H  H58  1  0.40633000  0.20092000  0.39357000  1.0 0.1402659986
H  H59  1  0.59367000  0.79908000  0.39357000  1.0 0.1402659986
H  H60  1  0.40633000  0.79908000  0.60643000  1.0 0.1402659986
H  H61  1  0.09367000  0.10643000  0.70092000  1.0 0.1402659986
H  H62  1  0.90633000  0.89357000  0.70092000  1.0 0.1402659986
H  H63  1  0.09367000  0.89357000  0.29908000  1.0 0.1402659986
H  H64  1  0.90633000  0.10643000  0.29908000  1.0 0.1402659986
H  H65  1  0.10643000  0.70092000  0.09367000  1.0 0.1402659986
H  H66  1  0.89357000  0.70092000  0.90633000  1.0 0.1402659986
H  H67  1  0.89357000  0.29908000  0.09367000  1.0 0.1402659986
H  H68  1  0.10643000  0.29908000  0.90633000  1.0 0.1402659986
H  H69  1  0.70092000  0.09367000  0.10643000  1.0 0.1402659986
H  H70  1  0.70092000  0.90633000  0.89357000  1.0 0.1402659986
H  H71  1  0.29908000  0.09367000  0.89357000  1.0 0.1402659986
H  H72  1  0.29908000  0.90633000  0.10643000  1.0 0.1402659986
C  C1  1  0.39570000  0.69960000  0.22180000  1.0 0.60452995
C  C2  1  0.60430000  0.30040000  0.22180000  1.0 0.60452995
C  C3  1  0.60430000  0.69960000  0.77820000  1.0 0.60452995
C  C4  1  0.39570000  0.30040000  0.77820000  1.0 0.60452995
C  C5  1  0.22180000  0.39570000  0.69960000  1.0 0.60452995
C  C6  1  0.22180000  0.60430000  0.30040000  1.0 0.60452995
C  C7  1  0.77820000  0.60430000  0.69960000  1.0 0.60452995
C  C8  1  0.77820000  0.39570000  0.30040000  1.0 0.60452995
C  C9  1  0.69960000  0.22180000  0.39570000  1.0 0.60452995
C  C10  1  0.30040000  0.22180000  0.60430000  1.0 0.60452995
C  C11  1  0.69960000  0.77820000  0.60430000  1.0 0.60452995
C  C12  1  0.30040000  0.77820000  0.39570000  1.0 0.60452995
C  C13  1  0.19960000  0.89570000  0.72180000  1.0 0.60452995
C  C14  1  0.80040000  0.10430000  0.72180000  1.0 0.60452995
C  C15  1  0.19960000  0.10430000  0.27820000  1.0 0.60452995
C  C16  1  0.80040000  0.89570000  0.27820000  1.0 0.60452995
C  C17  1  0.89570000  0.72180000  0.19960000  1.0 0.60452995
C  C18  1  0.10430000  0.72180000  0.80040000  1.0 0.60452995
C  C19  1  0.10430000  0.27820000  0.19960000  1.0 0.60452995
C  C20  1  0.89570000  0.27820000  0.80040000  1.0 0.60452995
C  C21  1  0.72180000  0.19960000  0.89570000  1.0 0.60452995
C  C22  1  0.72180000  0.80040000  0.10430000  1.0 0.60452995
C  C23  1  0.27820000  0.19960000  0.10430000  1.0 0.60452995
C  C24  1  0.27820000  0.80040000  0.89570000  1.0 0.60452995
C  C25  1  0.51030000  0.70520000  0.21710000  1.0 -0.0853244632
C  C26  1  0.48970000  0.29480000  0.21710000  1.0 -0.0853244632
C  C27  1  0.48970000  0.70520000  0.78290000  1.0 -0.0853244632
C  C28  1  0.51030000  0.29480000  0.78290000  1.0 -0.084811528
C  C29  1  0.21710000  0.51030000  0.70520000  1.0 -0.0853244632
C  C30  1  0.21710000  0.48970000  0.29480000  1.0 -0.0853244632
C  C31  1  0.78290000  0.48970000  0.70520000  1.0 -0.0853244632
C  C32  1  0.78290000  0.51030000  0.29480000  1.0 -0.0853244632
C  C33  1  0.70520000  0.21710000  0.51030000  1.0 -0.0853244632
C  C34  1  0.29480000  0.21710000  0.48970000  1.0 -0.0853244632
C  C35  1  0.70520000  0.78290000  0.48970000  1.0 -0.0853244632
C  C36  1  0.29480000  0.78290000  0.51030000  1.0 -0.0853244632
C  C37  1  0.20520000  0.01030000  0.71710000  1.0 -0.084811528
C  C38  1  0.79480000  0.98970000  0.71710000  1.0 -0.0853244632
C  C39  1  0.20520000  0.98970000  0.28290000  1.0 -0.0853244632
C  C40  1  0.79480000  0.01030000  0.28290000  1.0 -0.0853244632
C  C41  1  0.01030000  0.71710000  0.20520000  1.0 -0.0853244632
C  C42  1  0.98970000  0.71710000  0.79480000  1.0 -0.084811528
C  C43  1  0.98970000  0.28290000  0.20520000  1.0 -0.0853244632
C  C44  1  0.01030000  0.28290000  0.79480000  1.0 -0.084811528
C  C45  1  0.71710000  0.20520000  0.01030000  1.0 -0.0853244632
C  C46  1  0.71710000  0.79480000  0.98970000  1.0 -0.0853244632
C  C47  1  0.28290000  0.20520000  0.98970000  1.0 -0.084811528
C  C48  1  0.28290000  0.79480000  0.01030000  1.0 -0.0853244632
C  C49  1  0.62510000  0.71070000  0.20790000  1.0 0.6068731874
C  C50  1  0.37490000  0.28930000  0.20790000  1.0 0.6068731874
C  C51  1  0.37490000  0.71070000  0.79210000  1.0 0.6068731874
C  C52  1  0.62510000  0.28930000  0.79210000  1.0 0.6068731874
C  C53  1  0.20790000  0.62510000  0.71070000  1.0 0.6068731874
C  C54  1  0.20790000  0.37490000  0.28930000  1.0 0.6068731874
C  C55  1  0.79210000  0.37490000  0.71070000  1.0 0.6068731874
C  C56  1  0.79210000  0.62510000  0.28930000  1.0 0.6068731874
C  C57  1  0.71070000  0.20790000  0.62510000  1.0 0.6068731874
C  C58  1  0.28930000  0.20790000  0.37490000  1.0 0.6068731874
C  C59  1  0.71070000  0.79210000  0.37490000  1.0 0.6068731874
C  C60  1  0.28930000  0.79210000  0.62510000  1.0 0.6068731874
C  C61  1  0.21070000  0.12510000  0.70790000  1.0 0.6068731874
C  C62  1  0.78930000  0.87490000  0.70790000  1.0 0.6068731874
C  C63  1  0.21070000  0.87490000  0.29210000  1.0 0.6068731874
C  C64  1  0.78930000  0.12510000  0.29210000  1.0 0.6068731874
C  C65  1  0.12510000  0.70790000  0.21070000  1.0 0.6068731874
C  C66  1  0.87490000  0.70790000  0.78930000  1.0 0.6068731874
C  C67  1  0.87490000  0.29210000  0.21070000  1.0 0.6068731874
C  C68  1  0.12510000  0.29210000  0.78930000  1.0 0.6068731874
C  C69  1  0.70790000  0.21070000  0.12510000  1.0 0.6068731874
C  C70  1  0.70790000  0.78930000  0.87490000  1.0 0.6068731874
C  C71  1  0.29210000  0.21070000  0.87490000  1.0 0.6068731874
C  C72  1  0.29210000  0.78930000  0.12510000  1.0 0.6068731874
C  C73  1  0.45640000  0.67050000  0.21590000  1.0 -0.0290962199
C  C74  1  0.54360000  0.32950000  0.21590000  1.0 -0.0290962199
C  C75  1  0.54360000  0.67050000  0.78410000  1.0 -0.0290962199
C  C76  1  0.45640000  0.32950000  0.78410000  1.0 -0.0290962199
C  C77  1  0.21590000  0.45640000  0.67050000  1.0 -0.0290962199
C  C78  1  0.21590000  0.54360000  0.32950000  1.0 -0.0290962199
C  C79  1  0.78410000  0.54360000  0.67050000  1.0 -0.0290962199
C  C80  1  0.78410000  0.45640000  0.32950000  1.0 -0.0290962199
C  C81  1  0.67050000  0.21590000  0.45640000  1.0 -0.0290962199
C  C82  1  0.32950000  0.21590000  0.54360000  1.0 -0.0290962199
C  C83  1  0.67050000  0.78410000  0.54360000  1.0 -0.0290962199
C  C84  1  0.32950000  0.78410000  0.45640000  1.0 -0.0290962199
C  C85  1  0.17050000  0.95640000  0.71590000  1.0 -0.0290962199
C  C86  1  0.82950000  0.04360000  0.71590000  1.0 -0.0290962199
C  C87  1  0.17050000  0.04360000  0.28410000  1.0 -0.0290962199
C  C88  1  0.82950000  0.95640000  0.28410000  1.0 -0.0290962199
C  C89  1  0.95640000  0.71590000  0.17050000  1.0 -0.0290962199
C  C90  1  0.04360000  0.71590000  0.82950000  1.0 -0.0290962199
C  C91  1  0.04360000  0.28410000  0.17050000  1.0 -0.0290962199
C  C92  1  0.95640000  0.28410000  0.82950000  1.0 -0.0290962199
C  C93  1  0.71590000  0.17050000  0.95640000  1.0 -0.0290962199
C  C94  1  0.71590000  0.82950000  0.04360000  1.0 -0.0290962199
C  C95  1  0.28410000  0.17050000  0.04360000  1.0 -0.0290962199
C  C96  1  0.28410000  0.82950000  0.95640000  1.0 -0.0290962199
C  C97  1  0.56650000  0.67670000  0.20890000  1.0 -0.0290962199
C  C98  1  0.43350000  0.32330000  0.20890000  1.0 -0.0290962199
C  C99  1  0.43350000  0.67670000  0.79110000  1.0 -0.0290962199
C  C100  1  0.56650000  0.32330000  0.79110000  1.0 -0.0290962199
C  C101  1  0.20890000  0.56650000  0.67670000  1.0 -0.0290962199
C  C102  1  0.20890000  0.43350000  0.32330000  1.0 -0.0290962199
C  C103  1  0.79110000  0.43350000  0.67670000  1.0 -0.0290962199
C  C104  1  0.79110000  0.56650000  0.32330000  1.0 -0.0290962199
C  C105  1  0.67670000  0.20890000  0.56650000  1.0 -0.0290962199
C  C106  1  0.32330000  0.20890000  0.43350000  1.0 -0.0290962199
C  C107  1  0.67670000  0.79110000  0.43350000  1.0 -0.0290962199
C  C108  1  0.32330000  0.79110000  0.56650000  1.0 -0.0290962199
C  C109  1  0.17670000  0.06650000  0.70890000  1.0 -0.0290962199
C  C110  1  0.82330000  0.93350000  0.70890000  1.0 -0.0290962199
C  C111  1  0.17670000  0.93350000  0.29110000  1.0 -0.0290962199
C  C112  1  0.82330000  0.06650000  0.29110000  1.0 -0.0290962199
C  C113  1  0.06650000  0.70890000  0.17670000  1.0 -0.0290962199
C  C114  1  0.93350000  0.70890000  0.82330000  1.0 -0.0290962199
C  C115  1  0.93350000  0.29110000  0.17670000  1.0 -0.0290962199
C  C116  1  0.06650000  0.29110000  0.82330000  1.0 -0.0290962199
C  C117  1  0.70890000  0.17670000  0.06650000  1.0 -0.0290962199
C  C118  1  0.70890000  0.82330000  0.93350000  1.0 -0.0290962199
C  C119  1  0.29110000  0.17670000  0.93350000  1.0 -0.0290962199
C  C120  1  0.29110000  0.82330000  0.06650000  1.0 -0.0290962199
C  C121  1  0.45970000  0.60750000  0.21040000  1.0 -0.1322703848
C  C122  1  0.54030000  0.39250000  0.21040000  1.0 -0.1322703848
C  C123  1  0.54030000  0.60750000  0.78960000  1.0 -0.1322703848
C  C124  1  0.45970000  0.39250000  0.78960000  1.0 -0.1322703848
C  C125  1  0.21040000  0.45970000  0.60750000  1.0 -0.1322703848
C  C126  1  0.21040000  0.54030000  0.39250000  1.0 -0.1322703848
C  C127  1  0.78960000  0.54030000  0.60750000  1.0 -0.1322703848
C  C128  1  0.78960000  0.45970000  0.39250000  1.0 -0.1322703848
C  C129  1  0.60750000  0.21040000  0.45970000  1.0 -0.1322703848
C  C130  1  0.39250000  0.21040000  0.54030000  1.0 -0.1322703848
C  C131  1  0.60750000  0.78960000  0.54030000  1.0 -0.1322703848
C  C132  1  0.39250000  0.78960000  0.45970000  1.0 -0.1322703848
C  C133  1  0.10750000  0.95970000  0.71040000  1.0 -0.1322703848
C  C134  1  0.89250000  0.04030000  0.71040000  1.0 -0.1322703848
C  C135  1  0.10750000  0.04030000  0.28960000  1.0 -0.1322703848
C  C136  1  0.89250000  0.95970000  0.28960000  1.0 -0.1322703848
C  C137  1  0.95970000  0.71040000  0.10750000  1.0 -0.1322703848
C  C138  1  0.04030000  0.71040000  0.89250000  1.0 -0.1322703848
C  C139  1  0.04030000  0.28960000  0.10750000  1.0 -0.1322703848
C  C140  1  0.95970000  0.28960000  0.89250000  1.0 -0.1322703848
C  C141  1  0.71040000  0.10750000  0.95970000  1.0 -0.1322703848
C  C142  1  0.71040000  0.89250000  0.04030000  1.0 -0.1322703848
C  C143  1  0.28960000  0.10750000  0.04030000  1.0 -0.1322703848
C  C144  1  0.28960000  0.89250000  0.95970000  1.0 -0.1322703848
C  C145  1  0.56890000  0.61320000  0.20440000  1.0 -0.1322703848
C  C146  1  0.43110000  0.38680000  0.20440000  1.0 -0.1322703848
C  C147  1  0.43110000  0.61320000  0.79560000  1.0 -0.1322703848
C  C148  1  0.56890000  0.38680000  0.79560000  1.0 -0.1322703848
C  C149  1  0.20440000  0.56890000  0.61320000  1.0 -0.1322703848
C  C150  1  0.20440000  0.43110000  0.38680000  1.0 -0.1322703848
C  C151  1  0.79560000  0.43110000  0.61320000  1.0 -0.1322703848
C  C152  1  0.79560000  0.56890000  0.38680000  1.0 -0.1322703848
C  C153  1  0.61320000  0.20440000  0.56890000  1.0 -0.1322703848
C  C154  1  0.38680000  0.20440000  0.43110000  1.0 -0.1322703848
C  C155  1  0.61320000  0.79560000  0.43110000  1.0 -0.1322703848
C  C156  1  0.38680000  0.79560000  0.56890000  1.0 -0.1322703848
C  C157  1  0.11320000  0.06890000  0.70440000  1.0 -0.1322703848
C  C158  1  0.88680000  0.93110000  0.70440000  1.0 -0.1322703848
C  C159  1  0.11320000  0.93110000  0.29560000  1.0 -0.1322703848
C  C160  1  0.88680000  0.06890000  0.29560000  1.0 -0.1322703848
C  C161  1  0.06890000  0.70440000  0.11320000  1.0 -0.1350159764
C  C162  1  0.93110000  0.70440000  0.88680000  1.0 -0.1322703848
C  C163  1  0.93110000  0.29560000  0.11320000  1.0 -0.1322703848
C  C164  1  0.06890000  0.29560000  0.88680000  1.0 -0.1322703848
C  C165  1  0.70440000  0.11320000  0.06890000  1.0 -0.1322703848
C  C166  1  0.70440000  0.88680000  0.93110000  1.0 -0.1322703848
C  C167  1  0.29560000  0.11320000  0.93110000  1.0 -0.1322703848
C  C168  1  0.29560000  0.88680000  0.06890000  1.0 -0.1322703848
C  C169  1  0.51560000  0.57930000  0.20510000  1.0 0.1535929615
C  C170  1  0.48440000  0.42070000  0.20510000  1.0 0.1535929615
C  C171  1  0.48440000  0.57930000  0.79490000  1.0 0.1535929615
C  C172  1  0.51560000  0.42070000  0.79490000  1.0 0.1535929615
C  C173  1  0.20510000  0.51560000  0.57930000  1.0 0.1535929615
C  C174  1  0.20510000  0.48440000  0.42070000  1.0 0.1535929615
C  C175  1  0.79490000  0.48440000  0.57930000  1.0 0.1535929615
C  C176  1  0.79490000  0.51560000  0.42070000  1.0 0.1535929615
C  C177  1  0.57930000  0.20510000  0.51560000  1.0 0.1535929615
C  C178  1  0.42070000  0.20510000  0.48440000  1.0 0.1535929615
C  C179  1  0.57930000  0.79490000  0.48440000  1.0 0.1535929615
C  C180  1  0.42070000  0.79490000  0.51560000  1.0 0.1535929615
C  C181  1  0.07930000  0.01560000  0.70510000  1.0 0.1535929615
C  C182  1  0.92070000  0.98440000  0.70510000  1.0 0.1535929615
C  C183  1  0.07930000  0.98440000  0.29490000  1.0 0.1535929615
C  C184  1  0.92070000  0.01560000  0.29490000  1.0 0.1535929615
C  C185  1  0.01560000  0.70510000  0.07930000  1.0 0.1535929615
C  C186  1  0.98440000  0.70510000  0.92070000  1.0 0.1535929615
C  C187  1  0.98440000  0.29490000  0.07930000  1.0 0.1535929615
C  C188  1  0.01560000  0.29490000  0.92070000  1.0 0.1535929615
C  C189  1  0.70510000  0.07930000  0.01560000  1.0 0.1535929615
C  C190  1  0.70510000  0.92070000  0.98440000  1.0 0.1535929615
C  C191  1  0.29490000  0.07930000  0.98440000  1.0 0.1535929615
C  C192  1  0.29490000  0.92070000  0.01560000  1.0 0.1535929615
N  N1  1  0.52433000  0.51431000  0.20310000  1.0 -0.1174249892
N  N2  1  0.47567000  0.48569000  0.20310000  1.0 -0.1174249892
N  N3  1  0.47567000  0.51431000  0.79690000  1.0 -0.1174249892
N  N4  1  0.52433000  0.48569000  0.79690000  1.0 -0.1174249892
N  N5  1  0.20310000  0.52433000  0.51431000  1.0 -0.1174249892
N  N6  1  0.20310000  0.47567000  0.48569000  1.0 -0.1174249892
N  N7  1  0.79690000  0.47567000  0.51431000  1.0 -0.1174249892
N  N8  1  0.79690000  0.52433000  0.48569000  1.0 -0.1174249892
N  N9  1  0.51431000  0.20310000  0.52433000  1.0 -0.1174249892
N  N10  1  0.48569000  0.20310000  0.47567000  1.0 -0.1174249892
N  N11  1  0.51431000  0.79690000  0.47567000  1.0 -0.1174249892
N  N12  1  0.48569000  0.79690000  0.52433000  1.0 -0.1174249892
N  N13  1  0.01431000  0.02433000  0.70310000  1.0 -0.1174249892
N  N14  1  0.98569000  0.97567000  0.70310000  1.0 -0.1174249892
N  N15  1  0.01431000  0.97567000  0.29690000  1.0 -0.1174249892
N  N16  1  0.98569000  0.02433000  0.29690000  1.0 -0.1174249892
N  N17  1  0.02433000  0.70310000  0.01431000  1.0 -0.1174249892
N  N18  1  0.97567000  0.70310000  0.98569000  1.0 -0.1174249892
N  N19  1  0.97567000  0.29690000  0.01431000  1.0 -0.1174249892
N  N20  1  0.02433000  0.29690000  0.98569000  1.0 -0.1174249892
N  N21  1  0.70310000  0.01431000  0.02433000  1.0 -0.1174249892
N  N22  1  0.70310000  0.98569000  0.97567000  1.0 -0.1174249892
N  N23  1  0.29690000  0.01431000  0.97567000  1.0 -0.1174249892
N  N24  1  0.29690000  0.98569000  0.02433000  1.0 -0.1174249892
O  O1  1  0.35026000  0.66827000  0.20428000  1.0 -0.5374855667
O  O2  1  0.64974000  0.33173000  0.20428000  1.0 -0.5374855667
O  O3  1  0.64974000  0.66827000  0.79572000  1.0 -0.5374855667
O  O4  1  0.35026000  0.33173000  0.79572000  1.0 -0.5374855667
O  O5  1  0.20428000  0.35026000  0.66827000  1.0 -0.5374855667
O  O6  1  0.20428000  0.64974000  0.33173000  1.0 -0.5374855667
O  O7  1  0.79572000  0.64974000  0.66827000  1.0 -0.5374855667
O  O8  1  0.79572000  0.35026000  0.33173000  1.0 -0.5374855667
O  O9  1  0.66827000  0.20428000  0.35026000  1.0 -0.5374855667
O  O10  1  0.33173000  0.20428000  0.64974000  1.0 -0.5374855667
O  O11  1  0.66827000  0.79572000  0.64974000  1.0 -0.5374855667
O  O12  1  0.33173000  0.79572000  0.35026000  1.0 -0.5374855667
O  O13  1  0.16827000  0.85026000  0.70428000  1.0 -0.5374855667
O  O14  1  0.83173000  0.14974000  0.70428000  1.0 -0.5374855667
O  O15  1  0.16827000  0.14974000  0.29572000  1.0 -0.5374855667
O  O16  1  0.83173000  0.85026000  0.29572000  1.0 -0.5374855667
O  O17  1  0.85026000  0.70428000  0.16827000  1.0 -0.5374855667
O  O18  1  0.14974000  0.70428000  0.83173000  1.0 -0.5374855667
O  O19  1  0.14974000  0.29572000  0.16827000  1.0 -0.5374855667
O  O20  1  0.85026000  0.29572000  0.83173000  1.0 -0.5374855667
O  O21  1  0.70428000  0.16827000  0.85026000  1.0 -0.5374855667
O  O22  1  0.70428000  0.83173000  0.14974000  1.0 -0.5374855667
O  O23  1  0.29572000  0.16827000  0.14974000  1.0 -0.5374855667
O  O24  1  0.29572000  0.83173000  0.85026000  1.0 -0.5374855667
O  O25  1  0.39339000  0.75312000  0.24440000  1.0 -0.5374855667
O  O26  1  0.60661000  0.24688000  0.24440000  1.0 -0.5374855667
O  O27  1  0.60661000  0.75312000  0.75560000  1.0 -0.5374855667
O  O28  1  0.39339000  0.24688000  0.75560000  1.0 -0.5374855667
O  O29  1  0.24440000  0.39339000  0.75312000  1.0 -0.5374855667
O  O30  1  0.24440000  0.60661000  0.24688000  1.0 -0.5374855667
O  O31  1  0.75560000  0.60661000  0.75312000  1.0 -0.5374855667
O  O32  1  0.75560000  0.39339000  0.24688000  1.0 -0.5374855667
O  O33  1  0.75312000  0.24440000  0.39339000  1.0 -0.5374855667
O  O34  1  0.24688000  0.24440000  0.60661000  1.0 -0.5374855667
O  O35  1  0.75312000  0.75560000  0.60661000  1.0 -0.5374855667
O  O36  1  0.24688000  0.75560000  0.39339000  1.0 -0.5374855667
O  O37  1  0.25312000  0.89339000  0.74440000  1.0 -0.5374855667
O  O38  1  0.74688000  0.10661000  0.74440000  1.0 -0.5374855667
O  O39  1  0.25312000  0.10661000  0.25560000  1.0 -0.5374855667
O  O40  1  0.74688000  0.89339000  0.25560000  1.0 -0.5374855667
O  O41  1  0.89339000  0.74440000  0.25312000  1.0 -0.5374855667
O  O42  1  0.10661000  0.74440000  0.74688000  1.0 -0.5374855667
O  O43  1  0.10661000  0.25560000  0.25312000  1.0 -0.5374855667
O  O44  1  0.89339000  0.25560000  0.74688000  1.0 -0.5374855667
O  O45  1  0.74440000  0.25312000  0.89339000  1.0 -0.5374855667
O  O46  1  0.74440000  0.74688000  0.10661000  1.0 -0.5374855667
O  O47  1  0.25560000  0.25312000  0.10661000  1.0 -0.5374855667
O  O48  1  0.25560000  0.74688000  0.89339000  1.0 -0.5374855667
O  O49  1  0.62457000  0.76568000  0.22550000  1.0 -0.5261562437
O  O50  1  0.37543000  0.23432000  0.22550000  1.0 -0.5261562437
O  O51  1  0.37543000  0.76568000  0.77450000  1.0 -0.5261562437
O  O52  1  0.62457000  0.23432000  0.77450000  1.0 -0.5261562437
O  O53  1  0.22550000  0.62457000  0.76568000  1.0 -0.5261562437
O  O54  1  0.22550000  0.37543000  0.23432000  1.0 -0.5261562437
O  O55  1  0.77450000  0.37543000  0.76568000  1.0 -0.5261562437
O  O56  1  0.77450000  0.62457000  0.23432000  1.0 -0.5261562437
O  O57  1  0.76568000  0.22550000  0.62457000  1.0 -0.5261562437
O  O58  1  0.23432000  0.22550000  0.37543000  1.0 -0.5261562437
O  O59  1  0.76568000  0.77450000  0.37543000  1.0 -0.5261562437
O  O60  1  0.23432000  0.77450000  0.62457000  1.0 -0.5261562437
O  O61  1  0.26568000  0.12457000  0.72550000  1.0 -0.5261562437
O  O62  1  0.73432000  0.87543000  0.72550000  1.0 -0.5261562437
O  O63  1  0.26568000  0.87543000  0.27450000  1.0 -0.5261562437
O  O64  1  0.73432000  0.12457000  0.27450000  1.0 -0.5261562437
O  O65  1  0.12457000  0.72550000  0.26568000  1.0 -0.5261562437
O  O66  1  0.87543000  0.72550000  0.73432000  1.0 -0.5261562437
O  O67  1  0.87543000  0.27450000  0.26568000  1.0 -0.5261562437
O  O68  1  0.12457000  0.27450000  0.73432000  1.0 -0.5261562437
O  O69  1  0.72550000  0.26568000  0.12457000  1.0 -0.5261562437
O  O70  1  0.72550000  0.73432000  0.87543000  1.0 -0.5261562437
O  O71  1  0.27450000  0.26568000  0.87543000  1.0 -0.5261562437
O  O72  1  0.27450000  0.73432000  0.12457000  1.0 -0.5261562437
O  O73  1  0.25888000  0.74112000  0.25888000  1.0 -0.7900883227
O  O74  1  0.74112000  0.25888000  0.25888000  1.0 -0.7900883227
O  O75  1  0.74112000  0.74112000  0.74112000  1.0 -0.7900883227
O  O76  1  0.25888000  0.25888000  0.74112000  1.0 -0.7900883227
O  O77  1  0.24112000  0.75888000  0.75888000  1.0 -0.7900883227
O  O78  1  0.75888000  0.24112000  0.75888000  1.0 -0.7900883227
O  O79  1  0.24112000  0.24112000  0.24112000  1.0 -0.7900883227
O  O80  1  0.75888000  0.75888000  0.24112000  1.0 -0.7900883227
O  O81  1  0.67104000  0.68170000  0.18734000  1.0 -0.5453965932
O  O82  1  0.32896000  0.31830000  0.18734000  1.0 -0.5453965932
O  O83  1  0.32896000  0.68170000  0.81266000  1.0 -0.5453965932
O  O84  1  0.67104000  0.31830000  0.81266000  1.0 -0.5453965932
O  O85  1  0.18734000  0.67104000  0.68170000  1.0 -0.5453965932
O  O86  1  0.18734000  0.32896000  0.31830000  1.0 -0.5453965932
O  O87  1  0.81266000  0.32896000  0.68170000  1.0 -0.5453965932
O  O88  1  0.81266000  0.67104000  0.31830000  1.0 -0.5453965932
O  O89  1  0.68170000  0.18734000  0.67104000  1.0 -0.5453965932
O  O90  1  0.31830000  0.18734000  0.32896000  1.0 -0.5453965932
O  O91  1  0.68170000  0.81266000  0.32896000  1.0 -0.5453965932
O  O92  1  0.31830000  0.81266000  0.67104000  1.0 -0.5453965932
O  O93  1  0.18170000  0.17104000  0.68734000  1.0 -0.5453965932
O  O94  1  0.81830000  0.82896000  0.68734000  1.0 -0.5453965932
O  O95  1  0.18170000  0.82896000  0.31266000  1.0 -0.5453965932
O  O96  1  0.81830000  0.17104000  0.31266000  1.0 -0.5453965932
O  O97  1  0.17104000  0.68734000  0.18170000  1.0 -0.5453965932
O  O98  1  0.82896000  0.68734000  0.81830000  1.0 -0.5453965932
O  O99  1  0.82896000  0.31266000  0.18170000  1.0 -0.5453965932
O  O100  1  0.17104000  0.31266000  0.81830000  1.0 -0.5453965932
O  O101  1  0.68734000  0.18170000  0.17104000  1.0 -0.5453965932
O  O102  1  0.68734000  0.81830000  0.82896000  1.0 -0.5453965932
O  O103  1  0.31266000  0.18170000  0.82896000  1.0 -0.5453965932
O  O104  1  0.31266000  0.81830000  0.17104000  1.0 -0.5453965932
