# DDEC6 charges by PACMAN v1.1 (https://github.com/mtap-research/PACMAN-charge/)
data_LIDBIN_ASR_pacman
_symmetry_space_group_name_H-M   'P 1'
_cell_length_a   21.95180000
_cell_length_b   21.95180000
_cell_length_c   21.95180000
_cell_angle_alpha   90.00000000
_cell_angle_beta   90.00000000
_cell_angle_gamma   90.00000000
_symmetry_Int_Tables_number   1
_chemical_formula_structural   Fe3H9C24N3O13
_chemical_formula_sum   'Fe24 H72 C192 N24 O104'
_cell_volume   10578.16682186
_cell_formula_units_Z   8
loop_
 _symmetry_equiv_pos_site_id
 _symmetry_equiv_pos_as_xyz
  1  'x, y, z'
loop_
 _atom_site_type_symbol
 _atom_site_label
 _atom_site_symmetry_multiplicity
 _atom_site_fract_x
 _atom_site_fract_y
 _atom_site_fract_z
 _atom_site_occupancy
 _atom_site_charge
Fe  Fe1  1  0.18023000  0.76109000  0.30299000  1.0 1.2327223293
Fe  Fe2  1  0.81977000  0.23891000  0.30299000  1.0 1.2327223293
Fe  Fe3  1  0.81977000  0.76109000  0.69701000  1.0 1.2327223293
Fe  Fe4  1  0.18023000  0.23891000  0.69701000  1.0 1.2327223293
Fe  Fe5  1  0.30299000  0.18023000  0.76109000  1.0 1.2327223293
Fe  Fe6  1  0.30299000  0.81977000  0.23891000  1.0 1.2327223293
Fe  Fe7  1  0.69701000  0.81977000  0.76109000  1.0 1.2327223293
Fe  Fe8  1  0.69701000  0.18023000  0.23891000  1.0 1.2327223293
Fe  Fe9  1  0.76109000  0.30299000  0.18023000  1.0 1.2327223293
Fe  Fe10  1  0.23891000  0.30299000  0.81977000  1.0 1.2327223293
Fe  Fe11  1  0.76109000  0.69701000  0.81977000  1.0 1.2327223293
Fe  Fe12  1  0.23891000  0.69701000  0.18023000  1.0 1.2327223293
Fe  Fe13  1  0.26109000  0.68023000  0.80299000  1.0 1.2327223293
Fe  Fe14  1  0.73891000  0.31977000  0.80299000  1.0 1.2327223293
Fe  Fe15  1  0.26109000  0.31977000  0.19701000  1.0 1.2327223293
Fe  Fe16  1  0.73891000  0.68023000  0.19701000  1.0 1.2327223293
Fe  Fe17  1  0.68023000  0.80299000  0.26109000  1.0 1.2327223293
Fe  Fe18  1  0.31977000  0.80299000  0.73891000  1.0 1.2327223293
Fe  Fe19  1  0.31977000  0.19701000  0.26109000  1.0 1.2327223293
Fe  Fe20  1  0.68023000  0.19701000  0.73891000  1.0 1.2327223293
Fe  Fe21  1  0.80299000  0.26109000  0.68023000  1.0 1.2327223293
Fe  Fe22  1  0.80299000  0.73891000  0.31977000  1.0 1.2327223293
Fe  Fe23  1  0.19701000  0.26109000  0.31977000  1.0 1.2327223293
Fe  Fe24  1  0.19701000  0.73891000  0.68023000  1.0 1.2327223293
H  H1  1  0.25475000  0.77695000  0.49077000  1.0 0.1380683329
H  H2  1  0.74525000  0.22305000  0.49077000  1.0 0.1380683329
H  H3  1  0.74525000  0.77695000  0.50923000  1.0 0.1380683329
H  H4  1  0.25475000  0.22305000  0.50923000  1.0 0.1380683329
H  H5  1  0.49077000  0.25475000  0.77695000  1.0 0.1380683329
H  H6  1  0.49077000  0.74525000  0.22305000  1.0 0.1380683329
H  H7  1  0.50923000  0.74525000  0.77695000  1.0 0.1380683329
H  H8  1  0.50923000  0.25475000  0.22305000  1.0 0.1380683329
H  H9  1  0.77695000  0.49077000  0.25475000  1.0 0.1380683329
H  H10  1  0.22305000  0.49077000  0.74525000  1.0 0.1380683329
H  H11  1  0.77695000  0.50923000  0.74525000  1.0 0.1380683329
H  H12  1  0.22305000  0.50923000  0.25475000  1.0 0.1380683329
H  H13  1  0.27695000  0.75475000  0.99077000  1.0 0.1380683329
H  H14  1  0.72305000  0.24525000  0.99077000  1.0 0.1380683329
H  H15  1  0.27695000  0.24525000  0.00923000  1.0 0.1380683329
H  H16  1  0.72305000  0.75475000  0.00923000  1.0 0.1380683329
H  H17  1  0.75475000  0.99077000  0.27695000  1.0 0.1380683329
H  H18  1  0.24525000  0.99077000  0.72305000  1.0 0.1380683329
H  H19  1  0.24525000  0.00923000  0.27695000  1.0 0.1380683329
H  H20  1  0.75475000  0.00923000  0.72305000  1.0 0.1380683329
H  H21  1  0.99077000  0.27695000  0.75475000  1.0 0.1380683329
H  H22  1  0.99077000  0.72305000  0.24525000  1.0 0.1380683329
H  H23  1  0.00923000  0.27695000  0.24525000  1.0 0.1380683329
H  H24  1  0.00923000  0.72305000  0.75475000  1.0 0.1380683329
H  H25  1  0.41582000  0.79374000  0.57585000  1.0 0.1337858789
H  H26  1  0.58418000  0.20626000  0.57585000  1.0 0.1337858789
H  H27  1  0.58418000  0.79374000  0.42415000  1.0 0.1337858789
H  H28  1  0.41582000  0.20626000  0.42415000  1.0 0.1337858789
H  H29  1  0.57585000  0.41582000  0.79374000  1.0 0.1337858789
H  H30  1  0.57585000  0.58418000  0.20626000  1.0 0.1337858789
H  H31  1  0.42415000  0.58418000  0.79374000  1.0 0.1337858789
H  H32  1  0.42415000  0.41582000  0.20626000  1.0 0.1337858789
H  H33  1  0.79374000  0.57585000  0.41582000  1.0 0.1337858789
H  H34  1  0.20626000  0.57585000  0.58418000  1.0 0.1337858789
H  H35  1  0.79374000  0.42415000  0.58418000  1.0 0.1337858789
H  H36  1  0.20626000  0.42415000  0.41582000  1.0 0.1337858789
H  H37  1  0.29374000  0.91582000  0.07585000  1.0 0.1337858789
H  H38  1  0.70626000  0.08418000  0.07585000  1.0 0.1337858789
H  H39  1  0.29374000  0.08418000  0.92415000  1.0 0.1337858789
H  H40  1  0.70626000  0.91582000  0.92415000  1.0 0.1337858789
H  H41  1  0.91582000  0.07585000  0.29374000  1.0 0.1337858789
H  H42  1  0.08418000  0.07585000  0.70626000  1.0 0.1337858789
H  H43  1  0.08418000  0.92415000  0.29374000  1.0 0.1337858789
H  H44  1  0.91582000  0.92415000  0.70626000  1.0 0.1337858789
H  H45  1  0.07585000  0.29374000  0.91582000  1.0 0.1337858789
H  H46  1  0.07585000  0.70626000  0.08418000  1.0 0.1337858789
H  H47  1  0.92415000  0.29374000  0.08418000  1.0 0.1337858789
H  H48  1  0.92415000  0.70626000  0.91582000  1.0 0.1337858789
H  H49  1  0.40687000  0.80351000  0.39305000  1.0 0.1380683329
H  H50  1  0.59313000  0.19649000  0.39305000  1.0 0.1380683329
H  H51  1  0.59313000  0.80351000  0.60695000  1.0 0.1380683329
H  H52  1  0.40687000  0.19649000  0.60695000  1.0 0.1380683329
H  H53  1  0.39305000  0.40687000  0.80351000  1.0 0.1380683329
H  H54  1  0.39305000  0.59313000  0.19649000  1.0 0.1380683329
H  H55  1  0.60695000  0.59313000  0.80351000  1.0 0.1380683329
H  H56  1  0.60695000  0.40687000  0.19649000  1.0 0.1380683329
H  H57  1  0.80351000  0.39305000  0.40687000  1.0 0.1380683329
H  H58  1  0.19649000  0.39305000  0.59313000  1.0 0.1380683329
H  H59  1  0.80351000  0.60695000  0.59313000  1.0 0.1380683329
H  H60  1  0.19649000  0.60695000  0.40687000  1.0 0.1380683329
H  H61  1  0.30351000  0.90687000  0.89305000  1.0 0.1380683329
H  H62  1  0.69649000  0.09313000  0.89305000  1.0 0.1380683329
H  H63  1  0.30351000  0.09313000  0.10695000  1.0 0.1380683329
H  H64  1  0.69649000  0.90687000  0.10695000  1.0 0.1380683329
H  H65  1  0.90687000  0.89305000  0.30351000  1.0 0.1380683329
H  H66  1  0.09313000  0.89305000  0.69649000  1.0 0.1380683329
H  H67  1  0.09313000  0.10695000  0.30351000  1.0 0.1380683329
H  H68  1  0.90687000  0.10695000  0.69649000  1.0 0.1380683329
H  H69  1  0.89305000  0.30351000  0.90687000  1.0 0.1380683329
H  H70  1  0.89305000  0.69649000  0.09313000  1.0 0.1380683329
H  H71  1  0.10695000  0.30351000  0.09313000  1.0 0.1380683329
H  H72  1  0.10695000  0.69649000  0.90687000  1.0 0.1380683329
C  C1  1  0.29660000  0.78300000  0.48900000  1.0 -0.0962033052
C  C2  1  0.70340000  0.21700000  0.48900000  1.0 -0.0962033052
C  C3  1  0.70340000  0.78300000  0.51100000  1.0 -0.0962033052
C  C4  1  0.29660000  0.21700000  0.51100000  1.0 -0.0962033052
C  C5  1  0.48900000  0.29660000  0.78300000  1.0 -0.0962033052
C  C6  1  0.48900000  0.70340000  0.21700000  1.0 -0.0962033052
C  C7  1  0.51100000  0.70340000  0.78300000  1.0 -0.0962033052
C  C8  1  0.51100000  0.29660000  0.21700000  1.0 -0.0962033052
C  C9  1  0.78300000  0.48900000  0.29660000  1.0 -0.0962033052
C  C10  1  0.21700000  0.48900000  0.70340000  1.0 -0.0962033052
C  C11  1  0.78300000  0.51100000  0.70340000  1.0 -0.0962033052
C  C12  1  0.21700000  0.51100000  0.29660000  1.0 -0.0962033052
C  C13  1  0.28300000  0.79660000  0.98900000  1.0 -0.0962033052
C  C14  1  0.71700000  0.20340000  0.98900000  1.0 -0.0962033052
C  C15  1  0.28300000  0.20340000  0.01100000  1.0 -0.0962033052
C  C16  1  0.71700000  0.79660000  0.01100000  1.0 -0.0962033052
C  C17  1  0.79660000  0.98900000  0.28300000  1.0 -0.0962033052
C  C18  1  0.20340000  0.98900000  0.71700000  1.0 -0.0962033052
C  C19  1  0.20340000  0.01100000  0.28300000  1.0 -0.0962033052
C  C20  1  0.79660000  0.01100000  0.71700000  1.0 -0.0962033052
C  C21  1  0.98900000  0.28300000  0.79660000  1.0 -0.0962033052
C  C22  1  0.98900000  0.71700000  0.20340000  1.0 -0.0962033052
C  C23  1  0.01100000  0.28300000  0.20340000  1.0 -0.0962033052
C  C24  1  0.01100000  0.71700000  0.79660000  1.0 -0.0962033052
C  C25  1  0.30200000  0.77710000  0.60350000  1.0 0.6029280198
C  C26  1  0.69800000  0.22290000  0.60350000  1.0 0.6029280198
C  C27  1  0.69800000  0.77710000  0.39650000  1.0 0.6029280198
C  C28  1  0.30200000  0.22290000  0.39650000  1.0 0.6029280198
C  C29  1  0.60350000  0.30200000  0.77710000  1.0 0.6029280198
C  C30  1  0.60350000  0.69800000  0.22290000  1.0 0.6029280198
C  C31  1  0.39650000  0.69800000  0.77710000  1.0 0.6029280198
C  C32  1  0.39650000  0.30200000  0.22290000  1.0 0.6029280198
C  C33  1  0.77710000  0.60350000  0.30200000  1.0 0.6029280198
C  C34  1  0.22290000  0.60350000  0.69800000  1.0 0.6029280198
C  C35  1  0.77710000  0.39650000  0.69800000  1.0 0.6029280198
C  C36  1  0.22290000  0.39650000  0.30200000  1.0 0.6029280198
C  C37  1  0.27710000  0.80200000  0.10350000  1.0 0.6029280198
C  C38  1  0.72290000  0.19800000  0.10350000  1.0 0.6029280198
C  C39  1  0.27710000  0.19800000  0.89650000  1.0 0.6029280198
C  C40  1  0.72290000  0.80200000  0.89650000  1.0 0.6029280198
C  C41  1  0.80200000  0.10350000  0.27710000  1.0 0.6029280198
C  C42  1  0.19800000  0.10350000  0.72290000  1.0 0.6029280198
C  C43  1  0.19800000  0.89650000  0.27710000  1.0 0.6029280198
C  C44  1  0.80200000  0.89650000  0.72290000  1.0 0.6029280198
C  C45  1  0.10350000  0.27710000  0.80200000  1.0 0.6029280198
C  C46  1  0.10350000  0.72290000  0.19800000  1.0 0.6029280198
C  C47  1  0.89650000  0.27710000  0.19800000  1.0 0.6029280198
C  C48  1  0.89650000  0.72290000  0.80200000  1.0 0.6029280198
C  C49  1  0.33100000  0.78380000  0.54210000  1.0 -0.0162428863
C  C50  1  0.66900000  0.21620000  0.54210000  1.0 -0.0162428863
C  C51  1  0.66900000  0.78380000  0.45790000  1.0 -0.0162428863
C  C52  1  0.33100000  0.21620000  0.45790000  1.0 -0.0162428863
C  C53  1  0.54210000  0.33100000  0.78380000  1.0 -0.0162428863
C  C54  1  0.54210000  0.66900000  0.21620000  1.0 -0.0162428863
C  C55  1  0.45790000  0.66900000  0.78380000  1.0 -0.0162428863
C  C56  1  0.45790000  0.33100000  0.21620000  1.0 -0.0162428863
C  C57  1  0.78380000  0.54210000  0.33100000  1.0 -0.0162428863
C  C58  1  0.21620000  0.54210000  0.66900000  1.0 -0.0162428863
C  C59  1  0.78380000  0.45790000  0.66900000  1.0 -0.0162428863
C  C60  1  0.21620000  0.45790000  0.33100000  1.0 -0.0162428863
C  C61  1  0.28380000  0.83100000  0.04210000  1.0 -0.0162428863
C  C62  1  0.71620000  0.16900000  0.04210000  1.0 -0.0162428863
C  C63  1  0.28380000  0.16900000  0.95790000  1.0 -0.0162428863
C  C64  1  0.71620000  0.83100000  0.95790000  1.0 -0.0162428863
C  C65  1  0.83100000  0.04210000  0.28380000  1.0 -0.0162428863
C  C66  1  0.16900000  0.04210000  0.71620000  1.0 -0.0162428863
C  C67  1  0.16900000  0.95790000  0.28380000  1.0 -0.0162428863
C  C68  1  0.83100000  0.95790000  0.71620000  1.0 -0.0162428863
C  C69  1  0.04210000  0.28380000  0.83100000  1.0 -0.0162428863
C  C70  1  0.04210000  0.71620000  0.16900000  1.0 -0.0162428863
C  C71  1  0.95790000  0.28380000  0.16900000  1.0 -0.0162428863
C  C72  1  0.95790000  0.71620000  0.83100000  1.0 -0.0162428863
C  C73  1  0.32540000  0.79150000  0.43280000  1.0 -0.0267534725
C  C74  1  0.67460000  0.20850000  0.43280000  1.0 -0.0267534725
C  C75  1  0.67460000  0.79150000  0.56720000  1.0 -0.0267534725
C  C76  1  0.32540000  0.20850000  0.56720000  1.0 -0.0267534725
C  C77  1  0.43280000  0.32540000  0.79150000  1.0 -0.0267534725
C  C78  1  0.43280000  0.67460000  0.20850000  1.0 -0.0267534725
C  C79  1  0.56720000  0.67460000  0.79150000  1.0 -0.0267534725
C  C80  1  0.56720000  0.32540000  0.20850000  1.0 -0.0267534725
C  C81  1  0.79150000  0.43280000  0.32540000  1.0 -0.0267534725
C  C82  1  0.20850000  0.43280000  0.67460000  1.0 -0.0267534725
C  C83  1  0.79150000  0.56720000  0.67460000  1.0 -0.0267534725
C  C84  1  0.20850000  0.56720000  0.32540000  1.0 -0.0267534725
C  C85  1  0.29150000  0.82540000  0.93280000  1.0 -0.0267534725
C  C86  1  0.70850000  0.17460000  0.93280000  1.0 -0.0267534725
C  C87  1  0.29150000  0.17460000  0.06720000  1.0 -0.0267534725
C  C88  1  0.70850000  0.82540000  0.06720000  1.0 -0.0267534725
C  C89  1  0.82540000  0.93280000  0.29150000  1.0 -0.0267534725
C  C90  1  0.17460000  0.93280000  0.70850000  1.0 -0.0267534725
C  C91  1  0.17460000  0.06720000  0.29150000  1.0 -0.0267534725
C  C92  1  0.82540000  0.06720000  0.70850000  1.0 -0.0267534725
C  C93  1  0.93280000  0.29150000  0.82540000  1.0 -0.0267534725
C  C94  1  0.93280000  0.70850000  0.17460000  1.0 -0.0267534725
C  C95  1  0.06720000  0.29150000  0.17460000  1.0 -0.0267534725
C  C96  1  0.06720000  0.70850000  0.82540000  1.0 -0.0267534725
C  C97  1  0.29060000  0.79350000  0.37480000  1.0 0.6029280198
C  C98  1  0.70940000  0.20650000  0.37480000  1.0 0.6029280198
C  C99  1  0.70940000  0.79350000  0.62520000  1.0 0.6029280198
C  C100  1  0.29060000  0.20650000  0.62520000  1.0 0.6029280198
C  C101  1  0.37480000  0.29060000  0.79350000  1.0 0.6029280198
C  C102  1  0.37480000  0.70940000  0.20650000  1.0 0.6029280198
C  C103  1  0.62520000  0.70940000  0.79350000  1.0 0.6029280198
C  C104  1  0.62520000  0.29060000  0.20650000  1.0 0.6029280198
C  C105  1  0.79350000  0.37480000  0.29060000  1.0 0.6029280198
C  C106  1  0.20650000  0.37480000  0.70940000  1.0 0.6029280198
C  C107  1  0.79350000  0.62520000  0.70940000  1.0 0.6029280198
C  C108  1  0.20650000  0.62520000  0.29060000  1.0 0.6029280198
C  C109  1  0.29350000  0.79060000  0.87480000  1.0 0.6029280198
C  C110  1  0.70650000  0.20940000  0.87480000  1.0 0.6029280198
C  C111  1  0.29350000  0.20940000  0.12520000  1.0 0.6029280198
C  C112  1  0.70650000  0.79060000  0.12520000  1.0 0.6029280198
C  C113  1  0.79060000  0.87480000  0.29350000  1.0 0.6029280198
C  C114  1  0.20940000  0.87480000  0.70650000  1.0 0.6029280198
C  C115  1  0.20940000  0.12520000  0.29350000  1.0 0.6029280198
C  C116  1  0.79060000  0.12520000  0.70650000  1.0 0.6029280198
C  C117  1  0.87480000  0.29350000  0.79060000  1.0 0.6029280198
C  C118  1  0.87480000  0.70650000  0.20940000  1.0 0.6029280198
C  C119  1  0.12520000  0.29350000  0.20940000  1.0 0.6029280198
C  C120  1  0.12520000  0.70650000  0.79060000  1.0 0.6029280198
C  C121  1  0.39320000  0.79180000  0.54010000  1.0 -0.1419159745
C  C122  1  0.60680000  0.20820000  0.54010000  1.0 -0.1419159745
C  C123  1  0.60680000  0.79180000  0.45990000  1.0 -0.1419159745
C  C124  1  0.39320000  0.20820000  0.45990000  1.0 -0.1419159745
C  C125  1  0.54010000  0.39320000  0.79180000  1.0 -0.1419159745
C  C126  1  0.54010000  0.60680000  0.20820000  1.0 -0.1419159745
C  C127  1  0.45990000  0.60680000  0.79180000  1.0 -0.1419159745
C  C128  1  0.45990000  0.39320000  0.20820000  1.0 -0.1419159745
C  C129  1  0.79180000  0.54010000  0.39320000  1.0 -0.1419159745
C  C130  1  0.20820000  0.54010000  0.60680000  1.0 -0.1419159745
C  C131  1  0.79180000  0.45990000  0.60680000  1.0 -0.1419159745
C  C132  1  0.20820000  0.45990000  0.39320000  1.0 -0.1419159745
C  C133  1  0.29180000  0.89320000  0.04010000  1.0 -0.1419159745
C  C134  1  0.70820000  0.10680000  0.04010000  1.0 -0.1419159745
C  C135  1  0.29180000  0.10680000  0.95990000  1.0 -0.1419159745
C  C136  1  0.70820000  0.89320000  0.95990000  1.0 -0.1419159745
C  C137  1  0.89320000  0.04010000  0.29180000  1.0 -0.1419159745
C  C138  1  0.10680000  0.04010000  0.70820000  1.0 -0.1419159745
C  C139  1  0.10680000  0.95990000  0.29180000  1.0 -0.1419159745
C  C140  1  0.89320000  0.95990000  0.70820000  1.0 -0.1419159745
C  C141  1  0.04010000  0.29180000  0.89320000  1.0 -0.1419159745
C  C142  1  0.04010000  0.70820000  0.10680000  1.0 -0.1419159745
C  C143  1  0.95990000  0.29180000  0.10680000  1.0 -0.1419159745
C  C144  1  0.95990000  0.70820000  0.89320000  1.0 -0.1419159745
C  C145  1  0.38740000  0.79820000  0.43030000  1.0 -0.1419159745
C  C146  1  0.61260000  0.20180000  0.43030000  1.0 -0.1419159745
C  C147  1  0.61260000  0.79820000  0.56970000  1.0 -0.1419159745
C  C148  1  0.38740000  0.20180000  0.56970000  1.0 -0.1419159745
C  C149  1  0.43030000  0.38740000  0.79820000  1.0 -0.1419159745
C  C150  1  0.43030000  0.61260000  0.20180000  1.0 -0.1419159745
C  C151  1  0.56970000  0.61260000  0.79820000  1.0 -0.1419159745
C  C152  1  0.56970000  0.38740000  0.20180000  1.0 -0.1419159745
C  C153  1  0.79820000  0.43030000  0.38740000  1.0 -0.1419159745
C  C154  1  0.20180000  0.43030000  0.61260000  1.0 -0.1419159745
C  C155  1  0.79820000  0.56970000  0.61260000  1.0 -0.1419159745
C  C156  1  0.20180000  0.56970000  0.38740000  1.0 -0.1419159745
C  C157  1  0.29820000  0.88740000  0.93030000  1.0 -0.1419159745
C  C158  1  0.70180000  0.11260000  0.93030000  1.0 -0.1419159745
C  C159  1  0.29820000  0.11260000  0.06970000  1.0 -0.1419159745
C  C160  1  0.70180000  0.88740000  0.06970000  1.0 -0.1419159745
C  C161  1  0.88740000  0.93030000  0.29820000  1.0 -0.1419159745
C  C162  1  0.11260000  0.93030000  0.70180000  1.0 -0.1419159745
C  C163  1  0.11260000  0.06970000  0.29820000  1.0 -0.1419159745
C  C164  1  0.88740000  0.06970000  0.70180000  1.0 -0.1419159745
C  C165  1  0.93030000  0.29820000  0.88740000  1.0 -0.1419159745
C  C166  1  0.93030000  0.70180000  0.11260000  1.0 -0.1419159745
C  C167  1  0.06970000  0.29820000  0.11260000  1.0 -0.1419159745
C  C168  1  0.06970000  0.70180000  0.88740000  1.0 -0.1419159745
C  C169  1  0.42130000  0.79700000  0.48430000  1.0 0.1521693223
C  C170  1  0.57870000  0.20300000  0.48430000  1.0 0.1521693223
C  C171  1  0.57870000  0.79700000  0.51570000  1.0 0.1521693223
C  C172  1  0.42130000  0.20300000  0.51570000  1.0 0.1521693223
C  C173  1  0.48430000  0.42130000  0.79700000  1.0 0.1521693223
C  C174  1  0.48430000  0.57870000  0.20300000  1.0 0.1521693223
C  C175  1  0.51570000  0.57870000  0.79700000  1.0 0.1521693223
C  C176  1  0.51570000  0.42130000  0.20300000  1.0 0.1521693223
C  C177  1  0.79700000  0.48430000  0.42130000  1.0 0.1521693223
C  C178  1  0.20300000  0.48430000  0.57870000  1.0 0.1521693223
C  C179  1  0.79700000  0.51570000  0.57870000  1.0 0.1521693223
C  C180  1  0.20300000  0.51570000  0.42130000  1.0 0.1521693223
C  C181  1  0.29700000  0.92130000  0.98430000  1.0 0.1521693223
C  C182  1  0.70300000  0.07870000  0.98430000  1.0 0.1521693223
C  C183  1  0.29700000  0.07870000  0.01570000  1.0 0.1521693223
C  C184  1  0.70300000  0.92130000  0.01570000  1.0 0.1521693223
C  C185  1  0.92130000  0.98430000  0.29700000  1.0 0.1521693223
C  C186  1  0.07870000  0.98430000  0.70300000  1.0 0.1521693223
C  C187  1  0.07870000  0.01570000  0.29700000  1.0 0.1521693223
C  C188  1  0.92130000  0.01570000  0.70300000  1.0 0.1521693223
C  C189  1  0.98430000  0.29700000  0.92130000  1.0 0.1521693223
C  C190  1  0.98430000  0.70300000  0.07870000  1.0 0.1521693223
C  C191  1  0.01570000  0.29700000  0.07870000  1.0 0.1521693223
C  C192  1  0.01570000  0.70300000  0.92130000  1.0 0.1521693223
N  N1  1  0.48620000  0.80150000  0.47620000  1.0 -0.1160098715
N  N2  1  0.51380000  0.19850000  0.47620000  1.0 -0.1160098715
N  N3  1  0.51380000  0.80150000  0.52380000  1.0 -0.1160098715
N  N4  1  0.48620000  0.19850000  0.52380000  1.0 -0.1160098715
N  N5  1  0.47620000  0.48620000  0.80150000  1.0 -0.1160098715
N  N6  1  0.47620000  0.51380000  0.19850000  1.0 -0.1160098715
N  N7  1  0.52380000  0.51380000  0.80150000  1.0 -0.1160098715
N  N8  1  0.52380000  0.48620000  0.19850000  1.0 -0.1160098715
N  N9  1  0.80150000  0.47620000  0.48620000  1.0 -0.1160098715
N  N10  1  0.19850000  0.47620000  0.51380000  1.0 -0.1160098715
N  N11  1  0.80150000  0.52380000  0.51380000  1.0 -0.1160098715
N  N12  1  0.19850000  0.52380000  0.48620000  1.0 -0.1160098715
N  N13  1  0.30150000  0.98620000  0.97620000  1.0 -0.1160098715
N  N14  1  0.69850000  0.01380000  0.97620000  1.0 -0.1160098715
N  N15  1  0.30150000  0.01380000  0.02380000  1.0 -0.1160098715
N  N16  1  0.69850000  0.98620000  0.02380000  1.0 -0.1160098715
N  N17  1  0.98620000  0.97620000  0.30150000  1.0 -0.1160098715
N  N18  1  0.01380000  0.97620000  0.69850000  1.0 -0.1160098715
N  N19  1  0.01380000  0.02380000  0.30150000  1.0 -0.1160098715
N  N20  1  0.98620000  0.02380000  0.69850000  1.0 -0.1160098715
N  N21  1  0.97620000  0.30150000  0.98620000  1.0 -0.1160098715
N  N22  1  0.97620000  0.69850000  0.01380000  1.0 -0.1160098715
N  N23  1  0.02380000  0.30150000  0.01380000  1.0 -0.1160098715
N  N24  1  0.02380000  0.69850000  0.98620000  1.0 -0.1160098715
O  O1  1  0.24059000  0.75941000  0.24059000  1.0 -0.925601967
O  O2  1  0.75941000  0.24059000  0.24059000  1.0 -0.9247429449
O  O3  1  0.75941000  0.75941000  0.75941000  1.0 -0.925601967
O  O4  1  0.24059000  0.24059000  0.75941000  1.0 -0.9247429449
O  O5  1  0.25941000  0.74059000  0.74059000  1.0 -0.925601967
O  O6  1  0.74059000  0.25941000  0.74059000  1.0 -0.9247429449
O  O7  1  0.25941000  0.25941000  0.25941000  1.0 -0.9247429449
O  O8  1  0.74059000  0.74059000  0.25941000  1.0 -0.925601967
O  O9  1  0.24990000  0.75590000  0.60630000  1.0 -0.529408834
O  O10  1  0.75010000  0.24410000  0.60630000  1.0 -0.529408834
O  O11  1  0.75010000  0.75590000  0.39370000  1.0 -0.529408834
O  O12  1  0.24990000  0.24410000  0.39370000  1.0 -0.529408834
O  O13  1  0.60630000  0.24990000  0.75590000  1.0 -0.529408834
O  O14  1  0.60630000  0.75010000  0.24410000  1.0 -0.529408834
O  O15  1  0.39370000  0.75010000  0.75590000  1.0 -0.529408834
O  O16  1  0.39370000  0.24990000  0.24410000  1.0 -0.529408834
O  O17  1  0.75590000  0.60630000  0.24990000  1.0 -0.529408834
O  O18  1  0.24410000  0.60630000  0.75010000  1.0 -0.529408834
O  O19  1  0.75590000  0.39370000  0.75010000  1.0 -0.529408834
O  O20  1  0.24410000  0.39370000  0.24990000  1.0 -0.529408834
O  O21  1  0.25590000  0.74990000  0.10630000  1.0 -0.529408834
O  O22  1  0.74410000  0.25010000  0.10630000  1.0 -0.529408834
O  O23  1  0.25590000  0.25010000  0.89370000  1.0 -0.529408834
O  O24  1  0.74410000  0.74990000  0.89370000  1.0 -0.529408834
O  O25  1  0.74990000  0.10630000  0.25590000  1.0 -0.529408834
O  O26  1  0.25010000  0.10630000  0.74410000  1.0 -0.529408834
O  O27  1  0.25010000  0.89370000  0.25590000  1.0 -0.529408834
O  O28  1  0.74990000  0.89370000  0.74410000  1.0 -0.529408834
O  O29  1  0.10630000  0.25590000  0.74990000  1.0 -0.529408834
O  O30  1  0.10630000  0.74410000  0.25010000  1.0 -0.529408834
O  O31  1  0.89370000  0.25590000  0.25010000  1.0 -0.529408834
O  O32  1  0.89370000  0.74410000  0.74990000  1.0 -0.529408834
O  O33  1  0.33360000  0.79460000  0.64840000  1.0 -0.5472101324
O  O34  1  0.66640000  0.20540000  0.64840000  1.0 -0.5472101324
O  O35  1  0.66640000  0.79460000  0.35160000  1.0 -0.5472101324
O  O36  1  0.33360000  0.20540000  0.35160000  1.0 -0.5472101324
O  O37  1  0.64840000  0.33360000  0.79460000  1.0 -0.5472101324
O  O38  1  0.64840000  0.66640000  0.20540000  1.0 -0.5472101324
O  O39  1  0.35160000  0.66640000  0.79460000  1.0 -0.5472101324
O  O40  1  0.35160000  0.33360000  0.20540000  1.0 -0.5472101324
O  O41  1  0.79460000  0.64840000  0.33360000  1.0 -0.5472101324
O  O42  1  0.20540000  0.64840000  0.66640000  1.0 -0.5472101324
O  O43  1  0.79460000  0.35160000  0.66640000  1.0 -0.5472101324
O  O44  1  0.20540000  0.35160000  0.33360000  1.0 -0.5472101324
O  O45  1  0.29460000  0.83360000  0.14840000  1.0 -0.5472101324
O  O46  1  0.70540000  0.16640000  0.14840000  1.0 -0.5472101324
O  O47  1  0.29460000  0.16640000  0.85160000  1.0 -0.5472101324
O  O48  1  0.70540000  0.83360000  0.85160000  1.0 -0.5472101324
O  O49  1  0.83360000  0.14840000  0.29460000  1.0 -0.5472101324
O  O50  1  0.16640000  0.14840000  0.70540000  1.0 -0.5472101324
O  O51  1  0.16640000  0.85160000  0.29460000  1.0 -0.5472101324
O  O52  1  0.83360000  0.85160000  0.70540000  1.0 -0.5472101324
O  O53  1  0.14840000  0.29460000  0.83360000  1.0 -0.5472101324
O  O54  1  0.14840000  0.70540000  0.16640000  1.0 -0.5472101324
O  O55  1  0.85160000  0.29460000  0.16640000  1.0 -0.5472101324
O  O56  1  0.85160000  0.70540000  0.83360000  1.0 -0.5472101324
O  O57  1  0.23650000  0.77600000  0.37420000  1.0 -0.529408834
O  O58  1  0.76350000  0.22400000  0.37420000  1.0 -0.529408834
O  O59  1  0.76350000  0.77600000  0.62580000  1.0 -0.529408834
O  O60  1  0.23650000  0.22400000  0.62580000  1.0 -0.529408834
O  O61  1  0.37420000  0.23650000  0.77600000  1.0 -0.529408834
O  O62  1  0.37420000  0.76350000  0.22400000  1.0 -0.529408834
O  O63  1  0.62580000  0.76350000  0.77600000  1.0 -0.529408834
O  O64  1  0.62580000  0.23650000  0.22400000  1.0 -0.529408834
O  O65  1  0.77600000  0.37420000  0.23650000  1.0 -0.529408834
O  O66  1  0.22400000  0.37420000  0.76350000  1.0 -0.529408834
O  O67  1  0.77600000  0.62580000  0.76350000  1.0 -0.529408834
O  O68  1  0.22400000  0.62580000  0.23650000  1.0 -0.529408834
O  O69  1  0.27600000  0.73650000  0.87420000  1.0 -0.529408834
O  O70  1  0.72400000  0.26350000  0.87420000  1.0 -0.529408834
O  O71  1  0.27600000  0.26350000  0.12580000  1.0 -0.529408834
O  O72  1  0.72400000  0.73650000  0.12580000  1.0 -0.529408834
O  O73  1  0.73650000  0.87420000  0.27600000  1.0 -0.529408834
O  O74  1  0.26350000  0.87420000  0.72400000  1.0 -0.529408834
O  O75  1  0.26350000  0.12580000  0.27600000  1.0 -0.529408834
O  O76  1  0.73650000  0.12580000  0.72400000  1.0 -0.529408834
O  O77  1  0.87420000  0.27600000  0.73650000  1.0 -0.529408834
O  O78  1  0.87420000  0.72400000  0.26350000  1.0 -0.529408834
O  O79  1  0.12580000  0.27600000  0.26350000  1.0 -0.529408834
O  O80  1  0.12580000  0.72400000  0.73650000  1.0 -0.529408834
O  O81  1  0.32000000  0.81290000  0.32920000  1.0 -0.5472101324
O  O82  1  0.68000000  0.18710000  0.32920000  1.0 -0.5472101324
O  O83  1  0.68000000  0.81290000  0.67080000  1.0 -0.5472101324
O  O84  1  0.32000000  0.18710000  0.67080000  1.0 -0.5472101324
O  O85  1  0.32920000  0.32000000  0.81290000  1.0 -0.5472101324
O  O86  1  0.32920000  0.68000000  0.18710000  1.0 -0.5472101324
O  O87  1  0.67080000  0.68000000  0.81290000  1.0 -0.5472101324
O  O88  1  0.67080000  0.32000000  0.18710000  1.0 -0.5472101324
O  O89  1  0.81290000  0.32920000  0.32000000  1.0 -0.5472101324
O  O90  1  0.18710000  0.32920000  0.68000000  1.0 -0.5472101324
O  O91  1  0.81290000  0.67080000  0.68000000  1.0 -0.5472101324
O  O92  1  0.18710000  0.67080000  0.32000000  1.0 -0.5472101324
O  O93  1  0.31290000  0.82000000  0.82920000  1.0 -0.5472101324
O  O94  1  0.68710000  0.18000000  0.82920000  1.0 -0.5472101324
O  O95  1  0.31290000  0.18000000  0.17080000  1.0 -0.5472101324
O  O96  1  0.68710000  0.82000000  0.17080000  1.0 -0.5472101324
O  O97  1  0.82000000  0.82920000  0.31290000  1.0 -0.5472101324
O  O98  1  0.18000000  0.82920000  0.68710000  1.0 -0.5472101324
O  O99  1  0.18000000  0.17080000  0.31290000  1.0 -0.5472101324
O  O100  1  0.82000000  0.17080000  0.68710000  1.0 -0.5472101324
O  O101  1  0.82920000  0.31290000  0.82000000  1.0 -0.5472101324
O  O102  1  0.82920000  0.68710000  0.18000000  1.0 -0.5472101324
O  O103  1  0.17080000  0.31290000  0.18000000  1.0 -0.5472101324
O  O104  1  0.17080000  0.68710000  0.82000000  1.0 -0.5472101324
