# DDEC6 charges by PACMAN v1.1 (https://github.com/mtap-research/PACMAN-charge/)
data_LIDBAF_ASR_pacman
_symmetry_space_group_name_H-M   'P 1'
_cell_length_a   21.86780000
_cell_length_b   21.86780000
_cell_length_c   21.86780000
_cell_angle_alpha   90.00000000
_cell_angle_beta   90.00000000
_cell_angle_gamma   90.00000000
_symmetry_Int_Tables_number   1
_chemical_formula_structural   Fe3H9C24N3O13
_chemical_formula_sum   'Fe24 H72 C192 N24 O104'
_cell_volume   10457.19676100
_cell_formula_units_Z   8
loop_
 _symmetry_equiv_pos_site_id
 _symmetry_equiv_pos_as_xyz
  1  'x, y, z'
loop_
 _atom_site_type_symbol
 _atom_site_label
 _atom_site_symmetry_multiplicity
 _atom_site_fract_x
 _atom_site_fract_y
 _atom_site_fract_z
 _atom_site_occupancy
 _atom_site_charge
Fe  Fe1  1  0.80137000  0.31673000  0.26004000  1.0 1.1419239658
Fe  Fe2  1  0.19863000  0.68327000  0.26004000  1.0 1.1419239658
Fe  Fe3  1  0.19863000  0.31673000  0.73996000  1.0 1.1419239658
Fe  Fe4  1  0.80137000  0.68327000  0.73996000  1.0 1.1419239658
Fe  Fe5  1  0.26004000  0.80137000  0.31673000  1.0 1.1419239658
Fe  Fe6  1  0.26004000  0.19863000  0.68327000  1.0 1.1419239658
Fe  Fe7  1  0.73996000  0.19863000  0.31673000  1.0 1.1419239658
Fe  Fe8  1  0.73996000  0.80137000  0.68327000  1.0 1.1419239658
Fe  Fe9  1  0.31673000  0.26004000  0.80137000  1.0 1.1419239658
Fe  Fe10  1  0.68327000  0.26004000  0.19863000  1.0 1.1419239658
Fe  Fe11  1  0.31673000  0.73996000  0.19863000  1.0 1.1419239658
Fe  Fe12  1  0.68327000  0.73996000  0.80137000  1.0 1.1419239658
Fe  Fe13  1  0.81673000  0.30137000  0.76004000  1.0 1.1419239658
Fe  Fe14  1  0.18327000  0.69863000  0.76004000  1.0 1.1419239658
Fe  Fe15  1  0.81673000  0.69863000  0.23996000  1.0 1.1419239658
Fe  Fe16  1  0.18327000  0.30137000  0.23996000  1.0 1.1419239658
Fe  Fe17  1  0.30137000  0.76004000  0.81673000  1.0 1.1419239658
Fe  Fe18  1  0.69863000  0.76004000  0.18327000  1.0 1.1419239658
Fe  Fe19  1  0.69863000  0.23996000  0.81673000  1.0 1.1419239658
Fe  Fe20  1  0.30137000  0.23996000  0.18327000  1.0 1.1419239658
Fe  Fe21  1  0.76004000  0.81673000  0.30137000  1.0 1.1419239658
Fe  Fe22  1  0.76004000  0.18327000  0.69863000  1.0 1.1419239658
Fe  Fe23  1  0.23996000  0.81673000  0.69863000  1.0 1.1419239658
Fe  Fe24  1  0.23996000  0.18327000  0.30137000  1.0 1.1419239658
H  H1  1  0.77802000  0.25232000  0.50840000  1.0 0.1422978043
H  H2  1  0.22198000  0.74768000  0.50840000  1.0 0.1422978043
H  H3  1  0.22198000  0.25232000  0.49160000  1.0 0.1422978043
H  H4  1  0.77802000  0.74768000  0.49160000  1.0 0.1422978043
H  H5  1  0.50840000  0.77802000  0.25232000  1.0 0.1422978043
H  H6  1  0.50840000  0.22198000  0.74768000  1.0 0.1422978043
H  H7  1  0.49160000  0.22198000  0.25232000  1.0 0.1422978043
H  H8  1  0.49160000  0.77802000  0.74768000  1.0 0.1422978043
H  H9  1  0.25232000  0.50840000  0.77802000  1.0 0.1422978043
H  H10  1  0.74768000  0.50840000  0.22198000  1.0 0.1422978043
H  H11  1  0.25232000  0.49160000  0.22198000  1.0 0.1422978043
H  H12  1  0.74768000  0.49160000  0.77802000  1.0 0.1422978043
H  H13  1  0.75232000  0.27802000  0.00840000  1.0 0.1422978043
H  H14  1  0.24768000  0.72198000  0.00840000  1.0 0.1422978043
H  H15  1  0.75232000  0.72198000  0.99160000  1.0 0.1422978043
H  H16  1  0.24768000  0.27802000  0.99160000  1.0 0.1422978043
H  H17  1  0.27802000  0.00840000  0.75232000  1.0 0.1422978043
H  H18  1  0.72198000  0.00840000  0.24768000  1.0 0.1422978043
H  H19  1  0.72198000  0.99160000  0.75232000  1.0 0.1422978043
H  H20  1  0.27802000  0.99160000  0.24768000  1.0 0.1422978043
H  H21  1  0.00840000  0.75232000  0.27802000  1.0 0.1422978043
H  H22  1  0.00840000  0.24768000  0.72198000  1.0 0.1422978043
H  H23  1  0.99160000  0.75232000  0.72198000  1.0 0.1422978043
H  H24  1  0.99160000  0.24768000  0.27802000  1.0 0.1422978043
H  H25  1  0.78763000  0.41596000  0.42326000  1.0 0.1422978043
H  H26  1  0.21237000  0.58404000  0.42326000  1.0 0.1422978043
H  H27  1  0.21237000  0.41596000  0.57674000  1.0 0.1422978043
H  H28  1  0.78763000  0.58404000  0.57674000  1.0 0.1422978043
H  H29  1  0.42326000  0.78763000  0.41596000  1.0 0.1422978043
H  H30  1  0.42326000  0.21237000  0.58404000  1.0 0.1422978043
H  H31  1  0.57674000  0.21237000  0.41596000  1.0 0.1422978043
H  H32  1  0.57674000  0.78763000  0.58404000  1.0 0.1422978043
H  H33  1  0.41596000  0.42326000  0.78763000  1.0 0.1422978043
H  H34  1  0.58404000  0.42326000  0.21237000  1.0 0.1422978043
H  H35  1  0.41596000  0.57674000  0.21237000  1.0 0.1422978043
H  H36  1  0.58404000  0.57674000  0.78763000  1.0 0.1422978043
H  H37  1  0.91596000  0.28763000  0.92326000  1.0 0.1422978043
H  H38  1  0.08404000  0.71237000  0.92326000  1.0 0.1422978043
H  H39  1  0.91596000  0.71237000  0.07674000  1.0 0.1422978043
H  H40  1  0.08404000  0.28763000  0.07674000  1.0 0.1422978043
H  H41  1  0.28763000  0.92326000  0.91596000  1.0 0.1422978043
H  H42  1  0.71237000  0.92326000  0.08404000  1.0 0.1422978043
H  H43  1  0.71237000  0.07674000  0.91596000  1.0 0.1422978043
H  H44  1  0.28763000  0.07674000  0.08404000  1.0 0.1422978043
H  H45  1  0.92326000  0.91596000  0.28763000  1.0 0.1422978043
H  H46  1  0.92326000  0.08404000  0.71237000  1.0 0.1422978043
H  H47  1  0.07674000  0.91596000  0.71237000  1.0 0.1422978043
H  H48  1  0.07674000  0.08404000  0.28763000  1.0 0.1422978043
H  H49  1  0.79777000  0.40790000  0.60555000  1.0 0.1422978043
H  H50  1  0.20223000  0.59210000  0.60555000  1.0 0.1422978043
H  H51  1  0.20223000  0.40790000  0.39445000  1.0 0.1422978043
H  H52  1  0.79777000  0.59210000  0.39445000  1.0 0.1422978043
H  H53  1  0.60555000  0.79777000  0.40790000  1.0 0.1422978043
H  H54  1  0.60555000  0.20223000  0.59210000  1.0 0.1422978043
H  H55  1  0.39445000  0.20223000  0.40790000  1.0 0.1422978043
H  H56  1  0.39445000  0.79777000  0.59210000  1.0 0.1422978043
H  H57  1  0.40790000  0.60555000  0.79777000  1.0 0.1422978043
H  H58  1  0.59210000  0.60555000  0.20223000  1.0 0.1422978043
H  H59  1  0.40790000  0.39445000  0.20223000  1.0 0.1422978043
H  H60  1  0.59210000  0.39445000  0.79777000  1.0 0.1422978043
H  H61  1  0.90790000  0.29777000  0.10555000  1.0 0.1422978043
H  H62  1  0.09210000  0.70223000  0.10555000  1.0 0.1422978043
H  H63  1  0.90790000  0.70223000  0.89445000  1.0 0.1422978043
H  H64  1  0.09210000  0.29777000  0.89445000  1.0 0.1422978043
H  H65  1  0.29777000  0.10555000  0.90790000  1.0 0.1422978043
H  H66  1  0.70223000  0.10555000  0.09210000  1.0 0.1422978043
H  H67  1  0.70223000  0.89445000  0.90790000  1.0 0.1422978043
H  H68  1  0.29777000  0.89445000  0.09210000  1.0 0.1422978043
H  H69  1  0.10555000  0.90790000  0.29777000  1.0 0.1422978043
H  H70  1  0.10555000  0.09210000  0.70223000  1.0 0.1422978043
H  H71  1  0.89445000  0.90790000  0.70223000  1.0 0.1422978043
H  H72  1  0.89445000  0.09210000  0.29777000  1.0 0.1422978043
C  C1  1  0.77900000  0.30040000  0.39560000  1.0 0.6039621451
C  C2  1  0.22100000  0.69960000  0.39560000  1.0 0.6039621451
C  C3  1  0.22100000  0.30040000  0.60440000  1.0 0.6039621451
C  C4  1  0.77900000  0.69960000  0.60440000  1.0 0.6039621451
C  C5  1  0.39560000  0.77900000  0.30040000  1.0 0.6039621451
C  C6  1  0.39560000  0.22100000  0.69960000  1.0 0.6039621451
C  C7  1  0.60440000  0.22100000  0.30040000  1.0 0.6039621451
C  C8  1  0.60440000  0.77900000  0.69960000  1.0 0.6039621451
C  C9  1  0.30040000  0.39560000  0.77900000  1.0 0.6039621451
C  C10  1  0.69960000  0.39560000  0.22100000  1.0 0.6039621451
C  C11  1  0.30040000  0.60440000  0.22100000  1.0 0.6039621451
C  C12  1  0.69960000  0.60440000  0.77900000  1.0 0.6039621451
C  C13  1  0.80040000  0.27900000  0.89560000  1.0 0.6039621451
C  C14  1  0.19960000  0.72100000  0.89560000  1.0 0.6039621451
C  C15  1  0.80040000  0.72100000  0.10440000  1.0 0.6039621451
C  C16  1  0.19960000  0.27900000  0.10440000  1.0 0.6039621451
C  C17  1  0.27900000  0.89560000  0.80040000  1.0 0.6039621451
C  C18  1  0.72100000  0.89560000  0.19960000  1.0 0.6039621451
C  C19  1  0.72100000  0.10440000  0.80040000  1.0 0.6039621451
C  C20  1  0.27900000  0.10440000  0.19960000  1.0 0.6039621451
C  C21  1  0.89560000  0.80040000  0.27900000  1.0 0.6039621451
C  C22  1  0.89560000  0.19960000  0.72100000  1.0 0.6039621451
C  C23  1  0.10440000  0.80040000  0.72100000  1.0 0.6039621451
C  C24  1  0.10440000  0.19960000  0.27900000  1.0 0.6039621451
C  C25  1  0.78330000  0.29450000  0.51030000  1.0 -0.0870919632
C  C26  1  0.21670000  0.70550000  0.51030000  1.0 -0.0870919632
C  C27  1  0.21670000  0.29450000  0.48970000  1.0 -0.0870919632
C  C28  1  0.78330000  0.70550000  0.48970000  1.0 -0.0870919632
C  C29  1  0.51030000  0.78330000  0.29450000  1.0 -0.0870919632
C  C30  1  0.51030000  0.21670000  0.70550000  1.0 -0.0870919632
C  C31  1  0.48970000  0.21670000  0.29450000  1.0 -0.0870919632
C  C32  1  0.48970000  0.78330000  0.70550000  1.0 -0.0870919632
C  C33  1  0.29450000  0.51030000  0.78330000  1.0 -0.0870919632
C  C34  1  0.70550000  0.51030000  0.21670000  1.0 -0.0870919632
C  C35  1  0.29450000  0.48970000  0.21670000  1.0 -0.0870919632
C  C36  1  0.70550000  0.48970000  0.78330000  1.0 -0.0870919632
C  C37  1  0.79450000  0.28330000  0.01030000  1.0 -0.0870919632
C  C38  1  0.20550000  0.71670000  0.01030000  1.0 -0.0870919632
C  C39  1  0.79450000  0.71670000  0.98970000  1.0 -0.0870919632
C  C40  1  0.20550000  0.28330000  0.98970000  1.0 -0.0870919632
C  C41  1  0.28330000  0.01030000  0.79450000  1.0 -0.0870919632
C  C42  1  0.71670000  0.01030000  0.20550000  1.0 -0.0870919632
C  C43  1  0.71670000  0.98970000  0.79450000  1.0 -0.0870919632
C  C44  1  0.28330000  0.98970000  0.20550000  1.0 -0.0870919632
C  C45  1  0.01030000  0.79450000  0.28330000  1.0 -0.0870919632
C  C46  1  0.01030000  0.20550000  0.71670000  1.0 -0.0870919632
C  C47  1  0.98970000  0.79450000  0.71670000  1.0 -0.0870919632
C  C48  1  0.98970000  0.20550000  0.28330000  1.0 -0.0870919632
C  C49  1  0.78330000  0.32950000  0.45630000  1.0 -0.032193052
C  C50  1  0.21670000  0.67050000  0.45630000  1.0 -0.032193052
C  C51  1  0.21670000  0.32950000  0.54370000  1.0 -0.032193052
C  C52  1  0.78330000  0.67050000  0.54370000  1.0 -0.032193052
C  C53  1  0.45630000  0.78330000  0.32950000  1.0 -0.032193052
C  C54  1  0.45630000  0.21670000  0.67050000  1.0 -0.032193052
C  C55  1  0.54370000  0.21670000  0.32950000  1.0 -0.032193052
C  C56  1  0.54370000  0.78330000  0.67050000  1.0 -0.032193052
C  C57  1  0.32950000  0.45630000  0.78330000  1.0 -0.032193052
C  C58  1  0.67050000  0.45630000  0.21670000  1.0 -0.032193052
C  C59  1  0.32950000  0.54370000  0.21670000  1.0 -0.032193052
C  C60  1  0.67050000  0.54370000  0.78330000  1.0 -0.032193052
C  C61  1  0.82950000  0.28330000  0.95630000  1.0 -0.032193052
C  C62  1  0.17050000  0.71670000  0.95630000  1.0 -0.032193052
C  C63  1  0.82950000  0.71670000  0.04370000  1.0 -0.032193052
C  C64  1  0.17050000  0.28330000  0.04370000  1.0 -0.032193052
C  C65  1  0.28330000  0.95630000  0.82950000  1.0 -0.032193052
C  C66  1  0.71670000  0.95630000  0.17050000  1.0 -0.032193052
C  C67  1  0.71670000  0.04370000  0.82950000  1.0 -0.032193052
C  C68  1  0.28330000  0.04370000  0.17050000  1.0 -0.032193052
C  C69  1  0.95630000  0.82950000  0.28330000  1.0 -0.032193052
C  C70  1  0.95630000  0.17050000  0.71670000  1.0 -0.032193052
C  C71  1  0.04370000  0.82950000  0.71670000  1.0 -0.032193052
C  C72  1  0.04370000  0.17050000  0.28330000  1.0 -0.032193052
C  C73  1  0.79160000  0.28880000  0.62430000  1.0 0.6085432389
C  C74  1  0.20840000  0.71120000  0.62430000  1.0 0.6085432389
C  C75  1  0.20840000  0.28880000  0.37570000  1.0 0.6085432389
C  C76  1  0.79160000  0.71120000  0.37570000  1.0 0.6085432389
C  C77  1  0.62430000  0.79160000  0.28880000  1.0 0.6085432389
C  C78  1  0.62430000  0.20840000  0.71120000  1.0 0.6085432389
C  C79  1  0.37570000  0.20840000  0.28880000  1.0 0.6085432389
C  C80  1  0.37570000  0.79160000  0.71120000  1.0 0.6085432389
C  C81  1  0.28880000  0.62430000  0.79160000  1.0 0.6085432389
C  C82  1  0.71120000  0.62430000  0.20840000  1.0 0.6085432389
C  C83  1  0.28880000  0.37570000  0.20840000  1.0 0.6085432389
C  C84  1  0.71120000  0.37570000  0.79160000  1.0 0.6085432389
C  C85  1  0.78880000  0.29160000  0.12430000  1.0 0.6085432389
C  C86  1  0.21120000  0.70840000  0.12430000  1.0 0.6085432389
C  C87  1  0.78880000  0.70840000  0.87570000  1.0 0.6085432389
C  C88  1  0.21120000  0.29160000  0.87570000  1.0 0.6085432389
C  C89  1  0.29160000  0.12430000  0.78880000  1.0 0.6085432389
C  C90  1  0.70840000  0.12430000  0.21120000  1.0 0.6085432389
C  C91  1  0.70840000  0.87570000  0.78880000  1.0 0.6085432389
C  C92  1  0.29160000  0.87570000  0.21120000  1.0 0.6085432389
C  C93  1  0.12430000  0.78880000  0.29160000  1.0 0.6085432389
C  C94  1  0.12430000  0.21120000  0.70840000  1.0 0.6085432389
C  C95  1  0.87570000  0.78880000  0.70840000  1.0 0.6085432389
C  C96  1  0.87570000  0.21120000  0.29160000  1.0 0.6085432389
C  C97  1  0.79110000  0.32320000  0.56630000  1.0 -0.0380251563
C  C98  1  0.20890000  0.67680000  0.56630000  1.0 -0.0380251563
C  C99  1  0.20890000  0.32320000  0.43370000  1.0 -0.0380251563
C  C100  1  0.79110000  0.67680000  0.43370000  1.0 -0.0380251563
C  C101  1  0.56630000  0.79110000  0.32320000  1.0 -0.0380251563
C  C102  1  0.56630000  0.20890000  0.67680000  1.0 -0.0380251563
C  C103  1  0.43370000  0.20890000  0.32320000  1.0 -0.0380251563
C  C104  1  0.43370000  0.79110000  0.67680000  1.0 -0.0380251563
C  C105  1  0.32320000  0.56630000  0.79110000  1.0 -0.0380251563
C  C106  1  0.67680000  0.56630000  0.20890000  1.0 -0.0380251563
C  C107  1  0.32320000  0.43370000  0.20890000  1.0 -0.0380251563
C  C108  1  0.67680000  0.43370000  0.79110000  1.0 -0.0380251563
C  C109  1  0.82320000  0.29110000  0.06630000  1.0 -0.0380251563
C  C110  1  0.17680000  0.70890000  0.06630000  1.0 -0.0380251563
C  C111  1  0.82320000  0.70890000  0.93370000  1.0 -0.0380251563
C  C112  1  0.17680000  0.29110000  0.93370000  1.0 -0.0380251563
C  C113  1  0.29110000  0.06630000  0.82320000  1.0 -0.0380251563
C  C114  1  0.70890000  0.06630000  0.17680000  1.0 -0.0380251563
C  C115  1  0.70890000  0.93370000  0.82320000  1.0 -0.0380251563
C  C116  1  0.29110000  0.93370000  0.17680000  1.0 -0.0380251563
C  C117  1  0.06630000  0.82320000  0.29110000  1.0 -0.0380251563
C  C118  1  0.06630000  0.17680000  0.70890000  1.0 -0.0380251563
C  C119  1  0.93370000  0.82320000  0.70890000  1.0 -0.0380251563
C  C120  1  0.93370000  0.17680000  0.29110000  1.0 -0.0380251563
C  C121  1  0.78830000  0.39280000  0.45890000  1.0 -0.1384502839
C  C122  1  0.21170000  0.60720000  0.45890000  1.0 -0.1384502839
C  C123  1  0.21170000  0.39280000  0.54110000  1.0 -0.1384502839
C  C124  1  0.78830000  0.60720000  0.54110000  1.0 -0.1384502839
C  C125  1  0.45890000  0.78830000  0.39280000  1.0 -0.1384502839
C  C126  1  0.45890000  0.21170000  0.60720000  1.0 -0.1384502839
C  C127  1  0.54110000  0.21170000  0.39280000  1.0 -0.1384502839
C  C128  1  0.54110000  0.78830000  0.60720000  1.0 -0.1384502839
C  C129  1  0.39280000  0.45890000  0.78830000  1.0 -0.1384502839
C  C130  1  0.60720000  0.45890000  0.21170000  1.0 -0.1384502839
C  C131  1  0.39280000  0.54110000  0.21170000  1.0 -0.1384502839
C  C132  1  0.60720000  0.54110000  0.78830000  1.0 -0.1384502839
C  C133  1  0.89280000  0.28830000  0.95890000  1.0 -0.1384502839
C  C134  1  0.10720000  0.71170000  0.95890000  1.0 -0.1384502839
C  C135  1  0.89280000  0.71170000  0.04110000  1.0 -0.1384502839
C  C136  1  0.10720000  0.28830000  0.04110000  1.0 -0.1384502839
C  C137  1  0.28830000  0.95890000  0.89280000  1.0 -0.1384502839
C  C138  1  0.71170000  0.95890000  0.10720000  1.0 -0.1384502839
C  C139  1  0.71170000  0.04110000  0.89280000  1.0 -0.1384502839
C  C140  1  0.28830000  0.04110000  0.10720000  1.0 -0.1384502839
C  C141  1  0.95890000  0.89280000  0.28830000  1.0 -0.1384502839
C  C142  1  0.95890000  0.10720000  0.71170000  1.0 -0.1384502839
C  C143  1  0.04110000  0.89280000  0.71170000  1.0 -0.1384502839
C  C144  1  0.04110000  0.10720000  0.28830000  1.0 -0.1384502839
C  C145  1  0.79490000  0.38780000  0.56820000  1.0 -0.1384502839
C  C146  1  0.20510000  0.61220000  0.56820000  1.0 -0.1384502839
C  C147  1  0.20510000  0.38780000  0.43180000  1.0 -0.1384502839
C  C148  1  0.79490000  0.61220000  0.43180000  1.0 -0.1384502839
C  C149  1  0.56820000  0.79490000  0.38780000  1.0 -0.1384502839
C  C150  1  0.56820000  0.20510000  0.61220000  1.0 -0.1384502839
C  C151  1  0.43180000  0.20510000  0.38780000  1.0 -0.1384502839
C  C152  1  0.43180000  0.79490000  0.61220000  1.0 -0.1384502839
C  C153  1  0.38780000  0.56820000  0.79490000  1.0 -0.1384502839
C  C154  1  0.61220000  0.56820000  0.20510000  1.0 -0.1384502839
C  C155  1  0.38780000  0.43180000  0.20510000  1.0 -0.1384502839
C  C156  1  0.61220000  0.43180000  0.79490000  1.0 -0.1384502839
C  C157  1  0.88780000  0.29490000  0.06820000  1.0 -0.1384502839
C  C158  1  0.11220000  0.70510000  0.06820000  1.0 -0.1384502839
C  C159  1  0.88780000  0.70510000  0.93180000  1.0 -0.1384502839
C  C160  1  0.11220000  0.29490000  0.93180000  1.0 -0.1384502839
C  C161  1  0.29490000  0.06820000  0.88780000  1.0 -0.1384502839
C  C162  1  0.70510000  0.06820000  0.11220000  1.0 -0.1384502839
C  C163  1  0.70510000  0.93180000  0.88780000  1.0 -0.1384502839
C  C164  1  0.29490000  0.93180000  0.11220000  1.0 -0.1384502839
C  C165  1  0.06820000  0.88780000  0.29490000  1.0 -0.1384502839
C  C166  1  0.06820000  0.11220000  0.70510000  1.0 -0.1384502839
C  C167  1  0.93180000  0.88780000  0.70510000  1.0 -0.1384502839
C  C168  1  0.93180000  0.11220000  0.29490000  1.0 -0.1384502839
C  C169  1  0.79430000  0.42080000  0.51460000  1.0 0.1494271667
C  C170  1  0.20570000  0.57920000  0.51460000  1.0 0.1494271667
C  C171  1  0.20570000  0.42080000  0.48540000  1.0 0.1494271667
C  C172  1  0.79430000  0.57920000  0.48540000  1.0 0.1494271667
C  C173  1  0.51460000  0.79430000  0.42080000  1.0 0.1494271667
C  C174  1  0.51460000  0.20570000  0.57920000  1.0 0.1494271667
C  C175  1  0.48540000  0.20570000  0.42080000  1.0 0.1494271667
C  C176  1  0.48540000  0.79430000  0.57920000  1.0 0.1494271667
C  C177  1  0.42080000  0.51460000  0.79430000  1.0 0.1494271667
C  C178  1  0.57920000  0.51460000  0.20570000  1.0 0.1494271667
C  C179  1  0.42080000  0.48540000  0.20570000  1.0 0.1494271667
C  C180  1  0.57920000  0.48540000  0.79430000  1.0 0.1494271667
C  C181  1  0.92080000  0.29430000  0.01460000  1.0 0.1494271667
C  C182  1  0.07920000  0.70570000  0.01460000  1.0 0.1494271667
C  C183  1  0.92080000  0.70570000  0.98540000  1.0 0.1494271667
C  C184  1  0.07920000  0.29430000  0.98540000  1.0 0.1494271667
C  C185  1  0.29430000  0.01460000  0.92080000  1.0 0.1494271667
C  C186  1  0.70570000  0.01460000  0.07920000  1.0 0.1494271667
C  C187  1  0.70570000  0.98540000  0.92080000  1.0 0.1494271667
C  C188  1  0.29430000  0.98540000  0.07920000  1.0 0.1494271667
C  C189  1  0.01460000  0.92080000  0.29430000  1.0 0.1494271667
C  C190  1  0.01460000  0.07920000  0.70570000  1.0 0.1494271667
C  C191  1  0.98540000  0.92080000  0.70570000  1.0 0.1494271667
C  C192  1  0.98540000  0.07920000  0.29430000  1.0 0.1494271667
N  N1  1  0.79600000  0.48570000  0.52320000  1.0 -0.1078321254
N  N2  1  0.20400000  0.51430000  0.52320000  1.0 -0.1078321254
N  N3  1  0.20400000  0.48570000  0.47680000  1.0 -0.1078321254
N  N4  1  0.79600000  0.51430000  0.47680000  1.0 -0.1078321254
N  N5  1  0.52320000  0.79600000  0.48570000  1.0 -0.1078321254
N  N6  1  0.52320000  0.20400000  0.51430000  1.0 -0.1078321254
N  N7  1  0.47680000  0.20400000  0.48570000  1.0 -0.1078321254
N  N8  1  0.47680000  0.79600000  0.51430000  1.0 -0.1078321254
N  N9  1  0.48570000  0.52320000  0.79600000  1.0 -0.1078321254
N  N10  1  0.51430000  0.52320000  0.20400000  1.0 -0.1078321254
N  N11  1  0.48570000  0.47680000  0.20400000  1.0 -0.1078321254
N  N12  1  0.51430000  0.47680000  0.79600000  1.0 -0.1078321254
N  N13  1  0.98570000  0.29600000  0.02320000  1.0 -0.1078321254
N  N14  1  0.01430000  0.70400000  0.02320000  1.0 -0.1078321254
N  N15  1  0.98570000  0.70400000  0.97680000  1.0 -0.1078321254
N  N16  1  0.01430000  0.29600000  0.97680000  1.0 -0.1078321254
N  N17  1  0.29600000  0.02320000  0.98570000  1.0 -0.1078321254
N  N18  1  0.70400000  0.02320000  0.01430000  1.0 -0.1078321254
N  N19  1  0.70400000  0.97680000  0.98570000  1.0 -0.1078321254
N  N20  1  0.29600000  0.97680000  0.01430000  1.0 -0.1078321254
N  N21  1  0.02320000  0.98570000  0.29600000  1.0 -0.1078321254
N  N22  1  0.02320000  0.01430000  0.70400000  1.0 -0.1078321254
N  N23  1  0.97680000  0.98570000  0.70400000  1.0 -0.1078321254
N  N24  1  0.97680000  0.01430000  0.29600000  1.0 -0.1078321254
O  O1  1  0.74131000  0.25869000  0.25869000  1.0 -0.7812225304
O  O2  1  0.25869000  0.74131000  0.25869000  1.0 -0.7812225304
O  O3  1  0.25869000  0.25869000  0.74131000  1.0 -0.7812225304
O  O4  1  0.74131000  0.74131000  0.74131000  1.0 -0.7812225304
O  O5  1  0.75869000  0.24131000  0.75869000  1.0 -0.7812225304
O  O6  1  0.24131000  0.75869000  0.75869000  1.0 -0.7812225304
O  O7  1  0.75869000  0.75869000  0.24131000  1.0 -0.7812225304
O  O8  1  0.24131000  0.24131000  0.24131000  1.0 -0.7812225304
O  O9  1  0.79560000  0.33174000  0.35012000  1.0 -0.5343152254
O  O10  1  0.20440000  0.66826000  0.35012000  1.0 -0.5343152254
O  O11  1  0.20440000  0.33174000  0.64988000  1.0 -0.5343152254
O  O12  1  0.79560000  0.66826000  0.64988000  1.0 -0.5343152254
O  O13  1  0.35012000  0.79560000  0.33174000  1.0 -0.5343152254
O  O14  1  0.35012000  0.20440000  0.66826000  1.0 -0.5343152254
O  O15  1  0.64988000  0.20440000  0.33174000  1.0 -0.5343152254
O  O16  1  0.64988000  0.79560000  0.66826000  1.0 -0.5343152254
O  O17  1  0.33174000  0.35012000  0.79560000  1.0 -0.5343152254
O  O18  1  0.66826000  0.35012000  0.20440000  1.0 -0.5343152254
O  O19  1  0.33174000  0.64988000  0.20440000  1.0 -0.5343152254
O  O20  1  0.66826000  0.64988000  0.79560000  1.0 -0.5343152254
O  O21  1  0.83174000  0.29560000  0.85012000  1.0 -0.5343152254
O  O22  1  0.16826000  0.70440000  0.85012000  1.0 -0.5343152254
O  O23  1  0.83174000  0.70440000  0.14988000  1.0 -0.5343152254
O  O24  1  0.16826000  0.29560000  0.14988000  1.0 -0.5343152254
O  O25  1  0.29560000  0.85012000  0.83174000  1.0 -0.5343152254
O  O26  1  0.70440000  0.85012000  0.16826000  1.0 -0.5343152254
O  O27  1  0.70440000  0.14988000  0.83174000  1.0 -0.5343152254
O  O28  1  0.29560000  0.14988000  0.16826000  1.0 -0.5343152254
O  O29  1  0.85012000  0.83174000  0.29560000  1.0 -0.5343152254
O  O30  1  0.85012000  0.16826000  0.70440000  1.0 -0.5343152254
O  O31  1  0.14988000  0.83174000  0.70440000  1.0 -0.5343152254
O  O32  1  0.14988000  0.16826000  0.29560000  1.0 -0.5343152254
O  O33  1  0.75674000  0.24674000  0.39292000  1.0 -0.5343152254
O  O34  1  0.24326000  0.75326000  0.39292000  1.0 -0.5343152254
O  O35  1  0.24326000  0.24674000  0.60708000  1.0 -0.5343152254
O  O36  1  0.75674000  0.75326000  0.60708000  1.0 -0.5343152254
O  O37  1  0.39292000  0.75674000  0.24674000  1.0 -0.5343152254
O  O38  1  0.39292000  0.24326000  0.75326000  1.0 -0.5343152254
O  O39  1  0.60708000  0.24326000  0.24674000  1.0 -0.5343152254
O  O40  1  0.60708000  0.75674000  0.75326000  1.0 -0.5343152254
O  O41  1  0.24674000  0.39292000  0.75674000  1.0 -0.5343152254
O  O42  1  0.75326000  0.39292000  0.24326000  1.0 -0.5343152254
O  O43  1  0.24674000  0.60708000  0.24326000  1.0 -0.5343152254
O  O44  1  0.75326000  0.60708000  0.75674000  1.0 -0.5343152254
O  O45  1  0.74674000  0.25674000  0.89292000  1.0 -0.5343152254
O  O46  1  0.25326000  0.74326000  0.89292000  1.0 -0.5343152254
O  O47  1  0.74674000  0.74326000  0.10708000  1.0 -0.5343152254
O  O48  1  0.25326000  0.25674000  0.10708000  1.0 -0.5343152254
O  O49  1  0.25674000  0.89292000  0.74674000  1.0 -0.5343152254
O  O50  1  0.74326000  0.89292000  0.25326000  1.0 -0.5343152254
O  O51  1  0.74326000  0.10708000  0.74674000  1.0 -0.5343152254
O  O52  1  0.25674000  0.10708000  0.25326000  1.0 -0.5343152254
O  O53  1  0.89292000  0.74674000  0.25674000  1.0 -0.5343152254
O  O54  1  0.89292000  0.25326000  0.74326000  1.0 -0.5343152254
O  O55  1  0.10708000  0.74674000  0.74326000  1.0 -0.5343152254
O  O56  1  0.10708000  0.25326000  0.25674000  1.0 -0.5343152254
O  O57  1  0.77450000  0.23450000  0.62422000  1.0 -0.5106859586
O  O58  1  0.22550000  0.76550000  0.62422000  1.0 -0.5106859586
O  O59  1  0.22550000  0.23450000  0.37578000  1.0 -0.5106859586
O  O60  1  0.77450000  0.76550000  0.37578000  1.0 -0.5106859586
O  O61  1  0.62422000  0.77450000  0.23450000  1.0 -0.5106859586
O  O62  1  0.62422000  0.22550000  0.76550000  1.0 -0.5106859586
O  O63  1  0.37578000  0.22550000  0.23450000  1.0 -0.5106859586
O  O64  1  0.37578000  0.77450000  0.76550000  1.0 -0.5106859586
O  O65  1  0.23450000  0.62422000  0.77450000  1.0 -0.5106859586
O  O66  1  0.76550000  0.62422000  0.22550000  1.0 -0.5106859586
O  O67  1  0.23450000  0.37578000  0.22550000  1.0 -0.5106859586
O  O68  1  0.76550000  0.37578000  0.77450000  1.0 -0.5106859586
O  O69  1  0.73450000  0.27450000  0.12422000  1.0 -0.5106859586
O  O70  1  0.26550000  0.72550000  0.12422000  1.0 -0.5106859586
O  O71  1  0.73450000  0.72550000  0.87578000  1.0 -0.5106859586
O  O72  1  0.26550000  0.27450000  0.87578000  1.0 -0.5106859586
O  O73  1  0.27450000  0.12422000  0.73450000  1.0 -0.5106859586
O  O74  1  0.72550000  0.12422000  0.26550000  1.0 -0.5106859586
O  O75  1  0.72550000  0.87578000  0.73450000  1.0 -0.5106859586
O  O76  1  0.27450000  0.87578000  0.26550000  1.0 -0.5106859586
O  O77  1  0.12422000  0.73450000  0.27450000  1.0 -0.5106859586
O  O78  1  0.12422000  0.26550000  0.72550000  1.0 -0.5106859586
O  O79  1  0.87578000  0.73450000  0.72550000  1.0 -0.5106859586
O  O80  1  0.87578000  0.26550000  0.27450000  1.0 -0.5106859586
O  O81  1  0.81160000  0.31860000  0.67061000  1.0 -0.548983145
O  O82  1  0.18840000  0.68140000  0.67061000  1.0 -0.548983145
O  O83  1  0.18840000  0.31860000  0.32939000  1.0 -0.548983145
O  O84  1  0.81160000  0.68140000  0.32939000  1.0 -0.548983145
O  O85  1  0.67061000  0.81160000  0.31860000  1.0 -0.548983145
O  O86  1  0.67061000  0.18840000  0.68140000  1.0 -0.548983145
O  O87  1  0.32939000  0.18840000  0.31860000  1.0 -0.548983145
O  O88  1  0.32939000  0.81160000  0.68140000  1.0 -0.548983145
O  O89  1  0.31860000  0.67061000  0.81160000  1.0 -0.548983145
O  O90  1  0.68140000  0.67061000  0.18840000  1.0 -0.548983145
O  O91  1  0.31860000  0.32939000  0.18840000  1.0 -0.548983145
O  O92  1  0.68140000  0.32939000  0.81160000  1.0 -0.548983145
O  O93  1  0.81860000  0.31160000  0.17061000  1.0 -0.548983145
O  O94  1  0.18140000  0.68840000  0.17061000  1.0 -0.548983145
O  O95  1  0.81860000  0.68840000  0.82939000  1.0 -0.548983145
O  O96  1  0.18140000  0.31160000  0.82939000  1.0 -0.548983145
O  O97  1  0.31160000  0.17061000  0.81860000  1.0 -0.548983145
O  O98  1  0.68840000  0.17061000  0.18140000  1.0 -0.548983145
O  O99  1  0.68840000  0.82939000  0.81860000  1.0 -0.548983145
O  O100  1  0.31160000  0.82939000  0.18140000  1.0 -0.548983145
O  O101  1  0.17061000  0.81860000  0.31160000  1.0 -0.548983145
O  O102  1  0.17061000  0.18140000  0.68840000  1.0 -0.548983145
O  O103  1  0.82939000  0.81860000  0.68840000  1.0 -0.548983145
O  O104  1  0.82939000  0.18140000  0.31160000  1.0 -0.548983145
