# DDEC6 charges by PACMAN v1.1 (https://github.com/mtap-research/PACMAN-charge/)
data_LIDCAG_ASR_pacman
_symmetry_space_group_name_H-M   'P 1'
_cell_length_a   21.91040000
_cell_length_b   21.91040000
_cell_length_c   21.91040000
_cell_angle_alpha   90.00000000
_cell_angle_beta   90.00000000
_cell_angle_gamma   90.00000000
_symmetry_Int_Tables_number   1
_chemical_formula_structural   Fe3H9C24N3O13
_chemical_formula_sum   'Fe24 H72 C192 N24 O104'
_cell_volume   10518.42993924
_cell_formula_units_Z   8
loop_
 _symmetry_equiv_pos_site_id
 _symmetry_equiv_pos_as_xyz
  1  'x, y, z'
loop_
 _atom_site_type_symbol
 _atom_site_label
 _atom_site_symmetry_multiplicity
 _atom_site_fract_x
 _atom_site_fract_y
 _atom_site_fract_z
 _atom_site_occupancy
 _atom_site_charge
Fe  Fe1  1  0.26038000  0.68248000  0.80164000  1.0 1.1441856351
Fe  Fe2  1  0.73962000  0.31752000  0.80164000  1.0 1.1441856351
Fe  Fe3  1  0.73962000  0.68248000  0.19836000  1.0 1.1441856351
Fe  Fe4  1  0.26038000  0.31752000  0.19836000  1.0 1.1441856351
Fe  Fe5  1  0.80164000  0.26038000  0.68248000  1.0 1.1441856351
Fe  Fe6  1  0.80164000  0.73962000  0.31752000  1.0 1.1441856351
Fe  Fe7  1  0.19836000  0.73962000  0.68248000  1.0 1.1441856351
Fe  Fe8  1  0.19836000  0.26038000  0.31752000  1.0 1.1441856351
Fe  Fe9  1  0.68248000  0.80164000  0.26038000  1.0 1.1441856351
Fe  Fe10  1  0.31752000  0.80164000  0.73962000  1.0 1.1441856351
Fe  Fe11  1  0.68248000  0.19836000  0.73962000  1.0 1.1441856351
Fe  Fe12  1  0.31752000  0.19836000  0.26038000  1.0 1.1441856351
Fe  Fe13  1  0.18248000  0.76038000  0.30164000  1.0 1.1441856351
Fe  Fe14  1  0.81752000  0.23962000  0.30164000  1.0 1.1441856351
Fe  Fe15  1  0.18248000  0.23962000  0.69836000  1.0 1.1441856351
Fe  Fe16  1  0.81752000  0.76038000  0.69836000  1.0 1.1441856351
Fe  Fe17  1  0.76038000  0.30164000  0.18248000  1.0 1.1441856351
Fe  Fe18  1  0.23962000  0.30164000  0.81752000  1.0 1.1441856351
Fe  Fe19  1  0.23962000  0.69836000  0.18248000  1.0 1.1441856351
Fe  Fe20  1  0.76038000  0.69836000  0.81752000  1.0 1.1441856351
Fe  Fe21  1  0.30164000  0.18248000  0.76038000  1.0 1.1441856351
Fe  Fe22  1  0.30164000  0.81752000  0.23962000  1.0 1.1441856351
Fe  Fe23  1  0.69836000  0.18248000  0.23962000  1.0 1.1441856351
Fe  Fe24  1  0.69836000  0.81752000  0.76038000  1.0 1.1441856351
H  H1  1  0.22272000  0.49106000  0.74669000  1.0 0.1393119949
H  H2  1  0.77728000  0.50894000  0.74669000  1.0 0.1393119949
H  H3  1  0.77728000  0.49106000  0.25331000  1.0 0.1393119949
H  H4  1  0.22272000  0.50894000  0.25331000  1.0 0.1393119949
H  H5  1  0.74669000  0.22272000  0.49106000  1.0 0.1393119949
H  H6  1  0.74669000  0.77728000  0.50894000  1.0 0.1393119949
H  H7  1  0.25331000  0.77728000  0.49106000  1.0 0.1393119949
H  H8  1  0.25331000  0.22272000  0.50894000  1.0 0.1393119949
H  H9  1  0.49106000  0.74669000  0.22272000  1.0 0.1393119949
H  H10  1  0.50894000  0.74669000  0.77728000  1.0 0.1393119949
H  H11  1  0.49106000  0.25331000  0.77728000  1.0 0.1393119949
H  H12  1  0.50894000  0.25331000  0.22272000  1.0 0.1393119949
H  H13  1  0.99106000  0.72272000  0.24669000  1.0 0.1393119949
H  H14  1  0.00894000  0.27728000  0.24669000  1.0 0.1393119949
H  H15  1  0.99106000  0.27728000  0.75331000  1.0 0.1393119949
H  H16  1  0.00894000  0.72272000  0.75331000  1.0 0.1393119949
H  H17  1  0.72272000  0.24669000  0.99106000  1.0 0.1393119949
H  H18  1  0.27728000  0.24669000  0.00894000  1.0 0.1393119949
H  H19  1  0.27728000  0.75331000  0.99106000  1.0 0.1393119949
H  H20  1  0.72272000  0.75331000  0.00894000  1.0 0.1393119949
H  H21  1  0.24669000  0.99106000  0.72272000  1.0 0.1393119949
H  H22  1  0.24669000  0.00894000  0.27728000  1.0 0.1393119949
H  H23  1  0.75331000  0.99106000  0.27728000  1.0 0.1393119949
H  H24  1  0.75331000  0.00894000  0.72272000  1.0 0.1393119949
H  H25  1  0.21075000  0.57613000  0.58549000  1.0 0.1393119949
H  H26  1  0.78925000  0.42387000  0.58549000  1.0 0.1393119949
H  H27  1  0.78925000  0.57613000  0.41451000  1.0 0.1393119949
H  H28  1  0.21075000  0.42387000  0.41451000  1.0 0.1393119949
H  H29  1  0.58549000  0.21075000  0.57613000  1.0 0.1393119949
H  H30  1  0.58549000  0.78925000  0.42387000  1.0 0.1393119949
H  H31  1  0.41451000  0.78925000  0.57613000  1.0 0.1393119949
H  H32  1  0.41451000  0.21075000  0.42387000  1.0 0.1393119949
H  H33  1  0.57613000  0.58549000  0.21075000  1.0 0.1393119949
H  H34  1  0.42387000  0.58549000  0.78925000  1.0 0.1393119949
H  H35  1  0.57613000  0.41451000  0.78925000  1.0 0.1393119949
H  H36  1  0.42387000  0.41451000  0.21075000  1.0 0.1393119949
H  H37  1  0.07613000  0.71075000  0.08549000  1.0 0.1393119949
H  H38  1  0.92387000  0.28925000  0.08549000  1.0 0.1393119949
H  H39  1  0.07613000  0.28925000  0.91451000  1.0 0.1393119949
H  H40  1  0.92387000  0.71075000  0.91451000  1.0 0.1393119949
H  H41  1  0.71075000  0.08549000  0.07613000  1.0 0.1393119949
H  H42  1  0.28925000  0.08549000  0.92387000  1.0 0.1393119949
H  H43  1  0.28925000  0.91451000  0.07613000  1.0 0.1393119949
H  H44  1  0.71075000  0.91451000  0.92387000  1.0 0.1393119949
H  H45  1  0.08549000  0.07613000  0.71075000  1.0 0.1393119949
H  H46  1  0.08549000  0.92387000  0.28925000  1.0 0.1393119949
H  H47  1  0.91451000  0.07613000  0.28925000  1.0 0.1393119949
H  H48  1  0.91451000  0.92387000  0.71075000  1.0 0.1393119949
H  H49  1  0.20036000  0.39398000  0.59391000  1.0 0.1393119949
H  H50  1  0.79964000  0.60602000  0.59391000  1.0 0.1393119949
H  H51  1  0.79964000  0.39398000  0.40609000  1.0 0.1393119949
H  H52  1  0.20036000  0.60602000  0.40609000  1.0 0.1393119949
H  H53  1  0.59391000  0.20036000  0.39398000  1.0 0.1393119949
H  H54  1  0.59391000  0.79964000  0.60602000  1.0 0.1393119949
H  H55  1  0.40609000  0.79964000  0.39398000  1.0 0.1393119949
H  H56  1  0.40609000  0.20036000  0.60602000  1.0 0.1393119949
H  H57  1  0.39398000  0.59391000  0.20036000  1.0 0.1393119949
H  H58  1  0.60602000  0.59391000  0.79964000  1.0 0.1393119949
H  H59  1  0.39398000  0.40609000  0.79964000  1.0 0.1393119949
H  H60  1  0.60602000  0.40609000  0.20036000  1.0 0.1393119949
H  H61  1  0.89398000  0.70036000  0.09391000  1.0 0.1393119949
H  H62  1  0.10602000  0.29964000  0.09391000  1.0 0.1393119949
H  H63  1  0.89398000  0.29964000  0.90609000  1.0 0.1393119949
H  H64  1  0.10602000  0.70036000  0.90609000  1.0 0.1393119949
H  H65  1  0.70036000  0.09391000  0.89398000  1.0 0.1393119949
H  H66  1  0.29964000  0.09391000  0.10602000  1.0 0.1393119949
H  H67  1  0.29964000  0.90609000  0.89398000  1.0 0.1393119949
H  H68  1  0.70036000  0.90609000  0.10602000  1.0 0.1393119949
H  H69  1  0.09391000  0.89398000  0.70036000  1.0 0.1393119949
H  H70  1  0.09391000  0.10602000  0.29964000  1.0 0.1393119949
H  H71  1  0.90609000  0.89398000  0.29964000  1.0 0.1393119949
H  H72  1  0.90609000  0.10602000  0.70036000  1.0 0.1393119949
C  C1  1  0.22180000  0.60480000  0.69980000  1.0 0.6037161377
C  C2  1  0.77820000  0.39520000  0.69980000  1.0 0.6037161377
C  C3  1  0.77820000  0.60480000  0.30020000  1.0 0.6037161377
C  C4  1  0.22180000  0.39520000  0.30020000  1.0 0.6037161377
C  C5  1  0.69980000  0.22180000  0.60480000  1.0 0.6037161377
C  C6  1  0.69980000  0.77820000  0.39520000  1.0 0.6037161377
C  C7  1  0.30020000  0.77820000  0.60480000  1.0 0.6037161377
C  C8  1  0.30020000  0.22180000  0.39520000  1.0 0.6037161377
C  C9  1  0.60480000  0.69980000  0.22180000  1.0 0.6037161377
C  C10  1  0.39520000  0.69980000  0.77820000  1.0 0.6037161377
C  C11  1  0.60480000  0.30020000  0.77820000  1.0 0.6037161377
C  C12  1  0.39520000  0.30020000  0.22180000  1.0 0.6037161377
C  C13  1  0.10480000  0.72180000  0.19980000  1.0 0.6037161377
C  C14  1  0.89520000  0.27820000  0.19980000  1.0 0.6037161377
C  C15  1  0.10480000  0.27820000  0.80020000  1.0 0.6037161377
C  C16  1  0.89520000  0.72180000  0.80020000  1.0 0.6037161377
C  C17  1  0.72180000  0.19980000  0.10480000  1.0 0.6037161377
C  C18  1  0.27820000  0.19980000  0.89520000  1.0 0.6037161377
C  C19  1  0.27820000  0.80020000  0.10480000  1.0 0.6037161377
C  C20  1  0.72180000  0.80020000  0.89520000  1.0 0.6037161377
C  C21  1  0.19980000  0.10480000  0.72180000  1.0 0.6037161377
C  C22  1  0.19980000  0.89520000  0.27820000  1.0 0.6037161377
C  C23  1  0.80020000  0.10480000  0.27820000  1.0 0.6037161377
C  C24  1  0.80020000  0.89520000  0.72180000  1.0 0.6037161377
C  C25  1  0.21740000  0.48940000  0.70460000  1.0 -0.1014140057
C  C26  1  0.78260000  0.51060000  0.70460000  1.0 -0.1014140057
C  C27  1  0.78260000  0.48940000  0.29540000  1.0 -0.1014140057
C  C28  1  0.21740000  0.51060000  0.29540000  1.0 -0.1014140057
C  C29  1  0.70460000  0.21740000  0.48940000  1.0 -0.1014140057
C  C30  1  0.70460000  0.78260000  0.51060000  1.0 -0.1014140057
C  C31  1  0.29540000  0.78260000  0.48940000  1.0 -0.1014140057
C  C32  1  0.29540000  0.21740000  0.51060000  1.0 -0.1014140057
C  C33  1  0.48940000  0.70460000  0.21740000  1.0 -0.1014140057
C  C34  1  0.51060000  0.70460000  0.78260000  1.0 -0.1014140057
C  C35  1  0.48940000  0.29540000  0.78260000  1.0 -0.1014140057
C  C36  1  0.51060000  0.29540000  0.21740000  1.0 -0.1014140057
C  C37  1  0.98940000  0.71740000  0.20460000  1.0 -0.1014140057
C  C38  1  0.01060000  0.28260000  0.20460000  1.0 -0.1014140057
C  C39  1  0.98940000  0.28260000  0.79540000  1.0 -0.1014140057
C  C40  1  0.01060000  0.71740000  0.79540000  1.0 -0.1014140057
C  C41  1  0.71740000  0.20460000  0.98940000  1.0 -0.1014140057
C  C42  1  0.28260000  0.20460000  0.01060000  1.0 -0.1014140057
C  C43  1  0.28260000  0.79540000  0.98940000  1.0 -0.1014140057
C  C44  1  0.71740000  0.79540000  0.01060000  1.0 -0.1014140057
C  C45  1  0.20460000  0.98940000  0.71740000  1.0 -0.1014140057
C  C46  1  0.20460000  0.01060000  0.28260000  1.0 -0.1014140057
C  C47  1  0.79540000  0.98940000  0.28260000  1.0 -0.1014140057
C  C48  1  0.79540000  0.01060000  0.71740000  1.0 -0.1014140057
C  C49  1  0.21680000  0.54320000  0.67030000  1.0 -0.0136153593
C  C50  1  0.78320000  0.45680000  0.67030000  1.0 -0.0136153593
C  C51  1  0.78320000  0.54320000  0.32970000  1.0 -0.0136153593
C  C52  1  0.21680000  0.45680000  0.32970000  1.0 -0.0136153593
C  C53  1  0.67030000  0.21680000  0.54320000  1.0 -0.0136153593
C  C54  1  0.67030000  0.78320000  0.45680000  1.0 -0.0136153593
C  C55  1  0.32970000  0.78320000  0.54320000  1.0 -0.0136153593
C  C56  1  0.32970000  0.21680000  0.45680000  1.0 -0.0136153593
C  C57  1  0.54320000  0.67030000  0.21680000  1.0 -0.0136153593
C  C58  1  0.45680000  0.67030000  0.78320000  1.0 -0.0136153593
C  C59  1  0.54320000  0.32970000  0.78320000  1.0 -0.0136153593
C  C60  1  0.45680000  0.32970000  0.21680000  1.0 -0.0136153593
C  C61  1  0.04320000  0.71680000  0.17030000  1.0 -0.0136153593
C  C62  1  0.95680000  0.28320000  0.17030000  1.0 -0.0136153593
C  C63  1  0.04320000  0.28320000  0.82970000  1.0 -0.0136153593
C  C64  1  0.95680000  0.71680000  0.82970000  1.0 -0.0136153593
C  C65  1  0.71680000  0.17030000  0.04320000  1.0 -0.0136153593
C  C66  1  0.28320000  0.17030000  0.95680000  1.0 -0.0136153593
C  C67  1  0.28320000  0.82970000  0.04320000  1.0 -0.0136153593
C  C68  1  0.71680000  0.82970000  0.95680000  1.0 -0.0136153593
C  C69  1  0.17030000  0.04320000  0.71680000  1.0 -0.0136153593
C  C70  1  0.17030000  0.95680000  0.28320000  1.0 -0.0136153593
C  C71  1  0.82970000  0.04320000  0.28320000  1.0 -0.0136153593
C  C72  1  0.82970000  0.95680000  0.71680000  1.0 -0.0136153593
C  C73  1  0.21000000  0.43420000  0.67620000  1.0 -0.0136153593
C  C74  1  0.79000000  0.56580000  0.67620000  1.0 -0.0136153593
C  C75  1  0.79000000  0.43420000  0.32380000  1.0 -0.0136153593
C  C76  1  0.21000000  0.56580000  0.32380000  1.0 -0.0136153593
C  C77  1  0.67620000  0.21000000  0.43420000  1.0 -0.0136153593
C  C78  1  0.67620000  0.79000000  0.56580000  1.0 -0.0136153593
C  C79  1  0.32380000  0.79000000  0.43420000  1.0 -0.0136153593
C  C80  1  0.32380000  0.21000000  0.56580000  1.0 -0.0136153593
C  C81  1  0.43420000  0.67620000  0.21000000  1.0 -0.0136153593
C  C82  1  0.56580000  0.67620000  0.79000000  1.0 -0.0136153593
C  C83  1  0.43420000  0.32380000  0.79000000  1.0 -0.0136153593
C  C84  1  0.56580000  0.32380000  0.21000000  1.0 -0.0136153593
C  C85  1  0.93420000  0.71000000  0.17620000  1.0 -0.0136153593
C  C86  1  0.06580000  0.29000000  0.17620000  1.0 -0.0136153593
C  C87  1  0.93420000  0.29000000  0.82380000  1.0 -0.0136153593
C  C88  1  0.06580000  0.71000000  0.82380000  1.0 -0.0136153593
C  C89  1  0.71000000  0.17620000  0.93420000  1.0 -0.0136153593
C  C90  1  0.29000000  0.17620000  0.06580000  1.0 -0.0136153593
C  C91  1  0.29000000  0.82380000  0.93420000  1.0 -0.0136153593
C  C92  1  0.71000000  0.82380000  0.06580000  1.0 -0.0136153593
C  C93  1  0.17620000  0.93420000  0.71000000  1.0 -0.0136153593
C  C94  1  0.17620000  0.06580000  0.29000000  1.0 -0.0136153593
C  C95  1  0.82380000  0.93420000  0.29000000  1.0 -0.0136153593
C  C96  1  0.82380000  0.06580000  0.71000000  1.0 -0.0136153593
C  C97  1  0.20780000  0.37510000  0.71110000  1.0 0.6079124239
C  C98  1  0.79220000  0.62490000  0.71110000  1.0 0.6079124239
C  C99  1  0.79220000  0.37510000  0.28890000  1.0 0.6079124239
C  C100  1  0.20780000  0.62490000  0.28890000  1.0 0.6079124239
C  C101  1  0.71110000  0.20780000  0.37510000  1.0 0.6079124239
C  C102  1  0.71110000  0.79220000  0.62490000  1.0 0.6079124239
C  C103  1  0.28890000  0.79220000  0.37510000  1.0 0.6079124239
C  C104  1  0.28890000  0.20780000  0.62490000  1.0 0.6079124239
C  C105  1  0.37510000  0.71110000  0.20780000  1.0 0.6079124239
C  C106  1  0.62490000  0.71110000  0.79220000  1.0 0.6079124239
C  C107  1  0.37510000  0.28890000  0.79220000  1.0 0.6079124239
C  C108  1  0.62490000  0.28890000  0.20780000  1.0 0.6079124239
C  C109  1  0.87510000  0.70780000  0.21110000  1.0 0.6079124239
C  C110  1  0.12490000  0.29220000  0.21110000  1.0 0.6079124239
C  C111  1  0.87510000  0.29220000  0.78890000  1.0 0.6079124239
C  C112  1  0.12490000  0.70780000  0.78890000  1.0 0.6079124239
C  C113  1  0.70780000  0.21110000  0.87510000  1.0 0.6079124239
C  C114  1  0.29220000  0.21110000  0.12490000  1.0 0.6079124239
C  C115  1  0.29220000  0.78890000  0.87510000  1.0 0.6079124239
C  C116  1  0.70780000  0.78890000  0.12490000  1.0 0.6079124239
C  C117  1  0.21110000  0.87510000  0.70780000  1.0 0.6079124239
C  C118  1  0.21110000  0.12490000  0.29220000  1.0 0.6079124239
C  C119  1  0.78890000  0.87510000  0.29220000  1.0 0.6079124239
C  C120  1  0.78890000  0.12490000  0.70780000  1.0 0.6079124239
C  C121  1  0.21140000  0.54040000  0.60830000  1.0 -0.1345149699
C  C122  1  0.78860000  0.45960000  0.60830000  1.0 -0.1345149699
C  C123  1  0.78860000  0.54040000  0.39170000  1.0 -0.1345149699
C  C124  1  0.21140000  0.45960000  0.39170000  1.0 -0.1345149699
C  C125  1  0.60830000  0.21140000  0.54040000  1.0 -0.1345149699
C  C126  1  0.60830000  0.78860000  0.45960000  1.0 -0.1345149699
C  C127  1  0.39170000  0.78860000  0.54040000  1.0 -0.1345149699
C  C128  1  0.39170000  0.21140000  0.45960000  1.0 -0.1345149699
C  C129  1  0.54040000  0.60830000  0.21140000  1.0 -0.1345149699
C  C130  1  0.45960000  0.60830000  0.78860000  1.0 -0.1345149699
C  C131  1  0.54040000  0.39170000  0.78860000  1.0 -0.1345149699
C  C132  1  0.45960000  0.39170000  0.21140000  1.0 -0.1345149699
C  C133  1  0.04040000  0.71140000  0.10830000  1.0 -0.1345149699
C  C134  1  0.95960000  0.28860000  0.10830000  1.0 -0.1345149699
C  C135  1  0.04040000  0.28860000  0.89170000  1.0 -0.1345149699
C  C136  1  0.95960000  0.71140000  0.89170000  1.0 -0.1345149699
C  C137  1  0.71140000  0.10830000  0.04040000  1.0 -0.1345149699
C  C138  1  0.28860000  0.10830000  0.95960000  1.0 -0.1345149699
C  C139  1  0.28860000  0.89170000  0.04040000  1.0 -0.1345149699
C  C140  1  0.71140000  0.89170000  0.95960000  1.0 -0.1345149699
C  C141  1  0.10830000  0.04040000  0.71140000  1.0 -0.1345149699
C  C142  1  0.10830000  0.95960000  0.28860000  1.0 -0.1345149699
C  C143  1  0.89170000  0.04040000  0.28860000  1.0 -0.1345149699
C  C144  1  0.89170000  0.95960000  0.71140000  1.0 -0.1345149699
C  C145  1  0.20500000  0.43150000  0.61330000  1.0 -0.145429187
C  C146  1  0.79500000  0.56850000  0.61330000  1.0 -0.145429187
C  C147  1  0.79500000  0.43150000  0.38670000  1.0 -0.145429187
C  C148  1  0.20500000  0.56850000  0.38670000  1.0 -0.145429187
C  C149  1  0.61330000  0.20500000  0.43150000  1.0 -0.145429187
C  C150  1  0.61330000  0.79500000  0.56850000  1.0 -0.145429187
C  C151  1  0.38670000  0.79500000  0.43150000  1.0 -0.145429187
C  C152  1  0.38670000  0.20500000  0.56850000  1.0 -0.145429187
C  C153  1  0.43150000  0.61330000  0.20500000  1.0 -0.145429187
C  C154  1  0.56850000  0.61330000  0.79500000  1.0 -0.145429187
C  C155  1  0.43150000  0.38670000  0.79500000  1.0 -0.145429187
C  C156  1  0.56850000  0.38670000  0.20500000  1.0 -0.145429187
C  C157  1  0.93150000  0.70500000  0.11330000  1.0 -0.145429187
C  C158  1  0.06850000  0.29500000  0.11330000  1.0 -0.145429187
C  C159  1  0.93150000  0.29500000  0.88670000  1.0 -0.145429187
C  C160  1  0.06850000  0.70500000  0.88670000  1.0 -0.145429187
C  C161  1  0.70500000  0.11330000  0.93150000  1.0 -0.145429187
C  C162  1  0.29500000  0.11330000  0.06850000  1.0 -0.145429187
C  C163  1  0.29500000  0.88670000  0.93150000  1.0 -0.145429187
C  C164  1  0.70500000  0.88670000  0.06850000  1.0 -0.145429187
C  C165  1  0.11330000  0.93150000  0.70500000  1.0 -0.145429187
C  C166  1  0.11330000  0.06850000  0.29500000  1.0 -0.145429187
C  C167  1  0.88670000  0.93150000  0.29500000  1.0 -0.145429187
C  C168  1  0.88670000  0.06850000  0.70500000  1.0 -0.145429187
C  C169  1  0.20680000  0.48450000  0.57930000  1.0 0.1464743355
C  C170  1  0.79320000  0.51550000  0.57930000  1.0 0.1464743355
C  C171  1  0.79320000  0.48450000  0.42070000  1.0 0.1464743355
C  C172  1  0.20680000  0.51550000  0.42070000  1.0 0.1464743355
C  C173  1  0.57930000  0.20680000  0.48450000  1.0 0.1464743355
C  C174  1  0.57930000  0.79320000  0.51550000  1.0 0.1464743355
C  C175  1  0.42070000  0.79320000  0.48450000  1.0 0.1464743355
C  C176  1  0.42070000  0.20680000  0.51550000  1.0 0.1464743355
C  C177  1  0.48450000  0.57930000  0.20680000  1.0 0.1464743355
C  C178  1  0.51550000  0.57930000  0.79320000  1.0 0.1464743355
C  C179  1  0.48450000  0.42070000  0.79320000  1.0 0.1464743355
C  C180  1  0.51550000  0.42070000  0.20680000  1.0 0.1464743355
C  C181  1  0.98450000  0.70680000  0.07930000  1.0 0.1464743355
C  C182  1  0.01550000  0.29320000  0.07930000  1.0 0.1464743355
C  C183  1  0.98450000  0.29320000  0.92070000  1.0 0.1464743355
C  C184  1  0.01550000  0.70680000  0.92070000  1.0 0.1464743355
C  C185  1  0.70680000  0.07930000  0.98450000  1.0 0.1464743355
C  C186  1  0.29320000  0.07930000  0.01550000  1.0 0.1464743355
C  C187  1  0.29320000  0.92070000  0.98450000  1.0 0.1464743355
C  C188  1  0.70680000  0.92070000  0.01550000  1.0 0.1464743355
C  C189  1  0.07930000  0.98450000  0.70680000  1.0 0.1464743355
C  C190  1  0.07930000  0.01550000  0.29320000  1.0 0.1464743355
C  C191  1  0.92070000  0.98450000  0.29320000  1.0 0.1464743355
C  C192  1  0.92070000  0.01550000  0.70680000  1.0 0.1464743355
N  N1  1  0.20520000  0.47680000  0.51420000  1.0 -0.1014140057
N  N2  1  0.79480000  0.52320000  0.51420000  1.0 -0.1014140057
N  N3  1  0.79480000  0.47680000  0.48580000  1.0 -0.1014140057
N  N4  1  0.20520000  0.52320000  0.48580000  1.0 -0.1014140057
N  N5  1  0.51420000  0.20520000  0.47680000  1.0 -0.1014140057
N  N6  1  0.51420000  0.79480000  0.52320000  1.0 -0.1014140057
N  N7  1  0.48580000  0.79480000  0.47680000  1.0 -0.1014140057
N  N8  1  0.48580000  0.20520000  0.52320000  1.0 -0.1014140057
N  N9  1  0.47680000  0.51420000  0.20520000  1.0 -0.1014140057
N  N10  1  0.52320000  0.51420000  0.79480000  1.0 -0.1014140057
N  N11  1  0.47680000  0.48580000  0.79480000  1.0 -0.1014140057
N  N12  1  0.52320000  0.48580000  0.20520000  1.0 -0.1014140057
N  N13  1  0.97680000  0.70520000  0.01420000  1.0 -0.1014140057
N  N14  1  0.02320000  0.29480000  0.01420000  1.0 -0.1057537917
N  N15  1  0.97680000  0.29480000  0.98580000  1.0 -0.1014140057
N  N16  1  0.02320000  0.70520000  0.98580000  1.0 -0.1014140057
N  N17  1  0.70520000  0.01420000  0.97680000  1.0 -0.1014140057
N  N18  1  0.29480000  0.01420000  0.02320000  1.0 -0.1014140057
N  N19  1  0.29480000  0.98580000  0.97680000  1.0 -0.1014140057
N  N20  1  0.70520000  0.98580000  0.02320000  1.0 -0.1014140057
N  N21  1  0.01420000  0.97680000  0.70520000  1.0 -0.1014140057
N  N22  1  0.01420000  0.02320000  0.29480000  1.0 -0.1057537917
N  N23  1  0.98580000  0.97680000  0.29480000  1.0 -0.1014140057
N  N24  1  0.98580000  0.02320000  0.70520000  1.0 -0.1014140057
O  O1  1  0.25887000  0.74113000  0.74113000  1.0 -0.8342192743
O  O2  1  0.74113000  0.25887000  0.74113000  1.0 -0.8342192743
O  O3  1  0.74113000  0.74113000  0.25887000  1.0 -0.8342192743
O  O4  1  0.25887000  0.25887000  0.25887000  1.0 -0.8342192743
O  O5  1  0.24113000  0.75887000  0.24113000  1.0 -0.8342192743
O  O6  1  0.75887000  0.24113000  0.24113000  1.0 -0.8342192743
O  O7  1  0.24113000  0.24113000  0.75887000  1.0 -0.8342192743
O  O8  1  0.75887000  0.75887000  0.75887000  1.0 -0.8342192743
O  O9  1  0.20440000  0.64913000  0.66815000  1.0 -0.5407335372
O  O10  1  0.79560000  0.35087000  0.66815000  1.0 -0.5407335372
O  O11  1  0.79560000  0.64913000  0.33185000  1.0 -0.5407335372
O  O12  1  0.20440000  0.35087000  0.33185000  1.0 -0.5407335372
O  O13  1  0.66815000  0.20440000  0.64913000  1.0 -0.5407335372
O  O14  1  0.66815000  0.79560000  0.35087000  1.0 -0.5407335372
O  O15  1  0.33185000  0.79560000  0.64913000  1.0 -0.5407335372
O  O16  1  0.33185000  0.20440000  0.35087000  1.0 -0.5407335372
O  O17  1  0.64913000  0.66815000  0.20440000  1.0 -0.5407335372
O  O18  1  0.35087000  0.66815000  0.79560000  1.0 -0.5407335372
O  O19  1  0.64913000  0.33185000  0.79560000  1.0 -0.5407335372
O  O20  1  0.35087000  0.33185000  0.20440000  1.0 -0.5407335372
O  O21  1  0.14913000  0.70440000  0.16815000  1.0 -0.5407335372
O  O22  1  0.85087000  0.29560000  0.16815000  1.0 -0.5407335372
O  O23  1  0.14913000  0.29560000  0.83185000  1.0 -0.5407335372
O  O24  1  0.85087000  0.70440000  0.83185000  1.0 -0.5407335372
O  O25  1  0.70440000  0.16815000  0.14913000  1.0 -0.5407335372
O  O26  1  0.29560000  0.16815000  0.85087000  1.0 -0.5407335372
O  O27  1  0.29560000  0.83185000  0.14913000  1.0 -0.5407335372
O  O28  1  0.70440000  0.83185000  0.85087000  1.0 -0.5407335372
O  O29  1  0.16815000  0.14913000  0.70440000  1.0 -0.5407335372
O  O30  1  0.16815000  0.85087000  0.29560000  1.0 -0.5407335372
O  O31  1  0.83185000  0.14913000  0.29560000  1.0 -0.5407335372
O  O32  1  0.83185000  0.85087000  0.70440000  1.0 -0.5407335372
O  O33  1  0.22500000  0.37558000  0.76506000  1.0 -0.5171559278
O  O34  1  0.77500000  0.62442000  0.76506000  1.0 -0.5171559278
O  O35  1  0.77500000  0.37558000  0.23494000  1.0 -0.5171559278
O  O36  1  0.22500000  0.62442000  0.23494000  1.0 -0.5171559278
O  O37  1  0.76506000  0.22500000  0.37558000  1.0 -0.5171559278
O  O38  1  0.76506000  0.77500000  0.62442000  1.0 -0.5171559278
O  O39  1  0.23494000  0.77500000  0.37558000  1.0 -0.5171559278
O  O40  1  0.23494000  0.22500000  0.62442000  1.0 -0.5171559278
O  O41  1  0.37558000  0.76506000  0.22500000  1.0 -0.5171559278
O  O42  1  0.62442000  0.76506000  0.77500000  1.0 -0.5171559278
O  O43  1  0.37558000  0.23494000  0.77500000  1.0 -0.5171559278
O  O44  1  0.62442000  0.23494000  0.22500000  1.0 -0.5171559278
O  O45  1  0.87558000  0.72500000  0.26506000  1.0 -0.5171559278
O  O46  1  0.12442000  0.27500000  0.26506000  1.0 -0.5171559278
O  O47  1  0.87558000  0.27500000  0.73494000  1.0 -0.5171559278
O  O48  1  0.12442000  0.72500000  0.73494000  1.0 -0.5171559278
O  O49  1  0.72500000  0.26506000  0.87558000  1.0 -0.5171559278
O  O50  1  0.27500000  0.26506000  0.12442000  1.0 -0.5171559278
O  O51  1  0.27500000  0.73494000  0.87558000  1.0 -0.5171559278
O  O52  1  0.72500000  0.73494000  0.12442000  1.0 -0.5171559278
O  O53  1  0.26506000  0.87558000  0.72500000  1.0 -0.5171559278
O  O54  1  0.26506000  0.12442000  0.27500000  1.0 -0.5171559278
O  O55  1  0.73494000  0.87558000  0.27500000  1.0 -0.5171559278
O  O56  1  0.73494000  0.12442000  0.72500000  1.0 -0.5171559278
O  O57  1  0.24360000  0.60695000  0.75265000  1.0 -0.5331638876
O  O58  1  0.75640000  0.39305000  0.75265000  1.0 -0.5331638876
O  O59  1  0.75640000  0.60695000  0.24735000  1.0 -0.5331638876
O  O60  1  0.24360000  0.39305000  0.24735000  1.0 -0.5331638876
O  O61  1  0.75265000  0.24360000  0.60695000  1.0 -0.5331638876
O  O62  1  0.75265000  0.75640000  0.39305000  1.0 -0.5331638876
O  O63  1  0.24735000  0.75640000  0.60695000  1.0 -0.5331638876
O  O64  1  0.24735000  0.24360000  0.39305000  1.0 -0.5331638876
O  O65  1  0.60695000  0.75265000  0.24360000  1.0 -0.5331638876
O  O66  1  0.39305000  0.75265000  0.75640000  1.0 -0.5331638876
O  O67  1  0.60695000  0.24735000  0.75640000  1.0 -0.5331638876
O  O68  1  0.39305000  0.24735000  0.24360000  1.0 -0.5331638876
O  O69  1  0.10695000  0.74360000  0.25265000  1.0 -0.5331638876
O  O70  1  0.89305000  0.25640000  0.25265000  1.0 -0.5331638876
O  O71  1  0.10695000  0.25640000  0.74735000  1.0 -0.5331638876
O  O72  1  0.89305000  0.74360000  0.74735000  1.0 -0.5331638876
O  O73  1  0.74360000  0.25265000  0.10695000  1.0 -0.5331638876
O  O74  1  0.25640000  0.25265000  0.89305000  1.0 -0.5331638876
O  O75  1  0.25640000  0.74735000  0.10695000  1.0 -0.5331638876
O  O76  1  0.74360000  0.74735000  0.89305000  1.0 -0.5331638876
O  O77  1  0.25265000  0.10695000  0.74360000  1.0 -0.5331638876
O  O78  1  0.25265000  0.89305000  0.25640000  1.0 -0.5331638876
O  O79  1  0.74735000  0.10695000  0.25640000  1.0 -0.5331638876
O  O80  1  0.74735000  0.89305000  0.74360000  1.0 -0.5331638876
O  O81  1  0.18820000  0.32992000  0.68148000  1.0 -0.5407335372
O  O82  1  0.81180000  0.67008000  0.68148000  1.0 -0.5407335372
O  O83  1  0.81180000  0.32992000  0.31852000  1.0 -0.5407335372
O  O84  1  0.18820000  0.67008000  0.31852000  1.0 -0.5407335372
O  O85  1  0.68148000  0.18820000  0.32992000  1.0 -0.5407335372
O  O86  1  0.68148000  0.81180000  0.67008000  1.0 -0.5407335372
O  O87  1  0.31852000  0.81180000  0.32992000  1.0 -0.5407335372
O  O88  1  0.31852000  0.18820000  0.67008000  1.0 -0.5407335372
O  O89  1  0.32992000  0.68148000  0.18820000  1.0 -0.5407335372
O  O90  1  0.67008000  0.68148000  0.81180000  1.0 -0.5407335372
O  O91  1  0.32992000  0.31852000  0.81180000  1.0 -0.5407335372
O  O92  1  0.67008000  0.31852000  0.18820000  1.0 -0.5407335372
O  O93  1  0.82992000  0.68820000  0.18148000  1.0 -0.5407335372
O  O94  1  0.17008000  0.31180000  0.18148000  1.0 -0.5407335372
O  O95  1  0.82992000  0.31180000  0.81852000  1.0 -0.5407335372
O  O96  1  0.17008000  0.68820000  0.81852000  1.0 -0.5407335372
O  O97  1  0.68820000  0.18148000  0.82992000  1.0 -0.5407335372
O  O98  1  0.31180000  0.18148000  0.17008000  1.0 -0.5407335372
O  O99  1  0.31180000  0.81852000  0.82992000  1.0 -0.5407335372
O  O100  1  0.68820000  0.81852000  0.17008000  1.0 -0.5407335372
O  O101  1  0.18148000  0.82992000  0.68820000  1.0 -0.5407335372
O  O102  1  0.18148000  0.17008000  0.31180000  1.0 -0.5407335372
O  O103  1  0.81852000  0.82992000  0.31180000  1.0 -0.5407335372
O  O104  1  0.81852000  0.17008000  0.68820000  1.0 -0.5407335372
