# DDEC6 charges by PACMAN v1.1 (https://github.com/mtap-research/PACMAN-charge/)
data_LIDCUA_ASR_pacman
_symmetry_space_group_name_H-M   'P 1'
_cell_length_a   21.91640000
_cell_length_b   21.91640000
_cell_length_c   21.91640000
_cell_angle_alpha   90.00000000
_cell_angle_beta   90.00000000
_cell_angle_gamma   90.00000000
_symmetry_Int_Tables_number   1
_chemical_formula_structural   Fe3H9C24N3O13
_chemical_formula_sum   'Fe24 H72 C192 N24 O104'
_cell_volume   10527.07348708
_cell_formula_units_Z   8
loop_
 _symmetry_equiv_pos_site_id
 _symmetry_equiv_pos_as_xyz
  1  'x, y, z'
loop_
 _atom_site_type_symbol
 _atom_site_label
 _atom_site_symmetry_multiplicity
 _atom_site_fract_x
 _atom_site_fract_y
 _atom_site_fract_z
 _atom_site_occupancy
 _atom_site_charge
Fe  Fe1  1  0.30170000  0.18229000  0.76046000  1.0 1.1698569544
Fe  Fe2  1  0.69830000  0.81771000  0.76046000  1.0 1.1698569544
Fe  Fe3  1  0.69830000  0.18229000  0.23954000  1.0 1.1698569544
Fe  Fe4  1  0.30170000  0.81771000  0.23954000  1.0 1.1698569544
Fe  Fe5  1  0.76046000  0.30170000  0.18229000  1.0 1.1698569544
Fe  Fe6  1  0.76046000  0.69830000  0.81771000  1.0 1.1698569544
Fe  Fe7  1  0.23954000  0.69830000  0.18229000  1.0 1.1698569544
Fe  Fe8  1  0.23954000  0.30170000  0.81771000  1.0 1.1698569544
Fe  Fe9  1  0.18229000  0.76046000  0.30170000  1.0 1.1698569544
Fe  Fe10  1  0.81771000  0.76046000  0.69830000  1.0 1.1698569544
Fe  Fe11  1  0.18229000  0.23954000  0.69830000  1.0 1.1698569544
Fe  Fe12  1  0.81771000  0.23954000  0.30170000  1.0 1.1698569544
Fe  Fe13  1  0.68229000  0.80170000  0.26046000  1.0 1.1698569544
Fe  Fe14  1  0.31771000  0.19830000  0.26046000  1.0 1.1698569544
Fe  Fe15  1  0.68229000  0.19830000  0.73954000  1.0 1.1698569544
Fe  Fe16  1  0.31771000  0.80170000  0.73954000  1.0 1.1698569544
Fe  Fe17  1  0.80170000  0.26046000  0.68229000  1.0 1.1698569544
Fe  Fe18  1  0.19830000  0.26046000  0.31771000  1.0 1.1698569544
Fe  Fe19  1  0.19830000  0.73954000  0.68229000  1.0 1.1698569544
Fe  Fe20  1  0.80170000  0.73954000  0.31771000  1.0 1.1698569544
Fe  Fe21  1  0.26046000  0.68229000  0.80170000  1.0 1.1698569544
Fe  Fe22  1  0.26046000  0.31771000  0.19830000  1.0 1.1698569544
Fe  Fe23  1  0.73954000  0.68229000  0.19830000  1.0 1.1698569544
Fe  Fe24  1  0.73954000  0.31771000  0.80170000  1.0 1.1698569544
H  H1  1  0.49170000  0.25281000  0.77879000  1.0 0.1388708954
H  H2  1  0.50830000  0.74719000  0.77879000  1.0 0.1388708954
H  H3  1  0.50830000  0.25281000  0.22121000  1.0 0.1388708954
H  H4  1  0.49170000  0.74719000  0.22121000  1.0 0.1388708954
H  H5  1  0.77879000  0.49170000  0.25281000  1.0 0.1388708954
H  H6  1  0.77879000  0.50830000  0.74719000  1.0 0.1388708954
H  H7  1  0.22121000  0.50830000  0.25281000  1.0 0.1388708954
H  H8  1  0.22121000  0.49170000  0.74719000  1.0 0.1388708954
H  H9  1  0.25281000  0.77879000  0.49170000  1.0 0.1388708954
H  H10  1  0.74719000  0.77879000  0.50830000  1.0 0.1388708954
H  H11  1  0.25281000  0.22121000  0.50830000  1.0 0.1388708954
H  H12  1  0.74719000  0.22121000  0.49170000  1.0 0.1388708954
H  H13  1  0.75281000  0.99170000  0.27879000  1.0 0.1388708954
H  H14  1  0.24719000  0.00830000  0.27879000  1.0 0.1388708954
H  H15  1  0.75281000  0.00830000  0.72121000  1.0 0.1388708954
H  H16  1  0.24719000  0.99170000  0.72121000  1.0 0.1388708954
H  H17  1  0.99170000  0.27879000  0.75281000  1.0 0.1388708954
H  H18  1  0.00830000  0.27879000  0.24719000  1.0 0.1388708954
H  H19  1  0.00830000  0.72121000  0.75281000  1.0 0.1388708954
H  H20  1  0.99170000  0.72121000  0.24719000  1.0 0.1388708954
H  H21  1  0.27879000  0.75281000  0.99170000  1.0 0.1388708954
H  H22  1  0.27879000  0.24719000  0.00830000  1.0 0.1388708954
H  H23  1  0.72121000  0.75281000  0.00830000  1.0 0.1388708954
H  H24  1  0.72121000  0.24719000  0.99170000  1.0 0.1388708954
H  H25  1  0.57647000  0.41563000  0.79036000  1.0 0.1388708954
H  H26  1  0.42353000  0.58437000  0.79036000  1.0 0.1388708954
H  H27  1  0.42353000  0.41563000  0.20964000  1.0 0.1388708954
H  H28  1  0.57647000  0.58437000  0.20964000  1.0 0.1388708954
H  H29  1  0.79036000  0.57647000  0.41563000  1.0 0.1388708954
H  H30  1  0.79036000  0.42353000  0.58437000  1.0 0.1388708954
H  H31  1  0.20964000  0.42353000  0.41563000  1.0 0.1388708954
H  H32  1  0.20964000  0.57647000  0.58437000  1.0 0.1388708954
H  H33  1  0.41563000  0.79036000  0.57647000  1.0 0.1388708954
H  H34  1  0.58437000  0.79036000  0.42353000  1.0 0.1388708954
H  H35  1  0.41563000  0.20964000  0.42353000  1.0 0.1388708954
H  H36  1  0.58437000  0.20964000  0.57647000  1.0 0.1388708954
H  H37  1  0.91563000  0.07647000  0.29036000  1.0 0.1388708954
H  H38  1  0.08437000  0.92353000  0.29036000  1.0 0.1388708954
H  H39  1  0.91563000  0.92353000  0.70964000  1.0 0.1388708954
H  H40  1  0.08437000  0.07647000  0.70964000  1.0 0.1388708954
H  H41  1  0.07647000  0.29036000  0.91563000  1.0 0.1388708954
H  H42  1  0.92353000  0.29036000  0.08437000  1.0 0.1388708954
H  H43  1  0.92353000  0.70964000  0.91563000  1.0 0.1388708954
H  H44  1  0.07647000  0.70964000  0.08437000  1.0 0.1388708954
H  H45  1  0.29036000  0.91563000  0.07647000  1.0 0.1388708954
H  H46  1  0.29036000  0.08437000  0.92353000  1.0 0.1388708954
H  H47  1  0.70964000  0.91563000  0.92353000  1.0 0.1388708954
H  H48  1  0.70964000  0.08437000  0.07647000  1.0 0.1388708954
H  H49  1  0.39435000  0.40752000  0.80138000  1.0 0.1388708954
H  H50  1  0.60565000  0.59248000  0.80138000  1.0 0.1388708954
H  H51  1  0.60565000  0.40752000  0.19862000  1.0 0.1388708954
H  H52  1  0.39435000  0.59248000  0.19862000  1.0 0.1388708954
H  H53  1  0.80138000  0.39435000  0.40752000  1.0 0.1388708954
H  H54  1  0.80138000  0.60565000  0.59248000  1.0 0.1388708954
H  H55  1  0.19862000  0.60565000  0.40752000  1.0 0.1388708954
H  H56  1  0.19862000  0.39435000  0.59248000  1.0 0.1388708954
H  H57  1  0.40752000  0.80138000  0.39435000  1.0 0.1388708954
H  H58  1  0.59248000  0.80138000  0.60565000  1.0 0.1388708954
H  H59  1  0.40752000  0.19862000  0.60565000  1.0 0.1388708954
H  H60  1  0.59248000  0.19862000  0.39435000  1.0 0.1388708954
H  H61  1  0.90752000  0.89435000  0.30138000  1.0 0.1388708954
H  H62  1  0.09248000  0.10565000  0.30138000  1.0 0.1388708954
H  H63  1  0.90752000  0.10565000  0.69862000  1.0 0.1388708954
H  H64  1  0.09248000  0.89435000  0.69862000  1.0 0.1388708954
H  H65  1  0.89435000  0.30138000  0.90752000  1.0 0.1388708954
H  H66  1  0.10565000  0.30138000  0.09248000  1.0 0.1388708954
H  H67  1  0.10565000  0.69862000  0.90752000  1.0 0.1388708954
H  H68  1  0.89435000  0.69862000  0.09248000  1.0 0.1388708954
H  H69  1  0.30138000  0.90752000  0.89435000  1.0 0.1388708954
H  H70  1  0.30138000  0.09248000  0.10565000  1.0 0.1388708954
H  H71  1  0.69862000  0.90752000  0.10565000  1.0 0.1388708954
H  H72  1  0.69862000  0.09248000  0.89435000  1.0 0.1388708954
C  C1  1  0.60480000  0.30080000  0.77800000  1.0 0.6040836809
C  C2  1  0.39520000  0.69920000  0.77800000  1.0 0.6040836809
C  C3  1  0.39520000  0.30080000  0.22200000  1.0 0.6040836809
C  C4  1  0.60480000  0.69920000  0.22200000  1.0 0.6040836809
C  C5  1  0.77800000  0.60480000  0.30080000  1.0 0.6040836809
C  C6  1  0.77800000  0.39520000  0.69920000  1.0 0.6040836809
C  C7  1  0.22200000  0.39520000  0.30080000  1.0 0.6040836809
C  C8  1  0.22200000  0.60480000  0.69920000  1.0 0.6040836809
C  C9  1  0.30080000  0.77800000  0.60480000  1.0 0.6040836809
C  C10  1  0.69920000  0.77800000  0.39520000  1.0 0.6040836809
C  C11  1  0.30080000  0.22200000  0.39520000  1.0 0.6040836809
C  C12  1  0.69920000  0.22200000  0.60480000  1.0 0.6040836809
C  C13  1  0.80080000  0.10480000  0.27800000  1.0 0.6040836809
C  C14  1  0.19920000  0.89520000  0.27800000  1.0 0.6040836809
C  C15  1  0.80080000  0.89520000  0.72200000  1.0 0.6040836809
C  C16  1  0.19920000  0.10480000  0.72200000  1.0 0.6040836809
C  C17  1  0.10480000  0.27800000  0.80080000  1.0 0.6040836809
C  C18  1  0.89520000  0.27800000  0.19920000  1.0 0.6040836809
C  C19  1  0.89520000  0.72200000  0.80080000  1.0 0.6040836809
C  C20  1  0.10480000  0.72200000  0.19920000  1.0 0.6040836809
C  C21  1  0.27800000  0.80080000  0.10480000  1.0 0.6040836809
C  C22  1  0.27800000  0.19920000  0.89520000  1.0 0.6040836809
C  C23  1  0.72200000  0.80080000  0.89520000  1.0 0.6040836809
C  C24  1  0.72200000  0.19920000  0.10480000  1.0 0.6040836809
C  C25  1  0.48980000  0.29500000  0.78320000  1.0 -0.0878932773
C  C26  1  0.51020000  0.70500000  0.78320000  1.0 -0.0878932773
C  C27  1  0.51020000  0.29500000  0.21680000  1.0 -0.0878932773
C  C28  1  0.48980000  0.70500000  0.21680000  1.0 -0.0878932773
C  C29  1  0.78320000  0.48980000  0.29500000  1.0 -0.0878932773
C  C30  1  0.78320000  0.51020000  0.70500000  1.0 -0.0878932773
C  C31  1  0.21680000  0.51020000  0.29500000  1.0 -0.0878932773
C  C32  1  0.21680000  0.48980000  0.70500000  1.0 -0.0878932773
C  C33  1  0.29500000  0.78320000  0.48980000  1.0 -0.0878932773
C  C34  1  0.70500000  0.78320000  0.51020000  1.0 -0.0878932773
C  C35  1  0.29500000  0.21680000  0.51020000  1.0 -0.0878932773
C  C36  1  0.70500000  0.21680000  0.48980000  1.0 -0.0878932773
C  C37  1  0.79500000  0.98980000  0.28320000  1.0 -0.0878932773
C  C38  1  0.20500000  0.01020000  0.28320000  1.0 -0.0878932773
C  C39  1  0.79500000  0.01020000  0.71680000  1.0 -0.0878932773
C  C40  1  0.20500000  0.98980000  0.71680000  1.0 -0.0878932773
C  C41  1  0.98980000  0.28320000  0.79500000  1.0 -0.0878932773
C  C42  1  0.01020000  0.28320000  0.20500000  1.0 -0.0878932773
C  C43  1  0.01020000  0.71680000  0.79500000  1.0 -0.0878932773
C  C44  1  0.98980000  0.71680000  0.20500000  1.0 -0.0878932773
C  C45  1  0.28320000  0.79500000  0.98980000  1.0 -0.0878932773
C  C46  1  0.28320000  0.20500000  0.01020000  1.0 -0.0878932773
C  C47  1  0.71680000  0.79500000  0.01020000  1.0 -0.0878932773
C  C48  1  0.71680000  0.20500000  0.98980000  1.0 -0.0878932773
C  C49  1  0.54450000  0.32980000  0.78300000  1.0 -0.0386160295
C  C50  1  0.45550000  0.67020000  0.78300000  1.0 -0.0386160295
C  C51  1  0.45550000  0.32980000  0.21700000  1.0 -0.0386160295
C  C52  1  0.54450000  0.67020000  0.21700000  1.0 -0.0386160295
C  C53  1  0.78300000  0.54450000  0.32980000  1.0 -0.0386160295
C  C54  1  0.78300000  0.45550000  0.67020000  1.0 -0.0386160295
C  C55  1  0.21700000  0.45550000  0.32980000  1.0 -0.0386160295
C  C56  1  0.21700000  0.54450000  0.67020000  1.0 -0.0386160295
C  C57  1  0.32980000  0.78300000  0.54450000  1.0 -0.0386160295
C  C58  1  0.67020000  0.78300000  0.45550000  1.0 -0.0386160295
C  C59  1  0.32980000  0.21700000  0.45550000  1.0 -0.0386160295
C  C60  1  0.67020000  0.21700000  0.54450000  1.0 -0.0386160295
C  C61  1  0.82980000  0.04450000  0.28300000  1.0 -0.0386160295
C  C62  1  0.17020000  0.95550000  0.28300000  1.0 -0.0386160295
C  C63  1  0.82980000  0.95550000  0.71700000  1.0 -0.0386160295
C  C64  1  0.17020000  0.04450000  0.71700000  1.0 -0.0386160295
C  C65  1  0.04450000  0.28300000  0.82980000  1.0 -0.0386160295
C  C66  1  0.95550000  0.28300000  0.17020000  1.0 -0.0386160295
C  C67  1  0.95550000  0.71700000  0.82980000  1.0 -0.0386160295
C  C68  1  0.04450000  0.71700000  0.17020000  1.0 -0.0386160295
C  C69  1  0.28300000  0.82980000  0.04450000  1.0 -0.0386160295
C  C70  1  0.28300000  0.17020000  0.95550000  1.0 -0.0386160295
C  C71  1  0.71700000  0.82980000  0.95550000  1.0 -0.0386160295
C  C72  1  0.71700000  0.17020000  0.04450000  1.0 -0.0386160295
C  C73  1  0.37500000  0.28940000  0.79230000  1.0 0.6073079792
C  C74  1  0.62500000  0.71060000  0.79230000  1.0 0.6073079792
C  C75  1  0.62500000  0.28940000  0.20770000  1.0 0.6073079792
C  C76  1  0.37500000  0.71060000  0.20770000  1.0 0.6073079792
C  C77  1  0.79230000  0.37500000  0.28940000  1.0 0.6073079792
C  C78  1  0.79230000  0.62500000  0.71060000  1.0 0.6073079792
C  C79  1  0.20770000  0.62500000  0.28940000  1.0 0.6073079792
C  C80  1  0.20770000  0.37500000  0.71060000  1.0 0.6073079792
C  C81  1  0.28940000  0.79230000  0.37500000  1.0 0.6073079792
C  C82  1  0.71060000  0.79230000  0.62500000  1.0 0.6073079792
C  C83  1  0.28940000  0.20770000  0.62500000  1.0 0.6073079792
C  C84  1  0.71060000  0.20770000  0.37500000  1.0 0.6073079792
C  C85  1  0.78940000  0.87500000  0.29230000  1.0 0.6073079792
C  C86  1  0.21060000  0.12500000  0.29230000  1.0 0.6073079792
C  C87  1  0.78940000  0.12500000  0.70770000  1.0 0.6073079792
C  C88  1  0.21060000  0.87500000  0.70770000  1.0 0.6073079792
C  C89  1  0.87500000  0.29230000  0.78940000  1.0 0.6073079792
C  C90  1  0.12500000  0.29230000  0.21060000  1.0 0.6073079792
C  C91  1  0.12500000  0.70770000  0.78940000  1.0 0.6073079792
C  C92  1  0.87500000  0.70770000  0.21060000  1.0 0.6073079792
C  C93  1  0.29230000  0.78940000  0.87500000  1.0 0.6073079792
C  C94  1  0.29230000  0.21060000  0.12500000  1.0 0.6073079792
C  C95  1  0.70770000  0.78940000  0.12500000  1.0 0.6073079792
C  C96  1  0.70770000  0.21060000  0.87500000  1.0 0.6073079792
C  C97  1  0.43310000  0.32370000  0.79010000  1.0 -0.0319452419
C  C98  1  0.56690000  0.67630000  0.79010000  1.0 -0.0319452419
C  C99  1  0.56690000  0.32370000  0.20990000  1.0 -0.0319452419
C  C100  1  0.43310000  0.67630000  0.20990000  1.0 -0.0319452419
C  C101  1  0.79010000  0.43310000  0.32370000  1.0 -0.0319452419
C  C102  1  0.79010000  0.56690000  0.67630000  1.0 -0.0319452419
C  C103  1  0.20990000  0.56690000  0.32370000  1.0 -0.0319452419
C  C104  1  0.20990000  0.43310000  0.67630000  1.0 -0.0319452419
C  C105  1  0.32370000  0.79010000  0.43310000  1.0 -0.0319452419
C  C106  1  0.67630000  0.79010000  0.56690000  1.0 -0.0319452419
C  C107  1  0.32370000  0.20990000  0.56690000  1.0 -0.0319452419
C  C108  1  0.67630000  0.20990000  0.43310000  1.0 -0.0319452419
C  C109  1  0.82370000  0.93310000  0.29010000  1.0 -0.0319452419
C  C110  1  0.17630000  0.06690000  0.29010000  1.0 -0.0319452419
C  C111  1  0.82370000  0.06690000  0.70990000  1.0 -0.0319452419
C  C112  1  0.17630000  0.93310000  0.70990000  1.0 -0.0319452419
C  C113  1  0.93310000  0.29010000  0.82370000  1.0 -0.0319452419
C  C114  1  0.06690000  0.29010000  0.17630000  1.0 -0.0319452419
C  C115  1  0.06690000  0.70990000  0.82370000  1.0 -0.0319452419
C  C116  1  0.93310000  0.70990000  0.17630000  1.0 -0.0319452419
C  C117  1  0.29010000  0.82370000  0.93310000  1.0 -0.0319452419
C  C118  1  0.29010000  0.17630000  0.06690000  1.0 -0.0319452419
C  C119  1  0.70990000  0.82370000  0.06690000  1.0 -0.0319452419
C  C120  1  0.70990000  0.17630000  0.93310000  1.0 -0.0319452419
C  C121  1  0.54110000  0.39230000  0.78920000  1.0 -0.1340859724
C  C122  1  0.45890000  0.60770000  0.78920000  1.0 -0.1340859724
C  C123  1  0.45890000  0.39230000  0.21080000  1.0 -0.1340859724
C  C124  1  0.54110000  0.60770000  0.21080000  1.0 -0.1340859724
C  C125  1  0.78920000  0.54110000  0.39230000  1.0 -0.1340859724
C  C126  1  0.78920000  0.45890000  0.60770000  1.0 -0.1340859724
C  C127  1  0.21080000  0.45890000  0.39230000  1.0 -0.1340859724
C  C128  1  0.21080000  0.54110000  0.60770000  1.0 -0.1340859724
C  C129  1  0.39230000  0.78920000  0.54110000  1.0 -0.1340859724
C  C130  1  0.60770000  0.78920000  0.45890000  1.0 -0.1340859724
C  C131  1  0.39230000  0.21080000  0.45890000  1.0 -0.1340859724
C  C132  1  0.60770000  0.21080000  0.54110000  1.0 -0.1340859724
C  C133  1  0.89230000  0.04110000  0.28920000  1.0 -0.1340859724
C  C134  1  0.10770000  0.95890000  0.28920000  1.0 -0.1340859724
C  C135  1  0.89230000  0.95890000  0.71080000  1.0 -0.1340859724
C  C136  1  0.10770000  0.04110000  0.71080000  1.0 -0.1340859724
C  C137  1  0.04110000  0.28920000  0.89230000  1.0 -0.1340859724
C  C138  1  0.95890000  0.28920000  0.10770000  1.0 -0.1340859724
C  C139  1  0.95890000  0.71080000  0.89230000  1.0 -0.1340859724
C  C140  1  0.04110000  0.71080000  0.10770000  1.0 -0.1340859724
C  C141  1  0.28920000  0.89230000  0.04110000  1.0 -0.1340859724
C  C142  1  0.28920000  0.10770000  0.95890000  1.0 -0.1340859724
C  C143  1  0.71080000  0.89230000  0.95890000  1.0 -0.1340859724
C  C144  1  0.71080000  0.10770000  0.04110000  1.0 -0.1340859724
C  C145  1  0.43140000  0.38750000  0.79600000  1.0 -0.1423980879
C  C146  1  0.56860000  0.61250000  0.79600000  1.0 -0.1423980879
C  C147  1  0.56860000  0.38750000  0.20400000  1.0 -0.1423980879
C  C148  1  0.43140000  0.61250000  0.20400000  1.0 -0.1423980879
C  C149  1  0.79600000  0.43140000  0.38750000  1.0 -0.1423980879
C  C150  1  0.79600000  0.56860000  0.61250000  1.0 -0.1423980879
C  C151  1  0.20400000  0.56860000  0.38750000  1.0 -0.1423980879
C  C152  1  0.20400000  0.43140000  0.61250000  1.0 -0.1423980879
C  C153  1  0.38750000  0.79600000  0.43140000  1.0 -0.1423980879
C  C154  1  0.61250000  0.79600000  0.56860000  1.0 -0.1423980879
C  C155  1  0.38750000  0.20400000  0.56860000  1.0 -0.1423980879
C  C156  1  0.61250000  0.20400000  0.43140000  1.0 -0.1423980879
C  C157  1  0.88750000  0.93140000  0.29600000  1.0 -0.1423980879
C  C158  1  0.11250000  0.06860000  0.29600000  1.0 -0.1423980879
C  C159  1  0.88750000  0.06860000  0.70400000  1.0 -0.1423980879
C  C160  1  0.11250000  0.93140000  0.70400000  1.0 -0.1423980879
C  C161  1  0.93140000  0.29600000  0.88750000  1.0 -0.1423980879
C  C162  1  0.06860000  0.29600000  0.11250000  1.0 -0.1423980879
C  C163  1  0.06860000  0.70400000  0.88750000  1.0 -0.1423980879
C  C164  1  0.93140000  0.70400000  0.11250000  1.0 -0.1423980879
C  C165  1  0.29600000  0.88750000  0.93140000  1.0 -0.1423980879
C  C166  1  0.29600000  0.11250000  0.06860000  1.0 -0.1423980879
C  C167  1  0.70400000  0.88750000  0.06860000  1.0 -0.1423980879
C  C168  1  0.70400000  0.11250000  0.93140000  1.0 -0.1423980879
C  C169  1  0.48470000  0.42000000  0.79370000  1.0 0.150831764
C  C170  1  0.51530000  0.58000000  0.79370000  1.0 0.150831764
C  C171  1  0.51530000  0.42000000  0.20630000  1.0 0.150831764
C  C172  1  0.48470000  0.58000000  0.20630000  1.0 0.150831764
C  C173  1  0.79370000  0.48470000  0.42000000  1.0 0.150831764
C  C174  1  0.79370000  0.51530000  0.58000000  1.0 0.150831764
C  C175  1  0.20630000  0.51530000  0.42000000  1.0 0.150831764
C  C176  1  0.20630000  0.48470000  0.58000000  1.0 0.150831764
C  C177  1  0.42000000  0.79370000  0.48470000  1.0 0.150831764
C  C178  1  0.58000000  0.79370000  0.51530000  1.0 0.150831764
C  C179  1  0.42000000  0.20630000  0.51530000  1.0 0.150831764
C  C180  1  0.58000000  0.20630000  0.48470000  1.0 0.150831764
C  C181  1  0.92000000  0.98470000  0.29370000  1.0 0.150831764
C  C182  1  0.08000000  0.01530000  0.29370000  1.0 0.150831764
C  C183  1  0.92000000  0.01530000  0.70630000  1.0 0.150831764
C  C184  1  0.08000000  0.98470000  0.70630000  1.0 0.150831764
C  C185  1  0.98470000  0.29370000  0.92000000  1.0 0.150831764
C  C186  1  0.01530000  0.29370000  0.08000000  1.0 0.150831764
C  C187  1  0.01530000  0.70630000  0.92000000  1.0 0.150831764
C  C188  1  0.98470000  0.70630000  0.08000000  1.0 0.150831764
C  C189  1  0.29370000  0.92000000  0.98470000  1.0 0.150831764
C  C190  1  0.29370000  0.08000000  0.01530000  1.0 0.150831764
C  C191  1  0.70630000  0.92000000  0.01530000  1.0 0.150831764
C  C192  1  0.70630000  0.08000000  0.98470000  1.0 0.150831764
N  N1  1  0.47650000  0.48580000  0.79600000  1.0 -0.1004070553
N  N2  1  0.52350000  0.51420000  0.79600000  1.0 -0.1004070553
N  N3  1  0.52350000  0.48580000  0.20400000  1.0 -0.1004070553
N  N4  1  0.47650000  0.51420000  0.20400000  1.0 -0.1004070553
N  N5  1  0.79600000  0.47650000  0.48580000  1.0 -0.1004070553
N  N6  1  0.79600000  0.52350000  0.51420000  1.0 -0.1004070553
N  N7  1  0.20400000  0.52350000  0.48580000  1.0 -0.1004070553
N  N8  1  0.20400000  0.47650000  0.51420000  1.0 -0.1004070553
N  N9  1  0.48580000  0.79600000  0.47650000  1.0 -0.1004070553
N  N10  1  0.51420000  0.79600000  0.52350000  1.0 -0.1004070553
N  N11  1  0.48580000  0.20400000  0.52350000  1.0 -0.1004070553
N  N12  1  0.51420000  0.20400000  0.47650000  1.0 -0.1004070553
N  N13  1  0.98580000  0.97650000  0.29600000  1.0 -0.1004070553
N  N14  1  0.01420000  0.02350000  0.29600000  1.0 -0.1004070553
N  N15  1  0.98580000  0.02350000  0.70400000  1.0 -0.1004070553
N  N16  1  0.01420000  0.97650000  0.70400000  1.0 -0.1004070553
N  N17  1  0.97650000  0.29600000  0.98580000  1.0 -0.1004070553
N  N18  1  0.02350000  0.29600000  0.01420000  1.0 -0.1004070553
N  N19  1  0.02350000  0.70400000  0.98580000  1.0 -0.1004070553
N  N20  1  0.97650000  0.70400000  0.01420000  1.0 -0.1004070553
N  N21  1  0.29600000  0.98580000  0.97650000  1.0 -0.1004070553
N  N22  1  0.29600000  0.01420000  0.02350000  1.0 -0.1004070553
N  N23  1  0.70400000  0.98580000  0.02350000  1.0 -0.1004070553
N  N24  1  0.70400000  0.01420000  0.97650000  1.0 -0.1004070553
O  O1  1  0.60720000  0.24730000  0.75640000  1.0 -0.5302628525
O  O2  1  0.39280000  0.75270000  0.75640000  1.0 -0.5302628525
O  O3  1  0.39280000  0.24730000  0.24360000  1.0 -0.5302628525
O  O4  1  0.60720000  0.75270000  0.24360000  1.0 -0.5302628525
O  O5  1  0.75640000  0.60720000  0.24730000  1.0 -0.5302628525
O  O6  1  0.75640000  0.39280000  0.75270000  1.0 -0.5302628525
O  O7  1  0.24360000  0.39280000  0.24730000  1.0 -0.5302628525
O  O8  1  0.24360000  0.60720000  0.75270000  1.0 -0.5302628525
O  O9  1  0.24730000  0.75640000  0.60720000  1.0 -0.5302628525
O  O10  1  0.75270000  0.75640000  0.39280000  1.0 -0.5302628525
O  O11  1  0.24730000  0.24360000  0.39280000  1.0 -0.5302628525
O  O12  1  0.75270000  0.24360000  0.60720000  1.0 -0.5302628525
O  O13  1  0.74730000  0.10720000  0.25640000  1.0 -0.5302628525
O  O14  1  0.25270000  0.89280000  0.25640000  1.0 -0.5302628525
O  O15  1  0.74730000  0.89280000  0.74360000  1.0 -0.5302628525
O  O16  1  0.25270000  0.10720000  0.74360000  1.0 -0.5302628525
O  O17  1  0.10720000  0.25640000  0.74730000  1.0 -0.5302628525
O  O18  1  0.89280000  0.25640000  0.25270000  1.0 -0.5302628525
O  O19  1  0.89280000  0.74360000  0.74730000  1.0 -0.5302628525
O  O20  1  0.10720000  0.74360000  0.25270000  1.0 -0.5302628525
O  O21  1  0.25640000  0.74730000  0.10720000  1.0 -0.5302628525
O  O22  1  0.25640000  0.25270000  0.89280000  1.0 -0.5302628525
O  O23  1  0.74360000  0.74730000  0.89280000  1.0 -0.5302628525
O  O24  1  0.74360000  0.25270000  0.10720000  1.0 -0.5302628525
O  O25  1  0.64950000  0.33200000  0.79510000  1.0 -0.5302628525
O  O26  1  0.35050000  0.66800000  0.79510000  1.0 -0.5302628525
O  O27  1  0.35050000  0.33200000  0.20490000  1.0 -0.5302628525
O  O28  1  0.64950000  0.66800000  0.20490000  1.0 -0.5302628525
O  O29  1  0.79510000  0.64950000  0.33200000  1.0 -0.5302628525
O  O30  1  0.79510000  0.35050000  0.66800000  1.0 -0.5302628525
O  O31  1  0.20490000  0.35050000  0.33200000  1.0 -0.5302628525
O  O32  1  0.20490000  0.64950000  0.66800000  1.0 -0.5302628525
O  O33  1  0.33200000  0.79510000  0.64950000  1.0 -0.5302628525
O  O34  1  0.66800000  0.79510000  0.35050000  1.0 -0.5302628525
O  O35  1  0.33200000  0.20490000  0.35050000  1.0 -0.5302628525
O  O36  1  0.66800000  0.20490000  0.64950000  1.0 -0.5302628525
O  O37  1  0.83200000  0.14950000  0.29510000  1.0 -0.5302628525
O  O38  1  0.16800000  0.85050000  0.29510000  1.0 -0.5302628525
O  O39  1  0.83200000  0.85050000  0.70490000  1.0 -0.5302628525
O  O40  1  0.16800000  0.14950000  0.70490000  1.0 -0.5302628525
O  O41  1  0.14950000  0.29510000  0.83200000  1.0 -0.5302628525
O  O42  1  0.85050000  0.29510000  0.16800000  1.0 -0.5302628525
O  O43  1  0.85050000  0.70490000  0.83200000  1.0 -0.5302628525
O  O44  1  0.14950000  0.70490000  0.16800000  1.0 -0.5302628525
O  O45  1  0.29510000  0.83200000  0.14950000  1.0 -0.5302628525
O  O46  1  0.29510000  0.16800000  0.85050000  1.0 -0.5302628525
O  O47  1  0.70490000  0.83200000  0.85050000  1.0 -0.5302628525
O  O48  1  0.70490000  0.16800000  0.14950000  1.0 -0.5302628525
O  O49  1  0.37590000  0.23500000  0.77450000  1.0 -0.5302628525
O  O50  1  0.62410000  0.76500000  0.77450000  1.0 -0.5302628525
O  O51  1  0.62410000  0.23500000  0.22550000  1.0 -0.5302628525
O  O52  1  0.37590000  0.76500000  0.22550000  1.0 -0.5302628525
O  O53  1  0.77450000  0.37590000  0.23500000  1.0 -0.5302628525
O  O54  1  0.77450000  0.62410000  0.76500000  1.0 -0.5302628525
O  O55  1  0.22550000  0.62410000  0.23500000  1.0 -0.5302628525
O  O56  1  0.22550000  0.37590000  0.76500000  1.0 -0.5302628525
O  O57  1  0.23500000  0.77450000  0.37590000  1.0 -0.5248289617
O  O58  1  0.76500000  0.77450000  0.62410000  1.0 -0.5302628525
O  O59  1  0.23500000  0.22550000  0.62410000  1.0 -0.5302628525
O  O60  1  0.76500000  0.22550000  0.37590000  1.0 -0.5302628525
O  O61  1  0.73500000  0.87590000  0.27450000  1.0 -0.5302628525
O  O62  1  0.26500000  0.12410000  0.27450000  1.0 -0.5302628525
O  O63  1  0.73500000  0.12410000  0.72550000  1.0 -0.5302628525
O  O64  1  0.26500000  0.87590000  0.72550000  1.0 -0.5248289617
O  O65  1  0.87590000  0.27450000  0.73500000  1.0 -0.5302628525
O  O66  1  0.12410000  0.27450000  0.26500000  1.0 -0.5302628525
O  O67  1  0.12410000  0.72550000  0.73500000  1.0 -0.5248289617
O  O68  1  0.87590000  0.72550000  0.26500000  1.0 -0.5302628525
O  O69  1  0.27450000  0.73500000  0.87590000  1.0 -0.5248289617
O  O70  1  0.27450000  0.26500000  0.12410000  1.0 -0.5302628525
O  O71  1  0.72550000  0.73500000  0.12410000  1.0 -0.5302628525
O  O72  1  0.72550000  0.26500000  0.87590000  1.0 -0.5302628525
O  O73  1  0.24080000  0.24080000  0.75920000  1.0 -0.8319400164
O  O74  1  0.75920000  0.75920000  0.75920000  1.0 -0.8319400164
O  O75  1  0.75920000  0.24080000  0.24080000  1.0 -0.8319400164
O  O76  1  0.24080000  0.75920000  0.24080000  1.0 -0.8319400164
O  O77  1  0.74080000  0.74080000  0.25920000  1.0 -0.8319400164
O  O78  1  0.25920000  0.25920000  0.25920000  1.0 -0.8319400164
O  O79  1  0.74080000  0.25920000  0.74080000  1.0 -0.8319400164
O  O80  1  0.25920000  0.74080000  0.74080000  1.0 -0.8319400164
O  O81  1  0.32910000  0.31870000  0.81130000  1.0 -0.5461511525
O  O82  1  0.67090000  0.68130000  0.81130000  1.0 -0.5461511525
O  O83  1  0.67090000  0.31870000  0.18870000  1.0 -0.5461511525
O  O84  1  0.32910000  0.68130000  0.18870000  1.0 -0.5461511525
O  O85  1  0.81130000  0.32910000  0.31870000  1.0 -0.5461511525
O  O86  1  0.81130000  0.67090000  0.68130000  1.0 -0.5461511525
O  O87  1  0.18870000  0.67090000  0.31870000  1.0 -0.5461511525
O  O88  1  0.18870000  0.32910000  0.68130000  1.0 -0.5461511525
O  O89  1  0.31870000  0.81130000  0.32910000  1.0 -0.5461511525
O  O90  1  0.68130000  0.81130000  0.67090000  1.0 -0.5461511525
O  O91  1  0.31870000  0.18870000  0.67090000  1.0 -0.5461511525
O  O92  1  0.68130000  0.18870000  0.32910000  1.0 -0.5461511525
O  O93  1  0.81870000  0.82910000  0.31130000  1.0 -0.5461511525
O  O94  1  0.18130000  0.17090000  0.31130000  1.0 -0.5461511525
O  O95  1  0.81870000  0.17090000  0.68870000  1.0 -0.5461511525
O  O96  1  0.18130000  0.82910000  0.68870000  1.0 -0.5461511525
O  O97  1  0.82910000  0.31130000  0.81870000  1.0 -0.5461511525
O  O98  1  0.17090000  0.31130000  0.18130000  1.0 -0.5461511525
O  O99  1  0.17090000  0.68870000  0.81870000  1.0 -0.5461511525
O  O100  1  0.82910000  0.68870000  0.18130000  1.0 -0.5461511525
O  O101  1  0.31130000  0.81870000  0.82910000  1.0 -0.5461511525
O  O102  1  0.31130000  0.18130000  0.17090000  1.0 -0.5461511525
O  O103  1  0.68870000  0.81870000  0.17090000  1.0 -0.5461511525
O  O104  1  0.68870000  0.18130000  0.82910000  1.0 -0.5461511525
