# DDEC6 charges by PACMAN v1.1 (https://github.com/mtap-research/PACMAN-charge/)
data_LIDCEK_ASR_pacman
_symmetry_space_group_name_H-M   'P 1'
_cell_length_a   21.96780000
_cell_length_b   21.96780000
_cell_length_c   21.96780000
_cell_angle_alpha   90.00000000
_cell_angle_beta   90.00000000
_cell_angle_gamma   90.00000000
_symmetry_Int_Tables_number   1
_chemical_formula_structural   Fe3H9C24N3O13
_chemical_formula_sum   'Fe24 H72 C192 N24 O104'
_cell_volume   10601.31399805
_cell_formula_units_Z   8
loop_
 _symmetry_equiv_pos_site_id
 _symmetry_equiv_pos_as_xyz
  1  'x, y, z'
loop_
 _atom_site_type_symbol
 _atom_site_label
 _atom_site_symmetry_multiplicity
 _atom_site_fract_x
 _atom_site_fract_y
 _atom_site_fract_z
 _atom_site_occupancy
 _atom_site_charge
Fe  Fe1  1  0.81777000  0.30141000  0.76081000  1.0 1.1890909462
Fe  Fe2  1  0.18223000  0.69859000  0.76081000  1.0 1.1890909462
Fe  Fe3  1  0.18223000  0.30141000  0.23919000  1.0 1.1890909462
Fe  Fe4  1  0.81777000  0.69859000  0.23919000  1.0 1.1890909462
Fe  Fe5  1  0.76081000  0.81777000  0.30141000  1.0 1.1890909462
Fe  Fe6  1  0.76081000  0.18223000  0.69859000  1.0 1.1890909462
Fe  Fe7  1  0.23919000  0.18223000  0.30141000  1.0 1.1890909462
Fe  Fe8  1  0.23919000  0.81777000  0.69859000  1.0 1.1890909462
Fe  Fe9  1  0.30141000  0.76081000  0.81777000  1.0 1.1890909462
Fe  Fe10  1  0.69859000  0.76081000  0.18223000  1.0 1.1890909462
Fe  Fe11  1  0.30141000  0.23919000  0.18223000  1.0 1.1890909462
Fe  Fe12  1  0.69859000  0.23919000  0.81777000  1.0 1.1890909462
Fe  Fe13  1  0.80141000  0.31777000  0.26081000  1.0 1.1890909462
Fe  Fe14  1  0.19859000  0.68223000  0.26081000  1.0 1.1890909462
Fe  Fe15  1  0.80141000  0.68223000  0.73919000  1.0 1.1890909462
Fe  Fe16  1  0.19859000  0.31777000  0.73919000  1.0 1.1890909462
Fe  Fe17  1  0.31777000  0.26081000  0.80141000  1.0 1.1890909462
Fe  Fe18  1  0.68223000  0.26081000  0.19859000  1.0 1.1890909462
Fe  Fe19  1  0.68223000  0.73919000  0.80141000  1.0 1.1890909462
Fe  Fe20  1  0.31777000  0.73919000  0.19859000  1.0 1.1890909462
Fe  Fe21  1  0.26081000  0.80141000  0.31777000  1.0 1.1890909462
Fe  Fe22  1  0.26081000  0.19859000  0.68223000  1.0 1.1890909462
Fe  Fe23  1  0.73919000  0.80141000  0.68223000  1.0 1.1890909462
Fe  Fe24  1  0.73919000  0.19859000  0.31777000  1.0 1.1890909462
H  H1  1  0.58513000  0.57616000  0.78997000  1.0 0.1384848791
H  H2  1  0.41487000  0.42384000  0.78997000  1.0 0.1384848791
H  H3  1  0.41487000  0.57616000  0.21003000  1.0 0.1384848791
H  H4  1  0.58513000  0.42384000  0.21003000  1.0 0.1384848791
H  H5  1  0.78997000  0.58513000  0.57616000  1.0 0.1384848791
H  H6  1  0.78997000  0.41487000  0.42384000  1.0 0.1384848791
H  H7  1  0.21003000  0.41487000  0.57616000  1.0 0.1384848791
H  H8  1  0.21003000  0.58513000  0.42384000  1.0 0.1384848791
H  H9  1  0.57616000  0.78997000  0.58513000  1.0 0.1384848791
H  H10  1  0.42384000  0.78997000  0.41487000  1.0 0.1384848791
H  H11  1  0.57616000  0.21003000  0.41487000  1.0 0.1384848791
H  H12  1  0.42384000  0.21003000  0.58513000  1.0 0.1384848791
H  H13  1  0.07616000  0.08513000  0.28997000  1.0 0.1384848791
H  H14  1  0.92384000  0.91487000  0.28997000  1.0 0.1384848791
H  H15  1  0.07616000  0.91487000  0.71003000  1.0 0.1384848791
H  H16  1  0.92384000  0.08513000  0.71003000  1.0 0.1384848791
H  H17  1  0.08513000  0.28997000  0.07616000  1.0 0.1384848791
H  H18  1  0.91487000  0.28997000  0.92384000  1.0 0.1384848791
H  H19  1  0.91487000  0.71003000  0.07616000  1.0 0.1384848791
H  H20  1  0.08513000  0.71003000  0.92384000  1.0 0.1384848791
H  H21  1  0.28997000  0.07616000  0.08513000  1.0 0.1384848791
H  H22  1  0.28997000  0.92384000  0.91487000  1.0 0.1384848791
H  H23  1  0.71003000  0.07616000  0.91487000  1.0 0.1384848791
H  H24  1  0.71003000  0.92384000  0.08513000  1.0 0.1384848791
H  H25  1  0.74758000  0.49094000  0.77659000  1.0 0.1384848791
H  H26  1  0.25242000  0.50906000  0.77659000  1.0 0.1384848791
H  H27  1  0.25242000  0.49094000  0.22341000  1.0 0.1384848791
H  H28  1  0.74758000  0.50906000  0.22341000  1.0 0.1384848791
H  H29  1  0.77659000  0.74758000  0.49094000  1.0 0.1384848791
H  H30  1  0.77659000  0.25242000  0.50906000  1.0 0.1384848791
H  H31  1  0.22341000  0.25242000  0.49094000  1.0 0.1384848791
H  H32  1  0.22341000  0.74758000  0.50906000  1.0 0.1384848791
H  H33  1  0.49094000  0.77659000  0.74758000  1.0 0.1384848791
H  H34  1  0.50906000  0.77659000  0.25242000  1.0 0.1384848791
H  H35  1  0.49094000  0.22341000  0.25242000  1.0 0.1384848791
H  H36  1  0.50906000  0.22341000  0.74758000  1.0 0.1384848791
H  H37  1  0.99094000  0.24758000  0.27659000  1.0 0.1384848791
H  H38  1  0.00906000  0.75242000  0.27659000  1.0 0.1384848791
H  H39  1  0.99094000  0.75242000  0.72341000  1.0 0.1384848791
H  H40  1  0.00906000  0.24758000  0.72341000  1.0 0.1384848791
H  H41  1  0.24758000  0.27659000  0.99094000  1.0 0.1384848791
H  H42  1  0.75242000  0.27659000  0.00906000  1.0 0.1384848791
H  H43  1  0.75242000  0.72341000  0.99094000  1.0 0.1384848791
H  H44  1  0.24758000  0.72341000  0.00906000  1.0 0.1384848791
H  H45  1  0.27659000  0.99094000  0.24758000  1.0 0.1384848791
H  H46  1  0.27659000  0.00906000  0.75242000  1.0 0.1384848791
H  H47  1  0.72341000  0.99094000  0.75242000  1.0 0.1384848791
H  H48  1  0.72341000  0.00906000  0.24758000  1.0 0.1384848791
H  H49  1  0.59455000  0.39297000  0.80031000  1.0 0.1384848791
H  H50  1  0.40545000  0.60703000  0.80031000  1.0 0.1384848791
H  H51  1  0.40545000  0.39297000  0.19969000  1.0 0.1384848791
H  H52  1  0.59455000  0.60703000  0.19969000  1.0 0.1384848791
H  H53  1  0.80031000  0.59455000  0.39297000  1.0 0.1384848791
H  H54  1  0.80031000  0.40545000  0.60703000  1.0 0.1384848791
H  H55  1  0.19969000  0.40545000  0.39297000  1.0 0.1384848791
H  H56  1  0.19969000  0.59455000  0.60703000  1.0 0.1384848791
H  H57  1  0.39297000  0.80031000  0.59455000  1.0 0.1384848791
H  H58  1  0.60703000  0.80031000  0.40545000  1.0 0.1384848791
H  H59  1  0.39297000  0.19969000  0.40545000  1.0 0.1384848791
H  H60  1  0.60703000  0.19969000  0.59455000  1.0 0.1384848791
H  H61  1  0.89297000  0.09455000  0.30031000  1.0 0.1384848791
H  H62  1  0.10703000  0.90545000  0.30031000  1.0 0.1384848791
H  H63  1  0.89297000  0.90545000  0.69969000  1.0 0.1384848791
H  H64  1  0.10703000  0.09455000  0.69969000  1.0 0.1384848791
H  H65  1  0.09455000  0.30031000  0.89297000  1.0 0.1384848791
H  H66  1  0.90545000  0.30031000  0.10703000  1.0 0.1384848791
H  H67  1  0.90545000  0.69969000  0.89297000  1.0 0.1384848791
H  H68  1  0.09455000  0.69969000  0.10703000  1.0 0.1384848791
H  H69  1  0.30031000  0.89297000  0.09455000  1.0 0.1384848791
H  H70  1  0.30031000  0.10703000  0.90545000  1.0 0.1384848791
H  H71  1  0.69969000  0.89297000  0.90545000  1.0 0.1384848791
H  H72  1  0.69969000  0.10703000  0.09455000  1.0 0.1384848791
C  C1  1  0.69960000  0.60450000  0.77740000  1.0 0.6065886307
C  C2  1  0.30040000  0.39550000  0.77740000  1.0 0.6065886307
C  C3  1  0.30040000  0.60450000  0.22260000  1.0 0.6065886307
C  C4  1  0.69960000  0.39550000  0.22260000  1.0 0.6065886307
C  C5  1  0.77740000  0.69960000  0.60450000  1.0 0.6065886307
C  C6  1  0.77740000  0.30040000  0.39550000  1.0 0.6065886307
C  C7  1  0.22260000  0.30040000  0.60450000  1.0 0.6065886307
C  C8  1  0.22260000  0.69960000  0.39550000  1.0 0.6065886307
C  C9  1  0.60450000  0.77740000  0.69960000  1.0 0.6065886307
C  C10  1  0.39550000  0.77740000  0.30040000  1.0 0.6065886307
C  C11  1  0.60450000  0.22260000  0.30040000  1.0 0.6065886307
C  C12  1  0.39550000  0.22260000  0.69960000  1.0 0.6065886307
C  C13  1  0.10450000  0.19960000  0.27740000  1.0 0.6065886307
C  C14  1  0.89550000  0.80040000  0.27740000  1.0 0.6065886307
C  C15  1  0.10450000  0.80040000  0.72260000  1.0 0.6065886307
C  C16  1  0.89550000  0.19960000  0.72260000  1.0 0.6065886307
C  C17  1  0.19960000  0.27740000  0.10450000  1.0 0.6065886307
C  C18  1  0.80040000  0.27740000  0.89550000  1.0 0.6065886307
C  C19  1  0.80040000  0.72260000  0.10450000  1.0 0.6065886307
C  C20  1  0.19960000  0.72260000  0.89550000  1.0 0.6065886307
C  C21  1  0.27740000  0.10450000  0.19960000  1.0 0.6065886307
C  C22  1  0.27740000  0.89550000  0.80040000  1.0 0.6065886307
C  C23  1  0.72260000  0.10450000  0.80040000  1.0 0.6065886307
C  C24  1  0.72260000  0.89550000  0.19960000  1.0 0.6065886307
C  C25  1  0.60790000  0.54050000  0.78900000  1.0 -0.142493993
C  C26  1  0.39210000  0.45950000  0.78900000  1.0 -0.142493993
C  C27  1  0.39210000  0.54050000  0.21100000  1.0 -0.142493993
C  C28  1  0.60790000  0.45950000  0.21100000  1.0 -0.142493993
C  C29  1  0.78900000  0.60790000  0.54050000  1.0 -0.142493993
C  C30  1  0.78900000  0.39210000  0.45950000  1.0 -0.142493993
C  C31  1  0.21100000  0.39210000  0.54050000  1.0 -0.142493993
C  C32  1  0.21100000  0.60790000  0.45950000  1.0 -0.142493993
C  C33  1  0.54050000  0.78900000  0.60790000  1.0 -0.142493993
C  C34  1  0.45950000  0.78900000  0.39210000  1.0 -0.142493993
C  C35  1  0.54050000  0.21100000  0.39210000  1.0 -0.142493993
C  C36  1  0.45950000  0.21100000  0.60790000  1.0 -0.142493993
C  C37  1  0.04050000  0.10790000  0.28900000  1.0 -0.142493993
C  C38  1  0.95950000  0.89210000  0.28900000  1.0 -0.142493993
C  C39  1  0.04050000  0.89210000  0.71100000  1.0 -0.142493993
C  C40  1  0.95950000  0.10790000  0.71100000  1.0 -0.142493993
C  C41  1  0.10790000  0.28900000  0.04050000  1.0 -0.142493993
C  C42  1  0.89210000  0.28900000  0.95950000  1.0 -0.142493993
C  C43  1  0.89210000  0.71100000  0.04050000  1.0 -0.142493993
C  C44  1  0.10790000  0.71100000  0.95950000  1.0 -0.142493993
C  C45  1  0.28900000  0.04050000  0.10790000  1.0 -0.142493993
C  C46  1  0.28900000  0.95950000  0.89210000  1.0 -0.142493993
C  C47  1  0.71100000  0.04050000  0.89210000  1.0 -0.142493993
C  C48  1  0.71100000  0.95950000  0.10790000  1.0 -0.142493993
C  C49  1  0.67610000  0.43380000  0.79050000  1.0 -0.0141796187
C  C50  1  0.32390000  0.56620000  0.79050000  1.0 -0.0141796187
C  C51  1  0.32390000  0.43380000  0.20950000  1.0 -0.0141796187
C  C52  1  0.67610000  0.56620000  0.20950000  1.0 -0.0141796187
C  C53  1  0.79050000  0.67610000  0.43380000  1.0 -0.0141796187
C  C54  1  0.79050000  0.32390000  0.56620000  1.0 -0.0141796187
C  C55  1  0.20950000  0.32390000  0.43380000  1.0 -0.0141796187
C  C56  1  0.20950000  0.67610000  0.56620000  1.0 -0.0141796187
C  C57  1  0.43380000  0.79050000  0.67610000  1.0 -0.0141796187
C  C58  1  0.56620000  0.79050000  0.32390000  1.0 -0.0141796187
C  C59  1  0.43380000  0.20950000  0.32390000  1.0 -0.0141796187
C  C60  1  0.56620000  0.20950000  0.67610000  1.0 -0.0141796187
C  C61  1  0.93380000  0.17610000  0.29050000  1.0 -0.0141796187
C  C62  1  0.06620000  0.82390000  0.29050000  1.0 -0.0141796187
C  C63  1  0.93380000  0.82390000  0.70950000  1.0 -0.0141796187
C  C64  1  0.06620000  0.17610000  0.70950000  1.0 -0.0141796187
C  C65  1  0.17610000  0.29050000  0.93380000  1.0 -0.0141796187
C  C66  1  0.82390000  0.29050000  0.06620000  1.0 -0.0141796187
C  C67  1  0.82390000  0.70950000  0.93380000  1.0 -0.0141796187
C  C68  1  0.17610000  0.70950000  0.06620000  1.0 -0.0141796187
C  C69  1  0.29050000  0.93380000  0.17610000  1.0 -0.0141796187
C  C70  1  0.29050000  0.06620000  0.82390000  1.0 -0.0141796187
C  C71  1  0.70950000  0.93380000  0.82390000  1.0 -0.0141796187
C  C72  1  0.70950000  0.06620000  0.17610000  1.0 -0.0141796187
C  C73  1  0.71160000  0.37520000  0.79270000  1.0 0.6065886307
C  C74  1  0.28840000  0.62480000  0.79270000  1.0 0.6065886307
C  C75  1  0.28840000  0.37520000  0.20730000  1.0 0.6065886307
C  C76  1  0.71160000  0.62480000  0.20730000  1.0 0.6065886307
C  C77  1  0.79270000  0.71160000  0.37520000  1.0 0.6065886307
C  C78  1  0.79270000  0.28840000  0.62480000  1.0 0.6065886307
C  C79  1  0.20730000  0.28840000  0.37520000  1.0 0.6065886307
C  C80  1  0.20730000  0.71160000  0.62480000  1.0 0.6065886307
C  C81  1  0.37520000  0.79270000  0.71160000  1.0 0.6065886307
C  C82  1  0.62480000  0.79270000  0.28840000  1.0 0.6065886307
C  C83  1  0.37520000  0.20730000  0.28840000  1.0 0.6065886307
C  C84  1  0.62480000  0.20730000  0.71160000  1.0 0.6065886307
C  C85  1  0.87520000  0.21160000  0.29270000  1.0 0.6065886307
C  C86  1  0.12480000  0.78840000  0.29270000  1.0 0.6065886307
C  C87  1  0.87520000  0.78840000  0.70730000  1.0 0.6065886307
C  C88  1  0.12480000  0.21160000  0.70730000  1.0 0.6065886307
C  C89  1  0.21160000  0.29270000  0.87520000  1.0 0.6065886307
C  C90  1  0.78840000  0.29270000  0.12480000  1.0 0.6065886307
C  C91  1  0.78840000  0.70730000  0.87520000  1.0 0.6065886307
C  C92  1  0.21160000  0.70730000  0.12480000  1.0 0.6065886307
C  C93  1  0.29270000  0.87520000  0.21160000  1.0 0.6065886307
C  C94  1  0.29270000  0.12480000  0.78840000  1.0 0.6065886307
C  C95  1  0.70730000  0.87520000  0.78840000  1.0 0.6065886307
C  C96  1  0.70730000  0.12480000  0.21160000  1.0 0.6065886307
C  C97  1  0.67010000  0.54320000  0.78320000  1.0 -0.0141796187
C  C98  1  0.32990000  0.45680000  0.78320000  1.0 -0.0141796187
C  C99  1  0.32990000  0.54320000  0.21680000  1.0 -0.0141796187
C  C100  1  0.67010000  0.45680000  0.21680000  1.0 -0.0141796187
C  C101  1  0.78320000  0.67010000  0.54320000  1.0 -0.0141796187
C  C102  1  0.78320000  0.32990000  0.45680000  1.0 -0.0141796187
C  C103  1  0.21680000  0.32990000  0.54320000  1.0 -0.0141796187
C  C104  1  0.21680000  0.67010000  0.45680000  1.0 -0.0141796187
C  C105  1  0.54320000  0.78320000  0.67010000  1.0 -0.0141796187
C  C106  1  0.45680000  0.78320000  0.32990000  1.0 -0.0141796187
C  C107  1  0.54320000  0.21680000  0.32990000  1.0 -0.0141796187
C  C108  1  0.45680000  0.21680000  0.67010000  1.0 -0.0141796187
C  C109  1  0.04320000  0.17010000  0.28320000  1.0 -0.0141796187
C  C110  1  0.95680000  0.82990000  0.28320000  1.0 -0.0141796187
C  C111  1  0.04320000  0.82990000  0.71680000  1.0 -0.0141796187
C  C112  1  0.95680000  0.17010000  0.71680000  1.0 -0.0141796187
C  C113  1  0.17010000  0.28320000  0.04320000  1.0 -0.0141796187
C  C114  1  0.82990000  0.28320000  0.95680000  1.0 -0.0141796187
C  C115  1  0.82990000  0.71680000  0.04320000  1.0 -0.0141796187
C  C116  1  0.17010000  0.71680000  0.95680000  1.0 -0.0141796187
C  C117  1  0.28320000  0.04320000  0.17010000  1.0 -0.0141796187
C  C118  1  0.28320000  0.95680000  0.82990000  1.0 -0.0141796187
C  C119  1  0.71680000  0.04320000  0.82990000  1.0 -0.0141796187
C  C120  1  0.71680000  0.95680000  0.17010000  1.0 -0.0141796187
C  C121  1  0.70570000  0.48930000  0.78240000  1.0 -0.1027949514
C  C122  1  0.29430000  0.51070000  0.78240000  1.0 -0.1027949514
C  C123  1  0.29430000  0.48930000  0.21760000  1.0 -0.1027949514
C  C124  1  0.70570000  0.51070000  0.21760000  1.0 -0.1027949514
C  C125  1  0.78240000  0.70570000  0.48930000  1.0 -0.1027949514
C  C126  1  0.78240000  0.29430000  0.51070000  1.0 -0.1027949514
C  C127  1  0.21760000  0.29430000  0.48930000  1.0 -0.1027949514
C  C128  1  0.21760000  0.70570000  0.51070000  1.0 -0.1027949514
C  C129  1  0.48930000  0.78240000  0.70570000  1.0 -0.1027949514
C  C130  1  0.51070000  0.78240000  0.29430000  1.0 -0.1027949514
C  C131  1  0.48930000  0.21760000  0.29430000  1.0 -0.1027949514
C  C132  1  0.51070000  0.21760000  0.70570000  1.0 -0.1027949514
C  C133  1  0.98930000  0.20570000  0.28240000  1.0 -0.1027949514
C  C134  1  0.01070000  0.79430000  0.28240000  1.0 -0.1027949514
C  C135  1  0.98930000  0.79430000  0.71760000  1.0 -0.1027949514
C  C136  1  0.01070000  0.20570000  0.71760000  1.0 -0.1027949514
C  C137  1  0.20570000  0.28240000  0.98930000  1.0 -0.1027949514
C  C138  1  0.79430000  0.28240000  0.01070000  1.0 -0.1027949514
C  C139  1  0.79430000  0.71760000  0.98930000  1.0 -0.1027949514
C  C140  1  0.20570000  0.71760000  0.01070000  1.0 -0.1027949514
C  C141  1  0.28240000  0.98930000  0.20570000  1.0 -0.1027949514
C  C142  1  0.28240000  0.01070000  0.79430000  1.0 -0.1027949514
C  C143  1  0.71760000  0.98930000  0.79430000  1.0 -0.1027949514
C  C144  1  0.71760000  0.01070000  0.20570000  1.0 -0.1027949514
C  C145  1  0.61360000  0.43050000  0.79560000  1.0 -0.142493993
C  C146  1  0.38640000  0.56950000  0.79560000  1.0 -0.142493993
C  C147  1  0.38640000  0.43050000  0.20440000  1.0 -0.142493993
C  C148  1  0.61360000  0.56950000  0.20440000  1.0 -0.142493993
C  C149  1  0.79560000  0.61360000  0.43050000  1.0 -0.142493993
C  C150  1  0.79560000  0.38640000  0.56950000  1.0 -0.142493993
C  C151  1  0.20440000  0.38640000  0.43050000  1.0 -0.142493993
C  C152  1  0.20440000  0.61360000  0.56950000  1.0 -0.142493993
C  C153  1  0.43050000  0.79560000  0.61360000  1.0 -0.142493993
C  C154  1  0.56950000  0.79560000  0.38640000  1.0 -0.142493993
C  C155  1  0.43050000  0.20440000  0.38640000  1.0 -0.142493993
C  C156  1  0.56950000  0.20440000  0.61360000  1.0 -0.142493993
C  C157  1  0.93050000  0.11360000  0.29560000  1.0 -0.142493993
C  C158  1  0.06950000  0.88640000  0.29560000  1.0 -0.142493993
C  C159  1  0.93050000  0.88640000  0.70440000  1.0 -0.142493993
C  C160  1  0.06950000  0.11360000  0.70440000  1.0 -0.142493993
C  C161  1  0.11360000  0.29560000  0.93050000  1.0 -0.142493993
C  C162  1  0.88640000  0.29560000  0.06950000  1.0 -0.142493993
C  C163  1  0.88640000  0.70440000  0.93050000  1.0 -0.142493993
C  C164  1  0.11360000  0.70440000  0.06950000  1.0 -0.142493993
C  C165  1  0.29560000  0.93050000  0.11360000  1.0 -0.142493993
C  C166  1  0.29560000  0.06950000  0.88640000  1.0 -0.142493993
C  C167  1  0.70440000  0.93050000  0.88640000  1.0 -0.142493993
C  C168  1  0.70440000  0.06950000  0.11360000  1.0 -0.142493993
C  C169  1  0.57880000  0.48400000  0.79360000  1.0 0.1727260997
C  C170  1  0.42120000  0.51600000  0.79360000  1.0 0.1727260997
C  C171  1  0.42120000  0.48400000  0.20640000  1.0 0.1727260997
C  C172  1  0.57880000  0.51600000  0.20640000  1.0 0.1727260997
C  C173  1  0.79360000  0.57880000  0.48400000  1.0 0.1727260997
C  C174  1  0.79360000  0.42120000  0.51600000  1.0 0.1727260997
C  C175  1  0.20640000  0.42120000  0.48400000  1.0 0.1727260997
C  C176  1  0.20640000  0.57880000  0.51600000  1.0 0.1727260997
C  C177  1  0.48400000  0.79360000  0.57880000  1.0 0.1727260997
C  C178  1  0.51600000  0.79360000  0.42120000  1.0 0.1727260997
C  C179  1  0.48400000  0.20640000  0.42120000  1.0 0.1727260997
C  C180  1  0.51600000  0.20640000  0.57880000  1.0 0.1727260997
C  C181  1  0.98400000  0.07880000  0.29360000  1.0 0.1727260997
C  C182  1  0.01600000  0.92120000  0.29360000  1.0 0.1727260997
C  C183  1  0.98400000  0.92120000  0.70640000  1.0 0.1727260997
C  C184  1  0.01600000  0.07880000  0.70640000  1.0 0.1727260997
C  C185  1  0.07880000  0.29360000  0.98400000  1.0 0.1727260997
C  C186  1  0.92120000  0.29360000  0.01600000  1.0 0.1727260997
C  C187  1  0.92120000  0.70640000  0.98400000  1.0 0.1727260997
C  C188  1  0.07880000  0.70640000  0.01600000  1.0 0.1727260997
C  C189  1  0.29360000  0.98400000  0.07880000  1.0 0.1727260997
C  C190  1  0.29360000  0.01600000  0.92120000  1.0 0.1727260997
C  C191  1  0.70640000  0.98400000  0.92120000  1.0 0.1727260997
C  C192  1  0.70640000  0.01600000  0.07880000  1.0 0.1727260997
N  N1  1  0.51490000  0.47560000  0.79610000  1.0 -0.1311969918
N  N2  1  0.48510000  0.52440000  0.79610000  1.0 -0.1311969918
N  N3  1  0.48510000  0.47560000  0.20390000  1.0 -0.1311969918
N  N4  1  0.51490000  0.52440000  0.20390000  1.0 -0.1311969918
N  N5  1  0.79610000  0.51490000  0.47560000  1.0 -0.1311969918
N  N6  1  0.79610000  0.48510000  0.52440000  1.0 -0.1311969918
N  N7  1  0.20390000  0.48510000  0.47560000  1.0 -0.1311969918
N  N8  1  0.20390000  0.51490000  0.52440000  1.0 -0.1311969918
N  N9  1  0.47560000  0.79610000  0.51490000  1.0 -0.1311969918
N  N10  1  0.52440000  0.79610000  0.48510000  1.0 -0.1311969918
N  N11  1  0.47560000  0.20390000  0.48510000  1.0 -0.1311969918
N  N12  1  0.52440000  0.20390000  0.51490000  1.0 -0.1311969918
N  N13  1  0.97560000  0.01490000  0.29610000  1.0 -0.1311969918
N  N14  1  0.02440000  0.98510000  0.29610000  1.0 -0.1311969918
N  N15  1  0.97560000  0.98510000  0.70390000  1.0 -0.1311969918
N  N16  1  0.02440000  0.01490000  0.70390000  1.0 -0.1311969918
N  N17  1  0.01490000  0.29610000  0.97560000  1.0 -0.1311969918
N  N18  1  0.98510000  0.29610000  0.02440000  1.0 -0.1311969918
N  N19  1  0.98510000  0.70390000  0.97560000  1.0 -0.1311969918
N  N20  1  0.01490000  0.70390000  0.02440000  1.0 -0.1311969918
N  N21  1  0.29610000  0.97560000  0.01490000  1.0 -0.1311969918
N  N22  1  0.29610000  0.02440000  0.98510000  1.0 -0.1311969918
N  N23  1  0.70390000  0.97560000  0.98510000  1.0 -0.1311969918
N  N24  1  0.70390000  0.02440000  0.01490000  1.0 -0.1311969918
O  O1  1  0.76577000  0.37559000  0.77445000  1.0 -0.5276956719
O  O2  1  0.23423000  0.62441000  0.77445000  1.0 -0.5276956719
O  O3  1  0.23423000  0.37559000  0.22555000  1.0 -0.5276956719
O  O4  1  0.76577000  0.62441000  0.22555000  1.0 -0.5276956719
O  O5  1  0.77445000  0.76577000  0.37559000  1.0 -0.5276956719
O  O6  1  0.77445000  0.23423000  0.62441000  1.0 -0.5276956719
O  O7  1  0.22555000  0.23423000  0.37559000  1.0 -0.5276956719
O  O8  1  0.22555000  0.76577000  0.62441000  1.0 -0.5276956719
O  O9  1  0.37559000  0.77445000  0.76577000  1.0 -0.5276956719
O  O10  1  0.62441000  0.77445000  0.23423000  1.0 -0.5276956719
O  O11  1  0.37559000  0.22555000  0.23423000  1.0 -0.5276956719
O  O12  1  0.62441000  0.22555000  0.76577000  1.0 -0.5276956719
O  O13  1  0.87559000  0.26577000  0.27445000  1.0 -0.5276956719
O  O14  1  0.12441000  0.73423000  0.27445000  1.0 -0.5276956719
O  O15  1  0.87559000  0.73423000  0.72555000  1.0 -0.5276956719
O  O16  1  0.12441000  0.26577000  0.72555000  1.0 -0.5276956719
O  O17  1  0.26577000  0.27445000  0.87559000  1.0 -0.5276956719
O  O18  1  0.73423000  0.27445000  0.12441000  1.0 -0.5276956719
O  O19  1  0.73423000  0.72555000  0.87559000  1.0 -0.5276956719
O  O20  1  0.26577000  0.72555000  0.12441000  1.0 -0.5276956719
O  O21  1  0.27445000  0.87559000  0.26577000  1.0 -0.5276956719
O  O22  1  0.27445000  0.12441000  0.73423000  1.0 -0.5276956719
O  O23  1  0.72555000  0.87559000  0.73423000  1.0 -0.5276956719
O  O24  1  0.72555000  0.12441000  0.26577000  1.0 -0.5276956719
O  O25  1  0.75913000  0.24087000  0.75913000  1.0 -0.8367107075
O  O26  1  0.24087000  0.75913000  0.75913000  1.0 -0.8367107075
O  O27  1  0.24087000  0.24087000  0.24087000  1.0 -0.8367107075
O  O28  1  0.75913000  0.75913000  0.24087000  1.0 -0.8367107075
O  O29  1  0.74087000  0.25913000  0.25913000  1.0 -0.8367107075
O  O30  1  0.25913000  0.74087000  0.25913000  1.0 -0.8367107075
O  O31  1  0.74087000  0.74087000  0.74087000  1.0 -0.8367107075
O  O32  1  0.25913000  0.25913000  0.74087000  1.0 -0.8367107075
O  O33  1  0.66804000  0.64915000  0.79567000  1.0 -0.5453677587
O  O34  1  0.33196000  0.35085000  0.79567000  1.0 -0.5453677587
O  O35  1  0.33196000  0.64915000  0.20433000  1.0 -0.5453677587
O  O36  1  0.66804000  0.35085000  0.20433000  1.0 -0.5453677587
O  O37  1  0.79567000  0.66804000  0.64915000  1.0 -0.5453677587
O  O38  1  0.79567000  0.33196000  0.35085000  1.0 -0.5453677587
O  O39  1  0.20433000  0.33196000  0.64915000  1.0 -0.5453677587
O  O40  1  0.20433000  0.66804000  0.35085000  1.0 -0.5453677587
O  O41  1  0.64915000  0.79567000  0.66804000  1.0 -0.5453677587
O  O42  1  0.35085000  0.79567000  0.33196000  1.0 -0.5453677587
O  O43  1  0.64915000  0.20433000  0.33196000  1.0 -0.5453677587
O  O44  1  0.35085000  0.20433000  0.66804000  1.0 -0.5453677587
O  O45  1  0.14915000  0.16804000  0.29567000  1.0 -0.5453677587
O  O46  1  0.85085000  0.83196000  0.29567000  1.0 -0.5453677587
O  O47  1  0.14915000  0.83196000  0.70433000  1.0 -0.5453677587
O  O48  1  0.85085000  0.16804000  0.70433000  1.0 -0.5453677587
O  O49  1  0.16804000  0.29567000  0.14915000  1.0 -0.5453677587
O  O50  1  0.83196000  0.29567000  0.85085000  1.0 -0.5453677587
O  O51  1  0.83196000  0.70433000  0.14915000  1.0 -0.5453677587
O  O52  1  0.16804000  0.70433000  0.85085000  1.0 -0.5453677587
O  O53  1  0.29567000  0.14915000  0.16804000  1.0 -0.5453677587
O  O54  1  0.29567000  0.85085000  0.83196000  1.0 -0.5453677587
O  O55  1  0.70433000  0.14915000  0.83196000  1.0 -0.5453677587
O  O56  1  0.70433000  0.85085000  0.16804000  1.0 -0.5453677587
O  O57  1  0.75237000  0.60642000  0.75524000  1.0 -0.5359873957
O  O58  1  0.24763000  0.39358000  0.75524000  1.0 -0.5359873957
O  O59  1  0.24763000  0.60642000  0.24476000  1.0 -0.5359873957
O  O60  1  0.75237000  0.39358000  0.24476000  1.0 -0.5359873957
O  O61  1  0.75524000  0.75237000  0.60642000  1.0 -0.5359873957
O  O62  1  0.75524000  0.24763000  0.39358000  1.0 -0.5359873957
O  O63  1  0.24476000  0.24763000  0.60642000  1.0 -0.5359873957
O  O64  1  0.24476000  0.75237000  0.39358000  1.0 -0.5359873957
O  O65  1  0.60642000  0.75524000  0.75237000  1.0 -0.5359873957
O  O66  1  0.39358000  0.75524000  0.24763000  1.0 -0.5359873957
O  O67  1  0.60642000  0.24476000  0.24763000  1.0 -0.5359873957
O  O68  1  0.39358000  0.24476000  0.75237000  1.0 -0.5359873957
O  O69  1  0.10642000  0.25237000  0.25524000  1.0 -0.5359873957
O  O70  1  0.89358000  0.74763000  0.25524000  1.0 -0.5359873957
O  O71  1  0.10642000  0.74763000  0.74476000  1.0 -0.5359873957
O  O72  1  0.89358000  0.25237000  0.74476000  1.0 -0.5359873957
O  O73  1  0.25237000  0.25524000  0.10642000  1.0 -0.5359873957
O  O74  1  0.74763000  0.25524000  0.89358000  1.0 -0.5359873957
O  O75  1  0.74763000  0.74476000  0.10642000  1.0 -0.5359873957
O  O76  1  0.25237000  0.74476000  0.89358000  1.0 -0.5359873957
O  O77  1  0.25524000  0.10642000  0.25237000  1.0 -0.5359873957
O  O78  1  0.25524000  0.89358000  0.74763000  1.0 -0.5359873957
O  O79  1  0.74476000  0.10642000  0.74763000  1.0 -0.5359873957
O  O80  1  0.74476000  0.89358000  0.25237000  1.0 -0.5359873957
O  O81  1  0.68206000  0.32945000  0.81265000  1.0 -0.5551553827
O  O82  1  0.31794000  0.67055000  0.81265000  1.0 -0.5551553827
O  O83  1  0.31794000  0.32945000  0.18735000  1.0 -0.5551553827
O  O84  1  0.68206000  0.67055000  0.18735000  1.0 -0.5551553827
O  O85  1  0.81265000  0.68206000  0.32945000  1.0 -0.5551553827
O  O86  1  0.81265000  0.31794000  0.67055000  1.0 -0.5551553827
O  O87  1  0.18735000  0.31794000  0.32945000  1.0 -0.5551553827
O  O88  1  0.18735000  0.68206000  0.67055000  1.0 -0.5551553827
O  O89  1  0.32945000  0.81265000  0.68206000  1.0 -0.5551553827
O  O90  1  0.67055000  0.81265000  0.31794000  1.0 -0.5551553827
O  O91  1  0.32945000  0.18735000  0.31794000  1.0 -0.5551553827
O  O92  1  0.67055000  0.18735000  0.68206000  1.0 -0.5551553827
O  O93  1  0.82945000  0.18206000  0.31265000  1.0 -0.5551553827
O  O94  1  0.17055000  0.81794000  0.31265000  1.0 -0.5551553827
O  O95  1  0.82945000  0.81794000  0.68735000  1.0 -0.5551553827
O  O96  1  0.17055000  0.18206000  0.68735000  1.0 -0.5551553827
O  O97  1  0.18206000  0.31265000  0.82945000  1.0 -0.5551553827
O  O98  1  0.81794000  0.31265000  0.17055000  1.0 -0.5551553827
O  O99  1  0.81794000  0.68735000  0.82945000  1.0 -0.5551553827
O  O100  1  0.18206000  0.68735000  0.17055000  1.0 -0.5551553827
O  O101  1  0.31265000  0.82945000  0.18206000  1.0 -0.5551553827
O  O102  1  0.31265000  0.17055000  0.81794000  1.0 -0.5551553827
O  O103  1  0.68735000  0.82945000  0.81794000  1.0 -0.5551553827
O  O104  1  0.68735000  0.17055000  0.18206000  1.0 -0.5551553827
