# DDEC6 charges by PACMAN v1.1 (https://github.com/mtap-research/PACMAN-charge/)
data_LIDCOU_ASR_pacman
_symmetry_space_group_name_H-M   'P 1'
_cell_length_a   21.94590000
_cell_length_b   21.94590000
_cell_length_c   21.94590000
_cell_angle_alpha   90.00000000
_cell_angle_beta   90.00000000
_cell_angle_gamma   90.00000000
_symmetry_Int_Tables_number   1
_chemical_formula_structural   Fe3H9C24N3O13
_chemical_formula_sum   'Fe24 H72 C192 N24 O104'
_cell_volume   10569.63981112
_cell_formula_units_Z   8
loop_
 _symmetry_equiv_pos_site_id
 _symmetry_equiv_pos_as_xyz
  1  'x, y, z'
loop_
 _atom_site_type_symbol
 _atom_site_label
 _atom_site_symmetry_multiplicity
 _atom_site_fract_x
 _atom_site_fract_y
 _atom_site_fract_z
 _atom_site_occupancy
 _atom_site_charge
Fe  Fe1  1  0.69807000  0.18168000  0.76067000  1.0 1.1654849694
Fe  Fe2  1  0.30193000  0.81832000  0.76067000  1.0 1.1654849694
Fe  Fe3  1  0.30193000  0.18168000  0.23933000  1.0 1.1654849694
Fe  Fe4  1  0.69807000  0.81832000  0.23933000  1.0 1.1654849694
Fe  Fe5  1  0.76067000  0.69807000  0.18168000  1.0 1.1654849694
Fe  Fe6  1  0.76067000  0.30193000  0.81832000  1.0 1.1654849694
Fe  Fe7  1  0.23933000  0.30193000  0.18168000  1.0 1.1654849694
Fe  Fe8  1  0.23933000  0.69807000  0.81832000  1.0 1.1654849694
Fe  Fe9  1  0.18168000  0.76067000  0.69807000  1.0 1.1654849694
Fe  Fe10  1  0.81832000  0.76067000  0.30193000  1.0 1.1654849694
Fe  Fe11  1  0.18168000  0.23933000  0.30193000  1.0 1.1654849694
Fe  Fe12  1  0.81832000  0.23933000  0.69807000  1.0 1.1654849694
Fe  Fe13  1  0.68168000  0.19807000  0.26067000  1.0 1.1654849694
Fe  Fe14  1  0.31832000  0.80193000  0.26067000  1.0 1.1654849694
Fe  Fe15  1  0.68168000  0.80193000  0.73933000  1.0 1.1654849694
Fe  Fe16  1  0.31832000  0.19807000  0.73933000  1.0 1.1654849694
Fe  Fe17  1  0.19807000  0.26067000  0.68168000  1.0 1.1654849694
Fe  Fe18  1  0.80193000  0.26067000  0.31832000  1.0 1.1654849694
Fe  Fe19  1  0.80193000  0.73933000  0.68168000  1.0 1.1654849694
Fe  Fe20  1  0.19807000  0.73933000  0.31832000  1.0 1.1654849694
Fe  Fe21  1  0.26067000  0.68168000  0.19807000  1.0 1.1654849694
Fe  Fe22  1  0.26067000  0.31832000  0.80193000  1.0 1.1654849694
Fe  Fe23  1  0.73933000  0.68168000  0.80193000  1.0 1.1654849694
Fe  Fe24  1  0.73933000  0.31832000  0.19807000  1.0 1.1654849694
H  H1  1  0.50866000  0.25348000  0.77889000  1.0 0.1407251058
H  H2  1  0.49134000  0.74652000  0.77889000  1.0 0.1407251058
H  H3  1  0.49134000  0.25348000  0.22111000  1.0 0.1407251058
H  H4  1  0.50866000  0.74652000  0.22111000  1.0 0.1407251058
H  H5  1  0.77889000  0.50866000  0.25348000  1.0 0.1407251058
H  H6  1  0.77889000  0.49134000  0.74652000  1.0 0.1407251058
H  H7  1  0.22111000  0.49134000  0.25348000  1.0 0.1407251058
H  H8  1  0.22111000  0.50866000  0.74652000  1.0 0.1407251058
H  H9  1  0.25348000  0.77889000  0.50866000  1.0 0.1407251058
H  H10  1  0.74652000  0.77889000  0.49134000  1.0 0.1407251058
H  H11  1  0.25348000  0.22111000  0.49134000  1.0 0.1407251058
H  H12  1  0.74652000  0.22111000  0.50866000  1.0 0.1407251058
H  H13  1  0.75348000  0.00866000  0.27889000  1.0 0.1407251058
H  H14  1  0.24652000  0.99134000  0.27889000  1.0 0.1407251058
H  H15  1  0.75348000  0.99134000  0.72111000  1.0 0.1407251058
H  H16  1  0.24652000  0.00866000  0.72111000  1.0 0.1407251058
H  H17  1  0.00866000  0.27889000  0.75348000  1.0 0.1407251058
H  H18  1  0.99134000  0.27889000  0.24652000  1.0 0.1407251058
H  H19  1  0.99134000  0.72111000  0.75348000  1.0 0.1407251058
H  H20  1  0.00866000  0.72111000  0.24652000  1.0 0.1407251058
H  H21  1  0.27889000  0.75348000  0.00866000  1.0 0.1407251058
H  H22  1  0.27889000  0.24652000  0.99134000  1.0 0.1407251058
H  H23  1  0.72111000  0.75348000  0.99134000  1.0 0.1407251058
H  H24  1  0.72111000  0.24652000  0.00866000  1.0 0.1407251058
H  H25  1  0.42386000  0.41479000  0.79128000  1.0 0.1347466405
H  H26  1  0.57614000  0.58521000  0.79128000  1.0 0.1347466405
H  H27  1  0.57614000  0.41479000  0.20872000  1.0 0.1347466405
H  H28  1  0.42386000  0.58521000  0.20872000  1.0 0.1347466405
H  H29  1  0.79128000  0.42386000  0.41479000  1.0 0.1347466405
H  H30  1  0.79128000  0.57614000  0.58521000  1.0 0.1347466405
H  H31  1  0.20872000  0.57614000  0.41479000  1.0 0.1347466405
H  H32  1  0.20872000  0.42386000  0.58521000  1.0 0.1347466405
H  H33  1  0.41479000  0.79128000  0.42386000  1.0 0.1347466405
H  H34  1  0.58521000  0.79128000  0.57614000  1.0 0.1347466405
H  H35  1  0.41479000  0.20872000  0.57614000  1.0 0.1347466405
H  H36  1  0.58521000  0.20872000  0.42386000  1.0 0.1347466405
H  H37  1  0.91479000  0.92386000  0.29128000  1.0 0.1347466405
H  H38  1  0.08521000  0.07614000  0.29128000  1.0 0.1347466405
H  H39  1  0.91479000  0.07614000  0.70872000  1.0 0.1347466405
H  H40  1  0.08521000  0.92386000  0.70872000  1.0 0.1347466405
H  H41  1  0.92386000  0.29128000  0.91479000  1.0 0.1347466405
H  H42  1  0.07614000  0.29128000  0.08521000  1.0 0.1347466405
H  H43  1  0.07614000  0.70872000  0.91479000  1.0 0.1347466405
H  H44  1  0.92386000  0.70872000  0.08521000  1.0 0.1347466405
H  H45  1  0.29128000  0.91479000  0.92386000  1.0 0.1347466405
H  H46  1  0.29128000  0.08521000  0.07614000  1.0 0.1347466405
H  H47  1  0.70872000  0.91479000  0.07614000  1.0 0.1347466405
H  H48  1  0.70872000  0.08521000  0.92386000  1.0 0.1347466405
H  H49  1  0.60578000  0.40576000  0.80251000  1.0 0.1407251058
H  H50  1  0.39422000  0.59424000  0.80251000  1.0 0.1407251058
H  H51  1  0.39422000  0.40576000  0.19749000  1.0 0.1407251058
H  H52  1  0.60578000  0.59424000  0.19749000  1.0 0.1407251058
H  H53  1  0.80251000  0.60578000  0.40576000  1.0 0.1407251058
H  H54  1  0.80251000  0.39422000  0.59424000  1.0 0.1407251058
H  H55  1  0.19749000  0.39422000  0.40576000  1.0 0.1407251058
H  H56  1  0.19749000  0.60578000  0.59424000  1.0 0.1407251058
H  H57  1  0.40576000  0.80251000  0.60578000  1.0 0.1407251058
H  H58  1  0.59424000  0.80251000  0.39422000  1.0 0.1407251058
H  H59  1  0.40576000  0.19749000  0.39422000  1.0 0.1407251058
H  H60  1  0.59424000  0.19749000  0.60578000  1.0 0.1407251058
H  H61  1  0.90576000  0.10578000  0.30251000  1.0 0.1407251058
H  H62  1  0.09424000  0.89422000  0.30251000  1.0 0.1407251058
H  H63  1  0.90576000  0.89422000  0.69749000  1.0 0.1407251058
H  H64  1  0.09424000  0.10578000  0.69749000  1.0 0.1407251058
H  H65  1  0.10578000  0.30251000  0.90576000  1.0 0.1407251058
H  H66  1  0.89422000  0.30251000  0.09424000  1.0 0.1407251058
H  H67  1  0.89422000  0.69749000  0.90576000  1.0 0.1407251058
H  H68  1  0.10578000  0.69749000  0.09424000  1.0 0.1407251058
H  H69  1  0.30251000  0.90576000  0.10578000  1.0 0.1407251058
H  H70  1  0.30251000  0.09424000  0.89422000  1.0 0.1407251058
H  H71  1  0.69749000  0.90576000  0.89422000  1.0 0.1407251058
H  H72  1  0.69749000  0.09424000  0.10578000  1.0 0.1407251058
C  C1  1  0.39540000  0.30070000  0.77760000  1.0 0.6017802639
C  C2  1  0.60460000  0.69930000  0.77760000  1.0 0.6017802639
C  C3  1  0.60460000  0.30070000  0.22240000  1.0 0.6017802639
C  C4  1  0.39540000  0.69930000  0.22240000  1.0 0.6017802639
C  C5  1  0.77760000  0.39540000  0.30070000  1.0 0.6017802639
C  C6  1  0.77760000  0.60460000  0.69930000  1.0 0.6017802639
C  C7  1  0.22240000  0.60460000  0.30070000  1.0 0.6017802639
C  C8  1  0.22240000  0.39540000  0.69930000  1.0 0.6017802639
C  C9  1  0.30070000  0.77760000  0.39540000  1.0 0.6017802639
C  C10  1  0.69930000  0.77760000  0.60460000  1.0 0.6017802639
C  C11  1  0.30070000  0.22240000  0.60460000  1.0 0.6017802639
C  C12  1  0.69930000  0.22240000  0.39540000  1.0 0.6017802639
C  C13  1  0.80070000  0.89540000  0.27760000  1.0 0.6017802639
C  C14  1  0.19930000  0.10460000  0.27760000  1.0 0.6017802639
C  C15  1  0.80070000  0.10460000  0.72240000  1.0 0.6017802639
C  C16  1  0.19930000  0.89540000  0.72240000  1.0 0.6017802639
C  C17  1  0.89540000  0.27760000  0.80070000  1.0 0.6017802639
C  C18  1  0.10460000  0.27760000  0.19930000  1.0 0.6017802639
C  C19  1  0.10460000  0.72240000  0.80070000  1.0 0.6017802639
C  C20  1  0.89540000  0.72240000  0.19930000  1.0 0.6017802639
C  C21  1  0.27760000  0.80070000  0.89540000  1.0 0.6017802639
C  C22  1  0.27760000  0.19930000  0.10460000  1.0 0.6017802639
C  C23  1  0.72240000  0.80070000  0.10460000  1.0 0.6017802639
C  C24  1  0.72240000  0.19930000  0.89540000  1.0 0.6017802639
C  C25  1  0.45700000  0.33010000  0.78400000  1.0 -0.0095368399
C  C26  1  0.54300000  0.66990000  0.78400000  1.0 -0.0095368399
C  C27  1  0.54300000  0.33010000  0.21600000  1.0 -0.0095368399
C  C28  1  0.45700000  0.66990000  0.21600000  1.0 -0.0095368399
C  C29  1  0.78400000  0.45700000  0.33010000  1.0 -0.0095368399
C  C30  1  0.78400000  0.54300000  0.66990000  1.0 -0.0095368399
C  C31  1  0.21600000  0.54300000  0.33010000  1.0 -0.0095368399
C  C32  1  0.21600000  0.45700000  0.66990000  1.0 -0.0095368399
C  C33  1  0.33010000  0.78400000  0.45700000  1.0 -0.0095368399
C  C34  1  0.66990000  0.78400000  0.54300000  1.0 -0.0095368399
C  C35  1  0.33010000  0.21600000  0.54300000  1.0 -0.0095368399
C  C36  1  0.66990000  0.21600000  0.45700000  1.0 -0.0095368399
C  C37  1  0.83010000  0.95700000  0.28400000  1.0 -0.0095368399
C  C38  1  0.16990000  0.04300000  0.28400000  1.0 -0.0095368399
C  C39  1  0.83010000  0.04300000  0.71600000  1.0 -0.0095368399
C  C40  1  0.16990000  0.95700000  0.71600000  1.0 -0.0095368399
C  C41  1  0.95700000  0.28400000  0.83010000  1.0 -0.0095368399
C  C42  1  0.04300000  0.28400000  0.16990000  1.0 -0.0095368399
C  C43  1  0.04300000  0.71600000  0.83010000  1.0 -0.0095368399
C  C44  1  0.95700000  0.71600000  0.16990000  1.0 -0.0095368399
C  C45  1  0.28400000  0.83010000  0.95700000  1.0 -0.0095368399
C  C46  1  0.28400000  0.16990000  0.04300000  1.0 -0.0095368399
C  C47  1  0.71600000  0.83010000  0.04300000  1.0 -0.0095368399
C  C48  1  0.71600000  0.16990000  0.95700000  1.0 -0.0095368399
C  C49  1  0.51030000  0.29550000  0.78380000  1.0 -0.1042969494
C  C50  1  0.48970000  0.70450000  0.78380000  1.0 -0.1042969494
C  C51  1  0.48970000  0.29550000  0.21620000  1.0 -0.1059006349
C  C52  1  0.51030000  0.70450000  0.21620000  1.0 -0.1059006349
C  C53  1  0.78380000  0.51030000  0.29550000  1.0 -0.1059006349
C  C54  1  0.78380000  0.48970000  0.70450000  1.0 -0.1042969494
C  C55  1  0.21620000  0.48970000  0.29550000  1.0 -0.1059006349
C  C56  1  0.21620000  0.51030000  0.70450000  1.0 -0.1059006349
C  C57  1  0.29550000  0.78380000  0.51030000  1.0 -0.1059006349
C  C58  1  0.70450000  0.78380000  0.48970000  1.0 -0.1059006349
C  C59  1  0.29550000  0.21620000  0.48970000  1.0 -0.1059006349
C  C60  1  0.70450000  0.21620000  0.51030000  1.0 -0.1059006349
C  C61  1  0.79550000  0.01030000  0.28380000  1.0 -0.1059006349
C  C62  1  0.20450000  0.98970000  0.28380000  1.0 -0.1059006349
C  C63  1  0.79550000  0.98970000  0.71620000  1.0 -0.1042969494
C  C64  1  0.20450000  0.01030000  0.71620000  1.0 -0.1059006349
C  C65  1  0.01030000  0.28380000  0.79550000  1.0 -0.1059006349
C  C66  1  0.98970000  0.28380000  0.20450000  1.0 -0.1059006349
C  C67  1  0.98970000  0.71620000  0.79550000  1.0 -0.1042969494
C  C68  1  0.01030000  0.71620000  0.20450000  1.0 -0.1059006349
C  C69  1  0.28380000  0.79550000  0.01030000  1.0 -0.1059006349
C  C70  1  0.28380000  0.20450000  0.98970000  1.0 -0.1059006349
C  C71  1  0.71620000  0.79550000  0.98970000  1.0 -0.1059006349
C  C72  1  0.71620000  0.20450000  0.01030000  1.0 -0.1059006349
C  C73  1  0.56600000  0.32500000  0.79110000  1.0 -0.0095368399
C  C74  1  0.43400000  0.67500000  0.79110000  1.0 -0.0095368399
C  C75  1  0.43400000  0.32500000  0.20890000  1.0 -0.0095368399
C  C76  1  0.56600000  0.67500000  0.20890000  1.0 -0.0095368399
C  C77  1  0.79110000  0.56600000  0.32500000  1.0 -0.0095368399
C  C78  1  0.79110000  0.43400000  0.67500000  1.0 -0.0095368399
C  C79  1  0.20890000  0.43400000  0.32500000  1.0 -0.0095368399
C  C80  1  0.20890000  0.56600000  0.67500000  1.0 -0.0095368399
C  C81  1  0.32500000  0.79110000  0.56600000  1.0 -0.0095368399
C  C82  1  0.67500000  0.79110000  0.43400000  1.0 -0.0095368399
C  C83  1  0.32500000  0.20890000  0.43400000  1.0 -0.0095368399
C  C84  1  0.67500000  0.20890000  0.56600000  1.0 -0.0095368399
C  C85  1  0.82500000  0.06600000  0.29110000  1.0 -0.0095368399
C  C86  1  0.17500000  0.93400000  0.29110000  1.0 -0.0095368399
C  C87  1  0.82500000  0.93400000  0.70890000  1.0 -0.0095368399
C  C88  1  0.17500000  0.06600000  0.70890000  1.0 -0.0095368399
C  C89  1  0.06600000  0.29110000  0.82500000  1.0 -0.0095368399
C  C90  1  0.93400000  0.29110000  0.17500000  1.0 -0.0095368399
C  C91  1  0.93400000  0.70890000  0.82500000  1.0 -0.0095368399
C  C92  1  0.06600000  0.70890000  0.17500000  1.0 -0.0095368399
C  C93  1  0.29110000  0.82500000  0.06600000  1.0 -0.0095368399
C  C94  1  0.29110000  0.17500000  0.93400000  1.0 -0.0095368399
C  C95  1  0.70890000  0.82500000  0.93400000  1.0 -0.0095368399
C  C96  1  0.70890000  0.17500000  0.06600000  1.0 -0.0095368399
C  C97  1  0.62610000  0.28990000  0.79300000  1.0 0.6017802639
C  C98  1  0.37390000  0.71010000  0.79300000  1.0 0.6017802639
C  C99  1  0.37390000  0.28990000  0.20700000  1.0 0.6017802639
C  C100  1  0.62610000  0.71010000  0.20700000  1.0 0.6017802639
C  C101  1  0.79300000  0.62610000  0.28990000  1.0 0.6017802639
C  C102  1  0.79300000  0.37390000  0.71010000  1.0 0.6017802639
C  C103  1  0.20700000  0.37390000  0.28990000  1.0 0.6017802639
C  C104  1  0.20700000  0.62610000  0.71010000  1.0 0.6017802639
C  C105  1  0.28990000  0.79300000  0.62610000  1.0 0.6017802639
C  C106  1  0.71010000  0.79300000  0.37390000  1.0 0.6017802639
C  C107  1  0.28990000  0.20700000  0.37390000  1.0 0.6017802639
C  C108  1  0.71010000  0.20700000  0.62610000  1.0 0.6017802639
C  C109  1  0.78990000  0.12610000  0.29300000  1.0 0.6017802639
C  C110  1  0.21010000  0.87390000  0.29300000  1.0 0.6017802639
C  C111  1  0.78990000  0.87390000  0.70700000  1.0 0.6017802639
C  C112  1  0.21010000  0.12610000  0.70700000  1.0 0.6017802639
C  C113  1  0.12610000  0.29300000  0.78990000  1.0 0.6017802639
C  C114  1  0.87390000  0.29300000  0.21010000  1.0 0.6017802639
C  C115  1  0.87390000  0.70700000  0.78990000  1.0 0.6017802639
C  C116  1  0.12610000  0.70700000  0.21010000  1.0 0.6017802639
C  C117  1  0.29300000  0.78990000  0.12610000  1.0 0.6017802639
C  C118  1  0.29300000  0.21010000  0.87390000  1.0 0.6017802639
C  C119  1  0.70700000  0.78990000  0.87390000  1.0 0.6017802639
C  C120  1  0.70700000  0.21010000  0.12610000  1.0 0.6017802639
C  C121  1  0.45960000  0.39200000  0.79010000  1.0 -0.1409827972
C  C122  1  0.54040000  0.60800000  0.79010000  1.0 -0.1409827972
C  C123  1  0.54040000  0.39200000  0.20990000  1.0 -0.1409827972
C  C124  1  0.45960000  0.60800000  0.20990000  1.0 -0.1409827972
C  C125  1  0.79010000  0.45960000  0.39200000  1.0 -0.1409827972
C  C126  1  0.79010000  0.54040000  0.60800000  1.0 -0.1409827972
C  C127  1  0.20990000  0.54040000  0.39200000  1.0 -0.1409827972
C  C128  1  0.20990000  0.45960000  0.60800000  1.0 -0.1409827972
C  C129  1  0.39200000  0.79010000  0.45960000  1.0 -0.1409827972
C  C130  1  0.60800000  0.79010000  0.54040000  1.0 -0.1409827972
C  C131  1  0.39200000  0.20990000  0.54040000  1.0 -0.1409827972
C  C132  1  0.60800000  0.20990000  0.45960000  1.0 -0.1409827972
C  C133  1  0.89200000  0.95960000  0.29010000  1.0 -0.1409827972
C  C134  1  0.10800000  0.04040000  0.29010000  1.0 -0.1409827972
C  C135  1  0.89200000  0.04040000  0.70990000  1.0 -0.1409827972
C  C136  1  0.10800000  0.95960000  0.70990000  1.0 -0.1409827972
C  C137  1  0.95960000  0.29010000  0.89200000  1.0 -0.1409827972
C  C138  1  0.04040000  0.29010000  0.10800000  1.0 -0.1409827972
C  C139  1  0.04040000  0.70990000  0.89200000  1.0 -0.1409827972
C  C140  1  0.95960000  0.70990000  0.10800000  1.0 -0.1409827972
C  C141  1  0.29010000  0.89200000  0.95960000  1.0 -0.1409827972
C  C142  1  0.29010000  0.10800000  0.04040000  1.0 -0.1409827972
C  C143  1  0.70990000  0.89200000  0.04040000  1.0 -0.1409827972
C  C144  1  0.70990000  0.10800000  0.95960000  1.0 -0.1409827972
C  C145  1  0.51550000  0.42070000  0.79450000  1.0 0.1465599594
C  C146  1  0.48450000  0.57930000  0.79450000  1.0 0.1465599594
C  C147  1  0.48450000  0.42070000  0.20550000  1.0 0.1465599594
C  C148  1  0.51550000  0.57930000  0.20550000  1.0 0.1465599594
C  C149  1  0.79450000  0.51550000  0.42070000  1.0 0.1465599594
C  C150  1  0.79450000  0.48450000  0.57930000  1.0 0.1465599594
C  C151  1  0.20550000  0.48450000  0.42070000  1.0 0.1465599594
C  C152  1  0.20550000  0.51550000  0.57930000  1.0 0.1465599594
C  C153  1  0.42070000  0.79450000  0.51550000  1.0 0.1465599594
C  C154  1  0.57930000  0.79450000  0.48450000  1.0 0.1465599594
C  C155  1  0.42070000  0.20550000  0.48450000  1.0 0.1465599594
C  C156  1  0.57930000  0.20550000  0.51550000  1.0 0.1465599594
C  C157  1  0.92070000  0.01550000  0.29450000  1.0 0.1465599594
C  C158  1  0.07930000  0.98450000  0.29450000  1.0 0.1465599594
C  C159  1  0.92070000  0.98450000  0.70550000  1.0 0.1465599594
C  C160  1  0.07930000  0.01550000  0.70550000  1.0 0.1465599594
C  C161  1  0.01550000  0.29450000  0.92070000  1.0 0.1465599594
C  C162  1  0.98450000  0.29450000  0.07930000  1.0 0.1465599594
C  C163  1  0.98450000  0.70550000  0.92070000  1.0 0.1465599594
C  C164  1  0.01550000  0.70550000  0.07930000  1.0 0.1465599594
C  C165  1  0.29450000  0.92070000  0.01550000  1.0 0.1465599594
C  C166  1  0.29450000  0.07930000  0.98450000  1.0 0.1465599594
C  C167  1  0.70550000  0.92070000  0.98450000  1.0 0.1465599594
C  C168  1  0.70550000  0.07930000  0.01550000  1.0 0.1465599594
C  C169  1  0.56840000  0.38650000  0.79690000  1.0 -0.1409827972
C  C170  1  0.43160000  0.61350000  0.79690000  1.0 -0.1409827972
C  C171  1  0.43160000  0.38650000  0.20310000  1.0 -0.1409827972
C  C172  1  0.56840000  0.61350000  0.20310000  1.0 -0.1409827972
C  C173  1  0.79690000  0.56840000  0.38650000  1.0 -0.1409827972
C  C174  1  0.79690000  0.43160000  0.61350000  1.0 -0.1409827972
C  C175  1  0.20310000  0.43160000  0.38650000  1.0 -0.1409827972
C  C176  1  0.20310000  0.56840000  0.61350000  1.0 -0.1409827972
C  C177  1  0.38650000  0.79690000  0.56840000  1.0 -0.1409827972
C  C178  1  0.61350000  0.79690000  0.43160000  1.0 -0.1409827972
C  C179  1  0.38650000  0.20310000  0.43160000  1.0 -0.1409827972
C  C180  1  0.61350000  0.20310000  0.56840000  1.0 -0.1409827972
C  C181  1  0.88650000  0.06840000  0.29690000  1.0 -0.1409827972
C  C182  1  0.11350000  0.93160000  0.29690000  1.0 -0.1409827972
C  C183  1  0.88650000  0.93160000  0.70310000  1.0 -0.1409827972
C  C184  1  0.11350000  0.06840000  0.70310000  1.0 -0.1409827972
C  C185  1  0.06840000  0.29690000  0.88650000  1.0 -0.1409827972
C  C186  1  0.93160000  0.29690000  0.11350000  1.0 -0.1409827972
C  C187  1  0.93160000  0.70310000  0.88650000  1.0 -0.1409827972
C  C188  1  0.06840000  0.70310000  0.11350000  1.0 -0.1409827972
C  C189  1  0.29690000  0.88650000  0.06840000  1.0 -0.1409827972
C  C190  1  0.29690000  0.11350000  0.93160000  1.0 -0.1409827972
C  C191  1  0.70310000  0.88650000  0.93160000  1.0 -0.1409827972
C  C192  1  0.70310000  0.11350000  0.06840000  1.0 -0.1409827972
N  N1  1  0.52320000  0.48610000  0.79820000  1.0 -0.1042969494
N  N2  1  0.47680000  0.51390000  0.79820000  1.0 -0.1042969494
N  N3  1  0.47680000  0.48610000  0.20180000  1.0 -0.1042969494
N  N4  1  0.52320000  0.51390000  0.20180000  1.0 -0.1042969494
N  N5  1  0.79820000  0.52320000  0.48610000  1.0 -0.1042969494
N  N6  1  0.79820000  0.47680000  0.51390000  1.0 -0.1042969494
N  N7  1  0.20180000  0.47680000  0.48610000  1.0 -0.1042969494
N  N8  1  0.20180000  0.52320000  0.51390000  1.0 -0.1042969494
N  N9  1  0.48610000  0.79820000  0.52320000  1.0 -0.1042969494
N  N10  1  0.51390000  0.79820000  0.47680000  1.0 -0.1042969494
N  N11  1  0.48610000  0.20180000  0.47680000  1.0 -0.1042969494
N  N12  1  0.51390000  0.20180000  0.52320000  1.0 -0.1042969494
N  N13  1  0.98610000  0.02320000  0.29820000  1.0 -0.1042969494
N  N14  1  0.01390000  0.97680000  0.29820000  1.0 -0.1042969494
N  N15  1  0.98610000  0.97680000  0.70180000  1.0 -0.1042969494
N  N16  1  0.01390000  0.02320000  0.70180000  1.0 -0.1042969494
N  N17  1  0.02320000  0.29820000  0.98610000  1.0 -0.1042969494
N  N18  1  0.97680000  0.29820000  0.01390000  1.0 -0.1042969494
N  N19  1  0.97680000  0.70180000  0.98610000  1.0 -0.1042969494
N  N20  1  0.02320000  0.70180000  0.01390000  1.0 -0.1042969494
N  N21  1  0.29820000  0.98610000  0.02320000  1.0 -0.1042969494
N  N22  1  0.29820000  0.01390000  0.97680000  1.0 -0.1042969494
N  N23  1  0.70180000  0.98610000  0.97680000  1.0 -0.1042969494
N  N24  1  0.70180000  0.01390000  0.02320000  1.0 -0.1042969494
O  O1  1  0.75990000  0.24010000  0.75990000  1.0 -0.8756604696
O  O2  1  0.24010000  0.75990000  0.75990000  1.0 -0.8756604696
O  O3  1  0.24010000  0.24010000  0.24010000  1.0 -0.8756604696
O  O4  1  0.75990000  0.75990000  0.24010000  1.0 -0.8756604696
O  O5  1  0.74010000  0.25990000  0.25990000  1.0 -0.8756604696
O  O6  1  0.25990000  0.74010000  0.25990000  1.0 -0.8756604696
O  O7  1  0.74010000  0.74010000  0.74010000  1.0 -0.8756604696
O  O8  1  0.25990000  0.25990000  0.74010000  1.0 -0.8756604696
O  O9  1  0.35130000  0.33260000  0.79520000  1.0 -0.5388915941
O  O10  1  0.64870000  0.66740000  0.79520000  1.0 -0.5388915941
O  O11  1  0.64870000  0.33260000  0.20480000  1.0 -0.5388915941
O  O12  1  0.35130000  0.66740000  0.20480000  1.0 -0.5388915941
O  O13  1  0.79520000  0.35130000  0.33260000  1.0 -0.5388915941
O  O14  1  0.79520000  0.64870000  0.66740000  1.0 -0.5388915941
O  O15  1  0.20480000  0.64870000  0.33260000  1.0 -0.5388915941
O  O16  1  0.20480000  0.35130000  0.66740000  1.0 -0.5388915941
O  O17  1  0.33260000  0.79520000  0.35130000  1.0 -0.5388915941
O  O18  1  0.66740000  0.79520000  0.64870000  1.0 -0.5388915941
O  O19  1  0.33260000  0.20480000  0.64870000  1.0 -0.5388915941
O  O20  1  0.66740000  0.20480000  0.35130000  1.0 -0.5388915941
O  O21  1  0.83260000  0.85130000  0.29520000  1.0 -0.5388915941
O  O22  1  0.16740000  0.14870000  0.29520000  1.0 -0.5388915941
O  O23  1  0.83260000  0.14870000  0.70480000  1.0 -0.5388915941
O  O24  1  0.16740000  0.85130000  0.70480000  1.0 -0.5388915941
O  O25  1  0.85130000  0.29520000  0.83260000  1.0 -0.5388915941
O  O26  1  0.14870000  0.29520000  0.16740000  1.0 -0.5388915941
O  O27  1  0.14870000  0.70480000  0.83260000  1.0 -0.5388915941
O  O28  1  0.85130000  0.70480000  0.16740000  1.0 -0.5388915941
O  O29  1  0.29520000  0.83260000  0.85130000  1.0 -0.5388915941
O  O30  1  0.29520000  0.16740000  0.14870000  1.0 -0.5388915941
O  O31  1  0.70480000  0.83260000  0.14870000  1.0 -0.5388915941
O  O32  1  0.70480000  0.16740000  0.85130000  1.0 -0.5388915941
O  O33  1  0.39230000  0.24810000  0.75630000  1.0 -0.530040378
O  O34  1  0.60770000  0.75190000  0.75630000  1.0 -0.530040378
O  O35  1  0.60770000  0.24810000  0.24370000  1.0 -0.530040378
O  O36  1  0.39230000  0.75190000  0.24370000  1.0 -0.530040378
O  O37  1  0.75630000  0.39230000  0.24810000  1.0 -0.530040378
O  O38  1  0.75630000  0.60770000  0.75190000  1.0 -0.530040378
O  O39  1  0.24370000  0.60770000  0.24810000  1.0 -0.530040378
O  O40  1  0.24370000  0.39230000  0.75190000  1.0 -0.530040378
O  O41  1  0.24810000  0.75630000  0.39230000  1.0 -0.530040378
O  O42  1  0.75190000  0.75630000  0.60770000  1.0 -0.530040378
O  O43  1  0.24810000  0.24370000  0.60770000  1.0 -0.530040378
O  O44  1  0.75190000  0.24370000  0.39230000  1.0 -0.530040378
O  O45  1  0.74810000  0.89230000  0.25630000  1.0 -0.530040378
O  O46  1  0.25190000  0.10770000  0.25630000  1.0 -0.530040378
O  O47  1  0.74810000  0.10770000  0.74370000  1.0 -0.530040378
O  O48  1  0.25190000  0.89230000  0.74370000  1.0 -0.530040378
O  O49  1  0.89230000  0.25630000  0.74810000  1.0 -0.530040378
O  O50  1  0.10770000  0.25630000  0.25190000  1.0 -0.530040378
O  O51  1  0.10770000  0.74370000  0.74810000  1.0 -0.530040378
O  O52  1  0.89230000  0.74370000  0.25190000  1.0 -0.530040378
O  O53  1  0.25630000  0.74810000  0.89230000  1.0 -0.530040378
O  O54  1  0.25630000  0.25190000  0.10770000  1.0 -0.530040378
O  O55  1  0.74370000  0.74810000  0.10770000  1.0 -0.530040378
O  O56  1  0.74370000  0.25190000  0.89230000  1.0 -0.530040378
O  O57  1  0.62510000  0.23560000  0.77530000  1.0 -0.530040378
O  O58  1  0.37490000  0.76440000  0.77530000  1.0 -0.530040378
O  O59  1  0.37490000  0.23560000  0.22470000  1.0 -0.530040378
O  O60  1  0.62510000  0.76440000  0.22470000  1.0 -0.530040378
O  O61  1  0.77530000  0.62510000  0.23560000  1.0 -0.530040378
O  O62  1  0.77530000  0.37490000  0.76440000  1.0 -0.530040378
O  O63  1  0.22470000  0.37490000  0.23560000  1.0 -0.530040378
O  O64  1  0.22470000  0.62510000  0.76440000  1.0 -0.530040378
O  O65  1  0.23560000  0.77530000  0.62510000  1.0 -0.530040378
O  O66  1  0.76440000  0.77530000  0.37490000  1.0 -0.530040378
O  O67  1  0.23560000  0.22470000  0.37490000  1.0 -0.530040378
O  O68  1  0.76440000  0.22470000  0.62510000  1.0 -0.530040378
O  O69  1  0.73560000  0.12510000  0.27530000  1.0 -0.530040378
O  O70  1  0.26440000  0.87490000  0.27530000  1.0 -0.530040378
O  O71  1  0.73560000  0.87490000  0.72470000  1.0 -0.530040378
O  O72  1  0.26440000  0.12510000  0.72470000  1.0 -0.530040378
O  O73  1  0.12510000  0.27530000  0.73560000  1.0 -0.530040378
O  O74  1  0.87490000  0.27530000  0.26440000  1.0 -0.530040378
O  O75  1  0.87490000  0.72470000  0.73560000  1.0 -0.530040378
O  O76  1  0.12510000  0.72470000  0.26440000  1.0 -0.530040378
O  O77  1  0.27530000  0.73560000  0.12510000  1.0 -0.530040378
O  O78  1  0.27530000  0.26440000  0.87490000  1.0 -0.530040378
O  O79  1  0.72470000  0.73560000  0.87490000  1.0 -0.530040378
O  O80  1  0.72470000  0.26440000  0.12510000  1.0 -0.530040378
O  O81  1  0.67070000  0.31880000  0.81230000  1.0 -0.530040378
O  O82  1  0.32930000  0.68120000  0.81230000  1.0 -0.530040378
O  O83  1  0.32930000  0.31880000  0.18770000  1.0 -0.530040378
O  O84  1  0.67070000  0.68120000  0.18770000  1.0 -0.530040378
O  O85  1  0.81230000  0.67070000  0.31880000  1.0 -0.530040378
O  O86  1  0.81230000  0.32930000  0.68120000  1.0 -0.530040378
O  O87  1  0.18770000  0.32930000  0.31880000  1.0 -0.530040378
O  O88  1  0.18770000  0.67070000  0.68120000  1.0 -0.530040378
O  O89  1  0.31880000  0.81230000  0.67070000  1.0 -0.530040378
O  O90  1  0.68120000  0.81230000  0.32930000  1.0 -0.530040378
O  O91  1  0.31880000  0.18770000  0.32930000  1.0 -0.530040378
O  O92  1  0.68120000  0.18770000  0.67070000  1.0 -0.530040378
O  O93  1  0.81880000  0.17070000  0.31230000  1.0 -0.530040378
O  O94  1  0.18120000  0.82930000  0.31230000  1.0 -0.530040378
O  O95  1  0.81880000  0.82930000  0.68770000  1.0 -0.530040378
O  O96  1  0.18120000  0.17070000  0.68770000  1.0 -0.530040378
O  O97  1  0.17070000  0.31230000  0.81880000  1.0 -0.530040378
O  O98  1  0.82930000  0.31230000  0.18120000  1.0 -0.530040378
O  O99  1  0.82930000  0.68770000  0.81880000  1.0 -0.530040378
O  O100  1  0.17070000  0.68770000  0.18120000  1.0 -0.530040378
O  O101  1  0.31230000  0.81880000  0.17070000  1.0 -0.530040378
O  O102  1  0.31230000  0.18120000  0.82930000  1.0 -0.530040378
O  O103  1  0.68770000  0.81880000  0.82930000  1.0 -0.530040378
O  O104  1  0.68770000  0.18120000  0.17070000  1.0 -0.530040378
