# DDEC6 charges by PACMAN v1.1 (https://github.com/mtap-research/PACMAN-charge/)
data_LIDCIO_ASR_pacman
_symmetry_space_group_name_H-M   'P 1'
_cell_length_a   21.99070000
_cell_length_b   21.99070000
_cell_length_c   21.99070000
_cell_angle_alpha   90.00000000
_cell_angle_beta   90.00000000
_cell_angle_gamma   90.00000000
_symmetry_Int_Tables_number   1
_chemical_formula_structural   Fe3H9C24N3O13
_chemical_formula_sum   'Fe24 H72 C192 N24 O104'
_cell_volume   10634.50210754
_cell_formula_units_Z   8
loop_
 _symmetry_equiv_pos_site_id
 _symmetry_equiv_pos_as_xyz
  1  'x, y, z'
loop_
 _atom_site_type_symbol
 _atom_site_label
 _atom_site_symmetry_multiplicity
 _atom_site_fract_x
 _atom_site_fract_y
 _atom_site_fract_z
 _atom_site_occupancy
 _atom_site_charge
Fe  Fe1  1  0.69779000  0.18105000  0.23894000  1.0 1.2138998672
Fe  Fe2  1  0.30221000  0.81895000  0.23894000  1.0 1.2138998672
Fe  Fe3  1  0.30221000  0.18105000  0.76106000  1.0 1.2138998672
Fe  Fe4  1  0.69779000  0.81895000  0.76106000  1.0 1.2138998672
Fe  Fe5  1  0.23894000  0.69779000  0.18105000  1.0 1.2138998672
Fe  Fe6  1  0.23894000  0.30221000  0.81895000  1.0 1.2138998672
Fe  Fe7  1  0.76106000  0.30221000  0.18105000  1.0 1.2138998672
Fe  Fe8  1  0.76106000  0.69779000  0.81895000  1.0 1.2138998672
Fe  Fe9  1  0.18105000  0.23894000  0.69779000  1.0 1.2138998672
Fe  Fe10  1  0.81895000  0.23894000  0.30221000  1.0 1.2138998672
Fe  Fe11  1  0.18105000  0.76106000  0.30221000  1.0 1.2138998672
Fe  Fe12  1  0.81895000  0.76106000  0.69779000  1.0 1.2138998672
Fe  Fe13  1  0.68105000  0.19779000  0.73894000  1.0 1.2138998672
Fe  Fe14  1  0.31895000  0.80221000  0.73894000  1.0 1.2138998672
Fe  Fe15  1  0.68105000  0.80221000  0.26106000  1.0 1.2138998672
Fe  Fe16  1  0.31895000  0.19779000  0.26106000  1.0 1.2138998672
Fe  Fe17  1  0.19779000  0.73894000  0.68105000  1.0 1.2138998672
Fe  Fe18  1  0.80221000  0.73894000  0.31895000  1.0 1.2138998672
Fe  Fe19  1  0.80221000  0.26106000  0.68105000  1.0 1.2138998672
Fe  Fe20  1  0.19779000  0.26106000  0.31895000  1.0 1.2138998672
Fe  Fe21  1  0.73894000  0.68105000  0.19779000  1.0 1.2138998672
Fe  Fe22  1  0.73894000  0.31895000  0.80221000  1.0 1.2138998672
Fe  Fe23  1  0.26106000  0.68105000  0.80221000  1.0 1.2138998672
Fe  Fe24  1  0.26106000  0.31895000  0.19779000  1.0 1.2138998672
H  H1  1  0.50982000  0.25483000  0.22195000  1.0 0.1411954294
H  H2  1  0.49018000  0.74517000  0.22195000  1.0 0.1411954294
H  H3  1  0.49018000  0.25483000  0.77805000  1.0 0.1411954294
H  H4  1  0.50982000  0.74517000  0.77805000  1.0 0.1411954294
H  H5  1  0.22195000  0.50982000  0.25483000  1.0 0.1411954294
H  H6  1  0.22195000  0.49018000  0.74517000  1.0 0.1411954294
H  H7  1  0.77805000  0.49018000  0.25483000  1.0 0.1411954294
H  H8  1  0.77805000  0.50982000  0.74517000  1.0 0.1411954294
H  H9  1  0.25483000  0.22195000  0.50982000  1.0 0.1411954294
H  H10  1  0.74517000  0.22195000  0.49018000  1.0 0.1411954294
H  H11  1  0.25483000  0.77805000  0.49018000  1.0 0.1411954294
H  H12  1  0.74517000  0.77805000  0.50982000  1.0 0.1411954294
H  H13  1  0.75483000  0.00982000  0.72195000  1.0 0.1411954294
H  H14  1  0.24517000  0.99018000  0.72195000  1.0 0.1411954294
H  H15  1  0.75483000  0.99018000  0.27805000  1.0 0.1411954294
H  H16  1  0.24517000  0.00982000  0.27805000  1.0 0.1411954294
H  H17  1  0.00982000  0.72195000  0.75483000  1.0 0.1411954294
H  H18  1  0.99018000  0.72195000  0.24517000  1.0 0.1411954294
H  H19  1  0.99018000  0.27805000  0.75483000  1.0 0.1411954294
H  H20  1  0.00982000  0.27805000  0.24517000  1.0 0.1411954294
H  H21  1  0.72195000  0.75483000  0.00982000  1.0 0.1411954294
H  H22  1  0.72195000  0.24517000  0.99018000  1.0 0.1411954294
H  H23  1  0.27805000  0.75483000  0.99018000  1.0 0.1411954294
H  H24  1  0.27805000  0.24517000  0.00982000  1.0 0.1411954294
H  H25  1  0.42478000  0.41583000  0.20913000  1.0 0.1325851147
H  H26  1  0.57522000  0.58417000  0.20913000  1.0 0.1325851147
H  H27  1  0.57522000  0.41583000  0.79087000  1.0 0.1325851147
H  H28  1  0.42478000  0.58417000  0.79087000  1.0 0.1325851147
H  H29  1  0.20913000  0.42478000  0.41583000  1.0 0.1325851147
H  H30  1  0.20913000  0.57522000  0.58417000  1.0 0.1325851147
H  H31  1  0.79087000  0.57522000  0.41583000  1.0 0.1325851147
H  H32  1  0.79087000  0.42478000  0.58417000  1.0 0.1325851147
H  H33  1  0.41583000  0.20913000  0.42478000  1.0 0.1325851147
H  H34  1  0.58417000  0.20913000  0.57522000  1.0 0.1325851147
H  H35  1  0.41583000  0.79087000  0.57522000  1.0 0.1325851147
H  H36  1  0.58417000  0.79087000  0.42478000  1.0 0.1325851147
H  H37  1  0.91583000  0.92478000  0.70913000  1.0 0.1325851147
H  H38  1  0.08417000  0.07522000  0.70913000  1.0 0.1325851147
H  H39  1  0.91583000  0.07522000  0.29087000  1.0 0.1325851147
H  H40  1  0.08417000  0.92478000  0.29087000  1.0 0.1325851147
H  H41  1  0.92478000  0.70913000  0.91583000  1.0 0.1325851147
H  H42  1  0.07522000  0.70913000  0.08417000  1.0 0.1325851147
H  H43  1  0.07522000  0.29087000  0.91583000  1.0 0.1325851147
H  H44  1  0.92478000  0.29087000  0.08417000  1.0 0.1325851147
H  H45  1  0.70913000  0.91583000  0.92478000  1.0 0.1325851147
H  H46  1  0.70913000  0.08417000  0.07522000  1.0 0.1325851147
H  H47  1  0.29087000  0.91583000  0.07522000  1.0 0.1325851147
H  H48  1  0.29087000  0.08417000  0.92478000  1.0 0.1325851147
H  H49  1  0.60650000  0.40670000  0.19811000  1.0 0.1411954294
H  H50  1  0.39350000  0.59330000  0.19811000  1.0 0.1411954294
H  H51  1  0.39350000  0.40670000  0.80189000  1.0 0.1411954294
H  H52  1  0.60650000  0.59330000  0.80189000  1.0 0.1411954294
H  H53  1  0.19811000  0.60650000  0.40670000  1.0 0.1411954294
H  H54  1  0.19811000  0.39350000  0.59330000  1.0 0.1411954294
H  H55  1  0.80189000  0.39350000  0.40670000  1.0 0.1411954294
H  H56  1  0.80189000  0.60650000  0.59330000  1.0 0.1411954294
H  H57  1  0.40670000  0.19811000  0.60650000  1.0 0.1411954294
H  H58  1  0.59330000  0.19811000  0.39350000  1.0 0.1411954294
H  H59  1  0.40670000  0.80189000  0.39350000  1.0 0.1411954294
H  H60  1  0.59330000  0.80189000  0.60650000  1.0 0.1411954294
H  H61  1  0.90670000  0.10650000  0.69811000  1.0 0.1411954294
H  H62  1  0.09330000  0.89350000  0.69811000  1.0 0.1411954294
H  H63  1  0.90670000  0.89350000  0.30189000  1.0 0.1411954294
H  H64  1  0.09330000  0.10650000  0.30189000  1.0 0.1411954294
H  H65  1  0.10650000  0.69811000  0.90670000  1.0 0.1411954294
H  H66  1  0.89350000  0.69811000  0.09330000  1.0 0.1411954294
H  H67  1  0.89350000  0.30189000  0.90670000  1.0 0.1411954294
H  H68  1  0.10650000  0.30189000  0.09330000  1.0 0.1411954294
H  H69  1  0.69811000  0.90670000  0.10650000  1.0 0.1411954294
H  H70  1  0.69811000  0.09330000  0.89350000  1.0 0.1411954294
H  H71  1  0.30189000  0.90670000  0.89350000  1.0 0.1411954294
H  H72  1  0.30189000  0.09330000  0.10650000  1.0 0.1411954294
C  C1  1  0.39690000  0.30120000  0.22260000  1.0 0.6017813573
C  C2  1  0.60310000  0.69880000  0.22260000  1.0 0.6017813573
C  C3  1  0.60310000  0.30120000  0.77740000  1.0 0.6017813573
C  C4  1  0.39690000  0.69880000  0.77740000  1.0 0.6017813573
C  C5  1  0.22260000  0.39690000  0.30120000  1.0 0.6017813573
C  C6  1  0.22260000  0.60310000  0.69880000  1.0 0.6017813573
C  C7  1  0.77740000  0.60310000  0.30120000  1.0 0.6017813573
C  C8  1  0.77740000  0.39690000  0.69880000  1.0 0.6017813573
C  C9  1  0.30120000  0.22260000  0.39690000  1.0 0.6017813573
C  C10  1  0.69880000  0.22260000  0.60310000  1.0 0.6017813573
C  C11  1  0.30120000  0.77740000  0.60310000  1.0 0.6017813573
C  C12  1  0.69880000  0.77740000  0.39690000  1.0 0.6017813573
C  C13  1  0.80120000  0.89690000  0.72260000  1.0 0.6017813573
C  C14  1  0.19880000  0.10310000  0.72260000  1.0 0.6017813573
C  C15  1  0.80120000  0.10310000  0.27740000  1.0 0.6017813573
C  C16  1  0.19880000  0.89690000  0.27740000  1.0 0.6017813573
C  C17  1  0.89690000  0.72260000  0.80120000  1.0 0.6017813573
C  C18  1  0.10310000  0.72260000  0.19880000  1.0 0.6017813573
C  C19  1  0.10310000  0.27740000  0.80120000  1.0 0.6017813573
C  C20  1  0.89690000  0.27740000  0.19880000  1.0 0.6017813573
C  C21  1  0.72260000  0.80120000  0.89690000  1.0 0.6017813573
C  C22  1  0.72260000  0.19880000  0.10310000  1.0 0.6017813573
C  C23  1  0.27740000  0.80120000  0.10310000  1.0 0.6017813573
C  C24  1  0.27740000  0.19880000  0.89690000  1.0 0.6017813573
C  C25  1  0.45760000  0.33040000  0.21570000  1.0 -0.0212232635
C  C26  1  0.54240000  0.66960000  0.21570000  1.0 -0.0212232635
C  C27  1  0.54240000  0.33040000  0.78430000  1.0 -0.0212232635
C  C28  1  0.45760000  0.66960000  0.78430000  1.0 -0.0212232635
C  C29  1  0.21570000  0.45760000  0.33040000  1.0 -0.0212232635
C  C30  1  0.21570000  0.54240000  0.66960000  1.0 -0.0212232635
C  C31  1  0.78430000  0.54240000  0.33040000  1.0 -0.0212232635
C  C32  1  0.78430000  0.45760000  0.66960000  1.0 -0.0212232635
C  C33  1  0.33040000  0.21570000  0.45760000  1.0 -0.0212232635
C  C34  1  0.66960000  0.21570000  0.54240000  1.0 -0.0212232635
C  C35  1  0.33040000  0.78430000  0.54240000  1.0 -0.0212232635
C  C36  1  0.66960000  0.78430000  0.45760000  1.0 -0.0212232635
C  C37  1  0.83040000  0.95760000  0.71570000  1.0 -0.0212232635
C  C38  1  0.16960000  0.04240000  0.71570000  1.0 -0.0212232635
C  C39  1  0.83040000  0.04240000  0.28430000  1.0 -0.0212232635
C  C40  1  0.16960000  0.95760000  0.28430000  1.0 -0.0212232635
C  C41  1  0.95760000  0.71570000  0.83040000  1.0 -0.0212232635
C  C42  1  0.04240000  0.71570000  0.16960000  1.0 -0.0212232635
C  C43  1  0.04240000  0.28430000  0.83040000  1.0 -0.0212232635
C  C44  1  0.95760000  0.28430000  0.16960000  1.0 -0.0212232635
C  C45  1  0.71570000  0.83040000  0.95760000  1.0 -0.0212232635
C  C46  1  0.71570000  0.16960000  0.04240000  1.0 -0.0212232635
C  C47  1  0.28430000  0.83040000  0.04240000  1.0 -0.0212232635
C  C48  1  0.28430000  0.16960000  0.95760000  1.0 -0.0212232635
C  C49  1  0.51120000  0.29670000  0.21620000  1.0 -0.0959855772
C  C50  1  0.48880000  0.70330000  0.21620000  1.0 -0.0959855772
C  C51  1  0.48880000  0.29670000  0.78380000  1.0 -0.0959855772
C  C52  1  0.51120000  0.70330000  0.78380000  1.0 -0.0959855772
C  C53  1  0.21620000  0.51120000  0.29670000  1.0 -0.0959855772
C  C54  1  0.21620000  0.48880000  0.70330000  1.0 -0.0959855772
C  C55  1  0.78380000  0.48880000  0.29670000  1.0 -0.0959855772
C  C56  1  0.78380000  0.51120000  0.70330000  1.0 -0.0959855772
C  C57  1  0.29670000  0.21620000  0.51120000  1.0 -0.0959855772
C  C58  1  0.70330000  0.21620000  0.48880000  1.0 -0.0959855772
C  C59  1  0.29670000  0.78380000  0.48880000  1.0 -0.0959855772
C  C60  1  0.70330000  0.78380000  0.51120000  1.0 -0.0959855772
C  C61  1  0.79670000  0.01120000  0.71620000  1.0 -0.0959855772
C  C62  1  0.20330000  0.98880000  0.71620000  1.0 -0.0959855772
C  C63  1  0.79670000  0.98880000  0.28380000  1.0 -0.0959855772
C  C64  1  0.20330000  0.01120000  0.28380000  1.0 -0.0959855772
C  C65  1  0.01120000  0.71620000  0.79670000  1.0 -0.0959855772
C  C66  1  0.98880000  0.71620000  0.20330000  1.0 -0.0959855772
C  C67  1  0.98880000  0.28380000  0.79670000  1.0 -0.0959855772
C  C68  1  0.01120000  0.28380000  0.20330000  1.0 -0.0959855772
C  C69  1  0.71620000  0.79670000  0.01120000  1.0 -0.0959855772
C  C70  1  0.71620000  0.20330000  0.98880000  1.0 -0.0959855772
C  C71  1  0.28380000  0.79670000  0.98880000  1.0 -0.0959855772
C  C72  1  0.28380000  0.20330000  0.01120000  1.0 -0.0959855772
C  C73  1  0.62620000  0.29040000  0.20660000  1.0 0.6017813573
C  C74  1  0.37380000  0.70960000  0.20660000  1.0 0.6017813573
C  C75  1  0.37380000  0.29040000  0.79340000  1.0 0.6017813573
C  C76  1  0.62620000  0.70960000  0.79340000  1.0 0.6017813573
C  C77  1  0.20660000  0.62620000  0.29040000  1.0 0.6017813573
C  C78  1  0.20660000  0.37380000  0.70960000  1.0 0.6017813573
C  C79  1  0.79340000  0.37380000  0.29040000  1.0 0.6017813573
C  C80  1  0.79340000  0.62620000  0.70960000  1.0 0.6017813573
C  C81  1  0.29040000  0.20660000  0.62620000  1.0 0.6017813573
C  C82  1  0.70960000  0.20660000  0.37380000  1.0 0.6017813573
C  C83  1  0.29040000  0.79340000  0.37380000  1.0 0.6017813573
C  C84  1  0.70960000  0.79340000  0.62620000  1.0 0.6017813573
C  C85  1  0.79040000  0.12620000  0.70660000  1.0 0.6017813573
C  C86  1  0.20960000  0.87380000  0.70660000  1.0 0.6017813573
C  C87  1  0.79040000  0.87380000  0.29340000  1.0 0.6017813573
C  C88  1  0.20960000  0.12620000  0.29340000  1.0 0.6017813573
C  C89  1  0.12620000  0.70660000  0.79040000  1.0 0.6017813573
C  C90  1  0.87380000  0.70660000  0.20960000  1.0 0.6017813573
C  C91  1  0.87380000  0.29340000  0.79040000  1.0 0.6017813573
C  C92  1  0.12620000  0.29340000  0.20960000  1.0 0.6017813573
C  C93  1  0.70660000  0.79040000  0.12620000  1.0 0.6017813573
C  C94  1  0.70660000  0.20960000  0.87380000  1.0 0.6017813573
C  C95  1  0.29340000  0.79040000  0.87380000  1.0 0.6017813573
C  C96  1  0.29340000  0.20960000  0.12620000  1.0 0.6017813573
C  C97  1  0.56660000  0.32550000  0.20820000  1.0 -0.010154071
C  C98  1  0.43340000  0.67450000  0.20820000  1.0 -0.010154071
C  C99  1  0.43340000  0.32550000  0.79180000  1.0 -0.010154071
C  C100  1  0.56660000  0.67450000  0.79180000  1.0 -0.010154071
C  C101  1  0.20820000  0.56660000  0.32550000  1.0 -0.010154071
C  C102  1  0.20820000  0.43340000  0.67450000  1.0 -0.010154071
C  C103  1  0.79180000  0.43340000  0.32550000  1.0 -0.010154071
C  C104  1  0.79180000  0.56660000  0.67450000  1.0 -0.010154071
C  C105  1  0.32550000  0.20820000  0.56660000  1.0 -0.010154071
C  C106  1  0.67450000  0.20820000  0.43340000  1.0 -0.010154071
C  C107  1  0.32550000  0.79180000  0.43340000  1.0 -0.010154071
C  C108  1  0.67450000  0.79180000  0.56660000  1.0 -0.010154071
C  C109  1  0.82550000  0.06660000  0.70820000  1.0 -0.010154071
C  C110  1  0.17450000  0.93340000  0.70820000  1.0 -0.010154071
C  C111  1  0.82550000  0.93340000  0.29180000  1.0 -0.010154071
C  C112  1  0.17450000  0.06660000  0.29180000  1.0 -0.010154071
C  C113  1  0.06660000  0.70820000  0.82550000  1.0 -0.010154071
C  C114  1  0.93340000  0.70820000  0.17450000  1.0 -0.010154071
C  C115  1  0.93340000  0.29180000  0.82550000  1.0 -0.010154071
C  C116  1  0.06660000  0.29180000  0.17450000  1.0 -0.010154071
C  C117  1  0.70820000  0.82550000  0.06660000  1.0 -0.010154071
C  C118  1  0.70820000  0.17450000  0.93340000  1.0 -0.010154071
C  C119  1  0.29180000  0.82550000  0.93340000  1.0 -0.010154071
C  C120  1  0.29180000  0.17450000  0.06660000  1.0 -0.010154071
C  C121  1  0.46040000  0.39300000  0.20980000  1.0 -0.1407444369
C  C122  1  0.53960000  0.60700000  0.20980000  1.0 -0.1407444369
C  C123  1  0.53960000  0.39300000  0.79020000  1.0 -0.1407444369
C  C124  1  0.46040000  0.60700000  0.79020000  1.0 -0.1407444369
C  C125  1  0.20980000  0.46040000  0.39300000  1.0 -0.1407444369
C  C126  1  0.20980000  0.53960000  0.60700000  1.0 -0.1407444369
C  C127  1  0.79020000  0.53960000  0.39300000  1.0 -0.1407444369
C  C128  1  0.79020000  0.46040000  0.60700000  1.0 -0.1407444369
C  C129  1  0.39300000  0.20980000  0.46040000  1.0 -0.1407444369
C  C130  1  0.60700000  0.20980000  0.53960000  1.0 -0.1407444369
C  C131  1  0.39300000  0.79020000  0.53960000  1.0 -0.1407444369
C  C132  1  0.60700000  0.79020000  0.46040000  1.0 -0.1407444369
C  C133  1  0.89300000  0.96040000  0.70980000  1.0 -0.1407444369
C  C134  1  0.10700000  0.03960000  0.70980000  1.0 -0.1407444369
C  C135  1  0.89300000  0.03960000  0.29020000  1.0 -0.1407444369
C  C136  1  0.10700000  0.96040000  0.29020000  1.0 -0.1407444369
C  C137  1  0.96040000  0.70980000  0.89300000  1.0 -0.1407444369
C  C138  1  0.03960000  0.70980000  0.10700000  1.0 -0.1407444369
C  C139  1  0.03960000  0.29020000  0.89300000  1.0 -0.1407444369
C  C140  1  0.96040000  0.29020000  0.10700000  1.0 -0.1407444369
C  C141  1  0.70980000  0.89300000  0.96040000  1.0 -0.1407444369
C  C142  1  0.70980000  0.10700000  0.03960000  1.0 -0.1407444369
C  C143  1  0.29020000  0.89300000  0.03960000  1.0 -0.1407444369
C  C144  1  0.29020000  0.10700000  0.96040000  1.0 -0.1407444369
C  C145  1  0.56910000  0.38750000  0.20290000  1.0 -0.1407444369
C  C146  1  0.43090000  0.61250000  0.20290000  1.0 -0.1407444369
C  C147  1  0.43090000  0.38750000  0.79710000  1.0 -0.1407444369
C  C148  1  0.56910000  0.61250000  0.79710000  1.0 -0.1407444369
C  C149  1  0.20290000  0.56910000  0.38750000  1.0 -0.1407444369
C  C150  1  0.20290000  0.43090000  0.61250000  1.0 -0.1407444369
C  C151  1  0.79710000  0.43090000  0.38750000  1.0 -0.1407444369
C  C152  1  0.79710000  0.56910000  0.61250000  1.0 -0.1407444369
C  C153  1  0.38750000  0.20290000  0.56910000  1.0 -0.1407444369
C  C154  1  0.61250000  0.20290000  0.43090000  1.0 -0.1407444369
C  C155  1  0.38750000  0.79710000  0.43090000  1.0 -0.1407444369
C  C156  1  0.61250000  0.79710000  0.56910000  1.0 -0.1407444369
C  C157  1  0.88750000  0.06910000  0.70290000  1.0 -0.1407444369
C  C158  1  0.11250000  0.93090000  0.70290000  1.0 -0.1407444369
C  C159  1  0.88750000  0.93090000  0.29710000  1.0 -0.1407444369
C  C160  1  0.11250000  0.06910000  0.29710000  1.0 -0.1407444369
C  C161  1  0.06910000  0.70290000  0.88750000  1.0 -0.1407444369
C  C162  1  0.93090000  0.70290000  0.11250000  1.0 -0.1407444369
C  C163  1  0.93090000  0.29710000  0.88750000  1.0 -0.1407444369
C  C164  1  0.06910000  0.29710000  0.11250000  1.0 -0.1407444369
C  C165  1  0.70290000  0.88750000  0.06910000  1.0 -0.1407444369
C  C166  1  0.70290000  0.11250000  0.93090000  1.0 -0.1407444369
C  C167  1  0.29710000  0.88750000  0.93090000  1.0 -0.1407444369
C  C168  1  0.29710000  0.11250000  0.06910000  1.0 -0.1407444369
C  C169  1  0.51680000  0.42170000  0.20480000  1.0 0.1498391786
C  C170  1  0.48320000  0.57830000  0.20480000  1.0 0.1498391786
C  C171  1  0.48320000  0.42170000  0.79520000  1.0 0.1498391786
C  C172  1  0.51680000  0.57830000  0.79520000  1.0 0.1498391786
C  C173  1  0.20480000  0.51680000  0.42170000  1.0 0.1498391786
C  C174  1  0.20480000  0.48320000  0.57830000  1.0 0.1498391786
C  C175  1  0.79520000  0.48320000  0.42170000  1.0 0.1498391786
C  C176  1  0.79520000  0.51680000  0.57830000  1.0 0.1498391786
C  C177  1  0.42170000  0.20480000  0.51680000  1.0 0.1498391786
C  C178  1  0.57830000  0.20480000  0.48320000  1.0 0.1498391786
C  C179  1  0.42170000  0.79520000  0.48320000  1.0 0.1498391786
C  C180  1  0.57830000  0.79520000  0.51680000  1.0 0.1498391786
C  C181  1  0.92170000  0.01680000  0.70480000  1.0 0.1498391786
C  C182  1  0.07830000  0.98320000  0.70480000  1.0 0.1498391786
C  C183  1  0.92170000  0.98320000  0.29520000  1.0 0.1498391786
C  C184  1  0.07830000  0.01680000  0.29520000  1.0 0.1498391786
C  C185  1  0.01680000  0.70480000  0.92170000  1.0 0.1498391786
C  C186  1  0.98320000  0.70480000  0.07830000  1.0 0.1498391786
C  C187  1  0.98320000  0.29520000  0.92170000  1.0 0.1498391786
C  C188  1  0.01680000  0.29520000  0.07830000  1.0 0.1498391786
C  C189  1  0.70480000  0.92170000  0.01680000  1.0 0.1498391786
C  C190  1  0.70480000  0.07830000  0.98320000  1.0 0.1498391786
C  C191  1  0.29520000  0.92170000  0.98320000  1.0 0.1498391786
C  C192  1  0.29520000  0.07830000  0.01680000  1.0 0.1498391786
N  N1  1  0.52380000  0.48600000  0.20060000  1.0 -0.1163579435
N  N2  1  0.47620000  0.51400000  0.20060000  1.0 -0.1163579435
N  N3  1  0.47620000  0.48600000  0.79940000  1.0 -0.1163579435
N  N4  1  0.52380000  0.51400000  0.79940000  1.0 -0.1163579435
N  N5  1  0.20060000  0.52380000  0.48600000  1.0 -0.1163579435
N  N6  1  0.20060000  0.47620000  0.51400000  1.0 -0.1163579435
N  N7  1  0.79940000  0.47620000  0.48600000  1.0 -0.1163579435
N  N8  1  0.79940000  0.52380000  0.51400000  1.0 -0.1163579435
N  N9  1  0.48600000  0.20060000  0.52380000  1.0 -0.1163579435
N  N10  1  0.51400000  0.20060000  0.47620000  1.0 -0.1163579435
N  N11  1  0.48600000  0.79940000  0.47620000  1.0 -0.1163579435
N  N12  1  0.51400000  0.79940000  0.52380000  1.0 -0.1163579435
N  N13  1  0.98600000  0.02380000  0.70060000  1.0 -0.1163579435
N  N14  1  0.01400000  0.97620000  0.70060000  1.0 -0.1163579435
N  N15  1  0.98600000  0.97620000  0.29940000  1.0 -0.1163579435
N  N16  1  0.01400000  0.02380000  0.29940000  1.0 -0.1163579435
N  N17  1  0.02380000  0.70060000  0.98600000  1.0 -0.1163579435
N  N18  1  0.97620000  0.70060000  0.01400000  1.0 -0.1163579435
N  N19  1  0.97620000  0.29940000  0.98600000  1.0 -0.1163579435
N  N20  1  0.02380000  0.29940000  0.01400000  1.0 -0.1163579435
N  N21  1  0.70060000  0.98600000  0.02380000  1.0 -0.1163579435
N  N22  1  0.70060000  0.01400000  0.97620000  1.0 -0.1163579435
N  N23  1  0.29940000  0.98600000  0.97620000  1.0 -0.1163579435
N  N24  1  0.29940000  0.01400000  0.02380000  1.0 -0.1163579435
O  O1  1  0.75978000  0.24022000  0.24022000  1.0 -0.9026046679
O  O2  1  0.24022000  0.75978000  0.24022000  1.0 -0.9026046679
O  O3  1  0.24022000  0.24022000  0.75978000  1.0 -0.9026046679
O  O4  1  0.75978000  0.75978000  0.75978000  1.0 -0.9026046679
O  O5  1  0.74022000  0.25978000  0.74022000  1.0 -0.9026046679
O  O6  1  0.25978000  0.74022000  0.74022000  1.0 -0.9026046679
O  O7  1  0.74022000  0.74022000  0.25978000  1.0 -0.9026046679
O  O8  1  0.25978000  0.25978000  0.25978000  1.0 -0.9026046679
O  O9  1  0.39350000  0.24890000  0.24360000  1.0 -0.5317036669
O  O10  1  0.60650000  0.75110000  0.24360000  1.0 -0.5317036669
O  O11  1  0.60650000  0.24890000  0.75640000  1.0 -0.5317036669
O  O12  1  0.39350000  0.75110000  0.75640000  1.0 -0.5317036669
O  O13  1  0.24360000  0.39350000  0.24890000  1.0 -0.5317036669
O  O14  1  0.24360000  0.60650000  0.75110000  1.0 -0.5317036669
O  O15  1  0.75640000  0.60650000  0.24890000  1.0 -0.5317036669
O  O16  1  0.75640000  0.39350000  0.75110000  1.0 -0.5317036669
O  O17  1  0.24890000  0.24360000  0.39350000  1.0 -0.5317036669
O  O18  1  0.75110000  0.24360000  0.60650000  1.0 -0.5317036669
O  O19  1  0.24890000  0.75640000  0.60650000  1.0 -0.5317036669
O  O20  1  0.75110000  0.75640000  0.39350000  1.0 -0.5317036669
O  O21  1  0.74890000  0.89350000  0.74360000  1.0 -0.5317036669
O  O22  1  0.25110000  0.10650000  0.74360000  1.0 -0.5317036669
O  O23  1  0.74890000  0.10650000  0.25640000  1.0 -0.5317036669
O  O24  1  0.25110000  0.89350000  0.25640000  1.0 -0.5317036669
O  O25  1  0.89350000  0.74360000  0.74890000  1.0 -0.5317036669
O  O26  1  0.10650000  0.74360000  0.25110000  1.0 -0.5317036669
O  O27  1  0.10650000  0.25640000  0.74890000  1.0 -0.5317036669
O  O28  1  0.89350000  0.25640000  0.25110000  1.0 -0.5317036669
O  O29  1  0.74360000  0.74890000  0.89350000  1.0 -0.5317036669
O  O30  1  0.74360000  0.25110000  0.10650000  1.0 -0.5317036669
O  O31  1  0.25640000  0.74890000  0.10650000  1.0 -0.5317036669
O  O32  1  0.25640000  0.25110000  0.89350000  1.0 -0.5317036669
O  O33  1  0.62530000  0.23620000  0.22320000  1.0 -0.5317036669
O  O34  1  0.37470000  0.76380000  0.22320000  1.0 -0.5317036669
O  O35  1  0.37470000  0.23620000  0.77680000  1.0 -0.5317036669
O  O36  1  0.62530000  0.76380000  0.77680000  1.0 -0.5317036669
O  O37  1  0.22320000  0.62530000  0.23620000  1.0 -0.5317036669
O  O38  1  0.22320000  0.37470000  0.76380000  1.0 -0.5317036669
O  O39  1  0.77680000  0.37470000  0.23620000  1.0 -0.5317036669
O  O40  1  0.77680000  0.62530000  0.76380000  1.0 -0.5317036669
O  O41  1  0.23620000  0.22320000  0.62530000  1.0 -0.5317036669
O  O42  1  0.76380000  0.22320000  0.37470000  1.0 -0.5317036669
O  O43  1  0.23620000  0.77680000  0.37470000  1.0 -0.5317036669
O  O44  1  0.76380000  0.77680000  0.62530000  1.0 -0.5317036669
O  O45  1  0.73620000  0.12530000  0.72320000  1.0 -0.5317036669
O  O46  1  0.26380000  0.87470000  0.72320000  1.0 -0.5317036669
O  O47  1  0.73620000  0.87470000  0.27680000  1.0 -0.5317036669
O  O48  1  0.26380000  0.12530000  0.27680000  1.0 -0.5317036669
O  O49  1  0.12530000  0.72320000  0.73620000  1.0 -0.5317036669
O  O50  1  0.87470000  0.72320000  0.26380000  1.0 -0.5317036669
O  O51  1  0.87470000  0.27680000  0.73620000  1.0 -0.5317036669
O  O52  1  0.12530000  0.27680000  0.26380000  1.0 -0.5317036669
O  O53  1  0.72320000  0.73620000  0.12530000  1.0 -0.5317036669
O  O54  1  0.72320000  0.26380000  0.87470000  1.0 -0.5317036669
O  O55  1  0.27680000  0.73620000  0.87470000  1.0 -0.5317036669
O  O56  1  0.27680000  0.26380000  0.12530000  1.0 -0.5317036669
O  O57  1  0.35200000  0.33350000  0.20590000  1.0 -0.5529582486
O  O58  1  0.64800000  0.66650000  0.20590000  1.0 -0.5529582486
O  O59  1  0.64800000  0.33350000  0.79410000  1.0 -0.5529582486
O  O60  1  0.35200000  0.66650000  0.79410000  1.0 -0.5529582486
O  O61  1  0.20590000  0.35200000  0.33350000  1.0 -0.5529582486
O  O62  1  0.20590000  0.64800000  0.66650000  1.0 -0.5529582486
O  O63  1  0.79410000  0.64800000  0.33350000  1.0 -0.5529582486
O  O64  1  0.79410000  0.35200000  0.66650000  1.0 -0.5529582486
O  O65  1  0.33350000  0.20590000  0.35200000  1.0 -0.5529582486
O  O66  1  0.66650000  0.20590000  0.64800000  1.0 -0.5529582486
O  O67  1  0.33350000  0.79410000  0.64800000  1.0 -0.5529582486
O  O68  1  0.66650000  0.79410000  0.35200000  1.0 -0.5529582486
O  O69  1  0.83350000  0.85200000  0.70590000  1.0 -0.5529582486
O  O70  1  0.16650000  0.14800000  0.70590000  1.0 -0.5529582486
O  O71  1  0.83350000  0.14800000  0.29410000  1.0 -0.5529582486
O  O72  1  0.16650000  0.85200000  0.29410000  1.0 -0.5529582486
O  O73  1  0.85200000  0.70590000  0.83350000  1.0 -0.5529582486
O  O74  1  0.14800000  0.70590000  0.16650000  1.0 -0.5529582486
O  O75  1  0.14800000  0.29410000  0.83350000  1.0 -0.5529582486
O  O76  1  0.85200000  0.29410000  0.16650000  1.0 -0.5529582486
O  O77  1  0.70590000  0.83350000  0.85200000  1.0 -0.5529582486
O  O78  1  0.70590000  0.16650000  0.14800000  1.0 -0.5529582486
O  O79  1  0.29410000  0.83350000  0.14800000  1.0 -0.5529582486
O  O80  1  0.29410000  0.16650000  0.85200000  1.0 -0.5529582486
O  O81  1  0.67110000  0.31990000  0.18770000  1.0 -0.5398341999
O  O82  1  0.32890000  0.68010000  0.18770000  1.0 -0.5398341999
O  O83  1  0.32890000  0.31990000  0.81230000  1.0 -0.5398341999
O  O84  1  0.67110000  0.68010000  0.81230000  1.0 -0.5398341999
O  O85  1  0.18770000  0.67110000  0.31990000  1.0 -0.5398341999
O  O86  1  0.18770000  0.32890000  0.68010000  1.0 -0.5398341999
O  O87  1  0.81230000  0.32890000  0.31990000  1.0 -0.5398341999
O  O88  1  0.81230000  0.67110000  0.68010000  1.0 -0.5398341999
O  O89  1  0.31990000  0.18770000  0.67110000  1.0 -0.5398341999
O  O90  1  0.68010000  0.18770000  0.32890000  1.0 -0.5398341999
O  O91  1  0.31990000  0.81230000  0.32890000  1.0 -0.5398341999
O  O92  1  0.68010000  0.81230000  0.67110000  1.0 -0.5398341999
O  O93  1  0.81990000  0.17110000  0.68770000  1.0 -0.5398341999
O  O94  1  0.18010000  0.82890000  0.68770000  1.0 -0.5398341999
O  O95  1  0.81990000  0.82890000  0.31230000  1.0 -0.5398341999
O  O96  1  0.18010000  0.17110000  0.31230000  1.0 -0.5398341999
O  O97  1  0.17110000  0.68770000  0.81990000  1.0 -0.5398341999
O  O98  1  0.82890000  0.68770000  0.18010000  1.0 -0.5398341999
O  O99  1  0.82890000  0.31230000  0.81990000  1.0 -0.5398341999
O  O100  1  0.17110000  0.31230000  0.18010000  1.0 -0.5398341999
O  O101  1  0.68770000  0.81990000  0.17110000  1.0 -0.5398341999
O  O102  1  0.68770000  0.18010000  0.82890000  1.0 -0.5398341999
O  O103  1  0.31230000  0.81990000  0.82890000  1.0 -0.5398341999
O  O104  1  0.31230000  0.18010000  0.17110000  1.0 -0.5398341999
