# DDEC6 charges by PACMAN v1.1 (https://github.com/mtap-research/PACMAN-charge/)
data_LIDDOV_ASR_pacman
_symmetry_space_group_name_H-M   'P 1'
_cell_length_a   21.88590000
_cell_length_b   21.88590000
_cell_length_c   21.88590000
_cell_angle_alpha   90.00000000
_cell_angle_beta   90.00000000
_cell_angle_gamma   90.00000000
_symmetry_Int_Tables_number   1
_chemical_formula_structural   Fe3H9C24N3O13
_chemical_formula_sum   'Fe24 H72 C192 N24 O104'
_cell_volume   10483.18455601
_cell_formula_units_Z   8
loop_
 _symmetry_equiv_pos_site_id
 _symmetry_equiv_pos_as_xyz
  1  'x, y, z'
loop_
 _atom_site_type_symbol
 _atom_site_label
 _atom_site_symmetry_multiplicity
 _atom_site_fract_x
 _atom_site_fract_y
 _atom_site_fract_z
 _atom_site_occupancy
 _atom_site_charge
Fe  Fe1  1  0.19723000  0.68125000  0.73927000  1.0 1.1837966186
Fe  Fe2  1  0.80277000  0.31875000  0.73927000  1.0 1.1837966186
Fe  Fe3  1  0.80277000  0.68125000  0.26073000  1.0 1.1837966186
Fe  Fe4  1  0.19723000  0.31875000  0.26073000  1.0 1.1837966186
Fe  Fe5  1  0.73927000  0.19723000  0.68125000  1.0 1.1837966186
Fe  Fe6  1  0.73927000  0.80277000  0.31875000  1.0 1.1837966186
Fe  Fe7  1  0.26073000  0.80277000  0.68125000  1.0 1.1837966186
Fe  Fe8  1  0.26073000  0.19723000  0.31875000  1.0 1.1837966186
Fe  Fe9  1  0.68125000  0.73927000  0.19723000  1.0 1.1837966186
Fe  Fe10  1  0.31875000  0.73927000  0.80277000  1.0 1.1837966186
Fe  Fe11  1  0.68125000  0.26073000  0.80277000  1.0 1.1837966186
Fe  Fe12  1  0.31875000  0.26073000  0.19723000  1.0 1.1837966186
Fe  Fe13  1  0.18125000  0.69723000  0.23927000  1.0 1.1837966186
Fe  Fe14  1  0.81875000  0.30277000  0.23927000  1.0 1.1837966186
Fe  Fe15  1  0.18125000  0.30277000  0.76073000  1.0 1.1837966186
Fe  Fe16  1  0.81875000  0.69723000  0.76073000  1.0 1.1837966186
Fe  Fe17  1  0.69723000  0.23927000  0.18125000  1.0 1.1837966186
Fe  Fe18  1  0.30277000  0.23927000  0.81875000  1.0 1.1837966186
Fe  Fe19  1  0.30277000  0.76073000  0.18125000  1.0 1.1837966186
Fe  Fe20  1  0.69723000  0.76073000  0.81875000  1.0 1.1837966186
Fe  Fe21  1  0.23927000  0.18125000  0.69723000  1.0 1.1837966186
Fe  Fe22  1  0.23927000  0.81875000  0.30277000  1.0 1.1837966186
Fe  Fe23  1  0.76073000  0.18125000  0.30277000  1.0 1.1837966186
Fe  Fe24  1  0.76073000  0.81875000  0.69723000  1.0 1.1837966186
H  H1  1  0.22274000  0.74661000  0.49152000  1.0 0.1396643324
H  H2  1  0.77726000  0.25339000  0.49152000  1.0 0.1396643324
H  H3  1  0.77726000  0.74661000  0.50848000  1.0 0.1396643324
H  H4  1  0.22274000  0.25339000  0.50848000  1.0 0.1396643324
H  H5  1  0.49152000  0.22274000  0.74661000  1.0 0.1396643324
H  H6  1  0.49152000  0.77726000  0.25339000  1.0 0.1396643324
H  H7  1  0.50848000  0.77726000  0.74661000  1.0 0.1396643324
H  H8  1  0.50848000  0.22274000  0.25339000  1.0 0.1396643324
H  H9  1  0.74661000  0.49152000  0.22274000  1.0 0.1396643324
H  H10  1  0.25339000  0.49152000  0.77726000  1.0 0.1396643324
H  H11  1  0.74661000  0.50848000  0.77726000  1.0 0.1396643324
H  H12  1  0.25339000  0.50848000  0.22274000  1.0 0.1396643324
H  H13  1  0.24661000  0.72274000  0.99152000  1.0 0.1396643324
H  H14  1  0.75339000  0.27726000  0.99152000  1.0 0.1396643324
H  H15  1  0.24661000  0.27726000  0.00848000  1.0 0.1396643324
H  H16  1  0.75339000  0.72274000  0.00848000  1.0 0.1396643324
H  H17  1  0.72274000  0.99152000  0.24661000  1.0 0.1396643324
H  H18  1  0.27726000  0.99152000  0.75339000  1.0 0.1396643324
H  H19  1  0.27726000  0.00848000  0.24661000  1.0 0.1396643324
H  H20  1  0.72274000  0.00848000  0.75339000  1.0 0.1396643324
H  H21  1  0.99152000  0.24661000  0.72274000  1.0 0.1396643324
H  H22  1  0.99152000  0.75339000  0.27726000  1.0 0.1396643324
H  H23  1  0.00848000  0.24661000  0.27726000  1.0 0.1396643324
H  H24  1  0.00848000  0.75339000  0.72274000  1.0 0.1396643324
H  H25  1  0.20732000  0.58541000  0.57587000  1.0 0.1396643324
H  H26  1  0.79268000  0.41459000  0.57587000  1.0 0.1396643324
H  H27  1  0.79268000  0.58541000  0.42413000  1.0 0.1396643324
H  H28  1  0.20732000  0.41459000  0.42413000  1.0 0.1396643324
H  H29  1  0.57587000  0.20732000  0.58541000  1.0 0.1396643324
H  H30  1  0.57587000  0.79268000  0.41459000  1.0 0.1396643324
H  H31  1  0.42413000  0.79268000  0.58541000  1.0 0.1396643324
H  H32  1  0.42413000  0.20732000  0.41459000  1.0 0.1396643324
H  H33  1  0.58541000  0.57587000  0.20732000  1.0 0.1396643324
H  H34  1  0.41459000  0.57587000  0.79268000  1.0 0.1396643324
H  H35  1  0.58541000  0.42413000  0.79268000  1.0 0.1396643324
H  H36  1  0.41459000  0.42413000  0.20732000  1.0 0.1396643324
H  H37  1  0.08541000  0.70732000  0.07587000  1.0 0.1396643324
H  H38  1  0.91459000  0.29268000  0.07587000  1.0 0.1396643324
H  H39  1  0.08541000  0.29268000  0.92413000  1.0 0.1396643324
H  H40  1  0.91459000  0.70732000  0.92413000  1.0 0.1396643324
H  H41  1  0.70732000  0.07587000  0.08541000  1.0 0.1396643324
H  H42  1  0.29268000  0.07587000  0.91459000  1.0 0.1396643324
H  H43  1  0.29268000  0.92413000  0.08541000  1.0 0.1396643324
H  H44  1  0.70732000  0.92413000  0.91459000  1.0 0.1396643324
H  H45  1  0.07587000  0.08541000  0.70732000  1.0 0.1396643324
H  H46  1  0.07587000  0.91459000  0.29268000  1.0 0.1396643324
H  H47  1  0.92413000  0.08541000  0.29268000  1.0 0.1396643324
H  H48  1  0.92413000  0.91459000  0.70732000  1.0 0.1396643324
H  H49  1  0.19676000  0.59308000  0.39328000  1.0 0.1396643324
H  H50  1  0.80324000  0.40692000  0.39328000  1.0 0.1396643324
H  H51  1  0.80324000  0.59308000  0.60672000  1.0 0.1396643324
H  H52  1  0.19676000  0.40692000  0.60672000  1.0 0.1396643324
H  H53  1  0.39328000  0.19676000  0.59308000  1.0 0.1396643324
H  H54  1  0.39328000  0.80324000  0.40692000  1.0 0.1396643324
H  H55  1  0.60672000  0.80324000  0.59308000  1.0 0.1396643324
H  H56  1  0.60672000  0.19676000  0.40692000  1.0 0.1396643324
H  H57  1  0.59308000  0.39328000  0.19676000  1.0 0.1396643324
H  H58  1  0.40692000  0.39328000  0.80324000  1.0 0.1396643324
H  H59  1  0.59308000  0.60672000  0.80324000  1.0 0.1396643324
H  H60  1  0.40692000  0.60672000  0.19676000  1.0 0.1396643324
H  H61  1  0.09308000  0.69676000  0.89328000  1.0 0.1396643324
H  H62  1  0.90692000  0.30324000  0.89328000  1.0 0.1396643324
H  H63  1  0.09308000  0.30324000  0.10672000  1.0 0.1396643324
H  H64  1  0.90692000  0.69676000  0.10672000  1.0 0.1396643324
H  H65  1  0.69676000  0.89328000  0.09308000  1.0 0.1396643324
H  H66  1  0.30324000  0.89328000  0.90692000  1.0 0.1396643324
H  H67  1  0.30324000  0.10672000  0.09308000  1.0 0.1396643324
H  H68  1  0.69676000  0.10672000  0.90692000  1.0 0.1396643324
H  H69  1  0.89328000  0.09308000  0.69676000  1.0 0.1396643324
H  H70  1  0.89328000  0.90692000  0.30324000  1.0 0.1396643324
H  H71  1  0.10672000  0.09308000  0.30324000  1.0 0.1396643324
H  H72  1  0.10672000  0.90692000  0.69676000  1.0 0.1396643324
C  C1  1  0.22140000  0.69900000  0.60520000  1.0 0.6018900914
C  C2  1  0.77860000  0.30100000  0.60520000  1.0 0.6018900914
C  C3  1  0.77860000  0.69900000  0.39480000  1.0 0.6018900914
C  C4  1  0.22140000  0.30100000  0.39480000  1.0 0.6018900914
C  C5  1  0.60520000  0.22140000  0.69900000  1.0 0.6018900914
C  C6  1  0.60520000  0.77860000  0.30100000  1.0 0.6018900914
C  C7  1  0.39480000  0.77860000  0.69900000  1.0 0.6018900914
C  C8  1  0.39480000  0.22140000  0.30100000  1.0 0.6018900914
C  C9  1  0.69900000  0.60520000  0.22140000  1.0 0.6018900914
C  C10  1  0.30100000  0.60520000  0.77860000  1.0 0.6018900914
C  C11  1  0.69900000  0.39480000  0.77860000  1.0 0.6018900914
C  C12  1  0.30100000  0.39480000  0.22140000  1.0 0.6018900914
C  C13  1  0.19900000  0.72140000  0.10520000  1.0 0.6018900914
C  C14  1  0.80100000  0.27860000  0.10520000  1.0 0.6018900914
C  C15  1  0.19900000  0.27860000  0.89480000  1.0 0.6018900914
C  C16  1  0.80100000  0.72140000  0.89480000  1.0 0.6018900914
C  C17  1  0.72140000  0.10520000  0.19900000  1.0 0.6018900914
C  C18  1  0.27860000  0.10520000  0.80100000  1.0 0.6018900914
C  C19  1  0.27860000  0.89480000  0.19900000  1.0 0.6018900914
C  C20  1  0.72140000  0.89480000  0.80100000  1.0 0.6018900914
C  C21  1  0.10520000  0.19900000  0.72140000  1.0 0.6018900914
C  C22  1  0.10520000  0.80100000  0.27860000  1.0 0.6018900914
C  C23  1  0.89480000  0.19900000  0.27860000  1.0 0.6018900914
C  C24  1  0.89480000  0.80100000  0.72140000  1.0 0.6018900914
C  C25  1  0.21530000  0.67030000  0.54270000  1.0 -0.0145056534
C  C26  1  0.78470000  0.32970000  0.54270000  1.0 -0.0145056534
C  C27  1  0.78470000  0.67030000  0.45730000  1.0 -0.0145056534
C  C28  1  0.21530000  0.32970000  0.45730000  1.0 -0.0145056534
C  C29  1  0.54270000  0.21530000  0.67030000  1.0 -0.0145056534
C  C30  1  0.54270000  0.78470000  0.32970000  1.0 -0.0145056534
C  C31  1  0.45730000  0.78470000  0.67030000  1.0 -0.0145056534
C  C32  1  0.45730000  0.21530000  0.32970000  1.0 -0.015114446
C  C33  1  0.67030000  0.54270000  0.21530000  1.0 -0.0145056534
C  C34  1  0.32970000  0.54270000  0.78470000  1.0 -0.0145056534
C  C35  1  0.67030000  0.45730000  0.78470000  1.0 -0.0145056534
C  C36  1  0.32970000  0.45730000  0.21530000  1.0 -0.0145056534
C  C37  1  0.17030000  0.71530000  0.04270000  1.0 -0.015114446
C  C38  1  0.82970000  0.28470000  0.04270000  1.0 -0.015114446
C  C39  1  0.17030000  0.28470000  0.95730000  1.0 -0.0145056534
C  C40  1  0.82970000  0.71530000  0.95730000  1.0 -0.0145056534
C  C41  1  0.71530000  0.04270000  0.17030000  1.0 -0.015114446
C  C42  1  0.28470000  0.04270000  0.82970000  1.0 -0.015114446
C  C43  1  0.28470000  0.95730000  0.17030000  1.0 -0.0145056534
C  C44  1  0.71530000  0.95730000  0.82970000  1.0 -0.0145056534
C  C45  1  0.04270000  0.17030000  0.71530000  1.0 -0.015114446
C  C46  1  0.04270000  0.82970000  0.28470000  1.0 -0.015114446
C  C47  1  0.95730000  0.17030000  0.28470000  1.0 -0.0145056534
C  C48  1  0.95730000  0.82970000  0.71530000  1.0 -0.0145056534
C  C49  1  0.21670000  0.70460000  0.48960000  1.0 -0.0955109703
C  C50  1  0.78330000  0.29540000  0.48960000  1.0 -0.0955109703
C  C51  1  0.78330000  0.70460000  0.51040000  1.0 -0.0955109703
C  C52  1  0.21670000  0.29540000  0.51040000  1.0 -0.0955109703
C  C53  1  0.48960000  0.21670000  0.70460000  1.0 -0.0955109703
C  C54  1  0.48960000  0.78330000  0.29540000  1.0 -0.0955109703
C  C55  1  0.51040000  0.78330000  0.70460000  1.0 -0.0955109703
C  C56  1  0.51040000  0.21670000  0.29540000  1.0 -0.0955109703
C  C57  1  0.70460000  0.48960000  0.21670000  1.0 -0.0955109703
C  C58  1  0.29540000  0.48960000  0.78330000  1.0 -0.0955109703
C  C59  1  0.70460000  0.51040000  0.78330000  1.0 -0.0941607711
C  C60  1  0.29540000  0.51040000  0.21670000  1.0 -0.0955109703
C  C61  1  0.20460000  0.71670000  0.98960000  1.0 -0.0955109703
C  C62  1  0.79540000  0.28330000  0.98960000  1.0 -0.0941607711
C  C63  1  0.20460000  0.28330000  0.01040000  1.0 -0.0955109703
C  C64  1  0.79540000  0.71670000  0.01040000  1.0 -0.0955109703
C  C65  1  0.71670000  0.98960000  0.20460000  1.0 -0.0955109703
C  C66  1  0.28330000  0.98960000  0.79540000  1.0 -0.0941607711
C  C67  1  0.28330000  0.01040000  0.20460000  1.0 -0.0955109703
C  C68  1  0.71670000  0.01040000  0.79540000  1.0 -0.0941607711
C  C69  1  0.98960000  0.20460000  0.71670000  1.0 -0.0941607711
C  C70  1  0.98960000  0.79540000  0.28330000  1.0 -0.0941607711
C  C71  1  0.01040000  0.20460000  0.28330000  1.0 -0.0955109703
C  C72  1  0.01040000  0.79540000  0.71670000  1.0 -0.0955109703
C  C73  1  0.20830000  0.71050000  0.37480000  1.0 0.6018900914
C  C74  1  0.79170000  0.28950000  0.37480000  1.0 0.6018900914
C  C75  1  0.79170000  0.71050000  0.62520000  1.0 0.6018900914
C  C76  1  0.20830000  0.28950000  0.62520000  1.0 0.6018900914
C  C77  1  0.37480000  0.20830000  0.71050000  1.0 0.6018900914
C  C78  1  0.37480000  0.79170000  0.28950000  1.0 0.6018900914
C  C79  1  0.62520000  0.79170000  0.71050000  1.0 0.6018900914
C  C80  1  0.62520000  0.20830000  0.28950000  1.0 0.6018900914
C  C81  1  0.71050000  0.37480000  0.20830000  1.0 0.6018900914
C  C82  1  0.28950000  0.37480000  0.79170000  1.0 0.6018900914
C  C83  1  0.71050000  0.62520000  0.79170000  1.0 0.6018900914
C  C84  1  0.28950000  0.62520000  0.20830000  1.0 0.6018900914
C  C85  1  0.21050000  0.70830000  0.87480000  1.0 0.6018900914
C  C86  1  0.78950000  0.29170000  0.87480000  1.0 0.6018900914
C  C87  1  0.21050000  0.29170000  0.12520000  1.0 0.6018900914
C  C88  1  0.78950000  0.70830000  0.12520000  1.0 0.6018900914
C  C89  1  0.70830000  0.87480000  0.21050000  1.0 0.6018900914
C  C90  1  0.29170000  0.87480000  0.78950000  1.0 0.6018900914
C  C91  1  0.29170000  0.12520000  0.21050000  1.0 0.6018900914
C  C92  1  0.70830000  0.12520000  0.78950000  1.0 0.6018900914
C  C93  1  0.87480000  0.21050000  0.70830000  1.0 0.6018900914
C  C94  1  0.87480000  0.78950000  0.29170000  1.0 0.6018900914
C  C95  1  0.12520000  0.21050000  0.29170000  1.0 0.6018900914
C  C96  1  0.12520000  0.78950000  0.70830000  1.0 0.6018900914
C  C97  1  0.20880000  0.67570000  0.43300000  1.0 -0.0273938764
C  C98  1  0.79120000  0.32430000  0.43300000  1.0 -0.0273938764
C  C99  1  0.79120000  0.67570000  0.56700000  1.0 -0.0273938764
C  C100  1  0.20880000  0.32430000  0.56700000  1.0 -0.0273938764
C  C101  1  0.43300000  0.20880000  0.67570000  1.0 -0.0273938764
C  C102  1  0.43300000  0.79120000  0.32430000  1.0 -0.0273938764
C  C103  1  0.56700000  0.79120000  0.67570000  1.0 -0.0273938764
C  C104  1  0.56700000  0.20880000  0.32430000  1.0 -0.0273938764
C  C105  1  0.67570000  0.43300000  0.20880000  1.0 -0.0273938764
C  C106  1  0.32430000  0.43300000  0.79120000  1.0 -0.0273938764
C  C107  1  0.67570000  0.56700000  0.79120000  1.0 -0.0273938764
C  C108  1  0.32430000  0.56700000  0.20880000  1.0 -0.0273938764
C  C109  1  0.17570000  0.70880000  0.93300000  1.0 -0.0273938764
C  C110  1  0.82430000  0.29120000  0.93300000  1.0 -0.0273938764
C  C111  1  0.17570000  0.29120000  0.06700000  1.0 -0.0273938764
C  C112  1  0.82430000  0.70880000  0.06700000  1.0 -0.0273938764
C  C113  1  0.70880000  0.93300000  0.17570000  1.0 -0.0273938764
C  C114  1  0.29120000  0.93300000  0.82430000  1.0 -0.0273938764
C  C115  1  0.29120000  0.06700000  0.17570000  1.0 -0.0273938764
C  C116  1  0.70880000  0.06700000  0.82430000  1.0 -0.0273938764
C  C117  1  0.93300000  0.17570000  0.70880000  1.0 -0.0273938764
C  C118  1  0.93300000  0.82430000  0.29120000  1.0 -0.0273938764
C  C119  1  0.06700000  0.17570000  0.29120000  1.0 -0.0273938764
C  C120  1  0.06700000  0.82430000  0.70880000  1.0 -0.0273938764
C  C121  1  0.20860000  0.60820000  0.54000000  1.0 -0.1347441606
C  C122  1  0.79140000  0.39180000  0.54000000  1.0 -0.1347441606
C  C123  1  0.79140000  0.60820000  0.46000000  1.0 -0.1347441606
C  C124  1  0.20860000  0.39180000  0.46000000  1.0 -0.1347441606
C  C125  1  0.54000000  0.20860000  0.60820000  1.0 -0.1347441606
C  C126  1  0.54000000  0.79140000  0.39180000  1.0 -0.1347441606
C  C127  1  0.46000000  0.79140000  0.60820000  1.0 -0.1347441606
C  C128  1  0.46000000  0.20860000  0.39180000  1.0 -0.1347441606
C  C129  1  0.60820000  0.54000000  0.20860000  1.0 -0.1347441606
C  C130  1  0.39180000  0.54000000  0.79140000  1.0 -0.1347441606
C  C131  1  0.60820000  0.46000000  0.79140000  1.0 -0.1347441606
C  C132  1  0.39180000  0.46000000  0.20860000  1.0 -0.1347441606
C  C133  1  0.10820000  0.70860000  0.04000000  1.0 -0.1347441606
C  C134  1  0.89180000  0.29140000  0.04000000  1.0 -0.1347441606
C  C135  1  0.10820000  0.29140000  0.96000000  1.0 -0.1347441606
C  C136  1  0.89180000  0.70860000  0.96000000  1.0 -0.1347441606
C  C137  1  0.70860000  0.04000000  0.10820000  1.0 -0.1347441606
C  C138  1  0.29140000  0.04000000  0.89180000  1.0 -0.1347441606
C  C139  1  0.29140000  0.96000000  0.10820000  1.0 -0.1347441606
C  C140  1  0.70860000  0.96000000  0.89180000  1.0 -0.1347441606
C  C141  1  0.04000000  0.10820000  0.70860000  1.0 -0.1347441606
C  C142  1  0.04000000  0.89180000  0.29140000  1.0 -0.1347441606
C  C143  1  0.96000000  0.10820000  0.29140000  1.0 -0.1347441606
C  C144  1  0.96000000  0.89180000  0.70860000  1.0 -0.1347441606
C  C145  1  0.20220000  0.61270000  0.43060000  1.0 -0.142305961
C  C146  1  0.79780000  0.38730000  0.43060000  1.0 -0.142305961
C  C147  1  0.79780000  0.61270000  0.56940000  1.0 -0.142305961
C  C148  1  0.20220000  0.38730000  0.56940000  1.0 -0.142305961
C  C149  1  0.43060000  0.20220000  0.61270000  1.0 -0.142305961
C  C150  1  0.43060000  0.79780000  0.38730000  1.0 -0.142305961
C  C151  1  0.56940000  0.79780000  0.61270000  1.0 -0.142305961
C  C152  1  0.56940000  0.20220000  0.38730000  1.0 -0.142305961
C  C153  1  0.61270000  0.43060000  0.20220000  1.0 -0.142305961
C  C154  1  0.38730000  0.43060000  0.79780000  1.0 -0.142305961
C  C155  1  0.61270000  0.56940000  0.79780000  1.0 -0.142305961
C  C156  1  0.38730000  0.56940000  0.20220000  1.0 -0.142305961
C  C157  1  0.11270000  0.70220000  0.93060000  1.0 -0.142305961
C  C158  1  0.88730000  0.29780000  0.93060000  1.0 -0.142305961
C  C159  1  0.11270000  0.29780000  0.06940000  1.0 -0.142305961
C  C160  1  0.88730000  0.70220000  0.06940000  1.0 -0.142305961
C  C161  1  0.70220000  0.93060000  0.11270000  1.0 -0.142305961
C  C162  1  0.29780000  0.93060000  0.88730000  1.0 -0.142305961
C  C163  1  0.29780000  0.06940000  0.11270000  1.0 -0.142305961
C  C164  1  0.70220000  0.06940000  0.88730000  1.0 -0.142305961
C  C165  1  0.93060000  0.11270000  0.70220000  1.0 -0.142305961
C  C166  1  0.93060000  0.88730000  0.29780000  1.0 -0.142305961
C  C167  1  0.06940000  0.11270000  0.29780000  1.0 -0.142305961
C  C168  1  0.06940000  0.88730000  0.70220000  1.0 -0.142305961
C  C169  1  0.20380000  0.57950000  0.48450000  1.0 0.1488426246
C  C170  1  0.79620000  0.42050000  0.48450000  1.0 0.1488426246
C  C171  1  0.79620000  0.57950000  0.51550000  1.0 0.1488426246
C  C172  1  0.20380000  0.42050000  0.51550000  1.0 0.1488426246
C  C173  1  0.48450000  0.20380000  0.57950000  1.0 0.1488426246
C  C174  1  0.48450000  0.79620000  0.42050000  1.0 0.1488426246
C  C175  1  0.51550000  0.79620000  0.57950000  1.0 0.1488426246
C  C176  1  0.51550000  0.20380000  0.42050000  1.0 0.1488426246
C  C177  1  0.57950000  0.48450000  0.20380000  1.0 0.1488426246
C  C178  1  0.42050000  0.48450000  0.79620000  1.0 0.1488426246
C  C179  1  0.57950000  0.51550000  0.79620000  1.0 0.1488426246
C  C180  1  0.42050000  0.51550000  0.20380000  1.0 0.1488426246
C  C181  1  0.07950000  0.70380000  0.98450000  1.0 0.1488426246
C  C182  1  0.92050000  0.29620000  0.98450000  1.0 0.1488426246
C  C183  1  0.07950000  0.29620000  0.01550000  1.0 0.1488426246
C  C184  1  0.92050000  0.70380000  0.01550000  1.0 0.1488426246
C  C185  1  0.70380000  0.98450000  0.07950000  1.0 0.1488426246
C  C186  1  0.29620000  0.98450000  0.92050000  1.0 0.1488426246
C  C187  1  0.29620000  0.01550000  0.07950000  1.0 0.1488426246
C  C188  1  0.70380000  0.01550000  0.92050000  1.0 0.1488426246
C  C189  1  0.98450000  0.07950000  0.70380000  1.0 0.1488426246
C  C190  1  0.98450000  0.92050000  0.29620000  1.0 0.1488426246
C  C191  1  0.01550000  0.07950000  0.29620000  1.0 0.1488426246
C  C192  1  0.01550000  0.92050000  0.70380000  1.0 0.1488426246
N  N1  1  0.20060000  0.51420000  0.47620000  1.0 -0.111479818
N  N2  1  0.79940000  0.48580000  0.47620000  1.0 -0.111479818
N  N3  1  0.79940000  0.51420000  0.52380000  1.0 -0.111479818
N  N4  1  0.20060000  0.48580000  0.52380000  1.0 -0.111479818
N  N5  1  0.47620000  0.20060000  0.51420000  1.0 -0.111479818
N  N6  1  0.47620000  0.79940000  0.48580000  1.0 -0.111479818
N  N7  1  0.52380000  0.79940000  0.51420000  1.0 -0.111479818
N  N8  1  0.52380000  0.20060000  0.48580000  1.0 -0.111479818
N  N9  1  0.51420000  0.47620000  0.20060000  1.0 -0.111479818
N  N10  1  0.48580000  0.47620000  0.79940000  1.0 -0.111479818
N  N11  1  0.51420000  0.52380000  0.79940000  1.0 -0.111479818
N  N12  1  0.48580000  0.52380000  0.20060000  1.0 -0.111479818
N  N13  1  0.01420000  0.70060000  0.97620000  1.0 -0.111479818
N  N14  1  0.98580000  0.29940000  0.97620000  1.0 -0.111479818
N  N15  1  0.01420000  0.29940000  0.02380000  1.0 -0.111479818
N  N16  1  0.98580000  0.70060000  0.02380000  1.0 -0.111479818
N  N17  1  0.70060000  0.97620000  0.01420000  1.0 -0.111479818
N  N18  1  0.29940000  0.97620000  0.98580000  1.0 -0.111479818
N  N19  1  0.29940000  0.02380000  0.01420000  1.0 -0.111479818
N  N20  1  0.70060000  0.02380000  0.98580000  1.0 -0.111479818
N  N21  1  0.97620000  0.01420000  0.70060000  1.0 -0.111479818
N  N22  1  0.97620000  0.98580000  0.29940000  1.0 -0.111479818
N  N23  1  0.02380000  0.01420000  0.29940000  1.0 -0.111479818
N  N24  1  0.02380000  0.98580000  0.70060000  1.0 -0.111479818
O  O1  1  0.25930000  0.74070000  0.74070000  1.0 -0.8863458045
O  O2  1  0.74070000  0.25930000  0.74070000  1.0 -0.8863458045
O  O3  1  0.74070000  0.74070000  0.25930000  1.0 -0.8863458045
O  O4  1  0.25930000  0.25930000  0.25930000  1.0 -0.8863458045
O  O5  1  0.24070000  0.75930000  0.24070000  1.0 -0.8863458045
O  O6  1  0.75930000  0.24070000  0.24070000  1.0 -0.8863458045
O  O7  1  0.24070000  0.24070000  0.75930000  1.0 -0.8863458045
O  O8  1  0.75930000  0.75930000  0.75930000  1.0 -0.8863458045
O  O9  1  0.20460000  0.66810000  0.64999000  1.0 -0.5287202703
O  O10  1  0.79540000  0.33190000  0.64999000  1.0 -0.5287202703
O  O11  1  0.79540000  0.66810000  0.35001000  1.0 -0.5287202703
O  O12  1  0.20460000  0.33190000  0.35001000  1.0 -0.5287202703
O  O13  1  0.64999000  0.20460000  0.66810000  1.0 -0.5287202703
O  O14  1  0.64999000  0.79540000  0.33190000  1.0 -0.5287202703
O  O15  1  0.35001000  0.79540000  0.66810000  1.0 -0.5287202703
O  O16  1  0.35001000  0.20460000  0.33190000  1.0 -0.5287202703
O  O17  1  0.66810000  0.64999000  0.20460000  1.0 -0.5287202703
O  O18  1  0.33190000  0.64999000  0.79540000  1.0 -0.5287202703
O  O19  1  0.66810000  0.35001000  0.79540000  1.0 -0.5287202703
O  O20  1  0.33190000  0.35001000  0.20460000  1.0 -0.5287202703
O  O21  1  0.16810000  0.70460000  0.14999000  1.0 -0.5287202703
O  O22  1  0.83190000  0.29540000  0.14999000  1.0 -0.5287202703
O  O23  1  0.16810000  0.29540000  0.85001000  1.0 -0.5287202703
O  O24  1  0.83190000  0.70460000  0.85001000  1.0 -0.5287202703
O  O25  1  0.70460000  0.14999000  0.16810000  1.0 -0.5287202703
O  O26  1  0.29540000  0.14999000  0.83190000  1.0 -0.5287202703
O  O27  1  0.29540000  0.85001000  0.16810000  1.0 -0.5287202703
O  O28  1  0.70460000  0.85001000  0.83190000  1.0 -0.5287202703
O  O29  1  0.14999000  0.16810000  0.70460000  1.0 -0.5287202703
O  O30  1  0.14999000  0.83190000  0.29540000  1.0 -0.5287202703
O  O31  1  0.85001000  0.16810000  0.29540000  1.0 -0.5287202703
O  O32  1  0.85001000  0.83190000  0.70460000  1.0 -0.5287202703
O  O33  1  0.22500000  0.76470000  0.37499000  1.0 -0.5174540288
O  O34  1  0.77500000  0.23530000  0.37499000  1.0 -0.5174540288
O  O35  1  0.77500000  0.76470000  0.62501000  1.0 -0.5174540288
O  O36  1  0.22500000  0.23530000  0.62501000  1.0 -0.5174540288
O  O37  1  0.37499000  0.22500000  0.76470000  1.0 -0.5174540288
O  O38  1  0.37499000  0.77500000  0.23530000  1.0 -0.5174540288
O  O39  1  0.62501000  0.77500000  0.76470000  1.0 -0.5174540288
O  O40  1  0.62501000  0.22500000  0.23530000  1.0 -0.5174540288
O  O41  1  0.76470000  0.37499000  0.22500000  1.0 -0.5174540288
O  O42  1  0.23530000  0.37499000  0.77500000  1.0 -0.5174540288
O  O43  1  0.76470000  0.62501000  0.77500000  1.0 -0.5174540288
O  O44  1  0.23530000  0.62501000  0.22500000  1.0 -0.5174540288
O  O45  1  0.26470000  0.72500000  0.87499000  1.0 -0.5174540288
O  O46  1  0.73530000  0.27500000  0.87499000  1.0 -0.5174540288
O  O47  1  0.26470000  0.27500000  0.12501000  1.0 -0.5174540288
O  O48  1  0.73530000  0.72500000  0.12501000  1.0 -0.5174540288
O  O49  1  0.72500000  0.87499000  0.26470000  1.0 -0.5174540288
O  O50  1  0.27500000  0.87499000  0.73530000  1.0 -0.5174540288
O  O51  1  0.27500000  0.12501000  0.26470000  1.0 -0.5174540288
O  O52  1  0.72500000  0.12501000  0.73530000  1.0 -0.5174540288
O  O53  1  0.87499000  0.26470000  0.72500000  1.0 -0.5174540288
O  O54  1  0.87499000  0.73530000  0.27500000  1.0 -0.5174540288
O  O55  1  0.12501000  0.26470000  0.27500000  1.0 -0.5174540288
O  O56  1  0.12501000  0.73530000  0.72500000  1.0 -0.5174540288
O  O57  1  0.24440000  0.75196000  0.60782000  1.0 -0.5397539965
O  O58  1  0.75560000  0.24804000  0.60782000  1.0 -0.5397539965
O  O59  1  0.75560000  0.75196000  0.39218000  1.0 -0.5397539965
O  O60  1  0.24440000  0.24804000  0.39218000  1.0 -0.5397539965
O  O61  1  0.60782000  0.24440000  0.75196000  1.0 -0.5397539965
O  O62  1  0.60782000  0.75560000  0.24804000  1.0 -0.5397539965
O  O63  1  0.39218000  0.75560000  0.75196000  1.0 -0.5397539965
O  O64  1  0.39218000  0.24440000  0.24804000  1.0 -0.5397539965
O  O65  1  0.75196000  0.60782000  0.24440000  1.0 -0.5397539965
O  O66  1  0.24804000  0.60782000  0.75560000  1.0 -0.5397539965
O  O67  1  0.75196000  0.39218000  0.75560000  1.0 -0.5397539965
O  O68  1  0.24804000  0.39218000  0.24440000  1.0 -0.5397539965
O  O69  1  0.25196000  0.74440000  0.10782000  1.0 -0.5397539965
O  O70  1  0.74804000  0.25560000  0.10782000  1.0 -0.5397539965
O  O71  1  0.25196000  0.25560000  0.89218000  1.0 -0.5397539965
O  O72  1  0.74804000  0.74440000  0.89218000  1.0 -0.5397539965
O  O73  1  0.74440000  0.10782000  0.25196000  1.0 -0.5397539965
O  O74  1  0.25560000  0.10782000  0.74804000  1.0 -0.5397539965
O  O75  1  0.25560000  0.89218000  0.25196000  1.0 -0.5397539965
O  O76  1  0.74440000  0.89218000  0.74804000  1.0 -0.5397539965
O  O77  1  0.10782000  0.25196000  0.74440000  1.0 -0.5397539965
O  O78  1  0.10782000  0.74804000  0.25560000  1.0 -0.5397539965
O  O79  1  0.89218000  0.25196000  0.25560000  1.0 -0.5397539965
O  O80  1  0.89218000  0.74804000  0.74440000  1.0 -0.5397539965
O  O81  1  0.18780000  0.68163000  0.32915000  1.0 -0.5482550718
O  O82  1  0.81220000  0.31837000  0.32915000  1.0 -0.5482550718
O  O83  1  0.81220000  0.68163000  0.67085000  1.0 -0.5482550718
O  O84  1  0.18780000  0.31837000  0.67085000  1.0 -0.5482550718
O  O85  1  0.32915000  0.18780000  0.68163000  1.0 -0.5482550718
O  O86  1  0.32915000  0.81220000  0.31837000  1.0 -0.5482550718
O  O87  1  0.67085000  0.81220000  0.68163000  1.0 -0.5482550718
O  O88  1  0.67085000  0.18780000  0.31837000  1.0 -0.5482550718
O  O89  1  0.68163000  0.32915000  0.18780000  1.0 -0.5482550718
O  O90  1  0.31837000  0.32915000  0.81220000  1.0 -0.5482550718
O  O91  1  0.68163000  0.67085000  0.81220000  1.0 -0.5482550718
O  O92  1  0.31837000  0.67085000  0.18780000  1.0 -0.5482550718
O  O93  1  0.18163000  0.68780000  0.82915000  1.0 -0.5482550718
O  O94  1  0.81837000  0.31220000  0.82915000  1.0 -0.5482550718
O  O95  1  0.18163000  0.31220000  0.17085000  1.0 -0.5482550718
O  O96  1  0.81837000  0.68780000  0.17085000  1.0 -0.5482550718
O  O97  1  0.68780000  0.82915000  0.18163000  1.0 -0.5482550718
O  O98  1  0.31220000  0.82915000  0.81837000  1.0 -0.5482550718
O  O99  1  0.31220000  0.17085000  0.18163000  1.0 -0.5482550718
O  O100  1  0.68780000  0.17085000  0.81837000  1.0 -0.5482550718
O  O101  1  0.82915000  0.18163000  0.68780000  1.0 -0.5482550718
O  O102  1  0.82915000  0.81837000  0.31220000  1.0 -0.5482550718
O  O103  1  0.17085000  0.18163000  0.31220000  1.0 -0.5482550718
O  O104  1  0.17085000  0.81837000  0.68780000  1.0 -0.5482550718
