# DDEC6 charges by PACMAN v1.1 (https://github.com/mtap-research/PACMAN-charge/)
data_LIDDUB_ASR_pacman
_symmetry_space_group_name_H-M   'P 1'
_cell_length_a   21.88270000
_cell_length_b   21.88270000
_cell_length_c   21.88270000
_cell_angle_alpha   90.00000000
_cell_angle_beta   90.00000000
_cell_angle_gamma   90.00000000
_symmetry_Int_Tables_number   1
_chemical_formula_structural   Fe3H9C24N3O13
_chemical_formula_sum   'Fe24 H72 C192 N24 O104'
_cell_volume   10478.58689918
_cell_formula_units_Z   8
loop_
 _symmetry_equiv_pos_site_id
 _symmetry_equiv_pos_as_xyz
  1  'x, y, z'
loop_
 _atom_site_type_symbol
 _atom_site_label
 _atom_site_symmetry_multiplicity
 _atom_site_fract_x
 _atom_site_fract_y
 _atom_site_fract_z
 _atom_site_occupancy
 _atom_site_charge
Fe  Fe1  1  0.23949000  0.69773000  0.81804000  1.0 1.1699237091
Fe  Fe2  1  0.76051000  0.30227000  0.81804000  1.0 1.1699237091
Fe  Fe3  1  0.76051000  0.69773000  0.18196000  1.0 1.1699237091
Fe  Fe4  1  0.23949000  0.30227000  0.18196000  1.0 1.1699237091
Fe  Fe5  1  0.81804000  0.23949000  0.69773000  1.0 1.1699237091
Fe  Fe6  1  0.81804000  0.76051000  0.30227000  1.0 1.1699237091
Fe  Fe7  1  0.18196000  0.76051000  0.69773000  1.0 1.1699237091
Fe  Fe8  1  0.18196000  0.23949000  0.30227000  1.0 1.1699237091
Fe  Fe9  1  0.69773000  0.81804000  0.23949000  1.0 1.1699237091
Fe  Fe10  1  0.30227000  0.81804000  0.76051000  1.0 1.1699237091
Fe  Fe11  1  0.69773000  0.18196000  0.76051000  1.0 1.1699237091
Fe  Fe12  1  0.30227000  0.18196000  0.23949000  1.0 1.1699237091
Fe  Fe13  1  0.19773000  0.73949000  0.31804000  1.0 1.1699237091
Fe  Fe14  1  0.80227000  0.26051000  0.31804000  1.0 1.1699237091
Fe  Fe15  1  0.19773000  0.26051000  0.68196000  1.0 1.1699237091
Fe  Fe16  1  0.80227000  0.73949000  0.68196000  1.0 1.1699237091
Fe  Fe17  1  0.73949000  0.31804000  0.19773000  1.0 1.1699237091
Fe  Fe18  1  0.26051000  0.31804000  0.80227000  1.0 1.1699237091
Fe  Fe19  1  0.26051000  0.68196000  0.19773000  1.0 1.1699237091
Fe  Fe20  1  0.73949000  0.68196000  0.80227000  1.0 1.1699237091
Fe  Fe21  1  0.31804000  0.19773000  0.73949000  1.0 1.1699237091
Fe  Fe22  1  0.31804000  0.80227000  0.26051000  1.0 1.1699237091
Fe  Fe23  1  0.68196000  0.19773000  0.26051000  1.0 1.1699237091
Fe  Fe24  1  0.68196000  0.80227000  0.73949000  1.0 1.1699237091
H  H1  1  0.22327000  0.50853000  0.74642000  1.0 0.1410283614
H  H2  1  0.77673000  0.49147000  0.74642000  1.0 0.1410283614
H  H3  1  0.77673000  0.50853000  0.25358000  1.0 0.1410283614
H  H4  1  0.22327000  0.49147000  0.25358000  1.0 0.1410283614
H  H5  1  0.74642000  0.22327000  0.50853000  1.0 0.1410283614
H  H6  1  0.74642000  0.77673000  0.49147000  1.0 0.1410283614
H  H7  1  0.25358000  0.77673000  0.50853000  1.0 0.1410283614
H  H8  1  0.25358000  0.22327000  0.49147000  1.0 0.1410283614
H  H9  1  0.50853000  0.74642000  0.22327000  1.0 0.1410283614
H  H10  1  0.49147000  0.74642000  0.77673000  1.0 0.1410283614
H  H11  1  0.50853000  0.25358000  0.77673000  1.0 0.1410283614
H  H12  1  0.49147000  0.25358000  0.22327000  1.0 0.1410283614
H  H13  1  0.00853000  0.72327000  0.24642000  1.0 0.1410283614
H  H14  1  0.99147000  0.27673000  0.24642000  1.0 0.1410283614
H  H15  1  0.00853000  0.27673000  0.75358000  1.0 0.1410283614
H  H16  1  0.99147000  0.72327000  0.75358000  1.0 0.1410283614
H  H17  1  0.72327000  0.24642000  0.00853000  1.0 0.1410283614
H  H18  1  0.27673000  0.24642000  0.99147000  1.0 0.1410283614
H  H19  1  0.27673000  0.75358000  0.00853000  1.0 0.1410283614
H  H20  1  0.72327000  0.75358000  0.99147000  1.0 0.1410283614
H  H21  1  0.24642000  0.00853000  0.72327000  1.0 0.1410283614
H  H22  1  0.24642000  0.99147000  0.27673000  1.0 0.1410283614
H  H23  1  0.75358000  0.00853000  0.27673000  1.0 0.1410283614
H  H24  1  0.75358000  0.99147000  0.72327000  1.0 0.1410283614
H  H25  1  0.20765000  0.42441000  0.58511000  1.0 0.1335626971
H  H26  1  0.79235000  0.57559000  0.58511000  1.0 0.1335626971
H  H27  1  0.79235000  0.42441000  0.41489000  1.0 0.1335626971
H  H28  1  0.20765000  0.57559000  0.41489000  1.0 0.1335626971
H  H29  1  0.58511000  0.20765000  0.42441000  1.0 0.1335626971
H  H30  1  0.58511000  0.79235000  0.57559000  1.0 0.1335626971
H  H31  1  0.41489000  0.79235000  0.42441000  1.0 0.1335626971
H  H32  1  0.41489000  0.20765000  0.57559000  1.0 0.1335626971
H  H33  1  0.42441000  0.58511000  0.20765000  1.0 0.1335626971
H  H34  1  0.57559000  0.58511000  0.79235000  1.0 0.1335626971
H  H35  1  0.42441000  0.41489000  0.79235000  1.0 0.1335626971
H  H36  1  0.57559000  0.41489000  0.20765000  1.0 0.1335626971
H  H37  1  0.92441000  0.70765000  0.08511000  1.0 0.1335626971
H  H38  1  0.07559000  0.29235000  0.08511000  1.0 0.1335626971
H  H39  1  0.92441000  0.29235000  0.91489000  1.0 0.1335626971
H  H40  1  0.07559000  0.70765000  0.91489000  1.0 0.1335626971
H  H41  1  0.70765000  0.08511000  0.92441000  1.0 0.1335626971
H  H42  1  0.29235000  0.08511000  0.07559000  1.0 0.1335626971
H  H43  1  0.29235000  0.91489000  0.92441000  1.0 0.1335626971
H  H44  1  0.70765000  0.91489000  0.07559000  1.0 0.1335626971
H  H45  1  0.08511000  0.92441000  0.70765000  1.0 0.1335626971
H  H46  1  0.08511000  0.07559000  0.29235000  1.0 0.1335626971
H  H47  1  0.91489000  0.92441000  0.29235000  1.0 0.1335626971
H  H48  1  0.91489000  0.07559000  0.70765000  1.0 0.1335626971
H  H49  1  0.19864000  0.60686000  0.59323000  1.0 0.1410283614
H  H50  1  0.80136000  0.39314000  0.59323000  1.0 0.1410283614
H  H51  1  0.80136000  0.60686000  0.40677000  1.0 0.1410283614
H  H52  1  0.19864000  0.39314000  0.40677000  1.0 0.1410283614
H  H53  1  0.59323000  0.19864000  0.60686000  1.0 0.1410283614
H  H54  1  0.59323000  0.80136000  0.39314000  1.0 0.1410283614
H  H55  1  0.40677000  0.80136000  0.60686000  1.0 0.1410283614
H  H56  1  0.40677000  0.19864000  0.39314000  1.0 0.1410283614
H  H57  1  0.60686000  0.59323000  0.19864000  1.0 0.1410283614
H  H58  1  0.39314000  0.59323000  0.80136000  1.0 0.1410283614
H  H59  1  0.60686000  0.40677000  0.80136000  1.0 0.1410283614
H  H60  1  0.39314000  0.40677000  0.19864000  1.0 0.1410283614
H  H61  1  0.10686000  0.69864000  0.09323000  1.0 0.1410283614
H  H62  1  0.89314000  0.30136000  0.09323000  1.0 0.1410283614
H  H63  1  0.10686000  0.30136000  0.90677000  1.0 0.1410283614
H  H64  1  0.89314000  0.69864000  0.90677000  1.0 0.1410283614
H  H65  1  0.69864000  0.09323000  0.10686000  1.0 0.1410283614
H  H66  1  0.30136000  0.09323000  0.89314000  1.0 0.1410283614
H  H67  1  0.30136000  0.90677000  0.10686000  1.0 0.1410283614
H  H68  1  0.69864000  0.90677000  0.89314000  1.0 0.1410283614
H  H69  1  0.09323000  0.10686000  0.69864000  1.0 0.1410283614
H  H70  1  0.09323000  0.89314000  0.30136000  1.0 0.1410283614
H  H71  1  0.90677000  0.10686000  0.30136000  1.0 0.1410283614
H  H72  1  0.90677000  0.89314000  0.69864000  1.0 0.1410283614
C  C1  1  0.22150000  0.39510000  0.69940000  1.0 0.6054469359
C  C2  1  0.77850000  0.60490000  0.69940000  1.0 0.6054469359
C  C3  1  0.77850000  0.39510000  0.30060000  1.0 0.6031019634
C  C4  1  0.22150000  0.60490000  0.30060000  1.0 0.6054469359
C  C5  1  0.69940000  0.22150000  0.39510000  1.0 0.6054469359
C  C6  1  0.69940000  0.77850000  0.60490000  1.0 0.6054469359
C  C7  1  0.30060000  0.77850000  0.39510000  1.0 0.6031019634
C  C8  1  0.30060000  0.22150000  0.60490000  1.0 0.6054469359
C  C9  1  0.39510000  0.69940000  0.22150000  1.0 0.6054469359
C  C10  1  0.60490000  0.69940000  0.77850000  1.0 0.6054469359
C  C11  1  0.39510000  0.30060000  0.77850000  1.0 0.6031019634
C  C12  1  0.60490000  0.30060000  0.22150000  1.0 0.6054469359
C  C13  1  0.89510000  0.72150000  0.19940000  1.0 0.6054469359
C  C14  1  0.10490000  0.27850000  0.19940000  1.0 0.6054469359
C  C15  1  0.89510000  0.27850000  0.80060000  1.0 0.6054469359
C  C16  1  0.10490000  0.72150000  0.80060000  1.0 0.6054469359
C  C17  1  0.72150000  0.19940000  0.89510000  1.0 0.6054469359
C  C18  1  0.27850000  0.19940000  0.10490000  1.0 0.6054469359
C  C19  1  0.27850000  0.80060000  0.89510000  1.0 0.6054469359
C  C20  1  0.72150000  0.80060000  0.10490000  1.0 0.6054469359
C  C21  1  0.19940000  0.89510000  0.72150000  1.0 0.6054469359
C  C22  1  0.19940000  0.10490000  0.27850000  1.0 0.6054469359
C  C23  1  0.80060000  0.89510000  0.27850000  1.0 0.6054469359
C  C24  1  0.80060000  0.10490000  0.72150000  1.0 0.6054469359
C  C25  1  0.21700000  0.51050000  0.70440000  1.0 -0.0895363247
C  C26  1  0.78300000  0.48950000  0.70440000  1.0 -0.0895363247
C  C27  1  0.78300000  0.51050000  0.29560000  1.0 -0.0895363247
C  C28  1  0.21700000  0.48950000  0.29560000  1.0 -0.0895363247
C  C29  1  0.70440000  0.21700000  0.51050000  1.0 -0.0895363247
C  C30  1  0.70440000  0.78300000  0.48950000  1.0 -0.0895363247
C  C31  1  0.29560000  0.78300000  0.51050000  1.0 -0.0895363247
C  C32  1  0.29560000  0.21700000  0.48950000  1.0 -0.0895363247
C  C33  1  0.51050000  0.70440000  0.21700000  1.0 -0.0895363247
C  C34  1  0.48950000  0.70440000  0.78300000  1.0 -0.0895363247
C  C35  1  0.51050000  0.29560000  0.78300000  1.0 -0.0895363247
C  C36  1  0.48950000  0.29560000  0.21700000  1.0 -0.0895363247
C  C37  1  0.01050000  0.71700000  0.20440000  1.0 -0.0895363247
C  C38  1  0.98950000  0.28300000  0.20440000  1.0 -0.0895363247
C  C39  1  0.01050000  0.28300000  0.79560000  1.0 -0.0895363247
C  C40  1  0.98950000  0.71700000  0.79560000  1.0 -0.0895363247
C  C41  1  0.71700000  0.20440000  0.01050000  1.0 -0.0895363247
C  C42  1  0.28300000  0.20440000  0.98950000  1.0 -0.0895363247
C  C43  1  0.28300000  0.79560000  0.01050000  1.0 -0.0895363247
C  C44  1  0.71700000  0.79560000  0.98950000  1.0 -0.0895363247
C  C45  1  0.20440000  0.01050000  0.71700000  1.0 -0.0895363247
C  C46  1  0.20440000  0.98950000  0.28300000  1.0 -0.0895363247
C  C47  1  0.79560000  0.01050000  0.28300000  1.0 -0.0895363247
C  C48  1  0.79560000  0.98950000  0.71700000  1.0 -0.0895363247
C  C49  1  0.21550000  0.45720000  0.67030000  1.0 -0.0137436329
C  C50  1  0.78450000  0.54280000  0.67030000  1.0 -0.0137436329
C  C51  1  0.78450000  0.45720000  0.32970000  1.0 -0.0137436329
C  C52  1  0.21550000  0.54280000  0.32970000  1.0 -0.0137436329
C  C53  1  0.67030000  0.21550000  0.45720000  1.0 -0.0137436329
C  C54  1  0.67030000  0.78450000  0.54280000  1.0 -0.0137436329
C  C55  1  0.32970000  0.78450000  0.45720000  1.0 -0.0137436329
C  C56  1  0.32970000  0.21550000  0.54280000  1.0 -0.0137436329
C  C57  1  0.45720000  0.67030000  0.21550000  1.0 -0.0137436329
C  C58  1  0.54280000  0.67030000  0.78450000  1.0 -0.0137436329
C  C59  1  0.45720000  0.32970000  0.78450000  1.0 -0.0137436329
C  C60  1  0.54280000  0.32970000  0.21550000  1.0 -0.0137436329
C  C61  1  0.95720000  0.71550000  0.17030000  1.0 -0.0137436329
C  C62  1  0.04280000  0.28450000  0.17030000  1.0 -0.0137436329
C  C63  1  0.95720000  0.28450000  0.82970000  1.0 -0.0137436329
C  C64  1  0.04280000  0.71550000  0.82970000  1.0 -0.0137436329
C  C65  1  0.71550000  0.17030000  0.95720000  1.0 -0.0137436329
C  C66  1  0.28450000  0.17030000  0.04280000  1.0 -0.0137436329
C  C67  1  0.28450000  0.82970000  0.95720000  1.0 -0.0137436329
C  C68  1  0.71550000  0.82970000  0.04280000  1.0 -0.0137436329
C  C69  1  0.17030000  0.95720000  0.71550000  1.0 -0.0137436329
C  C70  1  0.17030000  0.04280000  0.28450000  1.0 -0.0137436329
C  C71  1  0.82970000  0.95720000  0.28450000  1.0 -0.0137436329
C  C72  1  0.82970000  0.04280000  0.71550000  1.0 -0.0137436329
C  C73  1  0.20860000  0.62490000  0.71050000  1.0 0.6031019634
C  C74  1  0.79140000  0.37510000  0.71050000  1.0 0.6031019634
C  C75  1  0.79140000  0.62490000  0.28950000  1.0 0.6031019634
C  C76  1  0.20860000  0.37510000  0.28950000  1.0 0.6031019634
C  C77  1  0.71050000  0.20860000  0.62490000  1.0 0.6031019634
C  C78  1  0.71050000  0.79140000  0.37510000  1.0 0.6031019634
C  C79  1  0.28950000  0.79140000  0.62490000  1.0 0.6031019634
C  C80  1  0.28950000  0.20860000  0.37510000  1.0 0.6031019634
C  C81  1  0.62490000  0.71050000  0.20860000  1.0 0.6031019634
C  C82  1  0.37510000  0.71050000  0.79140000  1.0 0.6031019634
C  C83  1  0.62490000  0.28950000  0.79140000  1.0 0.6031019634
C  C84  1  0.37510000  0.28950000  0.20860000  1.0 0.6031019634
C  C85  1  0.12490000  0.70860000  0.21050000  1.0 0.6031019634
C  C86  1  0.87510000  0.29140000  0.21050000  1.0 0.6031019634
C  C87  1  0.12490000  0.29140000  0.78950000  1.0 0.6031019634
C  C88  1  0.87510000  0.70860000  0.78950000  1.0 0.6031019634
C  C89  1  0.70860000  0.21050000  0.12490000  1.0 0.6031019634
C  C90  1  0.29140000  0.21050000  0.87510000  1.0 0.6031019634
C  C91  1  0.29140000  0.78950000  0.12490000  1.0 0.6031019634
C  C92  1  0.70860000  0.78950000  0.87510000  1.0 0.6031019634
C  C93  1  0.21050000  0.12490000  0.70860000  1.0 0.6031019634
C  C94  1  0.21050000  0.87510000  0.29140000  1.0 0.6031019634
C  C95  1  0.78950000  0.12490000  0.29140000  1.0 0.6031019634
C  C96  1  0.78950000  0.87510000  0.70860000  1.0 0.6031019634
C  C97  1  0.20920000  0.56690000  0.67630000  1.0 -0.0359592314
C  C98  1  0.79080000  0.43310000  0.67630000  1.0 -0.0359592314
C  C99  1  0.79080000  0.56690000  0.32370000  1.0 -0.0359592314
C  C100  1  0.20920000  0.43310000  0.32370000  1.0 -0.0359592314
C  C101  1  0.67630000  0.20920000  0.56690000  1.0 -0.0359592314
C  C102  1  0.67630000  0.79080000  0.43310000  1.0 -0.0359592314
C  C103  1  0.32370000  0.79080000  0.56690000  1.0 -0.0359592314
C  C104  1  0.32370000  0.20920000  0.43310000  1.0 -0.0359592314
C  C105  1  0.56690000  0.67630000  0.20920000  1.0 -0.0359592314
C  C106  1  0.43310000  0.67630000  0.79080000  1.0 -0.0359592314
C  C107  1  0.56690000  0.32370000  0.79080000  1.0 -0.0359592314
C  C108  1  0.43310000  0.32370000  0.20920000  1.0 -0.0359592314
C  C109  1  0.06690000  0.70920000  0.17630000  1.0 -0.0359592314
C  C110  1  0.93310000  0.29080000  0.17630000  1.0 -0.0359592314
C  C111  1  0.06690000  0.29080000  0.82370000  1.0 -0.0359592314
C  C112  1  0.93310000  0.70920000  0.82370000  1.0 -0.0359592314
C  C113  1  0.70920000  0.17630000  0.06690000  1.0 -0.0359592314
C  C114  1  0.29080000  0.17630000  0.93310000  1.0 -0.0359592314
C  C115  1  0.29080000  0.82370000  0.06690000  1.0 -0.0359592314
C  C116  1  0.70920000  0.82370000  0.93310000  1.0 -0.0359592314
C  C117  1  0.17630000  0.06690000  0.70920000  1.0 -0.0359592314
C  C118  1  0.17630000  0.93310000  0.29080000  1.0 -0.0359592314
C  C119  1  0.82370000  0.06690000  0.29080000  1.0 -0.0359592314
C  C120  1  0.82370000  0.93310000  0.70920000  1.0 -0.0359592314
C  C121  1  0.20890000  0.46020000  0.60810000  1.0 -0.1334169817
C  C122  1  0.79110000  0.53980000  0.60810000  1.0 -0.1334169817
C  C123  1  0.79110000  0.46020000  0.39190000  1.0 -0.1334169817
C  C124  1  0.20890000  0.53980000  0.39190000  1.0 -0.1334169817
C  C125  1  0.60810000  0.20890000  0.46020000  1.0 -0.1334169817
C  C126  1  0.60810000  0.79110000  0.53980000  1.0 -0.1334169817
C  C127  1  0.39190000  0.79110000  0.46020000  1.0 -0.1334169817
C  C128  1  0.39190000  0.20890000  0.53980000  1.0 -0.1334169817
C  C129  1  0.46020000  0.60810000  0.20890000  1.0 -0.1334169817
C  C130  1  0.53980000  0.60810000  0.79110000  1.0 -0.1334169817
C  C131  1  0.46020000  0.39190000  0.79110000  1.0 -0.1334169817
C  C132  1  0.53980000  0.39190000  0.20890000  1.0 -0.1334169817
C  C133  1  0.96020000  0.70890000  0.10810000  1.0 -0.1334169817
C  C134  1  0.03980000  0.29110000  0.10810000  1.0 -0.1334169817
C  C135  1  0.96020000  0.29110000  0.89190000  1.0 -0.1334169817
C  C136  1  0.03980000  0.70890000  0.89190000  1.0 -0.1334169817
C  C137  1  0.70890000  0.10810000  0.96020000  1.0 -0.1334169817
C  C138  1  0.29110000  0.10810000  0.03980000  1.0 -0.1334169817
C  C139  1  0.29110000  0.89190000  0.96020000  1.0 -0.1334169817
C  C140  1  0.70890000  0.89190000  0.03980000  1.0 -0.1334169817
C  C141  1  0.10810000  0.96020000  0.70890000  1.0 -0.1334169817
C  C142  1  0.10810000  0.03980000  0.29110000  1.0 -0.1334169817
C  C143  1  0.89190000  0.96020000  0.29110000  1.0 -0.1334169817
C  C144  1  0.89190000  0.03980000  0.70890000  1.0 -0.1334169817
C  C145  1  0.20410000  0.51590000  0.57970000  1.0 0.1486088478
C  C146  1  0.79590000  0.48410000  0.57970000  1.0 0.1486088478
C  C147  1  0.79590000  0.51590000  0.42030000  1.0 0.1486088478
C  C148  1  0.20410000  0.48410000  0.42030000  1.0 0.1486088478
C  C149  1  0.57970000  0.20410000  0.51590000  1.0 0.1486088478
C  C150  1  0.57970000  0.79590000  0.48410000  1.0 0.1486088478
C  C151  1  0.42030000  0.79590000  0.51590000  1.0 0.1486088478
C  C152  1  0.42030000  0.20410000  0.48410000  1.0 0.1486088478
C  C153  1  0.51590000  0.57970000  0.20410000  1.0 0.1486088478
C  C154  1  0.48410000  0.57970000  0.79590000  1.0 0.1486088478
C  C155  1  0.51590000  0.42030000  0.79590000  1.0 0.1486088478
C  C156  1  0.48410000  0.42030000  0.20410000  1.0 0.1486088478
C  C157  1  0.01590000  0.70410000  0.07970000  1.0 0.1486088478
C  C158  1  0.98410000  0.29590000  0.07970000  1.0 0.1486088478
C  C159  1  0.01590000  0.29590000  0.92030000  1.0 0.1486088478
C  C160  1  0.98410000  0.70410000  0.92030000  1.0 0.1486088478
C  C161  1  0.70410000  0.07970000  0.01590000  1.0 0.1486088478
C  C162  1  0.29590000  0.07970000  0.98410000  1.0 0.1486088478
C  C163  1  0.29590000  0.92030000  0.01590000  1.0 0.1486088478
C  C164  1  0.70410000  0.92030000  0.98410000  1.0 0.1486088478
C  C165  1  0.07970000  0.01590000  0.70410000  1.0 0.1486088478
C  C166  1  0.07970000  0.98410000  0.29590000  1.0 0.1486088478
C  C167  1  0.92030000  0.01590000  0.29590000  1.0 0.1486088478
C  C168  1  0.92030000  0.98410000  0.70410000  1.0 0.1486088478
C  C169  1  0.20320000  0.56950000  0.61290000  1.0 -0.138976356
C  C170  1  0.79680000  0.43050000  0.61290000  1.0 -0.138976356
C  C171  1  0.79680000  0.56950000  0.38710000  1.0 -0.138976356
C  C172  1  0.20320000  0.43050000  0.38710000  1.0 -0.138976356
C  C173  1  0.61290000  0.20320000  0.56950000  1.0 -0.138976356
C  C174  1  0.61290000  0.79680000  0.43050000  1.0 -0.138976356
C  C175  1  0.38710000  0.79680000  0.56950000  1.0 -0.138976356
C  C176  1  0.38710000  0.20320000  0.43050000  1.0 -0.138976356
C  C177  1  0.56950000  0.61290000  0.20320000  1.0 -0.138976356
C  C178  1  0.43050000  0.61290000  0.79680000  1.0 -0.138976356
C  C179  1  0.56950000  0.38710000  0.79680000  1.0 -0.138976356
C  C180  1  0.43050000  0.38710000  0.20320000  1.0 -0.138976356
C  C181  1  0.06950000  0.70320000  0.11290000  1.0 -0.138976356
C  C182  1  0.93050000  0.29680000  0.11290000  1.0 -0.138976356
C  C183  1  0.06950000  0.29680000  0.88710000  1.0 -0.138976356
C  C184  1  0.93050000  0.70320000  0.88710000  1.0 -0.138976356
C  C185  1  0.70320000  0.11290000  0.06950000  1.0 -0.138976356
C  C186  1  0.29680000  0.11290000  0.93050000  1.0 -0.138976356
C  C187  1  0.29680000  0.88710000  0.06950000  1.0 -0.138976356
C  C188  1  0.70320000  0.88710000  0.93050000  1.0 -0.138976356
C  C189  1  0.11290000  0.06950000  0.70320000  1.0 -0.138976356
C  C190  1  0.11290000  0.93050000  0.29680000  1.0 -0.138976356
C  C191  1  0.88710000  0.06950000  0.29680000  1.0 -0.138976356
C  C192  1  0.88710000  0.93050000  0.70320000  1.0 -0.138976356
N  N1  1  0.20220000  0.52380000  0.51410000  1.0 -0.1066275999
N  N2  1  0.79780000  0.47620000  0.51410000  1.0 -0.1066275999
N  N3  1  0.79780000  0.52380000  0.48590000  1.0 -0.1066275999
N  N4  1  0.20220000  0.47620000  0.48590000  1.0 -0.1066275999
N  N5  1  0.51410000  0.20220000  0.52380000  1.0 -0.1066275999
N  N6  1  0.51410000  0.79780000  0.47620000  1.0 -0.1066275999
N  N7  1  0.48590000  0.79780000  0.52380000  1.0 -0.1066275999
N  N8  1  0.48590000  0.20220000  0.47620000  1.0 -0.1066275999
N  N9  1  0.52380000  0.51410000  0.20220000  1.0 -0.1066275999
N  N10  1  0.47620000  0.51410000  0.79780000  1.0 -0.1066275999
N  N11  1  0.52380000  0.48590000  0.79780000  1.0 -0.1066275999
N  N12  1  0.47620000  0.48590000  0.20220000  1.0 -0.1066275999
N  N13  1  0.02380000  0.70220000  0.01410000  1.0 -0.1066275999
N  N14  1  0.97620000  0.29780000  0.01410000  1.0 -0.1066275999
N  N15  1  0.02380000  0.29780000  0.98590000  1.0 -0.1066275999
N  N16  1  0.97620000  0.70220000  0.98590000  1.0 -0.1066275999
N  N17  1  0.70220000  0.01410000  0.02380000  1.0 -0.1066275999
N  N18  1  0.29780000  0.01410000  0.97620000  1.0 -0.1066275999
N  N19  1  0.29780000  0.98590000  0.02380000  1.0 -0.1066275999
N  N20  1  0.70220000  0.98590000  0.97620000  1.0 -0.1066275999
N  N21  1  0.01410000  0.02380000  0.70220000  1.0 -0.1066275999
N  N22  1  0.01410000  0.97620000  0.29780000  1.0 -0.1066275999
N  N23  1  0.98590000  0.02380000  0.29780000  1.0 -0.1066275999
N  N24  1  0.98590000  0.97620000  0.70220000  1.0 -0.1066275999
O  O1  1  0.20410000  0.34985000  0.66800000  1.0 -0.5408133529
O  O2  1  0.79590000  0.65015000  0.66800000  1.0 -0.5408133529
O  O3  1  0.79590000  0.34985000  0.33200000  1.0 -0.5408133529
O  O4  1  0.20410000  0.65015000  0.33200000  1.0 -0.5408133529
O  O5  1  0.66800000  0.20410000  0.34985000  1.0 -0.5408133529
O  O6  1  0.66800000  0.79590000  0.65015000  1.0 -0.5408133529
O  O7  1  0.33200000  0.79590000  0.34985000  1.0 -0.5408133529
O  O8  1  0.33200000  0.20410000  0.65015000  1.0 -0.5408133529
O  O9  1  0.34985000  0.66800000  0.20410000  1.0 -0.5408133529
O  O10  1  0.65015000  0.66800000  0.79590000  1.0 -0.5408133529
O  O11  1  0.34985000  0.33200000  0.79590000  1.0 -0.5408133529
O  O12  1  0.65015000  0.33200000  0.20410000  1.0 -0.5408133529
O  O13  1  0.84985000  0.70410000  0.16800000  1.0 -0.5408133529
O  O14  1  0.15015000  0.29590000  0.16800000  1.0 -0.5408133529
O  O15  1  0.84985000  0.29590000  0.83200000  1.0 -0.5408133529
O  O16  1  0.15015000  0.70410000  0.83200000  1.0 -0.5408133529
O  O17  1  0.70410000  0.16800000  0.84985000  1.0 -0.5408133529
O  O18  1  0.29590000  0.16800000  0.15015000  1.0 -0.5408133529
O  O19  1  0.29590000  0.83200000  0.84985000  1.0 -0.5408133529
O  O20  1  0.70410000  0.83200000  0.15015000  1.0 -0.5408133529
O  O21  1  0.16800000  0.84985000  0.70410000  1.0 -0.5408133529
O  O22  1  0.16800000  0.15015000  0.29590000  1.0 -0.5408133529
O  O23  1  0.83200000  0.84985000  0.29590000  1.0 -0.5408133529
O  O24  1  0.83200000  0.15015000  0.70410000  1.0 -0.5408133529
O  O25  1  0.22500000  0.62535000  0.76490000  1.0 -0.5156775054
O  O26  1  0.77500000  0.37465000  0.76490000  1.0 -0.5156775054
O  O27  1  0.77500000  0.62535000  0.23510000  1.0 -0.5156775054
O  O28  1  0.22500000  0.37465000  0.23510000  1.0 -0.5156775054
O  O29  1  0.76490000  0.22500000  0.62535000  1.0 -0.5156775054
O  O30  1  0.76490000  0.77500000  0.37465000  1.0 -0.5156775054
O  O31  1  0.23510000  0.77500000  0.62535000  1.0 -0.5156775054
O  O32  1  0.23510000  0.22500000  0.37465000  1.0 -0.5156775054
O  O33  1  0.62535000  0.76490000  0.22500000  1.0 -0.5156775054
O  O34  1  0.37465000  0.76490000  0.77500000  1.0 -0.5156775054
O  O35  1  0.62535000  0.23510000  0.77500000  1.0 -0.5156775054
O  O36  1  0.37465000  0.23510000  0.22500000  1.0 -0.5156775054
O  O37  1  0.12535000  0.72500000  0.26490000  1.0 -0.5156775054
O  O38  1  0.87465000  0.27500000  0.26490000  1.0 -0.5156775054
O  O39  1  0.12535000  0.27500000  0.73510000  1.0 -0.5156775054
O  O40  1  0.87465000  0.72500000  0.73510000  1.0 -0.5156775054
O  O41  1  0.72500000  0.26490000  0.12535000  1.0 -0.5156775054
O  O42  1  0.27500000  0.26490000  0.87465000  1.0 -0.5156775054
O  O43  1  0.27500000  0.73510000  0.12535000  1.0 -0.5156775054
O  O44  1  0.72500000  0.73510000  0.87465000  1.0 -0.5156775054
O  O45  1  0.26490000  0.12535000  0.72500000  1.0 -0.5156775054
O  O46  1  0.26490000  0.87465000  0.27500000  1.0 -0.5156775054
O  O47  1  0.73510000  0.12535000  0.27500000  1.0 -0.5156775054
O  O48  1  0.73510000  0.87465000  0.72500000  1.0 -0.5156775054
O  O49  1  0.24470000  0.39254000  0.75233000  1.0 -0.5408133529
O  O50  1  0.75530000  0.60746000  0.75233000  1.0 -0.5408133529
O  O51  1  0.75530000  0.39254000  0.24767000  1.0 -0.5408133529
O  O52  1  0.24470000  0.60746000  0.24767000  1.0 -0.5408133529
O  O53  1  0.75233000  0.24470000  0.39254000  1.0 -0.5408133529
O  O54  1  0.75233000  0.75530000  0.60746000  1.0 -0.5408133529
O  O55  1  0.24767000  0.75530000  0.39254000  1.0 -0.5408133529
O  O56  1  0.24767000  0.24470000  0.60746000  1.0 -0.5408133529
O  O57  1  0.39254000  0.75233000  0.24470000  1.0 -0.5408133529
O  O58  1  0.60746000  0.75233000  0.75530000  1.0 -0.5408133529
O  O59  1  0.39254000  0.24767000  0.75530000  1.0 -0.5408133529
O  O60  1  0.60746000  0.24767000  0.24470000  1.0 -0.5408133529
O  O61  1  0.89254000  0.74470000  0.25233000  1.0 -0.5408133529
O  O62  1  0.10746000  0.25530000  0.25233000  1.0 -0.5408133529
O  O63  1  0.89254000  0.25530000  0.74767000  1.0 -0.5408133529
O  O64  1  0.10746000  0.74470000  0.74767000  1.0 -0.5408133529
O  O65  1  0.74470000  0.25233000  0.89254000  1.0 -0.5408133529
O  O66  1  0.25530000  0.25233000  0.10746000  1.0 -0.5408133529
O  O67  1  0.25530000  0.74767000  0.89254000  1.0 -0.5408133529
O  O68  1  0.74470000  0.74767000  0.10746000  1.0 -0.5408133529
O  O69  1  0.25233000  0.89254000  0.74470000  1.0 -0.5408133529
O  O70  1  0.25233000  0.10746000  0.25530000  1.0 -0.5408133529
O  O71  1  0.74767000  0.89254000  0.25530000  1.0 -0.5408133529
O  O72  1  0.74767000  0.10746000  0.74470000  1.0 -0.5408133529
O  O73  1  0.18810000  0.67056000  0.68180000  1.0 -0.5408133529
O  O74  1  0.81190000  0.32944000  0.68180000  1.0 -0.5408133529
O  O75  1  0.81190000  0.67056000  0.31820000  1.0 -0.5408133529
O  O76  1  0.18810000  0.32944000  0.31820000  1.0 -0.5408133529
O  O77  1  0.68180000  0.18810000  0.67056000  1.0 -0.5408133529
O  O78  1  0.68180000  0.81190000  0.32944000  1.0 -0.5408133529
O  O79  1  0.31820000  0.81190000  0.67056000  1.0 -0.5408133529
O  O80  1  0.31820000  0.18810000  0.32944000  1.0 -0.5408133529
O  O81  1  0.67056000  0.68180000  0.18810000  1.0 -0.5408133529
O  O82  1  0.32944000  0.68180000  0.81190000  1.0 -0.5408133529
O  O83  1  0.67056000  0.31820000  0.81190000  1.0 -0.5408133529
O  O84  1  0.32944000  0.31820000  0.18810000  1.0 -0.5408133529
O  O85  1  0.17056000  0.68810000  0.18180000  1.0 -0.5408133529
O  O86  1  0.82944000  0.31190000  0.18180000  1.0 -0.5408133529
O  O87  1  0.17056000  0.31190000  0.81820000  1.0 -0.5408133529
O  O88  1  0.82944000  0.68810000  0.81820000  1.0 -0.5408133529
O  O89  1  0.68810000  0.18180000  0.17056000  1.0 -0.5408133529
O  O90  1  0.31190000  0.18180000  0.82944000  1.0 -0.5408133529
O  O91  1  0.31190000  0.81820000  0.17056000  1.0 -0.5408133529
O  O92  1  0.68810000  0.81820000  0.82944000  1.0 -0.5408133529
O  O93  1  0.18180000  0.17056000  0.68810000  1.0 -0.5408133529
O  O94  1  0.18180000  0.82944000  0.31190000  1.0 -0.5408133529
O  O95  1  0.81820000  0.17056000  0.31190000  1.0 -0.5408133529
O  O96  1  0.81820000  0.82944000  0.68810000  1.0 -0.5408133529
O  O97  1  0.24044000  0.75956000  0.75956000  1.0 -0.8580901908
O  O98  1  0.75956000  0.24044000  0.75956000  1.0 -0.8580901908
O  O99  1  0.75956000  0.75956000  0.24044000  1.0 -0.8580901908
O  O100  1  0.24044000  0.24044000  0.24044000  1.0 -0.8580901908
O  O101  1  0.25956000  0.74044000  0.25956000  1.0 -0.8580901908
O  O102  1  0.74044000  0.25956000  0.25956000  1.0 -0.8580901908
O  O103  1  0.25956000  0.25956000  0.74044000  1.0 -0.8580901908
O  O104  1  0.74044000  0.74044000  0.74044000  1.0 -0.8580901908
