# DDEC6 charges by PACMAN v1.1 (https://github.com/mtap-research/PACMAN-charge/)
data_LIDDEL_ASR_pacman
_symmetry_space_group_name_H-M   'P 1'
_cell_length_a   21.91560000
_cell_length_b   21.91560000
_cell_length_c   21.91560000
_cell_angle_alpha   90.00000000
_cell_angle_beta   90.00000000
_cell_angle_gamma   90.00000000
_symmetry_Int_Tables_number   1
_chemical_formula_structural   Fe3H9C24N3O13
_chemical_formula_sum   'Fe24 H72 C192 N24 O104'
_cell_volume   10525.92074055
_cell_formula_units_Z   8
loop_
 _symmetry_equiv_pos_site_id
 _symmetry_equiv_pos_as_xyz
  1  'x, y, z'
loop_
 _atom_site_type_symbol
 _atom_site_label
 _atom_site_symmetry_multiplicity
 _atom_site_fract_x
 _atom_site_fract_y
 _atom_site_fract_z
 _atom_site_occupancy
 _atom_site_charge
Fe  Fe1  1  0.30135000  0.18220000  0.76067000  1.0 1.1690041944
Fe  Fe2  1  0.69865000  0.81780000  0.76067000  1.0 1.1690041944
Fe  Fe3  1  0.69865000  0.18220000  0.23933000  1.0 1.1690041944
Fe  Fe4  1  0.30135000  0.81780000  0.23933000  1.0 1.1690041944
Fe  Fe5  1  0.76067000  0.30135000  0.18220000  1.0 1.1690041944
Fe  Fe6  1  0.76067000  0.69865000  0.81780000  1.0 1.1690041944
Fe  Fe7  1  0.23933000  0.69865000  0.18220000  1.0 1.1690041944
Fe  Fe8  1  0.23933000  0.30135000  0.81780000  1.0 1.1690041944
Fe  Fe9  1  0.18220000  0.76067000  0.30135000  1.0 1.1690041944
Fe  Fe10  1  0.81780000  0.76067000  0.69865000  1.0 1.1690041944
Fe  Fe11  1  0.18220000  0.23933000  0.69865000  1.0 1.1690041944
Fe  Fe12  1  0.81780000  0.23933000  0.30135000  1.0 1.1690041944
Fe  Fe13  1  0.68220000  0.80135000  0.26067000  1.0 1.1690041944
Fe  Fe14  1  0.31780000  0.19865000  0.26067000  1.0 1.1690041944
Fe  Fe15  1  0.68220000  0.19865000  0.73933000  1.0 1.1690041944
Fe  Fe16  1  0.31780000  0.80135000  0.73933000  1.0 1.1690041944
Fe  Fe17  1  0.80135000  0.26067000  0.68220000  1.0 1.1690041944
Fe  Fe18  1  0.19865000  0.26067000  0.31780000  1.0 1.1690041944
Fe  Fe19  1  0.19865000  0.73933000  0.68220000  1.0 1.1690041944
Fe  Fe20  1  0.80135000  0.73933000  0.31780000  1.0 1.1690041944
Fe  Fe21  1  0.26067000  0.68220000  0.80135000  1.0 1.1690041944
Fe  Fe22  1  0.26067000  0.31780000  0.19865000  1.0 1.1690041944
Fe  Fe23  1  0.73933000  0.68220000  0.19865000  1.0 1.1690041944
Fe  Fe24  1  0.73933000  0.31780000  0.80135000  1.0 1.1690041944
H  H1  1  0.49105000  0.25313000  0.77707000  1.0 0.1395552752
H  H2  1  0.50895000  0.74687000  0.77707000  1.0 0.1395552752
H  H3  1  0.50895000  0.25313000  0.22293000  1.0 0.1395552752
H  H4  1  0.49105000  0.74687000  0.22293000  1.0 0.1395552752
H  H5  1  0.77707000  0.49105000  0.25313000  1.0 0.1395552752
H  H6  1  0.77707000  0.50895000  0.74687000  1.0 0.1395552752
H  H7  1  0.22293000  0.50895000  0.25313000  1.0 0.1395552752
H  H8  1  0.22293000  0.49105000  0.74687000  1.0 0.1395552752
H  H9  1  0.25313000  0.77707000  0.49105000  1.0 0.1395552752
H  H10  1  0.74687000  0.77707000  0.50895000  1.0 0.1395552752
H  H11  1  0.25313000  0.22293000  0.50895000  1.0 0.1395552752
H  H12  1  0.74687000  0.22293000  0.49105000  1.0 0.1395552752
H  H13  1  0.75313000  0.99105000  0.27707000  1.0 0.1395552752
H  H14  1  0.24687000  0.00895000  0.27707000  1.0 0.1395552752
H  H15  1  0.75313000  0.00895000  0.72293000  1.0 0.1395552752
H  H16  1  0.24687000  0.99105000  0.72293000  1.0 0.1395552752
H  H17  1  0.99105000  0.27707000  0.75313000  1.0 0.1395552752
H  H18  1  0.00895000  0.27707000  0.24687000  1.0 0.1395552752
H  H19  1  0.00895000  0.72293000  0.75313000  1.0 0.1395552752
H  H20  1  0.99105000  0.72293000  0.24687000  1.0 0.1395552752
H  H21  1  0.27707000  0.75313000  0.99105000  1.0 0.1395552752
H  H22  1  0.27707000  0.24687000  0.00895000  1.0 0.1395552752
H  H23  1  0.72293000  0.75313000  0.00895000  1.0 0.1395552752
H  H24  1  0.72293000  0.24687000  0.99105000  1.0 0.1395552752
H  H25  1  0.57572000  0.41511000  0.79152000  1.0 0.1336640486
H  H26  1  0.42428000  0.58489000  0.79152000  1.0 0.1336640486
H  H27  1  0.42428000  0.41511000  0.20848000  1.0 0.1336640486
H  H28  1  0.57572000  0.58489000  0.20848000  1.0 0.1336640486
H  H29  1  0.79152000  0.57572000  0.41511000  1.0 0.1336640486
H  H30  1  0.79152000  0.42428000  0.58489000  1.0 0.1336640486
H  H31  1  0.20848000  0.42428000  0.41511000  1.0 0.1336640486
H  H32  1  0.20848000  0.57572000  0.58489000  1.0 0.1336640486
H  H33  1  0.41511000  0.79152000  0.57572000  1.0 0.1336640486
H  H34  1  0.58489000  0.79152000  0.42428000  1.0 0.1336640486
H  H35  1  0.41511000  0.20848000  0.42428000  1.0 0.1336640486
H  H36  1  0.58489000  0.20848000  0.57572000  1.0 0.1336640486
H  H37  1  0.91511000  0.07572000  0.29152000  1.0 0.1336640486
H  H38  1  0.08489000  0.92428000  0.29152000  1.0 0.1336640486
H  H39  1  0.91511000  0.92428000  0.70848000  1.0 0.1336640486
H  H40  1  0.08489000  0.07572000  0.70848000  1.0 0.1336640486
H  H41  1  0.07572000  0.29152000  0.91511000  1.0 0.1336640486
H  H42  1  0.92428000  0.29152000  0.08489000  1.0 0.1336640486
H  H43  1  0.92428000  0.70848000  0.91511000  1.0 0.1336640486
H  H44  1  0.07572000  0.70848000  0.08489000  1.0 0.1336640486
H  H45  1  0.29152000  0.91511000  0.07572000  1.0 0.1336640486
H  H46  1  0.29152000  0.08489000  0.92428000  1.0 0.1336640486
H  H47  1  0.70848000  0.91511000  0.92428000  1.0 0.1336640486
H  H48  1  0.70848000  0.08489000  0.07572000  1.0 0.1336640486
H  H49  1  0.39329000  0.40599000  0.80175000  1.0 0.1395552752
H  H50  1  0.60671000  0.59401000  0.80175000  1.0 0.1395552752
H  H51  1  0.60671000  0.40599000  0.19825000  1.0 0.1395552752
H  H52  1  0.39329000  0.59401000  0.19825000  1.0 0.1395552752
H  H53  1  0.80175000  0.39329000  0.40599000  1.0 0.1395552752
H  H54  1  0.80175000  0.60671000  0.59401000  1.0 0.1395552752
H  H55  1  0.19825000  0.60671000  0.40599000  1.0 0.1395552752
H  H56  1  0.19825000  0.39329000  0.59401000  1.0 0.1395552752
H  H57  1  0.40599000  0.80175000  0.39329000  1.0 0.1395552752
H  H58  1  0.59401000  0.80175000  0.60671000  1.0 0.1395552752
H  H59  1  0.40599000  0.19825000  0.60671000  1.0 0.1395552752
H  H60  1  0.59401000  0.19825000  0.39329000  1.0 0.1395552752
H  H61  1  0.90599000  0.89329000  0.30175000  1.0 0.1395552752
H  H62  1  0.09401000  0.10671000  0.30175000  1.0 0.1395552752
H  H63  1  0.90599000  0.10671000  0.69825000  1.0 0.1395552752
H  H64  1  0.09401000  0.89329000  0.69825000  1.0 0.1395552752
H  H65  1  0.89329000  0.30175000  0.90599000  1.0 0.1395552752
H  H66  1  0.10671000  0.30175000  0.09401000  1.0 0.1395552752
H  H67  1  0.10671000  0.69825000  0.90599000  1.0 0.1395552752
H  H68  1  0.89329000  0.69825000  0.09401000  1.0 0.1395552752
H  H69  1  0.30175000  0.90599000  0.89329000  1.0 0.1395552752
H  H70  1  0.30175000  0.09401000  0.10671000  1.0 0.1395552752
H  H71  1  0.69825000  0.90599000  0.10671000  1.0 0.1395552752
H  H72  1  0.69825000  0.09401000  0.89329000  1.0 0.1395552752
C  C1  1  0.60410000  0.30040000  0.77770000  1.0 0.6043593611
C  C2  1  0.39590000  0.69960000  0.77770000  1.0 0.6043593611
C  C3  1  0.39590000  0.30040000  0.22230000  1.0 0.6043593611
C  C4  1  0.60410000  0.69960000  0.22230000  1.0 0.6043593611
C  C5  1  0.77770000  0.60410000  0.30040000  1.0 0.6043593611
C  C6  1  0.77770000  0.39590000  0.69960000  1.0 0.6043593611
C  C7  1  0.22230000  0.39590000  0.30040000  1.0 0.6043593611
C  C8  1  0.22230000  0.60410000  0.69960000  1.0 0.6043593611
C  C9  1  0.30040000  0.77770000  0.60410000  1.0 0.6043593611
C  C10  1  0.69960000  0.77770000  0.39590000  1.0 0.6043593611
C  C11  1  0.30040000  0.22230000  0.39590000  1.0 0.6043593611
C  C12  1  0.69960000  0.22230000  0.60410000  1.0 0.6043593611
C  C13  1  0.80040000  0.10410000  0.27770000  1.0 0.6043593611
C  C14  1  0.19960000  0.89590000  0.27770000  1.0 0.6043593611
C  C15  1  0.80040000  0.89590000  0.72230000  1.0 0.6043593611
C  C16  1  0.19960000  0.10410000  0.72230000  1.0 0.6043593611
C  C17  1  0.10410000  0.27770000  0.80040000  1.0 0.6043593611
C  C18  1  0.89590000  0.27770000  0.19960000  1.0 0.6043593611
C  C19  1  0.89590000  0.72230000  0.80040000  1.0 0.6043593611
C  C20  1  0.10410000  0.72230000  0.19960000  1.0 0.6043593611
C  C21  1  0.27770000  0.80040000  0.10410000  1.0 0.6043593611
C  C22  1  0.27770000  0.19960000  0.89590000  1.0 0.6043593611
C  C23  1  0.72230000  0.80040000  0.89590000  1.0 0.6043593611
C  C24  1  0.72230000  0.19960000  0.10410000  1.0 0.6043593611
C  C25  1  0.54320000  0.32890000  0.78370000  1.0 -0.0300915825
C  C26  1  0.45680000  0.67110000  0.78370000  1.0 -0.0300915825
C  C27  1  0.45680000  0.32890000  0.21630000  1.0 -0.0300915825
C  C28  1  0.54320000  0.67110000  0.21630000  1.0 -0.0300915825
C  C29  1  0.78370000  0.54320000  0.32890000  1.0 -0.0300915825
C  C30  1  0.78370000  0.45680000  0.67110000  1.0 -0.0300915825
C  C31  1  0.21630000  0.45680000  0.32890000  1.0 -0.0300915825
C  C32  1  0.21630000  0.54320000  0.67110000  1.0 -0.0300915825
C  C33  1  0.32890000  0.78370000  0.54320000  1.0 -0.0300915825
C  C34  1  0.67110000  0.78370000  0.45680000  1.0 -0.0300915825
C  C35  1  0.32890000  0.21630000  0.45680000  1.0 -0.0300915825
C  C36  1  0.67110000  0.21630000  0.54320000  1.0 -0.0300915825
C  C37  1  0.82890000  0.04320000  0.28370000  1.0 -0.0300915825
C  C38  1  0.17110000  0.95680000  0.28370000  1.0 -0.0300915825
C  C39  1  0.82890000  0.95680000  0.71630000  1.0 -0.0300915825
C  C40  1  0.17110000  0.04320000  0.71630000  1.0 -0.0300915825
C  C41  1  0.04320000  0.28370000  0.82890000  1.0 -0.0300915825
C  C42  1  0.95680000  0.28370000  0.17110000  1.0 -0.0300915825
C  C43  1  0.95680000  0.71630000  0.82890000  1.0 -0.0300915825
C  C44  1  0.04320000  0.71630000  0.17110000  1.0 -0.0300915825
C  C45  1  0.28370000  0.82890000  0.04320000  1.0 -0.0300915825
C  C46  1  0.28370000  0.17110000  0.95680000  1.0 -0.0300915825
C  C47  1  0.71630000  0.82890000  0.95680000  1.0 -0.0300915825
C  C48  1  0.71630000  0.17110000  0.04320000  1.0 -0.0300915825
C  C49  1  0.48950000  0.29510000  0.78300000  1.0 -0.0895543055
C  C50  1  0.51050000  0.70490000  0.78300000  1.0 -0.0895543055
C  C51  1  0.51050000  0.29510000  0.21700000  1.0 -0.0895543055
C  C52  1  0.48950000  0.70490000  0.21700000  1.0 -0.0895543055
C  C53  1  0.78300000  0.48950000  0.29510000  1.0 -0.0895543055
C  C54  1  0.78300000  0.51050000  0.70490000  1.0 -0.0895543055
C  C55  1  0.21700000  0.51050000  0.29510000  1.0 -0.0895543055
C  C56  1  0.21700000  0.48950000  0.70490000  1.0 -0.0895543055
C  C57  1  0.29510000  0.78300000  0.48950000  1.0 -0.0895543055
C  C58  1  0.70490000  0.78300000  0.51050000  1.0 -0.0895543055
C  C59  1  0.29510000  0.21700000  0.51050000  1.0 -0.0895543055
C  C60  1  0.70490000  0.21700000  0.48950000  1.0 -0.0895543055
C  C61  1  0.79510000  0.98950000  0.28300000  1.0 -0.0895543055
C  C62  1  0.20490000  0.01050000  0.28300000  1.0 -0.0895543055
C  C63  1  0.79510000  0.01050000  0.71700000  1.0 -0.0895543055
C  C64  1  0.20490000  0.98950000  0.71700000  1.0 -0.0895543055
C  C65  1  0.98950000  0.28300000  0.79510000  1.0 -0.0895543055
C  C66  1  0.01050000  0.28300000  0.20490000  1.0 -0.0895543055
C  C67  1  0.01050000  0.71700000  0.79510000  1.0 -0.0895543055
C  C68  1  0.98950000  0.71700000  0.20490000  1.0 -0.0895543055
C  C69  1  0.28300000  0.79510000  0.98950000  1.0 -0.0895543055
C  C70  1  0.28300000  0.20490000  0.01050000  1.0 -0.0895543055
C  C71  1  0.71700000  0.79510000  0.01050000  1.0 -0.0895543055
C  C72  1  0.71700000  0.20490000  0.98950000  1.0 -0.0895543055
C  C73  1  0.43370000  0.32390000  0.79100000  1.0 -0.0186748908
C  C74  1  0.56630000  0.67610000  0.79100000  1.0 -0.0186748908
C  C75  1  0.56630000  0.32390000  0.20900000  1.0 -0.0186748908
C  C76  1  0.43370000  0.67610000  0.20900000  1.0 -0.0186748908
C  C77  1  0.79100000  0.43370000  0.32390000  1.0 -0.0186748908
C  C78  1  0.79100000  0.56630000  0.67610000  1.0 -0.0186748908
C  C79  1  0.20900000  0.56630000  0.32390000  1.0 -0.0186748908
C  C80  1  0.20900000  0.43370000  0.67610000  1.0 -0.0186748908
C  C81  1  0.32390000  0.79100000  0.43370000  1.0 -0.0186748908
C  C82  1  0.67610000  0.79100000  0.56630000  1.0 -0.0186748908
C  C83  1  0.32390000  0.20900000  0.56630000  1.0 -0.0186748908
C  C84  1  0.67610000  0.20900000  0.43370000  1.0 -0.0186748908
C  C85  1  0.82390000  0.93370000  0.29100000  1.0 -0.0186748908
C  C86  1  0.17610000  0.06630000  0.29100000  1.0 -0.0186748908
C  C87  1  0.82390000  0.06630000  0.70900000  1.0 -0.0186748908
C  C88  1  0.17610000  0.93370000  0.70900000  1.0 -0.0186748908
C  C89  1  0.93370000  0.29100000  0.82390000  1.0 -0.0186748908
C  C90  1  0.06630000  0.29100000  0.17610000  1.0 -0.0186748908
C  C91  1  0.06630000  0.70900000  0.82390000  1.0 -0.0186748908
C  C92  1  0.93370000  0.70900000  0.17610000  1.0 -0.0186748908
C  C93  1  0.29100000  0.82390000  0.93370000  1.0 -0.0186748908
C  C94  1  0.29100000  0.17610000  0.06630000  1.0 -0.0186748908
C  C95  1  0.70900000  0.82390000  0.06630000  1.0 -0.0186748908
C  C96  1  0.70900000  0.17610000  0.93370000  1.0 -0.0186748908
C  C97  1  0.54000000  0.39220000  0.79000000  1.0 -0.1372663853
C  C98  1  0.46000000  0.60780000  0.79000000  1.0 -0.1372663853
C  C99  1  0.46000000  0.39220000  0.21000000  1.0 -0.1372663853
C  C100  1  0.54000000  0.60780000  0.21000000  1.0 -0.1372663853
C  C101  1  0.79000000  0.54000000  0.39220000  1.0 -0.1372663853
C  C102  1  0.79000000  0.46000000  0.60780000  1.0 -0.1372663853
C  C103  1  0.21000000  0.46000000  0.39220000  1.0 -0.1372663853
C  C104  1  0.21000000  0.54000000  0.60780000  1.0 -0.1372663853
C  C105  1  0.39220000  0.79000000  0.54000000  1.0 -0.1372663853
C  C106  1  0.60780000  0.79000000  0.46000000  1.0 -0.1372663853
C  C107  1  0.39220000  0.21000000  0.46000000  1.0 -0.1372663853
C  C108  1  0.60780000  0.21000000  0.54000000  1.0 -0.1372663853
C  C109  1  0.89220000  0.04000000  0.29000000  1.0 -0.1372663853
C  C110  1  0.10780000  0.96000000  0.29000000  1.0 -0.1372663853
C  C111  1  0.89220000  0.96000000  0.71000000  1.0 -0.1372663853
C  C112  1  0.10780000  0.04000000  0.71000000  1.0 -0.1372663853
C  C113  1  0.04000000  0.29000000  0.89220000  1.0 -0.1372663853
C  C114  1  0.96000000  0.29000000  0.10780000  1.0 -0.1372663853
C  C115  1  0.96000000  0.71000000  0.89220000  1.0 -0.1372663853
C  C116  1  0.04000000  0.71000000  0.10780000  1.0 -0.1372663853
C  C117  1  0.29000000  0.89220000  0.04000000  1.0 -0.1372663853
C  C118  1  0.29000000  0.10780000  0.96000000  1.0 -0.1372663853
C  C119  1  0.71000000  0.89220000  0.96000000  1.0 -0.1372663853
C  C120  1  0.71000000  0.10780000  0.04000000  1.0 -0.1372663853
C  C121  1  0.37490000  0.28920000  0.79290000  1.0 0.6085489045
C  C122  1  0.62510000  0.71080000  0.79290000  1.0 0.6085489045
C  C123  1  0.62510000  0.28920000  0.20710000  1.0 0.6085489045
C  C124  1  0.37490000  0.71080000  0.20710000  1.0 0.6085489045
C  C125  1  0.79290000  0.37490000  0.28920000  1.0 0.6085489045
C  C126  1  0.79290000  0.62510000  0.71080000  1.0 0.6085489045
C  C127  1  0.20710000  0.62510000  0.28920000  1.0 0.6085489045
C  C128  1  0.20710000  0.37490000  0.71080000  1.0 0.6085489045
C  C129  1  0.28920000  0.79290000  0.37490000  1.0 0.6085489045
C  C130  1  0.71080000  0.79290000  0.62510000  1.0 0.6085489045
C  C131  1  0.28920000  0.20710000  0.62510000  1.0 0.6085489045
C  C132  1  0.71080000  0.20710000  0.37490000  1.0 0.6085489045
C  C133  1  0.78920000  0.87490000  0.29290000  1.0 0.6085489045
C  C134  1  0.21080000  0.12510000  0.29290000  1.0 0.6085489045
C  C135  1  0.78920000  0.12510000  0.70710000  1.0 0.6085489045
C  C136  1  0.21080000  0.87490000  0.70710000  1.0 0.6085489045
C  C137  1  0.87490000  0.29290000  0.78920000  1.0 0.6085489045
C  C138  1  0.12510000  0.29290000  0.21080000  1.0 0.6085489045
C  C139  1  0.12510000  0.70710000  0.78920000  1.0 0.6085489045
C  C140  1  0.87490000  0.70710000  0.21080000  1.0 0.6085489045
C  C141  1  0.29290000  0.78920000  0.87490000  1.0 0.6085489045
C  C142  1  0.29290000  0.21080000  0.12510000  1.0 0.6085489045
C  C143  1  0.70710000  0.78920000  0.12510000  1.0 0.6085489045
C  C144  1  0.70710000  0.21080000  0.87490000  1.0 0.6085489045
C  C145  1  0.43080000  0.38680000  0.79650000  1.0 -0.1372663853
C  C146  1  0.56920000  0.61320000  0.79650000  1.0 -0.1372663853
C  C147  1  0.56920000  0.38680000  0.20350000  1.0 -0.1372663853
C  C148  1  0.43080000  0.61320000  0.20350000  1.0 -0.1372663853
C  C149  1  0.79650000  0.43080000  0.38680000  1.0 -0.1372663853
C  C150  1  0.79650000  0.56920000  0.61320000  1.0 -0.1372663853
C  C151  1  0.20350000  0.56920000  0.38680000  1.0 -0.1372663853
C  C152  1  0.20350000  0.43080000  0.61320000  1.0 -0.1372663853
C  C153  1  0.38680000  0.79650000  0.43080000  1.0 -0.1372663853
C  C154  1  0.61320000  0.79650000  0.56920000  1.0 -0.1372663853
C  C155  1  0.38680000  0.20350000  0.56920000  1.0 -0.1372663853
C  C156  1  0.61320000  0.20350000  0.43080000  1.0 -0.1372663853
C  C157  1  0.88680000  0.93080000  0.29650000  1.0 -0.1372663853
C  C158  1  0.11320000  0.06920000  0.29650000  1.0 -0.1372663853
C  C159  1  0.88680000  0.06920000  0.70350000  1.0 -0.1372663853
C  C160  1  0.11320000  0.93080000  0.70350000  1.0 -0.1372663853
C  C161  1  0.93080000  0.29650000  0.88680000  1.0 -0.1372663853
C  C162  1  0.06920000  0.29650000  0.11320000  1.0 -0.1372663853
C  C163  1  0.06920000  0.70350000  0.88680000  1.0 -0.1372663853
C  C164  1  0.93080000  0.70350000  0.11320000  1.0 -0.1372663853
C  C165  1  0.29650000  0.88680000  0.93080000  1.0 -0.1372663853
C  C166  1  0.29650000  0.11320000  0.06920000  1.0 -0.1372663853
C  C167  1  0.70350000  0.88680000  0.06920000  1.0 -0.1372663853
C  C168  1  0.70350000  0.11320000  0.93080000  1.0 -0.1372663853
C  C169  1  0.48380000  0.42120000  0.79410000  1.0 0.1560885174
C  C170  1  0.51620000  0.57880000  0.79410000  1.0 0.1560885174
C  C171  1  0.51620000  0.42120000  0.20590000  1.0 0.1560885174
C  C172  1  0.48380000  0.57880000  0.20590000  1.0 0.1560885174
C  C173  1  0.79410000  0.48380000  0.42120000  1.0 0.1560885174
C  C174  1  0.79410000  0.51620000  0.57880000  1.0 0.1560885174
C  C175  1  0.20590000  0.51620000  0.42120000  1.0 0.1560885174
C  C176  1  0.20590000  0.48380000  0.57880000  1.0 0.1560885174
C  C177  1  0.42120000  0.79410000  0.48380000  1.0 0.1560885174
C  C178  1  0.57880000  0.79410000  0.51620000  1.0 0.1560885174
C  C179  1  0.42120000  0.20590000  0.51620000  1.0 0.1560885174
C  C180  1  0.57880000  0.20590000  0.48380000  1.0 0.1560885174
C  C181  1  0.92120000  0.98380000  0.29410000  1.0 0.1560885174
C  C182  1  0.07880000  0.01620000  0.29410000  1.0 0.1560885174
C  C183  1  0.92120000  0.01620000  0.70590000  1.0 0.1560885174
C  C184  1  0.07880000  0.98380000  0.70590000  1.0 0.1560885174
C  C185  1  0.98380000  0.29410000  0.92120000  1.0 0.1560885174
C  C186  1  0.01620000  0.29410000  0.07880000  1.0 0.1560885174
C  C187  1  0.01620000  0.70590000  0.92120000  1.0 0.1560885174
C  C188  1  0.98380000  0.70590000  0.07880000  1.0 0.1560885174
C  C189  1  0.29410000  0.92120000  0.98380000  1.0 0.1560885174
C  C190  1  0.29410000  0.07880000  0.01620000  1.0 0.1560885174
C  C191  1  0.70590000  0.92120000  0.01620000  1.0 0.1560885174
C  C192  1  0.70590000  0.07880000  0.98380000  1.0 0.1560885174
N  N1  1  0.47590000  0.48580000  0.79690000  1.0 -0.1203807722
N  N2  1  0.52410000  0.51420000  0.79690000  1.0 -0.1203807722
N  N3  1  0.52410000  0.48580000  0.20310000  1.0 -0.1203807722
N  N4  1  0.47590000  0.51420000  0.20310000  1.0 -0.1203807722
N  N5  1  0.79690000  0.47590000  0.48580000  1.0 -0.1203807722
N  N6  1  0.79690000  0.52410000  0.51420000  1.0 -0.1203807722
N  N7  1  0.20310000  0.52410000  0.48580000  1.0 -0.1203807722
N  N8  1  0.20310000  0.47590000  0.51420000  1.0 -0.1203807722
N  N9  1  0.48580000  0.79690000  0.47590000  1.0 -0.1203807722
N  N10  1  0.51420000  0.79690000  0.52410000  1.0 -0.1203807722
N  N11  1  0.48580000  0.20310000  0.52410000  1.0 -0.1203807722
N  N12  1  0.51420000  0.20310000  0.47590000  1.0 -0.1203807722
N  N13  1  0.98580000  0.97590000  0.29690000  1.0 -0.1203807722
N  N14  1  0.01420000  0.02410000  0.29690000  1.0 -0.1203807722
N  N15  1  0.98580000  0.02410000  0.70310000  1.0 -0.1203807722
N  N16  1  0.01420000  0.97590000  0.70310000  1.0 -0.1203807722
N  N17  1  0.97590000  0.29690000  0.98580000  1.0 -0.1203807722
N  N18  1  0.02410000  0.29690000  0.01420000  1.0 -0.1203807722
N  N19  1  0.02410000  0.70310000  0.98580000  1.0 -0.1203807722
N  N20  1  0.97590000  0.70310000  0.01420000  1.0 -0.1203807722
N  N21  1  0.29690000  0.98580000  0.97590000  1.0 -0.1203807722
N  N22  1  0.29690000  0.01420000  0.02410000  1.0 -0.1203807722
N  N23  1  0.70310000  0.98580000  0.02410000  1.0 -0.1203807722
N  N24  1  0.70310000  0.01420000  0.97590000  1.0 -0.1203807722
O  O1  1  0.24068000  0.24068000  0.75932000  1.0 -0.8264739488
O  O2  1  0.75932000  0.75932000  0.75932000  1.0 -0.8264739488
O  O3  1  0.75932000  0.24068000  0.24068000  1.0 -0.8264739488
O  O4  1  0.24068000  0.75932000  0.24068000  1.0 -0.8264739488
O  O5  1  0.74068000  0.74068000  0.25932000  1.0 -0.8264739488
O  O6  1  0.25932000  0.25932000  0.25932000  1.0 -0.8264739488
O  O7  1  0.74068000  0.25932000  0.74068000  1.0 -0.8264739488
O  O8  1  0.25932000  0.74068000  0.74068000  1.0 -0.8264739488
O  O9  1  0.64878000  0.33168000  0.79590000  1.0 -0.5389250281
O  O10  1  0.35122000  0.66832000  0.79590000  1.0 -0.5389250281
O  O11  1  0.35122000  0.33168000  0.20410000  1.0 -0.5389250281
O  O12  1  0.64878000  0.66832000  0.20410000  1.0 -0.5389250281
O  O13  1  0.79590000  0.64878000  0.33168000  1.0 -0.5389250281
O  O14  1  0.79590000  0.35122000  0.66832000  1.0 -0.5389250281
O  O15  1  0.20410000  0.35122000  0.33168000  1.0 -0.5389250281
O  O16  1  0.20410000  0.64878000  0.66832000  1.0 -0.5389250281
O  O17  1  0.33168000  0.79590000  0.64878000  1.0 -0.5389250281
O  O18  1  0.66832000  0.79590000  0.35122000  1.0 -0.5389250281
O  O19  1  0.33168000  0.20410000  0.35122000  1.0 -0.5389250281
O  O20  1  0.66832000  0.20410000  0.64878000  1.0 -0.5389250281
O  O21  1  0.83168000  0.14878000  0.29590000  1.0 -0.5389250281
O  O22  1  0.16832000  0.85122000  0.29590000  1.0 -0.5389250281
O  O23  1  0.83168000  0.85122000  0.70410000  1.0 -0.5389250281
O  O24  1  0.16832000  0.14878000  0.70410000  1.0 -0.5389250281
O  O25  1  0.14878000  0.29590000  0.83168000  1.0 -0.5389250281
O  O26  1  0.85122000  0.29590000  0.16832000  1.0 -0.5389250281
O  O27  1  0.85122000  0.70410000  0.83168000  1.0 -0.5389250281
O  O28  1  0.14878000  0.70410000  0.16832000  1.0 -0.5389250281
O  O29  1  0.29590000  0.83168000  0.14878000  1.0 -0.5389250281
O  O30  1  0.29590000  0.16832000  0.85122000  1.0 -0.5389250281
O  O31  1  0.70410000  0.83168000  0.85122000  1.0 -0.5389250281
O  O32  1  0.70410000  0.16832000  0.14878000  1.0 -0.5389250281
O  O33  1  0.60661000  0.24760000  0.75535000  1.0 -0.5320999411
O  O34  1  0.39339000  0.75240000  0.75535000  1.0 -0.5320999411
O  O35  1  0.39339000  0.24760000  0.24465000  1.0 -0.5320999411
O  O36  1  0.60661000  0.75240000  0.24465000  1.0 -0.5320999411
O  O37  1  0.75535000  0.60661000  0.24760000  1.0 -0.5320999411
O  O38  1  0.75535000  0.39339000  0.75240000  1.0 -0.5320999411
O  O39  1  0.24465000  0.39339000  0.24760000  1.0 -0.5320999411
O  O40  1  0.24465000  0.60661000  0.75240000  1.0 -0.5320999411
O  O41  1  0.24760000  0.75535000  0.60661000  1.0 -0.5320999411
O  O42  1  0.75240000  0.75535000  0.39339000  1.0 -0.5320999411
O  O43  1  0.24760000  0.24465000  0.39339000  1.0 -0.5320999411
O  O44  1  0.75240000  0.24465000  0.60661000  1.0 -0.5320999411
O  O45  1  0.74760000  0.10661000  0.25535000  1.0 -0.5320999411
O  O46  1  0.25240000  0.89339000  0.25535000  1.0 -0.5320999411
O  O47  1  0.74760000  0.89339000  0.74465000  1.0 -0.5320999411
O  O48  1  0.25240000  0.10661000  0.74465000  1.0 -0.5320999411
O  O49  1  0.10661000  0.25535000  0.74760000  1.0 -0.5320999411
O  O50  1  0.89339000  0.25535000  0.25240000  1.0 -0.5320999411
O  O51  1  0.89339000  0.74465000  0.74760000  1.0 -0.5320999411
O  O52  1  0.10661000  0.74465000  0.25240000  1.0 -0.5320999411
O  O53  1  0.25535000  0.74760000  0.10661000  1.0 -0.5320999411
O  O54  1  0.25535000  0.25240000  0.89339000  1.0 -0.5320999411
O  O55  1  0.74465000  0.74760000  0.89339000  1.0 -0.5320999411
O  O56  1  0.74465000  0.25240000  0.10661000  1.0 -0.5320999411
O  O57  1  0.37518000  0.23417000  0.77420000  1.0 -0.5320999411
O  O58  1  0.62482000  0.76583000  0.77420000  1.0 -0.5320999411
O  O59  1  0.62482000  0.23417000  0.22580000  1.0 -0.5320999411
O  O60  1  0.37518000  0.76583000  0.22580000  1.0 -0.5320999411
O  O61  1  0.77420000  0.37518000  0.23417000  1.0 -0.5320999411
O  O62  1  0.77420000  0.62482000  0.76583000  1.0 -0.5320999411
O  O63  1  0.22580000  0.62482000  0.23417000  1.0 -0.5320999411
O  O64  1  0.22580000  0.37518000  0.76583000  1.0 -0.5320999411
O  O65  1  0.23417000  0.77420000  0.37518000  1.0 -0.5320999411
O  O66  1  0.76583000  0.77420000  0.62482000  1.0 -0.5320999411
O  O67  1  0.23417000  0.22580000  0.62482000  1.0 -0.5320999411
O  O68  1  0.76583000  0.22580000  0.37518000  1.0 -0.5320999411
O  O69  1  0.73417000  0.87518000  0.27420000  1.0 -0.5320999411
O  O70  1  0.26583000  0.12482000  0.27420000  1.0 -0.5320999411
O  O71  1  0.73417000  0.12482000  0.72580000  1.0 -0.5320999411
O  O72  1  0.26583000  0.87518000  0.72580000  1.0 -0.5320999411
O  O73  1  0.87518000  0.27420000  0.73417000  1.0 -0.5320999411
O  O74  1  0.12482000  0.27420000  0.26583000  1.0 -0.5320999411
O  O75  1  0.12482000  0.72580000  0.73417000  1.0 -0.5320999411
O  O76  1  0.87518000  0.72580000  0.26583000  1.0 -0.5320999411
O  O77  1  0.27420000  0.73417000  0.87518000  1.0 -0.5320999411
O  O78  1  0.27420000  0.26583000  0.12482000  1.0 -0.5320999411
O  O79  1  0.72580000  0.73417000  0.12482000  1.0 -0.5320999411
O  O80  1  0.72580000  0.26583000  0.87518000  1.0 -0.5320999411
O  O81  1  0.32946000  0.31793000  0.81300000  1.0 -0.5389250281
O  O82  1  0.67054000  0.68207000  0.81300000  1.0 -0.5389250281
O  O83  1  0.67054000  0.31793000  0.18700000  1.0 -0.5389250281
O  O84  1  0.32946000  0.68207000  0.18700000  1.0 -0.5389250281
O  O85  1  0.81300000  0.32946000  0.31793000  1.0 -0.5389250281
O  O86  1  0.81300000  0.67054000  0.68207000  1.0 -0.5389250281
O  O87  1  0.18700000  0.67054000  0.31793000  1.0 -0.5389250281
O  O88  1  0.18700000  0.32946000  0.68207000  1.0 -0.5389250281
O  O89  1  0.31793000  0.81300000  0.32946000  1.0 -0.5389250281
O  O90  1  0.68207000  0.81300000  0.67054000  1.0 -0.5389250281
O  O91  1  0.31793000  0.18700000  0.67054000  1.0 -0.5389250281
O  O92  1  0.68207000  0.18700000  0.32946000  1.0 -0.5389250281
O  O93  1  0.81793000  0.82946000  0.31300000  1.0 -0.5389250281
O  O94  1  0.18207000  0.17054000  0.31300000  1.0 -0.5389250281
O  O95  1  0.81793000  0.17054000  0.68700000  1.0 -0.5389250281
O  O96  1  0.18207000  0.82946000  0.68700000  1.0 -0.5389250281
O  O97  1  0.82946000  0.31300000  0.81793000  1.0 -0.5389250281
O  O98  1  0.17054000  0.31300000  0.18207000  1.0 -0.5389250281
O  O99  1  0.17054000  0.68700000  0.81793000  1.0 -0.5389250281
O  O100  1  0.82946000  0.68700000  0.18207000  1.0 -0.5389250281
O  O101  1  0.31300000  0.81793000  0.82946000  1.0 -0.5389250281
O  O102  1  0.31300000  0.18207000  0.17054000  1.0 -0.5389250281
O  O103  1  0.68700000  0.81793000  0.17054000  1.0 -0.5389250281
O  O104  1  0.68700000  0.18207000  0.82946000  1.0 -0.5389250281
