# DDEC6 charges by PACMAN v1.1 (https://github.com/mtap-research/PACMAN-charge/)
data_LIDDAH_ASR_pacman
_symmetry_space_group_name_H-M   'P 1'
_cell_length_a   21.89800000
_cell_length_b   21.89800000
_cell_length_c   21.89800000
_cell_angle_alpha   90.00000000
_cell_angle_beta   90.00000000
_cell_angle_gamma   90.00000000
_symmetry_Int_Tables_number   1
_chemical_formula_structural   Fe3H9C24N3O13
_chemical_formula_sum   'Fe24 H72 C192 N24 O104'
_cell_volume   10500.58160279
_cell_formula_units_Z   8
loop_
 _symmetry_equiv_pos_site_id
 _symmetry_equiv_pos_as_xyz
  1  'x, y, z'
loop_
 _atom_site_type_symbol
 _atom_site_label
 _atom_site_symmetry_multiplicity
 _atom_site_fract_x
 _atom_site_fract_y
 _atom_site_fract_z
 _atom_site_occupancy
 _atom_site_charge
Fe  Fe1  1  0.76024000  0.30158000  0.18256000  1.0 1.1255518819
Fe  Fe2  1  0.23976000  0.69842000  0.18256000  1.0 1.1255518819
Fe  Fe3  1  0.23976000  0.30158000  0.81744000  1.0 1.1244361095
Fe  Fe4  1  0.76024000  0.69842000  0.81744000  1.0 1.1255518819
Fe  Fe5  1  0.18256000  0.76024000  0.30158000  1.0 1.1255518819
Fe  Fe6  1  0.18256000  0.23976000  0.69842000  1.0 1.1244361095
Fe  Fe7  1  0.81744000  0.23976000  0.30158000  1.0 1.1255518819
Fe  Fe8  1  0.81744000  0.76024000  0.69842000  1.0 1.1255518819
Fe  Fe9  1  0.30158000  0.18256000  0.76024000  1.0 1.1244361095
Fe  Fe10  1  0.69842000  0.18256000  0.23976000  1.0 1.1255518819
Fe  Fe11  1  0.30158000  0.81744000  0.23976000  1.0 1.1255518819
Fe  Fe12  1  0.69842000  0.81744000  0.76024000  1.0 1.1255518819
Fe  Fe13  1  0.80158000  0.26024000  0.68256000  1.0 1.1255518819
Fe  Fe14  1  0.19842000  0.73976000  0.68256000  1.0 1.1244361095
Fe  Fe15  1  0.80158000  0.73976000  0.31744000  1.0 1.1255518819
Fe  Fe16  1  0.19842000  0.26024000  0.31744000  1.0 1.1255518819
Fe  Fe17  1  0.26024000  0.68256000  0.80158000  1.0 1.1244361095
Fe  Fe18  1  0.73976000  0.68256000  0.19842000  1.0 1.1255518819
Fe  Fe19  1  0.73976000  0.31744000  0.80158000  1.0 1.1255518819
Fe  Fe20  1  0.26024000  0.31744000  0.19842000  1.0 1.1255518819
Fe  Fe21  1  0.68256000  0.80158000  0.26024000  1.0 1.1255518819
Fe  Fe22  1  0.68256000  0.19842000  0.73976000  1.0 1.1255518819
Fe  Fe23  1  0.31744000  0.80158000  0.73976000  1.0 1.1244361095
Fe  Fe24  1  0.31744000  0.19842000  0.26024000  1.0 1.1255518819
H  H1  1  0.77759000  0.49121000  0.25313000  1.0 0.1414405735
H  H2  1  0.22241000  0.50879000  0.25313000  1.0 0.1414405735
H  H3  1  0.22241000  0.49121000  0.74687000  1.0 0.1414405735
H  H4  1  0.77759000  0.50879000  0.74687000  1.0 0.1414405735
H  H5  1  0.25313000  0.77759000  0.49121000  1.0 0.1414405735
H  H6  1  0.25313000  0.22241000  0.50879000  1.0 0.1414405735
H  H7  1  0.74687000  0.22241000  0.49121000  1.0 0.1414405735
H  H8  1  0.74687000  0.77759000  0.50879000  1.0 0.1414405735
H  H9  1  0.49121000  0.25313000  0.77759000  1.0 0.1414405735
H  H10  1  0.50879000  0.25313000  0.22241000  1.0 0.1414405735
H  H11  1  0.49121000  0.74687000  0.22241000  1.0 0.1414405735
H  H12  1  0.50879000  0.74687000  0.77759000  1.0 0.1414405735
H  H13  1  0.99121000  0.27759000  0.75313000  1.0 0.1414405735
H  H14  1  0.00879000  0.72241000  0.75313000  1.0 0.1414405735
H  H15  1  0.99121000  0.72241000  0.24687000  1.0 0.1414405735
H  H16  1  0.00879000  0.27759000  0.24687000  1.0 0.1414405735
H  H17  1  0.27759000  0.75313000  0.99121000  1.0 0.1414405735
H  H18  1  0.72241000  0.75313000  0.00879000  1.0 0.1414405735
H  H19  1  0.72241000  0.24687000  0.99121000  1.0 0.1414405735
H  H20  1  0.27759000  0.24687000  0.00879000  1.0 0.1414405735
H  H21  1  0.75313000  0.99121000  0.27759000  1.0 0.1414405735
H  H22  1  0.75313000  0.00879000  0.72241000  1.0 0.1414405735
H  H23  1  0.24687000  0.99121000  0.72241000  1.0 0.1414405735
H  H24  1  0.24687000  0.00879000  0.27759000  1.0 0.1414405735
H  H25  1  0.78898000  0.57678000  0.41488000  1.0 0.1414405735
H  H26  1  0.21102000  0.42322000  0.41488000  1.0 0.1414405735
H  H27  1  0.21102000  0.57678000  0.58512000  1.0 0.1414405735
H  H28  1  0.78898000  0.42322000  0.58512000  1.0 0.1414405735
H  H29  1  0.41488000  0.78898000  0.57678000  1.0 0.1414405735
H  H30  1  0.41488000  0.21102000  0.42322000  1.0 0.1414405735
H  H31  1  0.58512000  0.21102000  0.57678000  1.0 0.1414405735
H  H32  1  0.58512000  0.78898000  0.42322000  1.0 0.1414405735
H  H33  1  0.57678000  0.41488000  0.78898000  1.0 0.1414405735
H  H34  1  0.42322000  0.41488000  0.21102000  1.0 0.1414405735
H  H35  1  0.57678000  0.58512000  0.21102000  1.0 0.1414405735
H  H36  1  0.42322000  0.58512000  0.78898000  1.0 0.1414405735
H  H37  1  0.07678000  0.28898000  0.91488000  1.0 0.1414405735
H  H38  1  0.92322000  0.71102000  0.91488000  1.0 0.1414405735
H  H39  1  0.07678000  0.71102000  0.08512000  1.0 0.1414405735
H  H40  1  0.92322000  0.28898000  0.08512000  1.0 0.1414405735
H  H41  1  0.28898000  0.91488000  0.07678000  1.0 0.1414405735
H  H42  1  0.71102000  0.91488000  0.92322000  1.0 0.1414405735
H  H43  1  0.71102000  0.08512000  0.07678000  1.0 0.1414405735
H  H44  1  0.28898000  0.08512000  0.92322000  1.0 0.1414405735
H  H45  1  0.91488000  0.07678000  0.28898000  1.0 0.1414405735
H  H46  1  0.91488000  0.92322000  0.71102000  1.0 0.1414405735
H  H47  1  0.08512000  0.07678000  0.71102000  1.0 0.1414405735
H  H48  1  0.08512000  0.92322000  0.28898000  1.0 0.1414405735
H  H49  1  0.80065000  0.39467000  0.40645000  1.0 0.1414405735
H  H50  1  0.19935000  0.60533000  0.40645000  1.0 0.1414405735
H  H51  1  0.19935000  0.39467000  0.59355000  1.0 0.1414405735
H  H52  1  0.80065000  0.60533000  0.59355000  1.0 0.1414405735
H  H53  1  0.40645000  0.80065000  0.39467000  1.0 0.1414405735
H  H54  1  0.40645000  0.19935000  0.60533000  1.0 0.1414405735
H  H55  1  0.59355000  0.19935000  0.39467000  1.0 0.1414405735
H  H56  1  0.59355000  0.80065000  0.60533000  1.0 0.1414405735
H  H57  1  0.39467000  0.40645000  0.80065000  1.0 0.1414405735
H  H58  1  0.60533000  0.40645000  0.19935000  1.0 0.1414405735
H  H59  1  0.39467000  0.59355000  0.19935000  1.0 0.1414405735
H  H60  1  0.60533000  0.59355000  0.80065000  1.0 0.1414405735
H  H61  1  0.89467000  0.30065000  0.90645000  1.0 0.1414405735
H  H62  1  0.10533000  0.69935000  0.90645000  1.0 0.1414405735
H  H63  1  0.89467000  0.69935000  0.09355000  1.0 0.1414405735
H  H64  1  0.10533000  0.30065000  0.09355000  1.0 0.1414405735
H  H65  1  0.30065000  0.90645000  0.89467000  1.0 0.1414405735
H  H66  1  0.69935000  0.90645000  0.10533000  1.0 0.1414405735
H  H67  1  0.69935000  0.09355000  0.89467000  1.0 0.1414405735
H  H68  1  0.30065000  0.09355000  0.10533000  1.0 0.1414405735
H  H69  1  0.90645000  0.89467000  0.30065000  1.0 0.1414405735
H  H70  1  0.90645000  0.10533000  0.69935000  1.0 0.1414405735
H  H71  1  0.09355000  0.89467000  0.69935000  1.0 0.1414405735
H  H72  1  0.09355000  0.10533000  0.30065000  1.0 0.1414405735
C  C1  1  0.77810000  0.60440000  0.30010000  1.0 0.602168142
C  C2  1  0.22190000  0.39560000  0.30010000  1.0 0.602168142
C  C3  1  0.22190000  0.60440000  0.69990000  1.0 0.602168142
C  C4  1  0.77810000  0.39560000  0.69990000  1.0 0.602168142
C  C5  1  0.30010000  0.77810000  0.60440000  1.0 0.602168142
C  C6  1  0.30010000  0.22190000  0.39560000  1.0 0.602168142
C  C7  1  0.69990000  0.22190000  0.60440000  1.0 0.602168142
C  C8  1  0.69990000  0.77810000  0.39560000  1.0 0.602168142
C  C9  1  0.60440000  0.30010000  0.77810000  1.0 0.602168142
C  C10  1  0.39560000  0.30010000  0.22190000  1.0 0.602168142
C  C11  1  0.60440000  0.69990000  0.22190000  1.0 0.602168142
C  C12  1  0.39560000  0.69990000  0.77810000  1.0 0.602168142
C  C13  1  0.10440000  0.27810000  0.80010000  1.0 0.602168142
C  C14  1  0.89560000  0.72190000  0.80010000  1.0 0.602168142
C  C15  1  0.10440000  0.72190000  0.19990000  1.0 0.602168142
C  C16  1  0.89560000  0.27810000  0.19990000  1.0 0.602168142
C  C17  1  0.27810000  0.80010000  0.10440000  1.0 0.602168142
C  C18  1  0.72190000  0.80010000  0.89560000  1.0 0.602168142
C  C19  1  0.72190000  0.19990000  0.10440000  1.0 0.602168142
C  C20  1  0.27810000  0.19990000  0.89560000  1.0 0.602168142
C  C21  1  0.80010000  0.10440000  0.27810000  1.0 0.602168142
C  C22  1  0.80010000  0.89560000  0.72190000  1.0 0.602168142
C  C23  1  0.19990000  0.10440000  0.72190000  1.0 0.602168142
C  C24  1  0.19990000  0.89560000  0.27810000  1.0 0.602168142
C  C25  1  0.78400000  0.54350000  0.32950000  1.0 -0.0200682216
C  C26  1  0.21600000  0.45650000  0.32950000  1.0 -0.0200682216
C  C27  1  0.21600000  0.54350000  0.67050000  1.0 -0.0200682216
C  C28  1  0.78400000  0.45650000  0.67050000  1.0 -0.0200682216
C  C29  1  0.32950000  0.78400000  0.54350000  1.0 -0.0200682216
C  C30  1  0.32950000  0.21600000  0.45650000  1.0 -0.0200682216
C  C31  1  0.67050000  0.21600000  0.54350000  1.0 -0.0200682216
C  C32  1  0.67050000  0.78400000  0.45650000  1.0 -0.0200682216
C  C33  1  0.54350000  0.32950000  0.78400000  1.0 -0.0200682216
C  C34  1  0.45650000  0.32950000  0.21600000  1.0 -0.0200682216
C  C35  1  0.54350000  0.67050000  0.21600000  1.0 -0.0200682216
C  C36  1  0.45650000  0.67050000  0.78400000  1.0 -0.0200682216
C  C37  1  0.04350000  0.28400000  0.82950000  1.0 -0.0200682216
C  C38  1  0.95650000  0.71600000  0.82950000  1.0 -0.0200682216
C  C39  1  0.04350000  0.71600000  0.17050000  1.0 -0.0200682216
C  C40  1  0.95650000  0.28400000  0.17050000  1.0 -0.0200682216
C  C41  1  0.28400000  0.82950000  0.04350000  1.0 -0.0200682216
C  C42  1  0.71600000  0.82950000  0.95650000  1.0 -0.0200682216
C  C43  1  0.71600000  0.17050000  0.04350000  1.0 -0.0200682216
C  C44  1  0.28400000  0.17050000  0.95650000  1.0 -0.0200682216
C  C45  1  0.82950000  0.04350000  0.28400000  1.0 -0.0200682216
C  C46  1  0.82950000  0.95650000  0.71600000  1.0 -0.0200682216
C  C47  1  0.17050000  0.04350000  0.71600000  1.0 -0.0200682216
C  C48  1  0.17050000  0.95650000  0.28400000  1.0 -0.0200682216
C  C49  1  0.78320000  0.48960000  0.29520000  1.0 -0.0990457295
C  C50  1  0.21680000  0.51040000  0.29520000  1.0 -0.0990457295
C  C51  1  0.21680000  0.48960000  0.70480000  1.0 -0.0990457295
C  C52  1  0.78320000  0.51040000  0.70480000  1.0 -0.0990457295
C  C53  1  0.29520000  0.78320000  0.48960000  1.0 -0.0990457295
C  C54  1  0.29520000  0.21680000  0.51040000  1.0 -0.0990457295
C  C55  1  0.70480000  0.21680000  0.48960000  1.0 -0.0990457295
C  C56  1  0.70480000  0.78320000  0.51040000  1.0 -0.0990457295
C  C57  1  0.48960000  0.29520000  0.78320000  1.0 -0.0990457295
C  C58  1  0.51040000  0.29520000  0.21680000  1.0 -0.0990457295
C  C59  1  0.48960000  0.70480000  0.21680000  1.0 -0.0990457295
C  C60  1  0.51040000  0.70480000  0.78320000  1.0 -0.0990457295
C  C61  1  0.98960000  0.28320000  0.79520000  1.0 -0.0990457295
C  C62  1  0.01040000  0.71680000  0.79520000  1.0 -0.0990457295
C  C63  1  0.98960000  0.71680000  0.20480000  1.0 -0.0990457295
C  C64  1  0.01040000  0.28320000  0.20480000  1.0 -0.0990457295
C  C65  1  0.28320000  0.79520000  0.98960000  1.0 -0.0990457295
C  C66  1  0.71680000  0.79520000  0.01040000  1.0 -0.0990457295
C  C67  1  0.71680000  0.20480000  0.98960000  1.0 -0.0990457295
C  C68  1  0.28320000  0.20480000  0.01040000  1.0 -0.0990457295
C  C69  1  0.79520000  0.98960000  0.28320000  1.0 -0.0990457295
C  C70  1  0.79520000  0.01040000  0.71680000  1.0 -0.0990457295
C  C71  1  0.20480000  0.98960000  0.71680000  1.0 -0.0990457295
C  C72  1  0.20480000  0.01040000  0.28320000  1.0 -0.0990457295
C  C73  1  0.79070000  0.43400000  0.32410000  1.0 -0.0200682216
C  C74  1  0.20930000  0.56600000  0.32410000  1.0 -0.0200682216
C  C75  1  0.20930000  0.43400000  0.67590000  1.0 -0.0200682216
C  C76  1  0.79070000  0.56600000  0.67590000  1.0 -0.0200682216
C  C77  1  0.32410000  0.79070000  0.43400000  1.0 -0.0200682216
C  C78  1  0.32410000  0.20930000  0.56600000  1.0 -0.0200682216
C  C79  1  0.67590000  0.20930000  0.43400000  1.0 -0.0200682216
C  C80  1  0.67590000  0.79070000  0.56600000  1.0 -0.0200682216
C  C81  1  0.43400000  0.32410000  0.79070000  1.0 -0.0200682216
C  C82  1  0.56600000  0.32410000  0.20930000  1.0 -0.0200682216
C  C83  1  0.43400000  0.67590000  0.20930000  1.0 -0.0200682216
C  C84  1  0.56600000  0.67590000  0.79070000  1.0 -0.0200682216
C  C85  1  0.93400000  0.29070000  0.82410000  1.0 -0.0200682216
C  C86  1  0.06600000  0.70930000  0.82410000  1.0 -0.0200682216
C  C87  1  0.93400000  0.70930000  0.17590000  1.0 -0.0200682216
C  C88  1  0.06600000  0.29070000  0.17590000  1.0 -0.0200682216
C  C89  1  0.29070000  0.82410000  0.93400000  1.0 -0.0200682216
C  C90  1  0.70930000  0.82410000  0.06600000  1.0 -0.0200682216
C  C91  1  0.70930000  0.17590000  0.93400000  1.0 -0.0200682216
C  C92  1  0.29070000  0.17590000  0.06600000  1.0 -0.0200682216
C  C93  1  0.82410000  0.93400000  0.29070000  1.0 -0.0200682216
C  C94  1  0.82410000  0.06600000  0.70930000  1.0 -0.0200682216
C  C95  1  0.17590000  0.93400000  0.70930000  1.0 -0.0200682216
C  C96  1  0.17590000  0.06600000  0.29070000  1.0 -0.0200682216
C  C97  1  0.79310000  0.37490000  0.28930000  1.0 0.602168142
C  C98  1  0.20690000  0.62510000  0.28930000  1.0 0.602168142
C  C99  1  0.20690000  0.37490000  0.71070000  1.0 0.602168142
C  C100  1  0.79310000  0.62510000  0.71070000  1.0 0.602168142
C  C101  1  0.28930000  0.79310000  0.37490000  1.0 0.602168142
C  C102  1  0.28930000  0.20690000  0.62510000  1.0 0.602168142
C  C103  1  0.71070000  0.20690000  0.37490000  1.0 0.602168142
C  C104  1  0.71070000  0.79310000  0.62510000  1.0 0.602168142
C  C105  1  0.37490000  0.28930000  0.79310000  1.0 0.602168142
C  C106  1  0.62510000  0.28930000  0.20690000  1.0 0.602168142
C  C107  1  0.37490000  0.71070000  0.20690000  1.0 0.602168142
C  C108  1  0.62510000  0.71070000  0.79310000  1.0 0.602168142
C  C109  1  0.87490000  0.29310000  0.78930000  1.0 0.602168142
C  C110  1  0.12510000  0.70690000  0.78930000  1.0 0.602168142
C  C111  1  0.87490000  0.70690000  0.21070000  1.0 0.602168142
C  C112  1  0.12510000  0.29310000  0.21070000  1.0 0.602168142
C  C113  1  0.29310000  0.78930000  0.87490000  1.0 0.602168142
C  C114  1  0.70690000  0.78930000  0.12510000  1.0 0.602168142
C  C115  1  0.70690000  0.21070000  0.87490000  1.0 0.602168142
C  C116  1  0.29310000  0.21070000  0.12510000  1.0 0.602168142
C  C117  1  0.78930000  0.87490000  0.29310000  1.0 0.602168142
C  C118  1  0.78930000  0.12510000  0.70690000  1.0 0.602168142
C  C119  1  0.21070000  0.87490000  0.70690000  1.0 0.602168142
C  C120  1  0.21070000  0.12510000  0.29310000  1.0 0.602168142
C  C121  1  0.78880000  0.54100000  0.39200000  1.0 -0.1383821987
C  C122  1  0.21120000  0.45900000  0.39200000  1.0 -0.1348348864
C  C123  1  0.21120000  0.54100000  0.60800000  1.0 -0.1348348864
C  C124  1  0.78880000  0.45900000  0.60800000  1.0 -0.1383821987
C  C125  1  0.39200000  0.78880000  0.54100000  1.0 -0.1348348864
C  C126  1  0.39200000  0.21120000  0.45900000  1.0 -0.1348348864
C  C127  1  0.60800000  0.21120000  0.54100000  1.0 -0.1348348864
C  C128  1  0.60800000  0.78880000  0.45900000  1.0 -0.1383821987
C  C129  1  0.54100000  0.39200000  0.78880000  1.0 -0.1348348864
C  C130  1  0.45900000  0.39200000  0.21120000  1.0 -0.1348348864
C  C131  1  0.54100000  0.60800000  0.21120000  1.0 -0.1348348864
C  C132  1  0.45900000  0.60800000  0.78880000  1.0 -0.1348348864
C  C133  1  0.04100000  0.28880000  0.89200000  1.0 -0.1348348864
C  C134  1  0.95900000  0.71120000  0.89200000  1.0 -0.1348348864
C  C135  1  0.04100000  0.71120000  0.10800000  1.0 -0.1348348864
C  C136  1  0.95900000  0.28880000  0.10800000  1.0 -0.1383821987
C  C137  1  0.28880000  0.89200000  0.04100000  1.0 -0.1348348864
C  C138  1  0.71120000  0.89200000  0.95900000  1.0 -0.1383821987
C  C139  1  0.71120000  0.10800000  0.04100000  1.0 -0.1348348864
C  C140  1  0.28880000  0.10800000  0.95900000  1.0 -0.1348348864
C  C141  1  0.89200000  0.04100000  0.28880000  1.0 -0.1348348864
C  C142  1  0.89200000  0.95900000  0.71120000  1.0 -0.1383821987
C  C143  1  0.10800000  0.04100000  0.71120000  1.0 -0.1348348864
C  C144  1  0.10800000  0.95900000  0.28880000  1.0 -0.1348348864
C  C145  1  0.79570000  0.43210000  0.38700000  1.0 -0.1383821987
C  C146  1  0.20430000  0.56790000  0.38700000  1.0 -0.1383821987
C  C147  1  0.20430000  0.43210000  0.61300000  1.0 -0.1383821987
C  C148  1  0.79570000  0.56790000  0.61300000  1.0 -0.1383821987
C  C149  1  0.38700000  0.79570000  0.43210000  1.0 -0.1383821987
C  C150  1  0.38700000  0.20430000  0.56790000  1.0 -0.1383821987
C  C151  1  0.61300000  0.20430000  0.43210000  1.0 -0.1383821987
C  C152  1  0.61300000  0.79570000  0.56790000  1.0 -0.1383821987
C  C153  1  0.43210000  0.38700000  0.79570000  1.0 -0.1383821987
C  C154  1  0.56790000  0.38700000  0.20430000  1.0 -0.1383821987
C  C155  1  0.43210000  0.61300000  0.20430000  1.0 -0.1383821987
C  C156  1  0.56790000  0.61300000  0.79570000  1.0 -0.1383821987
C  C157  1  0.93210000  0.29570000  0.88700000  1.0 -0.1383821987
C  C158  1  0.06790000  0.70430000  0.88700000  1.0 -0.1383821987
C  C159  1  0.93210000  0.70430000  0.11300000  1.0 -0.1383821987
C  C160  1  0.06790000  0.29570000  0.11300000  1.0 -0.1383821987
C  C161  1  0.29570000  0.88700000  0.93210000  1.0 -0.1383821987
C  C162  1  0.70430000  0.88700000  0.06790000  1.0 -0.1383821987
C  C163  1  0.70430000  0.11300000  0.93210000  1.0 -0.1383821987
C  C164  1  0.29570000  0.11300000  0.06790000  1.0 -0.1383821987
C  C165  1  0.88700000  0.93210000  0.29570000  1.0 -0.1383821987
C  C166  1  0.88700000  0.06790000  0.70430000  1.0 -0.1383821987
C  C167  1  0.11300000  0.93210000  0.70430000  1.0 -0.1383821987
C  C168  1  0.11300000  0.06790000  0.29570000  1.0 -0.1383821987
C  C169  1  0.79350000  0.48410000  0.42080000  1.0 0.1414405735
C  C170  1  0.20650000  0.51590000  0.42080000  1.0 0.1414405735
C  C171  1  0.20650000  0.48410000  0.57920000  1.0 0.1414405735
C  C172  1  0.79350000  0.51590000  0.57920000  1.0 0.1414405735
C  C173  1  0.42080000  0.79350000  0.48410000  1.0 0.1414405735
C  C174  1  0.42080000  0.20650000  0.51590000  1.0 0.1414405735
C  C175  1  0.57920000  0.20650000  0.48410000  1.0 0.1414405735
C  C176  1  0.57920000  0.79350000  0.51590000  1.0 0.1414405735
C  C177  1  0.48410000  0.42080000  0.79350000  1.0 0.1414405735
C  C178  1  0.51590000  0.42080000  0.20650000  1.0 0.1414405735
C  C179  1  0.48410000  0.57920000  0.20650000  1.0 0.1414405735
C  C180  1  0.51590000  0.57920000  0.79350000  1.0 0.1414405735
C  C181  1  0.98410000  0.29350000  0.92080000  1.0 0.1414405735
C  C182  1  0.01590000  0.70650000  0.92080000  1.0 0.1414405735
C  C183  1  0.98410000  0.70650000  0.07920000  1.0 0.1451335541
C  C184  1  0.01590000  0.29350000  0.07920000  1.0 0.1414405735
C  C185  1  0.29350000  0.92080000  0.98410000  1.0 0.1414405735
C  C186  1  0.70650000  0.92080000  0.01590000  1.0 0.1451335541
C  C187  1  0.70650000  0.07920000  0.98410000  1.0 0.1414405735
C  C188  1  0.29350000  0.07920000  0.01590000  1.0 0.1414405735
C  C189  1  0.92080000  0.98410000  0.29350000  1.0 0.1451335541
C  C190  1  0.92080000  0.01590000  0.70650000  1.0 0.1414405735
C  C191  1  0.07920000  0.98410000  0.70650000  1.0 0.1451335541
C  C192  1  0.07920000  0.01590000  0.29350000  1.0 0.1414405735
N  N1  1  0.79540000  0.47680000  0.48560000  1.0 -0.0990457295
N  N2  1  0.20460000  0.52320000  0.48560000  1.0 -0.1054155462
N  N3  1  0.20460000  0.47680000  0.51440000  1.0 -0.1054155462
N  N4  1  0.79540000  0.52320000  0.51440000  1.0 -0.0990457295
N  N5  1  0.48560000  0.79540000  0.47680000  1.0 -0.1054155462
N  N6  1  0.48560000  0.20460000  0.52320000  1.0 -0.0990457295
N  N7  1  0.51440000  0.20460000  0.47680000  1.0 -0.0990457295
N  N8  1  0.51440000  0.79540000  0.52320000  1.0 -0.1054155462
N  N9  1  0.47680000  0.48560000  0.79540000  1.0 -0.0990457295
N  N10  1  0.52320000  0.48560000  0.20460000  1.0 -0.1054155462
N  N11  1  0.47680000  0.51440000  0.20460000  1.0 -0.1054155462
N  N12  1  0.52320000  0.51440000  0.79540000  1.0 -0.0990457295
N  N13  1  0.97680000  0.29540000  0.98560000  1.0 -0.0990457295
N  N14  1  0.02320000  0.70460000  0.98560000  1.0 -0.1054155462
N  N15  1  0.97680000  0.70460000  0.01440000  1.0 -0.0990457295
N  N16  1  0.02320000  0.29540000  0.01440000  1.0 -0.1054155462
N  N17  1  0.29540000  0.98560000  0.97680000  1.0 -0.0990457295
N  N18  1  0.70460000  0.98560000  0.02320000  1.0 -0.0990457295
N  N19  1  0.70460000  0.01440000  0.97680000  1.0 -0.0990457295
N  N20  1  0.29540000  0.01440000  0.02320000  1.0 -0.1054155462
N  N21  1  0.98560000  0.97680000  0.29540000  1.0 -0.0990457295
N  N22  1  0.98560000  0.02320000  0.70460000  1.0 -0.0990457295
N  N23  1  0.01440000  0.97680000  0.70460000  1.0 -0.1054155462
N  N24  1  0.01440000  0.02320000  0.29540000  1.0 -0.1054155462
O  O1  1  0.75920000  0.24080000  0.24080000  1.0 -0.8176373326
O  O2  1  0.24080000  0.75920000  0.24080000  1.0 -0.8176373326
O  O3  1  0.24080000  0.24080000  0.75920000  1.0 -0.8176373326
O  O4  1  0.75920000  0.75920000  0.75920000  1.0 -0.8176373326
O  O5  1  0.74080000  0.25920000  0.74080000  1.0 -0.8176373326
O  O6  1  0.25920000  0.74080000  0.74080000  1.0 -0.8176373326
O  O7  1  0.74080000  0.74080000  0.25920000  1.0 -0.8176373326
O  O8  1  0.25920000  0.25920000  0.25920000  1.0 -0.8176373326
O  O9  1  0.79530000  0.64890000  0.33190000  1.0 -0.5354658671
O  O10  1  0.20470000  0.35110000  0.33190000  1.0 -0.5354658671
O  O11  1  0.20470000  0.64890000  0.66810000  1.0 -0.5354658671
O  O12  1  0.79530000  0.35110000  0.66810000  1.0 -0.5354658671
O  O13  1  0.33190000  0.79530000  0.64890000  1.0 -0.5354658671
O  O14  1  0.33190000  0.20470000  0.35110000  1.0 -0.5354658671
O  O15  1  0.66810000  0.20470000  0.64890000  1.0 -0.5354658671
O  O16  1  0.66810000  0.79530000  0.35110000  1.0 -0.5354658671
O  O17  1  0.64890000  0.33190000  0.79530000  1.0 -0.5354658671
O  O18  1  0.35110000  0.33190000  0.20470000  1.0 -0.5354658671
O  O19  1  0.64890000  0.66810000  0.20470000  1.0 -0.5354658671
O  O20  1  0.35110000  0.66810000  0.79530000  1.0 -0.5354658671
O  O21  1  0.14890000  0.29530000  0.83190000  1.0 -0.5354658671
O  O22  1  0.85110000  0.70470000  0.83190000  1.0 -0.5354658671
O  O23  1  0.14890000  0.70470000  0.16810000  1.0 -0.5354658671
O  O24  1  0.85110000  0.29530000  0.16810000  1.0 -0.5354658671
O  O25  1  0.29530000  0.83190000  0.14890000  1.0 -0.5354658671
O  O26  1  0.70470000  0.83190000  0.85110000  1.0 -0.5354658671
O  O27  1  0.70470000  0.16810000  0.14890000  1.0 -0.5354658671
O  O28  1  0.29530000  0.16810000  0.85110000  1.0 -0.5354658671
O  O29  1  0.83190000  0.14890000  0.29530000  1.0 -0.5354658671
O  O30  1  0.83190000  0.85110000  0.70470000  1.0 -0.5354658671
O  O31  1  0.16810000  0.14890000  0.70470000  1.0 -0.5354658671
O  O32  1  0.16810000  0.85110000  0.29530000  1.0 -0.5354658671
O  O33  1  0.75710000  0.60790000  0.24730000  1.0 -0.5228456068
O  O34  1  0.24290000  0.39210000  0.24730000  1.0 -0.5228456068
O  O35  1  0.24290000  0.60790000  0.75270000  1.0 -0.5228456068
O  O36  1  0.75710000  0.39210000  0.75270000  1.0 -0.5228456068
O  O37  1  0.24730000  0.75710000  0.60790000  1.0 -0.5228456068
O  O38  1  0.24730000  0.24290000  0.39210000  1.0 -0.5228456068
O  O39  1  0.75270000  0.24290000  0.60790000  1.0 -0.5228456068
O  O40  1  0.75270000  0.75710000  0.39210000  1.0 -0.5228456068
O  O41  1  0.60790000  0.24730000  0.75710000  1.0 -0.5228456068
O  O42  1  0.39210000  0.24730000  0.24290000  1.0 -0.5228456068
O  O43  1  0.60790000  0.75270000  0.24290000  1.0 -0.5228456068
O  O44  1  0.39210000  0.75270000  0.75710000  1.0 -0.5228456068
O  O45  1  0.10790000  0.25710000  0.74730000  1.0 -0.5228456068
O  O46  1  0.89210000  0.74290000  0.74730000  1.0 -0.5228456068
O  O47  1  0.10790000  0.74290000  0.25270000  1.0 -0.5228456068
O  O48  1  0.89210000  0.25710000  0.25270000  1.0 -0.5228456068
O  O49  1  0.25710000  0.74730000  0.10790000  1.0 -0.5228456068
O  O50  1  0.74290000  0.74730000  0.89210000  1.0 -0.5228456068
O  O51  1  0.74290000  0.25270000  0.10790000  1.0 -0.5228456068
O  O52  1  0.25710000  0.25270000  0.89210000  1.0 -0.5228456068
O  O53  1  0.74730000  0.10790000  0.25710000  1.0 -0.5228456068
O  O54  1  0.74730000  0.89210000  0.74290000  1.0 -0.5228456068
O  O55  1  0.25270000  0.10790000  0.74290000  1.0 -0.5228456068
O  O56  1  0.25270000  0.89210000  0.25710000  1.0 -0.5228456068
O  O57  1  0.77470000  0.37500000  0.23480000  1.0 -0.5270328406
O  O58  1  0.22530000  0.62500000  0.23480000  1.0 -0.5270328406
O  O59  1  0.22530000  0.37500000  0.76520000  1.0 -0.5270328406
O  O60  1  0.77470000  0.62500000  0.76520000  1.0 -0.5270328406
O  O61  1  0.23480000  0.77470000  0.37500000  1.0 -0.5270328406
O  O62  1  0.23480000  0.22530000  0.62500000  1.0 -0.5270328406
O  O63  1  0.76520000  0.22530000  0.37500000  1.0 -0.5270328406
O  O64  1  0.76520000  0.77470000  0.62500000  1.0 -0.5270328406
O  O65  1  0.37500000  0.23480000  0.77470000  1.0 -0.5270328406
O  O66  1  0.62500000  0.23480000  0.22530000  1.0 -0.5270328406
O  O67  1  0.37500000  0.76520000  0.22530000  1.0 -0.5270328406
O  O68  1  0.62500000  0.76520000  0.77470000  1.0 -0.5270328406
O  O69  1  0.87500000  0.27470000  0.73480000  1.0 -0.5270328406
O  O70  1  0.12500000  0.72530000  0.73480000  1.0 -0.5270328406
O  O71  1  0.87500000  0.72530000  0.26520000  1.0 -0.5270328406
O  O72  1  0.12500000  0.27470000  0.26520000  1.0 -0.5270328406
O  O73  1  0.27470000  0.73480000  0.87500000  1.0 -0.5270328406
O  O74  1  0.72530000  0.73480000  0.12500000  1.0 -0.5270328406
O  O75  1  0.72530000  0.26520000  0.87500000  1.0 -0.5270328406
O  O76  1  0.27470000  0.26520000  0.12500000  1.0 -0.5270328406
O  O77  1  0.73480000  0.87500000  0.27470000  1.0 -0.5270328406
O  O78  1  0.73480000  0.12500000  0.72530000  1.0 -0.5270328406
O  O79  1  0.26520000  0.87500000  0.72530000  1.0 -0.5270328406
O  O80  1  0.26520000  0.12500000  0.27470000  1.0 -0.5270328406
O  O81  1  0.81180000  0.33020000  0.31840000  1.0 -0.5228456068
O  O82  1  0.18820000  0.66980000  0.31840000  1.0 -0.5228456068
O  O83  1  0.18820000  0.33020000  0.68160000  1.0 -0.5228456068
O  O84  1  0.81180000  0.66980000  0.68160000  1.0 -0.5228456068
O  O85  1  0.31840000  0.81180000  0.33020000  1.0 -0.5228456068
O  O86  1  0.31840000  0.18820000  0.66980000  1.0 -0.5228456068
O  O87  1  0.68160000  0.18820000  0.33020000  1.0 -0.5228456068
O  O88  1  0.68160000  0.81180000  0.66980000  1.0 -0.5228456068
O  O89  1  0.33020000  0.31840000  0.81180000  1.0 -0.5228456068
O  O90  1  0.66980000  0.31840000  0.18820000  1.0 -0.5228456068
O  O91  1  0.33020000  0.68160000  0.18820000  1.0 -0.5228456068
O  O92  1  0.66980000  0.68160000  0.81180000  1.0 -0.5228456068
O  O93  1  0.83020000  0.31180000  0.81840000  1.0 -0.5228456068
O  O94  1  0.16980000  0.68820000  0.81840000  1.0 -0.5228456068
O  O95  1  0.83020000  0.68820000  0.18160000  1.0 -0.5228456068
O  O96  1  0.16980000  0.31180000  0.18160000  1.0 -0.5228456068
O  O97  1  0.31180000  0.81840000  0.83020000  1.0 -0.5228456068
O  O98  1  0.68820000  0.81840000  0.16980000  1.0 -0.5228456068
O  O99  1  0.68820000  0.18160000  0.83020000  1.0 -0.5228456068
O  O100  1  0.31180000  0.18160000  0.16980000  1.0 -0.5228456068
O  O101  1  0.81840000  0.83020000  0.31180000  1.0 -0.5228456068
O  O102  1  0.81840000  0.16980000  0.68820000  1.0 -0.5228456068
O  O103  1  0.18160000  0.83020000  0.68820000  1.0 -0.5228456068
O  O104  1  0.18160000  0.16980000  0.31180000  1.0 -0.5228456068
