# DDEC6 charges by PACMAN v1.1 (https://github.com/mtap-research/PACMAN-charge/)
data_LIDFAJ_ASR_pacman
_symmetry_space_group_name_H-M   'P 1'
_cell_length_a   21.90680000
_cell_length_b   21.90680000
_cell_length_c   21.90680000
_cell_angle_alpha   90.00000000
_cell_angle_beta   90.00000000
_cell_angle_gamma   90.00000000
_symmetry_Int_Tables_number   1
_chemical_formula_structural   Fe3H9C24N3O13
_chemical_formula_sum   'Fe24 H72 C192 N24 O104'
_cell_volume   10513.24608228
_cell_formula_units_Z   8
loop_
 _symmetry_equiv_pos_site_id
 _symmetry_equiv_pos_as_xyz
  1  'x, y, z'
loop_
 _atom_site_type_symbol
 _atom_site_label
 _atom_site_symmetry_multiplicity
 _atom_site_fract_x
 _atom_site_fract_y
 _atom_site_fract_z
 _atom_site_occupancy
 _atom_site_charge
Fe  Fe1  1  0.69794000  0.18218000  0.76068000  1.0 1.1541817223
Fe  Fe2  1  0.30206000  0.81782000  0.76068000  1.0 1.1541817223
Fe  Fe3  1  0.30206000  0.18218000  0.23932000  1.0 1.1541817223
Fe  Fe4  1  0.69794000  0.81782000  0.23932000  1.0 1.1541817223
Fe  Fe5  1  0.76068000  0.69794000  0.18218000  1.0 1.1541817223
Fe  Fe6  1  0.76068000  0.30206000  0.81782000  1.0 1.1541817223
Fe  Fe7  1  0.23932000  0.30206000  0.18218000  1.0 1.1541817223
Fe  Fe8  1  0.23932000  0.69794000  0.81782000  1.0 1.1541817223
Fe  Fe9  1  0.18218000  0.76068000  0.69794000  1.0 1.1541817223
Fe  Fe10  1  0.81782000  0.76068000  0.30206000  1.0 1.1541817223
Fe  Fe11  1  0.18218000  0.23932000  0.30206000  1.0 1.1541817223
Fe  Fe12  1  0.81782000  0.23932000  0.69794000  1.0 1.1541817223
Fe  Fe13  1  0.68218000  0.19794000  0.26068000  1.0 1.1541817223
Fe  Fe14  1  0.31782000  0.80206000  0.26068000  1.0 1.1541817223
Fe  Fe15  1  0.68218000  0.80206000  0.73932000  1.0 1.1541817223
Fe  Fe16  1  0.31782000  0.19794000  0.73932000  1.0 1.1541817223
Fe  Fe17  1  0.19794000  0.26068000  0.68218000  1.0 1.1541817223
Fe  Fe18  1  0.80206000  0.26068000  0.31782000  1.0 1.1541817223
Fe  Fe19  1  0.80206000  0.73932000  0.68218000  1.0 1.1541817223
Fe  Fe20  1  0.19794000  0.73932000  0.31782000  1.0 1.1541817223
Fe  Fe21  1  0.26068000  0.68218000  0.19794000  1.0 1.1541817223
Fe  Fe22  1  0.26068000  0.31782000  0.80206000  1.0 1.1541817223
Fe  Fe23  1  0.73932000  0.68218000  0.80206000  1.0 1.1541817223
Fe  Fe24  1  0.73932000  0.31782000  0.19794000  1.0 1.1541817223
H  H1  1  0.50964000  0.25458000  0.77599000  1.0 0.1433174704
H  H2  1  0.49036000  0.74542000  0.77599000  1.0 0.1433174704
H  H3  1  0.49036000  0.25458000  0.22401000  1.0 0.1433174704
H  H4  1  0.50964000  0.74542000  0.22401000  1.0 0.1433174704
H  H5  1  0.77599000  0.50964000  0.25458000  1.0 0.1433174704
H  H6  1  0.77599000  0.49036000  0.74542000  1.0 0.1433174704
H  H7  1  0.22401000  0.49036000  0.25458000  1.0 0.1433174704
H  H8  1  0.22401000  0.50964000  0.74542000  1.0 0.1433174704
H  H9  1  0.25458000  0.77599000  0.50964000  1.0 0.1433174704
H  H10  1  0.74542000  0.77599000  0.49036000  1.0 0.1433174704
H  H11  1  0.25458000  0.22401000  0.49036000  1.0 0.1433174704
H  H12  1  0.74542000  0.22401000  0.50964000  1.0 0.1433174704
H  H13  1  0.75458000  0.00964000  0.27599000  1.0 0.1433174704
H  H14  1  0.24542000  0.99036000  0.27599000  1.0 0.1433174704
H  H15  1  0.75458000  0.99036000  0.72401000  1.0 0.1433174704
H  H16  1  0.24542000  0.00964000  0.72401000  1.0 0.1433174704
H  H17  1  0.00964000  0.27599000  0.75458000  1.0 0.1433174704
H  H18  1  0.99036000  0.27599000  0.24542000  1.0 0.1433174704
H  H19  1  0.99036000  0.72401000  0.75458000  1.0 0.1433174704
H  H20  1  0.00964000  0.72401000  0.24542000  1.0 0.1433174704
H  H21  1  0.27599000  0.75458000  0.00964000  1.0 0.1433174704
H  H22  1  0.27599000  0.24542000  0.99036000  1.0 0.1433174704
H  H23  1  0.72401000  0.75458000  0.99036000  1.0 0.1433174704
H  H24  1  0.72401000  0.24542000  0.00964000  1.0 0.1433174704
H  H25  1  0.42418000  0.41486000  0.78971000  1.0 0.1343141779
H  H26  1  0.57582000  0.58514000  0.78971000  1.0 0.1343141779
H  H27  1  0.57582000  0.41486000  0.21029000  1.0 0.1343141779
H  H28  1  0.42418000  0.58514000  0.21029000  1.0 0.1343141779
H  H29  1  0.78971000  0.42418000  0.41486000  1.0 0.1343141779
H  H30  1  0.78971000  0.57582000  0.58514000  1.0 0.1343141779
H  H31  1  0.21029000  0.57582000  0.41486000  1.0 0.1343141779
H  H32  1  0.21029000  0.42418000  0.58514000  1.0 0.1343141779
H  H33  1  0.41486000  0.78971000  0.42418000  1.0 0.1343141779
H  H34  1  0.58514000  0.78971000  0.57582000  1.0 0.1343141779
H  H35  1  0.41486000  0.21029000  0.57582000  1.0 0.1343141779
H  H36  1  0.58514000  0.21029000  0.42418000  1.0 0.1343141779
H  H37  1  0.91486000  0.92418000  0.28971000  1.0 0.1343141779
H  H38  1  0.08514000  0.07582000  0.28971000  1.0 0.1343141779
H  H39  1  0.91486000  0.07582000  0.71029000  1.0 0.1343141779
H  H40  1  0.08514000  0.92418000  0.71029000  1.0 0.1343141779
H  H41  1  0.92418000  0.28971000  0.91486000  1.0 0.1343141779
H  H42  1  0.07582000  0.28971000  0.08514000  1.0 0.1343141779
H  H43  1  0.07582000  0.71029000  0.91486000  1.0 0.1343141779
H  H44  1  0.92418000  0.71029000  0.08514000  1.0 0.1343141779
H  H45  1  0.28971000  0.91486000  0.92418000  1.0 0.1343141779
H  H46  1  0.28971000  0.08514000  0.07582000  1.0 0.1343141779
H  H47  1  0.71029000  0.91486000  0.07582000  1.0 0.1343141779
H  H48  1  0.71029000  0.08514000  0.92418000  1.0 0.1343141779
H  H49  1  0.60645000  0.40622000  0.80039000  1.0 0.1433174704
H  H50  1  0.39355000  0.59378000  0.80039000  1.0 0.1433174704
H  H51  1  0.39355000  0.40622000  0.19961000  1.0 0.1433174704
H  H52  1  0.60645000  0.59378000  0.19961000  1.0 0.1433174704
H  H53  1  0.80039000  0.60645000  0.40622000  1.0 0.1433174704
H  H54  1  0.80039000  0.39355000  0.59378000  1.0 0.1433174704
H  H55  1  0.19961000  0.39355000  0.40622000  1.0 0.1433174704
H  H56  1  0.19961000  0.60645000  0.59378000  1.0 0.1433174704
H  H57  1  0.40622000  0.80039000  0.60645000  1.0 0.1433174704
H  H58  1  0.59378000  0.80039000  0.39355000  1.0 0.1433174704
H  H59  1  0.40622000  0.19961000  0.39355000  1.0 0.1433174704
H  H60  1  0.59378000  0.19961000  0.60645000  1.0 0.1433174704
H  H61  1  0.90622000  0.10645000  0.30039000  1.0 0.1433174704
H  H62  1  0.09378000  0.89355000  0.30039000  1.0 0.1433174704
H  H63  1  0.90622000  0.89355000  0.69961000  1.0 0.1433174704
H  H64  1  0.09378000  0.10645000  0.69961000  1.0 0.1433174704
H  H65  1  0.10645000  0.30039000  0.90622000  1.0 0.1433174704
H  H66  1  0.89355000  0.30039000  0.09378000  1.0 0.1433174704
H  H67  1  0.89355000  0.69961000  0.90622000  1.0 0.1433174704
H  H68  1  0.10645000  0.69961000  0.09378000  1.0 0.1433174704
H  H69  1  0.30039000  0.90622000  0.10645000  1.0 0.1433174704
H  H70  1  0.30039000  0.09378000  0.89355000  1.0 0.1433174704
H  H71  1  0.69961000  0.90622000  0.89355000  1.0 0.1433174704
H  H72  1  0.69961000  0.09378000  0.10645000  1.0 0.1433174704
C  C1  1  0.39520000  0.30140000  0.77840000  1.0 0.6038433
C  C2  1  0.60480000  0.69860000  0.77840000  1.0 0.6038433
C  C3  1  0.60480000  0.30140000  0.22160000  1.0 0.6038433
C  C4  1  0.39520000  0.69860000  0.22160000  1.0 0.6038433
C  C5  1  0.77840000  0.39520000  0.30140000  1.0 0.6038433
C  C6  1  0.77840000  0.60480000  0.69860000  1.0 0.6038433
C  C7  1  0.22160000  0.60480000  0.30140000  1.0 0.6038433
C  C8  1  0.22160000  0.39520000  0.69860000  1.0 0.6038433
C  C9  1  0.30140000  0.77840000  0.39520000  1.0 0.6038433
C  C10  1  0.69860000  0.77840000  0.60480000  1.0 0.6038433
C  C11  1  0.30140000  0.22160000  0.60480000  1.0 0.6038433
C  C12  1  0.69860000  0.22160000  0.39520000  1.0 0.6038433
C  C13  1  0.80140000  0.89520000  0.27840000  1.0 0.6038433
C  C14  1  0.19860000  0.10480000  0.27840000  1.0 0.6038433
C  C15  1  0.80140000  0.10480000  0.72160000  1.0 0.6038433
C  C16  1  0.19860000  0.89520000  0.72160000  1.0 0.6038433
C  C17  1  0.89520000  0.27840000  0.80140000  1.0 0.6038433
C  C18  1  0.10480000  0.27840000  0.19860000  1.0 0.6038433
C  C19  1  0.10480000  0.72160000  0.80140000  1.0 0.6038433
C  C20  1  0.89520000  0.72160000  0.19860000  1.0 0.6038433
C  C21  1  0.27840000  0.80140000  0.89520000  1.0 0.6038433
C  C22  1  0.27840000  0.19860000  0.10480000  1.0 0.6038433
C  C23  1  0.72160000  0.80140000  0.10480000  1.0 0.6038433
C  C24  1  0.72160000  0.19860000  0.89520000  1.0 0.6038433
C  C25  1  0.45780000  0.32950000  0.78460000  1.0 -0.0103581578
C  C26  1  0.54220000  0.67050000  0.78460000  1.0 -0.0103581578
C  C27  1  0.54220000  0.32950000  0.21540000  1.0 -0.0103581578
C  C28  1  0.45780000  0.67050000  0.21540000  1.0 -0.0103581578
C  C29  1  0.78460000  0.45780000  0.32950000  1.0 -0.0103581578
C  C30  1  0.78460000  0.54220000  0.67050000  1.0 -0.0103581578
C  C31  1  0.21540000  0.54220000  0.32950000  1.0 -0.0103581578
C  C32  1  0.21540000  0.45780000  0.67050000  1.0 -0.0103581578
C  C33  1  0.32950000  0.78460000  0.45780000  1.0 -0.0103581578
C  C34  1  0.67050000  0.78460000  0.54220000  1.0 -0.0103581578
C  C35  1  0.32950000  0.21540000  0.54220000  1.0 -0.0103581578
C  C36  1  0.67050000  0.21540000  0.45780000  1.0 -0.0103581578
C  C37  1  0.82950000  0.95780000  0.28460000  1.0 -0.0103581578
C  C38  1  0.17050000  0.04220000  0.28460000  1.0 -0.0103581578
C  C39  1  0.82950000  0.04220000  0.71540000  1.0 -0.0103581578
C  C40  1  0.17050000  0.95780000  0.71540000  1.0 -0.0103581578
C  C41  1  0.95780000  0.28460000  0.82950000  1.0 -0.0103581578
C  C42  1  0.04220000  0.28460000  0.17050000  1.0 -0.0103581578
C  C43  1  0.04220000  0.71540000  0.82950000  1.0 -0.0103581578
C  C44  1  0.95780000  0.71540000  0.17050000  1.0 -0.0103581578
C  C45  1  0.28460000  0.82950000  0.95780000  1.0 -0.0103581578
C  C46  1  0.28460000  0.17050000  0.04220000  1.0 -0.0103581578
C  C47  1  0.71540000  0.82950000  0.04220000  1.0 -0.0103581578
C  C48  1  0.71540000  0.17050000  0.95780000  1.0 -0.0103581578
C  C49  1  0.51120000  0.29640000  0.78280000  1.0 -0.0924325051
C  C50  1  0.48880000  0.70360000  0.78280000  1.0 -0.0924325051
C  C51  1  0.48880000  0.29640000  0.21720000  1.0 -0.0924325051
C  C52  1  0.51120000  0.70360000  0.21720000  1.0 -0.0924325051
C  C53  1  0.78280000  0.51120000  0.29640000  1.0 -0.0924325051
C  C54  1  0.78280000  0.48880000  0.70360000  1.0 -0.0924325051
C  C55  1  0.21720000  0.48880000  0.29640000  1.0 -0.0924325051
C  C56  1  0.21720000  0.51120000  0.70360000  1.0 -0.0924325051
C  C57  1  0.29640000  0.78280000  0.51120000  1.0 -0.0924325051
C  C58  1  0.70360000  0.78280000  0.48880000  1.0 -0.0924325051
C  C59  1  0.29640000  0.21720000  0.48880000  1.0 -0.0924325051
C  C60  1  0.70360000  0.21720000  0.51120000  1.0 -0.0924325051
C  C61  1  0.79640000  0.01120000  0.28280000  1.0 -0.0924325051
C  C62  1  0.20360000  0.98880000  0.28280000  1.0 -0.0924325051
C  C63  1  0.79640000  0.98880000  0.71720000  1.0 -0.0924325051
C  C64  1  0.20360000  0.01120000  0.71720000  1.0 -0.0924325051
C  C65  1  0.01120000  0.28280000  0.79640000  1.0 -0.0924325051
C  C66  1  0.98880000  0.28280000  0.20360000  1.0 -0.0924325051
C  C67  1  0.98880000  0.71720000  0.79640000  1.0 -0.0924325051
C  C68  1  0.01120000  0.71720000  0.20360000  1.0 -0.0924325051
C  C69  1  0.28280000  0.79640000  0.01120000  1.0 -0.0924325051
C  C70  1  0.28280000  0.20360000  0.98880000  1.0 -0.0924325051
C  C71  1  0.71720000  0.79640000  0.98880000  1.0 -0.0924325051
C  C72  1  0.71720000  0.20360000  0.01120000  1.0 -0.0924325051
C  C73  1  0.62520000  0.29020000  0.79100000  1.0 0.6038433
C  C74  1  0.37480000  0.70980000  0.79100000  1.0 0.6038433
C  C75  1  0.37480000  0.29020000  0.20900000  1.0 0.6038433
C  C76  1  0.62520000  0.70980000  0.20900000  1.0 0.6038433
C  C77  1  0.79100000  0.62520000  0.29020000  1.0 0.6038433
C  C78  1  0.79100000  0.37480000  0.70980000  1.0 0.6038433
C  C79  1  0.20900000  0.37480000  0.29020000  1.0 0.6038433
C  C80  1  0.20900000  0.62520000  0.70980000  1.0 0.6038433
C  C81  1  0.29020000  0.79100000  0.62520000  1.0 0.6038433
C  C82  1  0.70980000  0.79100000  0.37480000  1.0 0.6038433
C  C83  1  0.29020000  0.20900000  0.37480000  1.0 0.6038433
C  C84  1  0.70980000  0.20900000  0.62520000  1.0 0.6038433
C  C85  1  0.79020000  0.12520000  0.29100000  1.0 0.6038433
C  C86  1  0.20980000  0.87480000  0.29100000  1.0 0.6038433
C  C87  1  0.79020000  0.87480000  0.70900000  1.0 0.6038433
C  C88  1  0.20980000  0.12520000  0.70900000  1.0 0.6038433
C  C89  1  0.12520000  0.29100000  0.79020000  1.0 0.6038433
C  C90  1  0.87480000  0.29100000  0.20980000  1.0 0.6038433
C  C91  1  0.87480000  0.70900000  0.79020000  1.0 0.6038433
C  C92  1  0.12520000  0.70900000  0.20980000  1.0 0.6038433
C  C93  1  0.29100000  0.79020000  0.12520000  1.0 0.6038433
C  C94  1  0.29100000  0.20980000  0.87480000  1.0 0.6038433
C  C95  1  0.70900000  0.79020000  0.87480000  1.0 0.6038433
C  C96  1  0.70900000  0.20980000  0.12520000  1.0 0.6038433
C  C97  1  0.56700000  0.32440000  0.79100000  1.0 -0.0305087209
C  C98  1  0.43300000  0.67560000  0.79100000  1.0 -0.0305087209
C  C99  1  0.43300000  0.32440000  0.20900000  1.0 -0.0305087209
C  C100  1  0.56700000  0.67560000  0.20900000  1.0 -0.0305087209
C  C101  1  0.79100000  0.56700000  0.32440000  1.0 -0.0305087209
C  C102  1  0.79100000  0.43300000  0.67560000  1.0 -0.0305087209
C  C103  1  0.20900000  0.43300000  0.32440000  1.0 -0.0305087209
C  C104  1  0.20900000  0.56700000  0.67560000  1.0 -0.0305087209
C  C105  1  0.32440000  0.79100000  0.56700000  1.0 -0.0305087209
C  C106  1  0.67560000  0.79100000  0.43300000  1.0 -0.0305087209
C  C107  1  0.32440000  0.20900000  0.43300000  1.0 -0.0305087209
C  C108  1  0.67560000  0.20900000  0.56700000  1.0 -0.0305087209
C  C109  1  0.82440000  0.06700000  0.29100000  1.0 -0.0305087209
C  C110  1  0.17560000  0.93300000  0.29100000  1.0 -0.0305087209
C  C111  1  0.82440000  0.93300000  0.70900000  1.0 -0.0305087209
C  C112  1  0.17560000  0.06700000  0.70900000  1.0 -0.0305087209
C  C113  1  0.06700000  0.29100000  0.82440000  1.0 -0.0305087209
C  C114  1  0.93300000  0.29100000  0.17560000  1.0 -0.0305087209
C  C115  1  0.93300000  0.70900000  0.82440000  1.0 -0.0305087209
C  C116  1  0.06700000  0.70900000  0.17560000  1.0 -0.0305087209
C  C117  1  0.29100000  0.82440000  0.06700000  1.0 -0.0305087209
C  C118  1  0.29100000  0.17560000  0.93300000  1.0 -0.0305087209
C  C119  1  0.70900000  0.82440000  0.93300000  1.0 -0.0305087209
C  C120  1  0.70900000  0.17560000  0.06700000  1.0 -0.0305087209
C  C121  1  0.46000000  0.39200000  0.78990000  1.0 -0.1369033197
C  C122  1  0.54000000  0.60800000  0.78990000  1.0 -0.1369033197
C  C123  1  0.54000000  0.39200000  0.21010000  1.0 -0.1369033197
C  C124  1  0.46000000  0.60800000  0.21010000  1.0 -0.1369033197
C  C125  1  0.78990000  0.46000000  0.39200000  1.0 -0.1369033197
C  C126  1  0.78990000  0.54000000  0.60800000  1.0 -0.1369033197
C  C127  1  0.21010000  0.54000000  0.39200000  1.0 -0.1369033197
C  C128  1  0.21010000  0.46000000  0.60800000  1.0 -0.1369033197
C  C129  1  0.39200000  0.78990000  0.46000000  1.0 -0.1369033197
C  C130  1  0.60800000  0.78990000  0.54000000  1.0 -0.1369033197
C  C131  1  0.39200000  0.21010000  0.54000000  1.0 -0.1369033197
C  C132  1  0.60800000  0.21010000  0.46000000  1.0 -0.1369033197
C  C133  1  0.89200000  0.96000000  0.28990000  1.0 -0.1369033197
C  C134  1  0.10800000  0.04000000  0.28990000  1.0 -0.1369033197
C  C135  1  0.89200000  0.04000000  0.71010000  1.0 -0.1369033197
C  C136  1  0.10800000  0.96000000  0.71010000  1.0 -0.1369033197
C  C137  1  0.96000000  0.28990000  0.89200000  1.0 -0.1369033197
C  C138  1  0.04000000  0.28990000  0.10800000  1.0 -0.1369033197
C  C139  1  0.04000000  0.71010000  0.89200000  1.0 -0.1369033197
C  C140  1  0.96000000  0.71010000  0.10800000  1.0 -0.1369033197
C  C141  1  0.28990000  0.89200000  0.96000000  1.0 -0.1369033197
C  C142  1  0.28990000  0.10800000  0.04000000  1.0 -0.1369033197
C  C143  1  0.71010000  0.89200000  0.04000000  1.0 -0.1369033197
C  C144  1  0.71010000  0.10800000  0.96000000  1.0 -0.1369033197
C  C145  1  0.51570000  0.42060000  0.79550000  1.0 0.1483805761
C  C146  1  0.48430000  0.57940000  0.79550000  1.0 0.1483805761
C  C147  1  0.48430000  0.42060000  0.20450000  1.0 0.1483805761
C  C148  1  0.51570000  0.57940000  0.20450000  1.0 0.1483805761
C  C149  1  0.79550000  0.51570000  0.42060000  1.0 0.1483805761
C  C150  1  0.79550000  0.48430000  0.57940000  1.0 0.1483805761
C  C151  1  0.20450000  0.48430000  0.42060000  1.0 0.1483805761
C  C152  1  0.20450000  0.51570000  0.57940000  1.0 0.1483805761
C  C153  1  0.42060000  0.79550000  0.51570000  1.0 0.1483805761
C  C154  1  0.57940000  0.79550000  0.48430000  1.0 0.1483805761
C  C155  1  0.42060000  0.20450000  0.48430000  1.0 0.1483805761
C  C156  1  0.57940000  0.20450000  0.51570000  1.0 0.1483805761
C  C157  1  0.92060000  0.01570000  0.29550000  1.0 0.1483805761
C  C158  1  0.07940000  0.98430000  0.29550000  1.0 0.1483805761
C  C159  1  0.92060000  0.98430000  0.70450000  1.0 0.1483805761
C  C160  1  0.07940000  0.01570000  0.70450000  1.0 0.1483805761
C  C161  1  0.01570000  0.29550000  0.92060000  1.0 0.1483805761
C  C162  1  0.98430000  0.29550000  0.07940000  1.0 0.1483805761
C  C163  1  0.98430000  0.70450000  0.92060000  1.0 0.1483805761
C  C164  1  0.01570000  0.70450000  0.07940000  1.0 0.1483805761
C  C165  1  0.29550000  0.92060000  0.01570000  1.0 0.1483805761
C  C166  1  0.29550000  0.07940000  0.98430000  1.0 0.1483805761
C  C167  1  0.70450000  0.92060000  0.98430000  1.0 0.1483805761
C  C168  1  0.70450000  0.07940000  0.01570000  1.0 0.1483805761
C  C169  1  0.56900000  0.38660000  0.79630000  1.0 -0.1349789664
C  C170  1  0.43100000  0.61340000  0.79630000  1.0 -0.1369033197
C  C171  1  0.43100000  0.38660000  0.20370000  1.0 -0.1369033197
C  C172  1  0.56900000  0.61340000  0.20370000  1.0 -0.1369033197
C  C173  1  0.79630000  0.56900000  0.38660000  1.0 -0.1369033197
C  C174  1  0.79630000  0.43100000  0.61340000  1.0 -0.1349789664
C  C175  1  0.20370000  0.43100000  0.38660000  1.0 -0.1369033197
C  C176  1  0.20370000  0.56900000  0.61340000  1.0 -0.1369033197
C  C177  1  0.38660000  0.79630000  0.56900000  1.0 -0.1369033197
C  C178  1  0.61340000  0.79630000  0.43100000  1.0 -0.1369033197
C  C179  1  0.38660000  0.20370000  0.43100000  1.0 -0.1349789664
C  C180  1  0.61340000  0.20370000  0.56900000  1.0 -0.1349789664
C  C181  1  0.88660000  0.06900000  0.29630000  1.0 -0.1349789664
C  C182  1  0.11340000  0.93100000  0.29630000  1.0 -0.1369033197
C  C183  1  0.88660000  0.93100000  0.70370000  1.0 -0.1369033197
C  C184  1  0.11340000  0.06900000  0.70370000  1.0 -0.1349789664
C  C185  1  0.06900000  0.29630000  0.88660000  1.0 -0.1349789664
C  C186  1  0.93100000  0.29630000  0.11340000  1.0 -0.1349789664
C  C187  1  0.93100000  0.70370000  0.88660000  1.0 -0.1349789664
C  C188  1  0.06900000  0.70370000  0.11340000  1.0 -0.1369033197
C  C189  1  0.29630000  0.88660000  0.06900000  1.0 -0.1369033197
C  C190  1  0.29630000  0.11340000  0.93100000  1.0 -0.1349789664
C  C191  1  0.70370000  0.88660000  0.93100000  1.0 -0.1369033197
C  C192  1  0.70370000  0.11340000  0.06900000  1.0 -0.1349789664
N  N1  1  0.52360000  0.48630000  0.79820000  1.0 -0.1062610065
N  N2  1  0.47640000  0.51370000  0.79820000  1.0 -0.1062610065
N  N3  1  0.47640000  0.48630000  0.20180000  1.0 -0.1062610065
N  N4  1  0.52360000  0.51370000  0.20180000  1.0 -0.1062610065
N  N5  1  0.79820000  0.52360000  0.48630000  1.0 -0.1062610065
N  N6  1  0.79820000  0.47640000  0.51370000  1.0 -0.1062610065
N  N7  1  0.20180000  0.47640000  0.48630000  1.0 -0.1062610065
N  N8  1  0.20180000  0.52360000  0.51370000  1.0 -0.1062610065
N  N9  1  0.48630000  0.79820000  0.52360000  1.0 -0.1062610065
N  N10  1  0.51370000  0.79820000  0.47640000  1.0 -0.1062610065
N  N11  1  0.48630000  0.20180000  0.47640000  1.0 -0.1062610065
N  N12  1  0.51370000  0.20180000  0.52360000  1.0 -0.1062610065
N  N13  1  0.98630000  0.02360000  0.29820000  1.0 -0.1062610065
N  N14  1  0.01370000  0.97640000  0.29820000  1.0 -0.1062610065
N  N15  1  0.98630000  0.97640000  0.70180000  1.0 -0.1062610065
N  N16  1  0.01370000  0.02360000  0.70180000  1.0 -0.1062610065
N  N17  1  0.02360000  0.29820000  0.98630000  1.0 -0.1062610065
N  N18  1  0.97640000  0.29820000  0.01370000  1.0 -0.1062610065
N  N19  1  0.97640000  0.70180000  0.98630000  1.0 -0.1062610065
N  N20  1  0.02360000  0.70180000  0.01370000  1.0 -0.1062610065
N  N21  1  0.29820000  0.98630000  0.02360000  1.0 -0.1062610065
N  N22  1  0.29820000  0.01370000  0.97640000  1.0 -0.1062610065
N  N23  1  0.70180000  0.98630000  0.97640000  1.0 -0.1062610065
N  N24  1  0.70180000  0.01370000  0.02360000  1.0 -0.1062610065
O  O1  1  0.75920000  0.24080000  0.75920000  1.0 -0.8524609819
O  O2  1  0.24080000  0.75920000  0.75920000  1.0 -0.8524609819
O  O3  1  0.24080000  0.24080000  0.24080000  1.0 -0.8524609819
O  O4  1  0.75920000  0.75920000  0.24080000  1.0 -0.8524609819
O  O5  1  0.74080000  0.25920000  0.25920000  1.0 -0.8524609819
O  O6  1  0.25920000  0.74080000  0.25920000  1.0 -0.8524609819
O  O7  1  0.74080000  0.74080000  0.74080000  1.0 -0.8524609819
O  O8  1  0.25920000  0.25920000  0.74080000  1.0 -0.8524609819
O  O9  1  0.35030000  0.33130000  0.79580000  1.0 -0.5260975276
O  O10  1  0.64970000  0.66870000  0.79580000  1.0 -0.5260975276
O  O11  1  0.64970000  0.33130000  0.20420000  1.0 -0.5260975276
O  O12  1  0.35030000  0.66870000  0.20420000  1.0 -0.5260975276
O  O13  1  0.79580000  0.35030000  0.33130000  1.0 -0.5260975276
O  O14  1  0.79580000  0.64970000  0.66870000  1.0 -0.5260975276
O  O15  1  0.20420000  0.64970000  0.33130000  1.0 -0.5260975276
O  O16  1  0.20420000  0.35030000  0.66870000  1.0 -0.5260975276
O  O17  1  0.33130000  0.79580000  0.35030000  1.0 -0.5260975276
O  O18  1  0.66870000  0.79580000  0.64970000  1.0 -0.5260975276
O  O19  1  0.33130000  0.20420000  0.64970000  1.0 -0.5260975276
O  O20  1  0.66870000  0.20420000  0.35030000  1.0 -0.5260975276
O  O21  1  0.83130000  0.85030000  0.29580000  1.0 -0.5260975276
O  O22  1  0.16870000  0.14970000  0.29580000  1.0 -0.5260975276
O  O23  1  0.83130000  0.14970000  0.70420000  1.0 -0.5260975276
O  O24  1  0.16870000  0.85030000  0.70420000  1.0 -0.5260975276
O  O25  1  0.85030000  0.29580000  0.83130000  1.0 -0.5260975276
O  O26  1  0.14970000  0.29580000  0.16870000  1.0 -0.5260975276
O  O27  1  0.14970000  0.70420000  0.83130000  1.0 -0.5260975276
O  O28  1  0.85030000  0.70420000  0.16870000  1.0 -0.5260975276
O  O29  1  0.29580000  0.83130000  0.85030000  1.0 -0.5260975276
O  O30  1  0.29580000  0.16870000  0.14970000  1.0 -0.5260975276
O  O31  1  0.70420000  0.83130000  0.14970000  1.0 -0.5260975276
O  O32  1  0.70420000  0.16870000  0.85030000  1.0 -0.5260975276
O  O33  1  0.62540000  0.23500000  0.77570000  1.0 -0.5214404603
O  O34  1  0.37460000  0.76500000  0.77570000  1.0 -0.5214404603
O  O35  1  0.37460000  0.23500000  0.22430000  1.0 -0.5214404603
O  O36  1  0.62540000  0.76500000  0.22430000  1.0 -0.5214404603
O  O37  1  0.77570000  0.62540000  0.23500000  1.0 -0.5214404603
O  O38  1  0.77570000  0.37460000  0.76500000  1.0 -0.5214404603
O  O39  1  0.22430000  0.37460000  0.23500000  1.0 -0.5214404603
O  O40  1  0.22430000  0.62540000  0.76500000  1.0 -0.5214404603
O  O41  1  0.23500000  0.77570000  0.62540000  1.0 -0.5214404603
O  O42  1  0.76500000  0.77570000  0.37460000  1.0 -0.5214404603
O  O43  1  0.23500000  0.22430000  0.37460000  1.0 -0.5214404603
O  O44  1  0.76500000  0.22430000  0.62540000  1.0 -0.5214404603
O  O45  1  0.73500000  0.12540000  0.27570000  1.0 -0.5214404603
O  O46  1  0.26500000  0.87460000  0.27570000  1.0 -0.5214404603
O  O47  1  0.73500000  0.87460000  0.72430000  1.0 -0.5214404603
O  O48  1  0.26500000  0.12540000  0.72430000  1.0 -0.5214404603
O  O49  1  0.12540000  0.27570000  0.73500000  1.0 -0.5214404603
O  O50  1  0.87460000  0.27570000  0.26500000  1.0 -0.5214404603
O  O51  1  0.87460000  0.72430000  0.73500000  1.0 -0.5214404603
O  O52  1  0.12540000  0.72430000  0.26500000  1.0 -0.5214404603
O  O53  1  0.27570000  0.73500000  0.12540000  1.0 -0.5214404603
O  O54  1  0.27570000  0.26500000  0.87460000  1.0 -0.5214404603
O  O55  1  0.72430000  0.73500000  0.87460000  1.0 -0.5214404603
O  O56  1  0.72430000  0.26500000  0.12540000  1.0 -0.5214404603
O  O57  1  0.39290000  0.24750000  0.75580000  1.0 -0.5508974507
O  O58  1  0.60710000  0.75250000  0.75580000  1.0 -0.5508974507
O  O59  1  0.60710000  0.24750000  0.24420000  1.0 -0.5508974507
O  O60  1  0.39290000  0.75250000  0.24420000  1.0 -0.5508974507
O  O61  1  0.75580000  0.39290000  0.24750000  1.0 -0.5508974507
O  O62  1  0.75580000  0.60710000  0.75250000  1.0 -0.5508974507
O  O63  1  0.24420000  0.60710000  0.24750000  1.0 -0.5508974507
O  O64  1  0.24420000  0.39290000  0.75250000  1.0 -0.5508974507
O  O65  1  0.24750000  0.75580000  0.39290000  1.0 -0.5508974507
O  O66  1  0.75250000  0.75580000  0.60710000  1.0 -0.5508974507
O  O67  1  0.24750000  0.24420000  0.60710000  1.0 -0.5508974507
O  O68  1  0.75250000  0.24420000  0.39290000  1.0 -0.5508974507
O  O69  1  0.74750000  0.89290000  0.25580000  1.0 -0.5508974507
O  O70  1  0.25250000  0.10710000  0.25580000  1.0 -0.5508974507
O  O71  1  0.74750000  0.10710000  0.74420000  1.0 -0.5508974507
O  O72  1  0.25250000  0.89290000  0.74420000  1.0 -0.5508974507
O  O73  1  0.89290000  0.25580000  0.74750000  1.0 -0.5508974507
O  O74  1  0.10710000  0.25580000  0.25250000  1.0 -0.5508974507
O  O75  1  0.10710000  0.74420000  0.74750000  1.0 -0.5508974507
O  O76  1  0.89290000  0.74420000  0.25250000  1.0 -0.5508974507
O  O77  1  0.25580000  0.74750000  0.89290000  1.0 -0.5508974507
O  O78  1  0.25580000  0.25250000  0.10710000  1.0 -0.5508974507
O  O79  1  0.74420000  0.74750000  0.10710000  1.0 -0.5508974507
O  O80  1  0.74420000  0.25250000  0.89290000  1.0 -0.5508974507
O  O81  1  0.67040000  0.31830000  0.81230000  1.0 -0.5361238833
O  O82  1  0.32960000  0.68170000  0.81230000  1.0 -0.5361238833
O  O83  1  0.32960000  0.31830000  0.18770000  1.0 -0.5361238833
O  O84  1  0.67040000  0.68170000  0.18770000  1.0 -0.5361238833
O  O85  1  0.81230000  0.67040000  0.31830000  1.0 -0.5361238833
O  O86  1  0.81230000  0.32960000  0.68170000  1.0 -0.5361238833
O  O87  1  0.18770000  0.32960000  0.31830000  1.0 -0.5361238833
O  O88  1  0.18770000  0.67040000  0.68170000  1.0 -0.5361238833
O  O89  1  0.31830000  0.81230000  0.67040000  1.0 -0.5361238833
O  O90  1  0.68170000  0.81230000  0.32960000  1.0 -0.5361238833
O  O91  1  0.31830000  0.18770000  0.32960000  1.0 -0.5361238833
O  O92  1  0.68170000  0.18770000  0.67040000  1.0 -0.5361238833
O  O93  1  0.81830000  0.17040000  0.31230000  1.0 -0.5361238833
O  O94  1  0.18170000  0.82960000  0.31230000  1.0 -0.5361238833
O  O95  1  0.81830000  0.82960000  0.68770000  1.0 -0.5361238833
O  O96  1  0.18170000  0.17040000  0.68770000  1.0 -0.5361238833
O  O97  1  0.17040000  0.31230000  0.81830000  1.0 -0.5361238833
O  O98  1  0.82960000  0.31230000  0.18170000  1.0 -0.5361238833
O  O99  1  0.82960000  0.68770000  0.81830000  1.0 -0.5361238833
O  O100  1  0.17040000  0.68770000  0.18170000  1.0 -0.5361238833
O  O101  1  0.31230000  0.81830000  0.17040000  1.0 -0.5361238833
O  O102  1  0.31230000  0.18170000  0.82960000  1.0 -0.5361238833
O  O103  1  0.68770000  0.81830000  0.82960000  1.0 -0.5361238833
O  O104  1  0.68770000  0.18170000  0.17040000  1.0 -0.5361238833
