# DDEC6 charges by PACMAN v1.1 (https://github.com/mtap-research/PACMAN-charge/)
data_LIDFUD_FSR_pacman
_symmetry_space_group_name_H-M   'P 1'
_cell_length_a   21.90760000
_cell_length_b   21.90760000
_cell_length_c   21.90760000
_cell_angle_alpha   90.00000000
_cell_angle_beta   90.00000000
_cell_angle_gamma   90.00000000
_symmetry_Int_Tables_number   1
_chemical_formula_structural   Fe3H9C24N3O16
_chemical_formula_sum   'Fe24 H72 C192 N24 O128'
_cell_volume   10514.39790327
_cell_formula_units_Z   8
loop_
 _symmetry_equiv_pos_site_id
 _symmetry_equiv_pos_as_xyz
  1  'x, y, z'
loop_
 _atom_site_type_symbol
 _atom_site_label
 _atom_site_symmetry_multiplicity
 _atom_site_fract_x
 _atom_site_fract_y
 _atom_site_fract_z
 _atom_site_occupancy
 _atom_site_charge
Fe  Fe1  1  0.67960000  0.80341000  0.73855000  1.0 1.2743676757
Fe  Fe2  1  0.32040000  0.19659000  0.73855000  1.0 1.2743676757
Fe  Fe3  1  0.32040000  0.80341000  0.26145000  1.0 1.2743676757
Fe  Fe4  1  0.67960000  0.19659000  0.26145000  1.0 1.2743676757
Fe  Fe5  1  0.73855000  0.67960000  0.80341000  1.0 1.2743676757
Fe  Fe6  1  0.73855000  0.32040000  0.19659000  1.0 1.2743676757
Fe  Fe7  1  0.26145000  0.32040000  0.80341000  1.0 1.2743676757
Fe  Fe8  1  0.26145000  0.67960000  0.19659000  1.0 1.2743676757
Fe  Fe9  1  0.80341000  0.73855000  0.67960000  1.0 1.2743676757
Fe  Fe10  1  0.19659000  0.73855000  0.32040000  1.0 1.2743676757
Fe  Fe11  1  0.80341000  0.26145000  0.32040000  1.0 1.2743676757
Fe  Fe12  1  0.19659000  0.26145000  0.67960000  1.0 1.2743676757
Fe  Fe13  1  0.30341000  0.17960000  0.23855000  1.0 1.2743676757
Fe  Fe14  1  0.69659000  0.82040000  0.23855000  1.0 1.2743676757
Fe  Fe15  1  0.30341000  0.82040000  0.76145000  1.0 1.2743676757
Fe  Fe16  1  0.69659000  0.17960000  0.76145000  1.0 1.2743676757
Fe  Fe17  1  0.17960000  0.23855000  0.30341000  1.0 1.2743676757
Fe  Fe18  1  0.82040000  0.23855000  0.69659000  1.0 1.2743676757
Fe  Fe19  1  0.82040000  0.76145000  0.30341000  1.0 1.2743676757
Fe  Fe20  1  0.17960000  0.76145000  0.69659000  1.0 1.2743676757
Fe  Fe21  1  0.23855000  0.30341000  0.17960000  1.0 1.2743676757
Fe  Fe22  1  0.23855000  0.69659000  0.82040000  1.0 1.2743676757
Fe  Fe23  1  0.76145000  0.30341000  0.82040000  1.0 1.2743676757
Fe  Fe24  1  0.76145000  0.69659000  0.17960000  1.0 1.2743676757
H  H1  1  0.74520000  0.77560000  0.49076000  1.0 0.1391436393
H  H2  1  0.25480000  0.22440000  0.49076000  1.0 0.1391436393
H  H3  1  0.25480000  0.77560000  0.50924000  1.0 0.1391436393
H  H4  1  0.74520000  0.22440000  0.50924000  1.0 0.1391436393
H  H5  1  0.49076000  0.74520000  0.77560000  1.0 0.1391436393
H  H6  1  0.49076000  0.25480000  0.22440000  1.0 0.1391436393
H  H7  1  0.50924000  0.25480000  0.77560000  1.0 0.1391436393
H  H8  1  0.50924000  0.74520000  0.22440000  1.0 0.1391436393
H  H9  1  0.77560000  0.49076000  0.74520000  1.0 0.1391436393
H  H10  1  0.22440000  0.49076000  0.25480000  1.0 0.1391436393
H  H11  1  0.77560000  0.50924000  0.25480000  1.0 0.1391436393
H  H12  1  0.22440000  0.50924000  0.74520000  1.0 0.1391436393
H  H13  1  0.27560000  0.24520000  0.99076000  1.0 0.1391436393
H  H14  1  0.72440000  0.75480000  0.99076000  1.0 0.1391436393
H  H15  1  0.27560000  0.75480000  0.00924000  1.0 0.1391436393
H  H16  1  0.72440000  0.24520000  0.00924000  1.0 0.1391436393
H  H17  1  0.24520000  0.99076000  0.27560000  1.0 0.1391436393
H  H18  1  0.75480000  0.99076000  0.72440000  1.0 0.1391436393
H  H19  1  0.75480000  0.00924000  0.27560000  1.0 0.1391436393
H  H20  1  0.24520000  0.00924000  0.72440000  1.0 0.1391436393
H  H21  1  0.99076000  0.27560000  0.24520000  1.0 0.1391436393
H  H22  1  0.99076000  0.72440000  0.75480000  1.0 0.1391436393
H  H23  1  0.00924000  0.27560000  0.75480000  1.0 0.1391436393
H  H24  1  0.00924000  0.72440000  0.24520000  1.0 0.1391436393
H  H25  1  0.58400000  0.79459000  0.57500000  1.0 0.1307946002
H  H26  1  0.41600000  0.20541000  0.57500000  1.0 0.1307946002
H  H27  1  0.41600000  0.79459000  0.42500000  1.0 0.1307946002
H  H28  1  0.58400000  0.20541000  0.42500000  1.0 0.1307946002
H  H29  1  0.57500000  0.58400000  0.79459000  1.0 0.1307946002
H  H30  1  0.57500000  0.41600000  0.20541000  1.0 0.1307946002
H  H31  1  0.42500000  0.41600000  0.79459000  1.0 0.1307946002
H  H32  1  0.42500000  0.58400000  0.20541000  1.0 0.1307946002
H  H33  1  0.79459000  0.57500000  0.58400000  1.0 0.1307946002
H  H34  1  0.20541000  0.57500000  0.41600000  1.0 0.1307946002
H  H35  1  0.79459000  0.42500000  0.41600000  1.0 0.1307946002
H  H36  1  0.20541000  0.42500000  0.58400000  1.0 0.1307946002
H  H37  1  0.29459000  0.08400000  0.07500000  1.0 0.1307946002
H  H38  1  0.70541000  0.91600000  0.07500000  1.0 0.1307946002
H  H39  1  0.29459000  0.91600000  0.92500000  1.0 0.1307946002
H  H40  1  0.70541000  0.08400000  0.92500000  1.0 0.1307946002
H  H41  1  0.08400000  0.07500000  0.29459000  1.0 0.1307946002
H  H42  1  0.91600000  0.07500000  0.70541000  1.0 0.1307946002
H  H43  1  0.91600000  0.92500000  0.29459000  1.0 0.1307946002
H  H44  1  0.08400000  0.92500000  0.70541000  1.0 0.1307946002
H  H45  1  0.07500000  0.29459000  0.08400000  1.0 0.1307946002
H  H46  1  0.07500000  0.70541000  0.91600000  1.0 0.1307946002
H  H47  1  0.92500000  0.29459000  0.91600000  1.0 0.1307946002
H  H48  1  0.92500000  0.70541000  0.08400000  1.0 0.1307946002
H  H49  1  0.59333000  0.80479000  0.39223000  1.0 0.1391436393
H  H50  1  0.40667000  0.19521000  0.39223000  1.0 0.1391436393
H  H51  1  0.40667000  0.80479000  0.60777000  1.0 0.1391436393
H  H52  1  0.59333000  0.19521000  0.60777000  1.0 0.1391436393
H  H53  1  0.39223000  0.59333000  0.80479000  1.0 0.1391436393
H  H54  1  0.39223000  0.40667000  0.19521000  1.0 0.1391436393
H  H55  1  0.60777000  0.40667000  0.80479000  1.0 0.1391436393
H  H56  1  0.60777000  0.59333000  0.19521000  1.0 0.1391436393
H  H57  1  0.80479000  0.39223000  0.59333000  1.0 0.1391436393
H  H58  1  0.19521000  0.39223000  0.40667000  1.0 0.1391436393
H  H59  1  0.80479000  0.60777000  0.40667000  1.0 0.1391436393
H  H60  1  0.19521000  0.60777000  0.59333000  1.0 0.1391436393
H  H61  1  0.30479000  0.09333000  0.89223000  1.0 0.1391436393
H  H62  1  0.69521000  0.90667000  0.89223000  1.0 0.1391436393
H  H63  1  0.30479000  0.90667000  0.10777000  1.0 0.1391436393
H  H64  1  0.69521000  0.09333000  0.10777000  1.0 0.1391436393
H  H65  1  0.09333000  0.89223000  0.30479000  1.0 0.1391436393
H  H66  1  0.90667000  0.89223000  0.69521000  1.0 0.1391436393
H  H67  1  0.90667000  0.10777000  0.30479000  1.0 0.1391436393
H  H68  1  0.09333000  0.10777000  0.69521000  1.0 0.1391436393
H  H69  1  0.89223000  0.30479000  0.09333000  1.0 0.1391436393
H  H70  1  0.89223000  0.69521000  0.90667000  1.0 0.1391436393
H  H71  1  0.10777000  0.30479000  0.90667000  1.0 0.1391436393
H  H72  1  0.10777000  0.69521000  0.09333000  1.0 0.1391436393
C  C1  1  0.70350000  0.78330000  0.48890000  1.0 -0.088179987
C  C2  1  0.29650000  0.21670000  0.48890000  1.0 -0.088179987
C  C3  1  0.29650000  0.78330000  0.51110000  1.0 -0.088179987
C  C4  1  0.70350000  0.21670000  0.51110000  1.0 -0.088179987
C  C5  1  0.48890000  0.70350000  0.78330000  1.0 -0.088179987
C  C6  1  0.48890000  0.29650000  0.21670000  1.0 -0.088179987
C  C7  1  0.51110000  0.29650000  0.78330000  1.0 -0.088179987
C  C8  1  0.51110000  0.70350000  0.21670000  1.0 -0.088179987
C  C9  1  0.78330000  0.48890000  0.70350000  1.0 -0.088179987
C  C10  1  0.21670000  0.48890000  0.29650000  1.0 -0.088179987
C  C11  1  0.78330000  0.51110000  0.29650000  1.0 -0.088179987
C  C12  1  0.21670000  0.51110000  0.70350000  1.0 -0.088179987
C  C13  1  0.28330000  0.20350000  0.98890000  1.0 -0.088179987
C  C14  1  0.71670000  0.79650000  0.98890000  1.0 -0.088179987
C  C15  1  0.28330000  0.79650000  0.01110000  1.0 -0.088179987
C  C16  1  0.71670000  0.20350000  0.01110000  1.0 -0.088179987
C  C17  1  0.20350000  0.98890000  0.28330000  1.0 -0.088179987
C  C18  1  0.79650000  0.98890000  0.71670000  1.0 -0.088179987
C  C19  1  0.79650000  0.01110000  0.28330000  1.0 -0.088179987
C  C20  1  0.20350000  0.01110000  0.71670000  1.0 -0.088179987
C  C21  1  0.98890000  0.28330000  0.20350000  1.0 -0.088179987
C  C22  1  0.98890000  0.71670000  0.79650000  1.0 -0.088179987
C  C23  1  0.01110000  0.28330000  0.79650000  1.0 -0.088179987
C  C24  1  0.01110000  0.71670000  0.20350000  1.0 -0.088179987
C  C25  1  0.66860000  0.78560000  0.54230000  1.0 -0.0242829349
C  C26  1  0.33140000  0.21440000  0.54230000  1.0 -0.0242829349
C  C27  1  0.33140000  0.78560000  0.45770000  1.0 -0.0242829349
C  C28  1  0.66860000  0.21440000  0.45770000  1.0 -0.0242829349
C  C29  1  0.54230000  0.66860000  0.78560000  1.0 -0.0242829349
C  C30  1  0.54230000  0.33140000  0.21440000  1.0 -0.0242829349
C  C31  1  0.45770000  0.33140000  0.78560000  1.0 -0.0242829349
C  C32  1  0.45770000  0.66860000  0.21440000  1.0 -0.0242829349
C  C33  1  0.78560000  0.54230000  0.66860000  1.0 -0.0242829349
C  C34  1  0.21440000  0.54230000  0.33140000  1.0 -0.0242829349
C  C35  1  0.78560000  0.45770000  0.33140000  1.0 -0.0242829349
C  C36  1  0.21440000  0.45770000  0.66860000  1.0 -0.0242829349
C  C37  1  0.28560000  0.16860000  0.04230000  1.0 -0.0242829349
C  C38  1  0.71440000  0.83140000  0.04230000  1.0 -0.0242829349
C  C39  1  0.28560000  0.83140000  0.95770000  1.0 -0.0242829349
C  C40  1  0.71440000  0.16860000  0.95770000  1.0 -0.0242829349
C  C41  1  0.16860000  0.04230000  0.28560000  1.0 -0.0242829349
C  C42  1  0.83140000  0.04230000  0.71440000  1.0 -0.0242829349
C  C43  1  0.83140000  0.95770000  0.28560000  1.0 -0.0242829349
C  C44  1  0.16860000  0.95770000  0.71440000  1.0 -0.0242829349
C  C45  1  0.04230000  0.28560000  0.16860000  1.0 -0.0242829349
C  C46  1  0.04230000  0.71440000  0.83140000  1.0 -0.0242829349
C  C47  1  0.95770000  0.28560000  0.83140000  1.0 -0.0242829349
C  C48  1  0.95770000  0.71440000  0.16860000  1.0 -0.0242829349
C  C49  1  0.69840000  0.77700000  0.60380000  1.0 0.5812976961
C  C50  1  0.30160000  0.22300000  0.60380000  1.0 0.5812976961
C  C51  1  0.30160000  0.77700000  0.39620000  1.0 0.5812976961
C  C52  1  0.69840000  0.22300000  0.39620000  1.0 0.5812976961
C  C53  1  0.60380000  0.69840000  0.77700000  1.0 0.5812976961
C  C54  1  0.60380000  0.30160000  0.22300000  1.0 0.5812976961
C  C55  1  0.39620000  0.30160000  0.77700000  1.0 0.5812976961
C  C56  1  0.39620000  0.69840000  0.22300000  1.0 0.5812976961
C  C57  1  0.77700000  0.60380000  0.69840000  1.0 0.5812976961
C  C58  1  0.22300000  0.60380000  0.30160000  1.0 0.5812976961
C  C59  1  0.77700000  0.39620000  0.30160000  1.0 0.5812976961
C  C60  1  0.22300000  0.39620000  0.69840000  1.0 0.5812976961
C  C61  1  0.27700000  0.19840000  0.10380000  1.0 0.5812976961
C  C62  1  0.72300000  0.80160000  0.10380000  1.0 0.5812976961
C  C63  1  0.27700000  0.80160000  0.89620000  1.0 0.5812976961
C  C64  1  0.72300000  0.19840000  0.89620000  1.0 0.5812976961
C  C65  1  0.19840000  0.10380000  0.27700000  1.0 0.5812976961
C  C66  1  0.80160000  0.10380000  0.72300000  1.0 0.5812976961
C  C67  1  0.80160000  0.89620000  0.27700000  1.0 0.5812976961
C  C68  1  0.19840000  0.89620000  0.72300000  1.0 0.5812976961
C  C69  1  0.10380000  0.27700000  0.19840000  1.0 0.5812976961
C  C70  1  0.10380000  0.72300000  0.80160000  1.0 0.5812976961
C  C71  1  0.89620000  0.27700000  0.80160000  1.0 0.5812976961
C  C72  1  0.89620000  0.72300000  0.19840000  1.0 0.5812976961
C  C73  1  0.67470000  0.79270000  0.43220000  1.0 -0.0482517042
C  C74  1  0.32530000  0.20730000  0.43220000  1.0 -0.0482517042
C  C75  1  0.32530000  0.79270000  0.56780000  1.0 -0.0482517042
C  C76  1  0.67470000  0.20730000  0.56780000  1.0 -0.0482517042
C  C77  1  0.43220000  0.67470000  0.79270000  1.0 -0.0482517042
C  C78  1  0.43220000  0.32530000  0.20730000  1.0 -0.0482517042
C  C79  1  0.56780000  0.32530000  0.79270000  1.0 -0.0482517042
C  C80  1  0.56780000  0.67470000  0.20730000  1.0 -0.0482517042
C  C81  1  0.79270000  0.43220000  0.67470000  1.0 -0.0482517042
C  C82  1  0.20730000  0.43220000  0.32530000  1.0 -0.0482517042
C  C83  1  0.79270000  0.56780000  0.32530000  1.0 -0.0482517042
C  C84  1  0.20730000  0.56780000  0.67470000  1.0 -0.0482517042
C  C85  1  0.29270000  0.17470000  0.93220000  1.0 -0.0482517042
C  C86  1  0.70730000  0.82530000  0.93220000  1.0 -0.0482517042
C  C87  1  0.29270000  0.82530000  0.06780000  1.0 -0.0482517042
C  C88  1  0.70730000  0.17470000  0.06780000  1.0 -0.0482517042
C  C89  1  0.17470000  0.93220000  0.29270000  1.0 -0.0482517042
C  C90  1  0.82530000  0.93220000  0.70730000  1.0 -0.0482517042
C  C91  1  0.82530000  0.06780000  0.29270000  1.0 -0.0482517042
C  C92  1  0.17470000  0.06780000  0.70730000  1.0 -0.0482517042
C  C93  1  0.93220000  0.29270000  0.17470000  1.0 -0.0482517042
C  C94  1  0.93220000  0.70730000  0.82530000  1.0 -0.0482517042
C  C95  1  0.06780000  0.29270000  0.82530000  1.0 -0.0482517042
C  C96  1  0.06780000  0.70730000  0.17470000  1.0 -0.0482517042
C  C97  1  0.70880000  0.79330000  0.37410000  1.0 0.5812976961
C  C98  1  0.29120000  0.20670000  0.37410000  1.0 0.5812976961
C  C99  1  0.29120000  0.79330000  0.62590000  1.0 0.5812976961
C  C100  1  0.70880000  0.20670000  0.62590000  1.0 0.5812976961
C  C101  1  0.37410000  0.70880000  0.79330000  1.0 0.5812976961
C  C102  1  0.37410000  0.29120000  0.20670000  1.0 0.5812976961
C  C103  1  0.62590000  0.29120000  0.79330000  1.0 0.5812976961
C  C104  1  0.62590000  0.70880000  0.20670000  1.0 0.5812976961
C  C105  1  0.79330000  0.37410000  0.70880000  1.0 0.5812976961
C  C106  1  0.20670000  0.37410000  0.29120000  1.0 0.5812976961
C  C107  1  0.79330000  0.62590000  0.29120000  1.0 0.5812976961
C  C108  1  0.20670000  0.62590000  0.70880000  1.0 0.5812976961
C  C109  1  0.29330000  0.20880000  0.87410000  1.0 0.5812976961
C  C110  1  0.70670000  0.79120000  0.87410000  1.0 0.5812976961
C  C111  1  0.29330000  0.79120000  0.12590000  1.0 0.5812976961
C  C112  1  0.70670000  0.20880000  0.12590000  1.0 0.5812976961
C  C113  1  0.20880000  0.87410000  0.29330000  1.0 0.5812976961
C  C114  1  0.79120000  0.87410000  0.70670000  1.0 0.5812976961
C  C115  1  0.79120000  0.12590000  0.29330000  1.0 0.5812976961
C  C116  1  0.20880000  0.12590000  0.70670000  1.0 0.5812976961
C  C117  1  0.87410000  0.29330000  0.20880000  1.0 0.5812976961
C  C118  1  0.87410000  0.70670000  0.79120000  1.0 0.5812976961
C  C119  1  0.12590000  0.29330000  0.79120000  1.0 0.5812976961
C  C120  1  0.12590000  0.70670000  0.20880000  1.0 0.5812976961
C  C121  1  0.60700000  0.79360000  0.53940000  1.0 -0.1378902836
C  C122  1  0.39300000  0.20640000  0.53940000  1.0 -0.1378902836
C  C123  1  0.39300000  0.79360000  0.46060000  1.0 -0.1378902836
C  C124  1  0.60700000  0.20640000  0.46060000  1.0 -0.1378902836
C  C125  1  0.53940000  0.60700000  0.79360000  1.0 -0.1378902836
C  C126  1  0.53940000  0.39300000  0.20640000  1.0 -0.1378902836
C  C127  1  0.46060000  0.39300000  0.79360000  1.0 -0.1378902836
C  C128  1  0.46060000  0.60700000  0.20640000  1.0 -0.1378902836
C  C129  1  0.79360000  0.53940000  0.60700000  1.0 -0.1378902836
C  C130  1  0.20640000  0.53940000  0.39300000  1.0 -0.1378902836
C  C131  1  0.79360000  0.46060000  0.39300000  1.0 -0.1378902836
C  C132  1  0.20640000  0.46060000  0.60700000  1.0 -0.1378902836
C  C133  1  0.29360000  0.10700000  0.03940000  1.0 -0.1378902836
C  C134  1  0.70640000  0.89300000  0.03940000  1.0 -0.1378902836
C  C135  1  0.29360000  0.89300000  0.96060000  1.0 -0.1378902836
C  C136  1  0.70640000  0.10700000  0.96060000  1.0 -0.1378902836
C  C137  1  0.10700000  0.03940000  0.29360000  1.0 -0.1378902836
C  C138  1  0.89300000  0.03940000  0.70640000  1.0 -0.1378902836
C  C139  1  0.89300000  0.96060000  0.29360000  1.0 -0.1378902836
C  C140  1  0.10700000  0.96060000  0.70640000  1.0 -0.1378902836
C  C141  1  0.03940000  0.29360000  0.10700000  1.0 -0.1378902836
C  C142  1  0.03940000  0.70640000  0.89300000  1.0 -0.1378902836
C  C143  1  0.96060000  0.29360000  0.89300000  1.0 -0.1378902836
C  C144  1  0.96060000  0.70640000  0.10700000  1.0 -0.1378902836
C  C145  1  0.61270000  0.80000000  0.42970000  1.0 -0.1378902836
C  C146  1  0.38730000  0.20000000  0.42970000  1.0 -0.1378902836
C  C147  1  0.38730000  0.80000000  0.57030000  1.0 -0.1378902836
C  C148  1  0.61270000  0.20000000  0.57030000  1.0 -0.1378902836
C  C149  1  0.42970000  0.61270000  0.80000000  1.0 -0.1378902836
C  C150  1  0.42970000  0.38730000  0.20000000  1.0 -0.1378902836
C  C151  1  0.57030000  0.38730000  0.80000000  1.0 -0.1279010233
C  C152  1  0.57030000  0.61270000  0.20000000  1.0 -0.1378902836
C  C153  1  0.80000000  0.42970000  0.61270000  1.0 -0.1378902836
C  C154  1  0.20000000  0.42970000  0.38730000  1.0 -0.1378902836
C  C155  1  0.80000000  0.57030000  0.38730000  1.0 -0.1378902836
C  C156  1  0.20000000  0.57030000  0.61270000  1.0 -0.1378902836
C  C157  1  0.30000000  0.11270000  0.92970000  1.0 -0.1279010233
C  C158  1  0.70000000  0.88730000  0.92970000  1.0 -0.1279010233
C  C159  1  0.30000000  0.88730000  0.07030000  1.0 -0.1378902836
C  C160  1  0.70000000  0.11270000  0.07030000  1.0 -0.1378902836
C  C161  1  0.11270000  0.92970000  0.30000000  1.0 -0.1378902836
C  C162  1  0.88730000  0.92970000  0.70000000  1.0 -0.1378902836
C  C163  1  0.88730000  0.07030000  0.30000000  1.0 -0.1378902836
C  C164  1  0.11270000  0.07030000  0.70000000  1.0 -0.1378902836
C  C165  1  0.92970000  0.30000000  0.11270000  1.0 -0.1378902836
C  C166  1  0.92970000  0.70000000  0.88730000  1.0 -0.1279010233
C  C167  1  0.07030000  0.30000000  0.88730000  1.0 -0.1279010233
C  C168  1  0.07030000  0.70000000  0.11270000  1.0 -0.1378902836
C  C169  1  0.57880000  0.80030000  0.48310000  1.0 0.1391436393
C  C170  1  0.42120000  0.19970000  0.48310000  1.0 0.1391436393
C  C171  1  0.42120000  0.80030000  0.51690000  1.0 0.1391436393
C  C172  1  0.57880000  0.19970000  0.51690000  1.0 0.1391436393
C  C173  1  0.48310000  0.57880000  0.80030000  1.0 0.1391436393
C  C174  1  0.48310000  0.42120000  0.19970000  1.0 0.1391436393
C  C175  1  0.51690000  0.42120000  0.80030000  1.0 0.1391436393
C  C176  1  0.51690000  0.57880000  0.19970000  1.0 0.1391436393
C  C177  1  0.80030000  0.48310000  0.57880000  1.0 0.1391436393
C  C178  1  0.19970000  0.48310000  0.42120000  1.0 0.1391436393
C  C179  1  0.80030000  0.51690000  0.42120000  1.0 0.1391436393
C  C180  1  0.19970000  0.51690000  0.57880000  1.0 0.1391436393
C  C181  1  0.30030000  0.07880000  0.98310000  1.0 0.1391436393
C  C182  1  0.69970000  0.92120000  0.98310000  1.0 0.1391436393
C  C183  1  0.30030000  0.92120000  0.01690000  1.0 0.1391436393
C  C184  1  0.69970000  0.07880000  0.01690000  1.0 0.1391436393
C  C185  1  0.07880000  0.98310000  0.30030000  1.0 0.1391436393
C  C186  1  0.92120000  0.98310000  0.69970000  1.0 0.1391436393
C  C187  1  0.92120000  0.01690000  0.30030000  1.0 0.1391436393
C  C188  1  0.07880000  0.01690000  0.69970000  1.0 0.1391436393
C  C189  1  0.98310000  0.30030000  0.07880000  1.0 0.1391436393
C  C190  1  0.98310000  0.69970000  0.92120000  1.0 0.1391436393
C  C191  1  0.01690000  0.30030000  0.92120000  1.0 0.1391436393
C  C192  1  0.01690000  0.69970000  0.07880000  1.0 0.1391436393
N  N1  1  0.51410000  0.80310000  0.47600000  1.0 -0.1279010233
N  N2  1  0.48590000  0.19690000  0.47600000  1.0 -0.1279010233
N  N3  1  0.48590000  0.80310000  0.52400000  1.0 -0.1279010233
N  N4  1  0.51410000  0.19690000  0.52400000  1.0 -0.1245651836
N  N5  1  0.47600000  0.51410000  0.80310000  1.0 -0.1245651836
N  N6  1  0.47600000  0.48590000  0.19690000  1.0 -0.1279010233
N  N7  1  0.52400000  0.48590000  0.80310000  1.0 -0.1245651836
N  N8  1  0.52400000  0.51410000  0.19690000  1.0 -0.1279010233
N  N9  1  0.80310000  0.47600000  0.51410000  1.0 -0.1245651836
N  N10  1  0.19690000  0.47600000  0.48590000  1.0 -0.1279010233
N  N11  1  0.80310000  0.52400000  0.48590000  1.0 -0.1245651836
N  N12  1  0.19690000  0.52400000  0.51410000  1.0 -0.1279010233
N  N13  1  0.30310000  0.01410000  0.97600000  1.0 -0.1245651836
N  N14  1  0.69690000  0.98590000  0.97600000  1.0 -0.1245651836
N  N15  1  0.30310000  0.98590000  0.02400000  1.0 -0.1279010233
N  N16  1  0.69690000  0.01410000  0.02400000  1.0 -0.1279010233
N  N17  1  0.01410000  0.97600000  0.30310000  1.0 -0.1279010233
N  N18  1  0.98590000  0.97600000  0.69690000  1.0 -0.1245651836
N  N19  1  0.98590000  0.02400000  0.30310000  1.0 -0.1245651836
N  N20  1  0.01410000  0.02400000  0.69690000  1.0 -0.1245651836
N  N21  1  0.97600000  0.30310000  0.01410000  1.0 -0.1279010233
N  N22  1  0.97600000  0.69690000  0.98590000  1.0 -0.1245651836
N  N23  1  0.02400000  0.30310000  0.98590000  1.0 -0.1245651836
N  N24  1  0.02400000  0.69690000  0.01410000  1.0 -0.1279010233
O  O1  1  0.74037000  0.74037000  0.74037000  1.0 -0.9110831166
O  O2  1  0.25963000  0.25963000  0.74037000  1.0 -0.9110831166
O  O3  1  0.25963000  0.74037000  0.25963000  1.0 -0.9110831166
O  O4  1  0.74037000  0.25963000  0.25963000  1.0 -0.9110831166
O  O5  1  0.24037000  0.24037000  0.24037000  1.0 -0.9110831166
O  O6  1  0.75963000  0.75963000  0.24037000  1.0 -0.9110831166
O  O7  1  0.24037000  0.75963000  0.75963000  1.0 -0.9110831166
O  O8  1  0.75963000  0.24037000  0.75963000  1.0 -0.9110831166
O  O9  1  0.75040000  0.75540000  0.60601000  1.0 -0.512188634
O  O10  1  0.24960000  0.24460000  0.60601000  1.0 -0.512188634
O  O11  1  0.24960000  0.75540000  0.39399000  1.0 -0.512188634
O  O12  1  0.75040000  0.24460000  0.39399000  1.0 -0.512188634
O  O13  1  0.60601000  0.75040000  0.75540000  1.0 -0.512188634
O  O14  1  0.60601000  0.24960000  0.24460000  1.0 -0.512188634
O  O15  1  0.39399000  0.24960000  0.75540000  1.0 -0.512188634
O  O16  1  0.39399000  0.75040000  0.24460000  1.0 -0.512188634
O  O17  1  0.75540000  0.60601000  0.75040000  1.0 -0.512188634
O  O18  1  0.24460000  0.60601000  0.24960000  1.0 -0.512188634
O  O19  1  0.75540000  0.39399000  0.24960000  1.0 -0.512188634
O  O20  1  0.24460000  0.39399000  0.75040000  1.0 -0.512188634
O  O21  1  0.25540000  0.25040000  0.10601000  1.0 -0.512188634
O  O22  1  0.74460000  0.74960000  0.10601000  1.0 -0.512188634
O  O23  1  0.25540000  0.74960000  0.89399000  1.0 -0.512188634
O  O24  1  0.74460000  0.25040000  0.89399000  1.0 -0.512188634
O  O25  1  0.25040000  0.10601000  0.25540000  1.0 -0.512188634
O  O26  1  0.74960000  0.10601000  0.74460000  1.0 -0.512188634
O  O27  1  0.74960000  0.89399000  0.25540000  1.0 -0.512188634
O  O28  1  0.25040000  0.89399000  0.74460000  1.0 -0.512188634
O  O29  1  0.10601000  0.25540000  0.25040000  1.0 -0.512188634
O  O30  1  0.10601000  0.74460000  0.74960000  1.0 -0.512188634
O  O31  1  0.89399000  0.25540000  0.74960000  1.0 -0.512188634
O  O32  1  0.89399000  0.74460000  0.25040000  1.0 -0.512188634
O  O33  1  0.66620000  0.79430000  0.64876000  1.0 -0.5256215925
O  O34  1  0.33380000  0.20570000  0.64876000  1.0 -0.5256215925
O  O35  1  0.33380000  0.79430000  0.35124000  1.0 -0.5256215925
O  O36  1  0.66620000  0.20570000  0.35124000  1.0 -0.5256215925
O  O37  1  0.64876000  0.66620000  0.79430000  1.0 -0.5256215925
O  O38  1  0.64876000  0.33380000  0.20570000  1.0 -0.5256215925
O  O39  1  0.35124000  0.33380000  0.79430000  1.0 -0.5256215925
O  O40  1  0.35124000  0.66620000  0.20570000  1.0 -0.5256215925
O  O41  1  0.79430000  0.64876000  0.66620000  1.0 -0.5256215925
O  O42  1  0.20570000  0.64876000  0.33380000  1.0 -0.5256215925
O  O43  1  0.79430000  0.35124000  0.33380000  1.0 -0.5256215925
O  O44  1  0.20570000  0.35124000  0.66620000  1.0 -0.5256215925
O  O45  1  0.29430000  0.16620000  0.14876000  1.0 -0.5256215925
O  O46  1  0.70570000  0.83380000  0.14876000  1.0 -0.5256215925
O  O47  1  0.29430000  0.83380000  0.85124000  1.0 -0.5256215925
O  O48  1  0.70570000  0.16620000  0.85124000  1.0 -0.5256215925
O  O49  1  0.16620000  0.14876000  0.29430000  1.0 -0.5256215925
O  O50  1  0.83380000  0.14876000  0.70570000  1.0 -0.5256215925
O  O51  1  0.83380000  0.85124000  0.29430000  1.0 -0.5256215925
O  O52  1  0.16620000  0.85124000  0.70570000  1.0 -0.5256215925
O  O53  1  0.14876000  0.29430000  0.16620000  1.0 -0.5256215925
O  O54  1  0.14876000  0.70570000  0.83380000  1.0 -0.5256215925
O  O55  1  0.85124000  0.29430000  0.83380000  1.0 -0.5256215925
O  O56  1  0.85124000  0.70570000  0.16620000  1.0 -0.5256215925
O  O57  1  0.76290000  0.77630000  0.37386000  1.0 -0.512188634
O  O58  1  0.23710000  0.22370000  0.37386000  1.0 -0.512188634
O  O59  1  0.23710000  0.77630000  0.62614000  1.0 -0.512188634
O  O60  1  0.76290000  0.22370000  0.62614000  1.0 -0.512188634
O  O61  1  0.37386000  0.76290000  0.77630000  1.0 -0.512188634
O  O62  1  0.37386000  0.23710000  0.22370000  1.0 -0.512188634
O  O63  1  0.62614000  0.23710000  0.77630000  1.0 -0.512188634
O  O64  1  0.62614000  0.76290000  0.22370000  1.0 -0.512188634
O  O65  1  0.77630000  0.37386000  0.76290000  1.0 -0.512188634
O  O66  1  0.22370000  0.37386000  0.23710000  1.0 -0.512188634
O  O67  1  0.77630000  0.62614000  0.23710000  1.0 -0.512188634
O  O68  1  0.22370000  0.62614000  0.76290000  1.0 -0.512188634
O  O69  1  0.27630000  0.26290000  0.87386000  1.0 -0.512188634
O  O70  1  0.72370000  0.73710000  0.87386000  1.0 -0.512188634
O  O71  1  0.27630000  0.73710000  0.12614000  1.0 -0.512188634
O  O72  1  0.72370000  0.26290000  0.12614000  1.0 -0.512188634
O  O73  1  0.26290000  0.87386000  0.27630000  1.0 -0.512188634
O  O74  1  0.73710000  0.87386000  0.72370000  1.0 -0.512188634
O  O75  1  0.73710000  0.12614000  0.27630000  1.0 -0.512188634
O  O76  1  0.26290000  0.12614000  0.72370000  1.0 -0.512188634
O  O77  1  0.87386000  0.27630000  0.26290000  1.0 -0.512188634
O  O78  1  0.87386000  0.72370000  0.73710000  1.0 -0.512188634
O  O79  1  0.12614000  0.27630000  0.73710000  1.0 -0.512188634
O  O80  1  0.12614000  0.72370000  0.26290000  1.0 -0.512188634
O  O81  1  0.68050000  0.81270000  0.32813000  1.0 -0.5225964482
O  O82  1  0.31950000  0.18730000  0.32813000  1.0 -0.5225964482
O  O83  1  0.31950000  0.81270000  0.67187000  1.0 -0.5225964482
O  O84  1  0.68050000  0.18730000  0.67187000  1.0 -0.5225964482
O  O85  1  0.32813000  0.68050000  0.81270000  1.0 -0.5225964482
O  O86  1  0.32813000  0.31950000  0.18730000  1.0 -0.5225964482
O  O87  1  0.67187000  0.31950000  0.81270000  1.0 -0.5225964482
O  O88  1  0.67187000  0.68050000  0.18730000  1.0 -0.5225964482
O  O89  1  0.81270000  0.32813000  0.68050000  1.0 -0.5225964482
O  O90  1  0.18730000  0.32813000  0.31950000  1.0 -0.5225964482
O  O91  1  0.81270000  0.67187000  0.31950000  1.0 -0.5225964482
O  O92  1  0.18730000  0.67187000  0.68050000  1.0 -0.5225964482
O  O93  1  0.31270000  0.18050000  0.82813000  1.0 -0.5225964482
O  O94  1  0.68730000  0.81950000  0.82813000  1.0 -0.5225964482
O  O95  1  0.31270000  0.81950000  0.17187000  1.0 -0.5225964482
O  O96  1  0.68730000  0.18050000  0.17187000  1.0 -0.5225964482
O  O97  1  0.18050000  0.82813000  0.31270000  1.0 -0.5225964482
O  O98  1  0.81950000  0.82813000  0.68730000  1.0 -0.5225964482
O  O99  1  0.81950000  0.17187000  0.31270000  1.0 -0.5225964482
O  O100  1  0.18050000  0.17187000  0.68730000  1.0 -0.5225964482
O  O101  1  0.82813000  0.31270000  0.18050000  1.0 -0.5225964482
O  O102  1  0.82813000  0.68730000  0.81950000  1.0 -0.5225964482
O  O103  1  0.17187000  0.31270000  0.81950000  1.0 -0.5225964482
O  O104  1  0.17187000  0.68730000  0.18050000  1.0 -0.5225964482
O  O105  1  0.61430000  0.87300000  0.73710000  1.0 -0.0482517042
O  O106  1  0.38570000  0.12700000  0.73710000  1.0 -0.0482517042
O  O107  1  0.38570000  0.87300000  0.26290000  1.0 -0.0482517042
O  O108  1  0.61430000  0.12700000  0.26290000  1.0 -0.0482517042
O  O109  1  0.73710000  0.61430000  0.87300000  1.0 -0.0482517042
O  O110  1  0.73710000  0.38570000  0.12700000  1.0 -0.0482517042
O  O111  1  0.26290000  0.38570000  0.87300000  1.0 -0.0482517042
O  O112  1  0.26290000  0.61430000  0.12700000  1.0 -0.0482517042
O  O113  1  0.87300000  0.73710000  0.61430000  1.0 -0.0482517042
O  O114  1  0.12700000  0.73710000  0.38570000  1.0 -0.0482517042
O  O115  1  0.87300000  0.26290000  0.38570000  1.0 -0.0482517042
O  O116  1  0.12700000  0.26290000  0.61430000  1.0 -0.0482517042
O  O117  1  0.37300000  0.11430000  0.23710000  1.0 -0.0482517042
O  O118  1  0.62700000  0.88570000  0.23710000  1.0 -0.0482517042
O  O119  1  0.37300000  0.88570000  0.76290000  1.0 -0.0482517042
O  O120  1  0.62700000  0.11430000  0.76290000  1.0 -0.0482517042
O  O121  1  0.11430000  0.23710000  0.37300000  1.0 -0.0482517042
O  O122  1  0.88570000  0.23710000  0.62700000  1.0 -0.0482517042
O  O123  1  0.88570000  0.76290000  0.37300000  1.0 -0.0482517042
O  O124  1  0.11430000  0.76290000  0.62700000  1.0 -0.0482517042
O  O125  1  0.23710000  0.37300000  0.11430000  1.0 -0.0482517042
O  O126  1  0.23710000  0.62700000  0.88570000  1.0 -0.0482517042
O  O127  1  0.76290000  0.37300000  0.88570000  1.0 -0.0482517042
O  O128  1  0.76290000  0.62700000  0.11430000  1.0 -0.0482517042
