# DDEC6 charges by PACMAN v1.1 (https://github.com/mtap-research/PACMAN-charge/)
data_LIDFEN_ASR_pacman
_symmetry_space_group_name_H-M   'P 1'
_cell_length_a   21.91340000
_cell_length_b   21.91340000
_cell_length_c   21.91340000
_cell_angle_alpha   90.00000000
_cell_angle_beta   90.00000000
_cell_angle_gamma   90.00000000
_symmetry_Int_Tables_number   1
_chemical_formula_structural   Fe3H9C24N3O13
_chemical_formula_sum   'Fe24 H72 C192 N24 O104'
_cell_volume   10522.75112150
_cell_formula_units_Z   8
loop_
 _symmetry_equiv_pos_site_id
 _symmetry_equiv_pos_as_xyz
  1  'x, y, z'
loop_
 _atom_site_type_symbol
 _atom_site_label
 _atom_site_symmetry_multiplicity
 _atom_site_fract_x
 _atom_site_fract_y
 _atom_site_fract_z
 _atom_site_occupancy
 _atom_site_charge
Fe  Fe1  1  0.68264000  0.26045000  0.19821000  1.0 1.1572428725
Fe  Fe2  1  0.31736000  0.73955000  0.19821000  1.0 1.1572428725
Fe  Fe3  1  0.31736000  0.26045000  0.80179000  1.0 1.1572428725
Fe  Fe4  1  0.68264000  0.73955000  0.80179000  1.0 1.1572428725
Fe  Fe5  1  0.19821000  0.68264000  0.26045000  1.0 1.1572428725
Fe  Fe6  1  0.19821000  0.31736000  0.73955000  1.0 1.1572428725
Fe  Fe7  1  0.80179000  0.31736000  0.26045000  1.0 1.1572428725
Fe  Fe8  1  0.80179000  0.68264000  0.73955000  1.0 1.1572428725
Fe  Fe9  1  0.26045000  0.19821000  0.68264000  1.0 1.1572428725
Fe  Fe10  1  0.73955000  0.19821000  0.31736000  1.0 1.1572428725
Fe  Fe11  1  0.26045000  0.80179000  0.31736000  1.0 1.1572428725
Fe  Fe12  1  0.73955000  0.80179000  0.68264000  1.0 1.1572428725
Fe  Fe13  1  0.76045000  0.18264000  0.69821000  1.0 1.1572428725
Fe  Fe14  1  0.23955000  0.81736000  0.69821000  1.0 1.1572428725
Fe  Fe15  1  0.76045000  0.81736000  0.30179000  1.0 1.1572428725
Fe  Fe16  1  0.23955000  0.18264000  0.30179000  1.0 1.1572428725
Fe  Fe17  1  0.18264000  0.69821000  0.76045000  1.0 1.1572428725
Fe  Fe18  1  0.81736000  0.69821000  0.23955000  1.0 1.1572428725
Fe  Fe19  1  0.81736000  0.30179000  0.76045000  1.0 1.1572428725
Fe  Fe20  1  0.18264000  0.30179000  0.23955000  1.0 1.1572428725
Fe  Fe21  1  0.69821000  0.76045000  0.18264000  1.0 1.1572428725
Fe  Fe22  1  0.69821000  0.23955000  0.81736000  1.0 1.1572428725
Fe  Fe23  1  0.30179000  0.76045000  0.81736000  1.0 1.1572428725
Fe  Fe24  1  0.30179000  0.23955000  0.18264000  1.0 1.1572428725
H  H1  1  0.74616000  0.50860000  0.22345000  1.0 0.14017762
H  H2  1  0.25384000  0.49140000  0.22345000  1.0 0.14017762
H  H3  1  0.25384000  0.50860000  0.77655000  1.0 0.14017762
H  H4  1  0.74616000  0.49140000  0.77655000  1.0 0.14017762
H  H5  1  0.22345000  0.74616000  0.50860000  1.0 0.14017762
H  H6  1  0.22345000  0.25384000  0.49140000  1.0 0.14017762
H  H7  1  0.77655000  0.25384000  0.50860000  1.0 0.14017762
H  H8  1  0.77655000  0.74616000  0.49140000  1.0 0.14017762
H  H9  1  0.50860000  0.22345000  0.74616000  1.0 0.14017762
H  H10  1  0.49140000  0.22345000  0.25384000  1.0 0.14017762
H  H11  1  0.50860000  0.77655000  0.25384000  1.0 0.14017762
H  H12  1  0.49140000  0.77655000  0.74616000  1.0 0.14017762
H  H13  1  0.00860000  0.24616000  0.72345000  1.0 0.14017762
H  H14  1  0.99140000  0.75384000  0.72345000  1.0 0.14017762
H  H15  1  0.00860000  0.75384000  0.27655000  1.0 0.14017762
H  H16  1  0.99140000  0.24616000  0.27655000  1.0 0.14017762
H  H17  1  0.24616000  0.72345000  0.00860000  1.0 0.14017762
H  H18  1  0.75384000  0.72345000  0.99140000  1.0 0.14017762
H  H19  1  0.75384000  0.27655000  0.00860000  1.0 0.14017762
H  H20  1  0.24616000  0.27655000  0.99140000  1.0 0.14017762
H  H21  1  0.72345000  0.00860000  0.24616000  1.0 0.14017762
H  H22  1  0.72345000  0.99140000  0.75384000  1.0 0.14017762
H  H23  1  0.27655000  0.00860000  0.75384000  1.0 0.14017762
H  H24  1  0.27655000  0.99140000  0.24616000  1.0 0.14017762
H  H25  1  0.58532000  0.42422000  0.20787000  1.0 0.14017762
H  H26  1  0.41468000  0.57578000  0.20787000  1.0 0.14017762
H  H27  1  0.41468000  0.42422000  0.79213000  1.0 0.14017762
H  H28  1  0.58532000  0.57578000  0.79213000  1.0 0.14017762
H  H29  1  0.20787000  0.58532000  0.42422000  1.0 0.14017762
H  H30  1  0.20787000  0.41468000  0.57578000  1.0 0.14017762
H  H31  1  0.79213000  0.41468000  0.42422000  1.0 0.14017762
H  H32  1  0.79213000  0.58532000  0.57578000  1.0 0.14017762
H  H33  1  0.42422000  0.20787000  0.58532000  1.0 0.14017762
H  H34  1  0.57578000  0.20787000  0.41468000  1.0 0.14017762
H  H35  1  0.42422000  0.79213000  0.41468000  1.0 0.14017762
H  H36  1  0.57578000  0.79213000  0.58532000  1.0 0.14017762
H  H37  1  0.92422000  0.08532000  0.70787000  1.0 0.14017762
H  H38  1  0.07578000  0.91468000  0.70787000  1.0 0.14017762
H  H39  1  0.92422000  0.91468000  0.29213000  1.0 0.14017762
H  H40  1  0.07578000  0.08532000  0.29213000  1.0 0.14017762
H  H41  1  0.08532000  0.70787000  0.92422000  1.0 0.14017762
H  H42  1  0.91468000  0.70787000  0.07578000  1.0 0.14017762
H  H43  1  0.91468000  0.29213000  0.92422000  1.0 0.14017762
H  H44  1  0.08532000  0.29213000  0.07578000  1.0 0.14017762
H  H45  1  0.70787000  0.92422000  0.08532000  1.0 0.14017762
H  H46  1  0.70787000  0.07578000  0.91468000  1.0 0.14017762
H  H47  1  0.29213000  0.92422000  0.91468000  1.0 0.14017762
H  H48  1  0.29213000  0.07578000  0.08532000  1.0 0.14017762
H  H49  1  0.59339000  0.60640000  0.19894000  1.0 0.14017762
H  H50  1  0.40661000  0.39360000  0.19894000  1.0 0.14017762
H  H51  1  0.40661000  0.60640000  0.80106000  1.0 0.14017762
H  H52  1  0.59339000  0.39360000  0.80106000  1.0 0.14017762
H  H53  1  0.19894000  0.59339000  0.60640000  1.0 0.14017762
H  H54  1  0.19894000  0.40661000  0.39360000  1.0 0.14017762
H  H55  1  0.80106000  0.40661000  0.60640000  1.0 0.14017762
H  H56  1  0.80106000  0.59339000  0.39360000  1.0 0.14017762
H  H57  1  0.60640000  0.19894000  0.59339000  1.0 0.14017762
H  H58  1  0.39360000  0.19894000  0.40661000  1.0 0.14017762
H  H59  1  0.60640000  0.80106000  0.40661000  1.0 0.14017762
H  H60  1  0.39360000  0.80106000  0.59339000  1.0 0.14017762
H  H61  1  0.10640000  0.09339000  0.69894000  1.0 0.14017762
H  H62  1  0.89360000  0.90661000  0.69894000  1.0 0.14017762
H  H63  1  0.10640000  0.90661000  0.30106000  1.0 0.14017762
H  H64  1  0.89360000  0.09339000  0.30106000  1.0 0.14017762
H  H65  1  0.09339000  0.69894000  0.10640000  1.0 0.14017762
H  H66  1  0.90661000  0.69894000  0.89360000  1.0 0.14017762
H  H67  1  0.90661000  0.30106000  0.10640000  1.0 0.14017762
H  H68  1  0.09339000  0.30106000  0.89360000  1.0 0.14017762
H  H69  1  0.69894000  0.10640000  0.09339000  1.0 0.14017762
H  H70  1  0.69894000  0.89360000  0.90661000  1.0 0.14017762
H  H71  1  0.30106000  0.10640000  0.90661000  1.0 0.14017762
H  H72  1  0.30106000  0.89360000  0.09339000  1.0 0.14017762
C  C1  1  0.69930000  0.39530000  0.22130000  1.0 0.6063362491
C  C2  1  0.30070000  0.60470000  0.22130000  1.0 0.6063362491
C  C3  1  0.30070000  0.39530000  0.77870000  1.0 0.6063362491
C  C4  1  0.69930000  0.60470000  0.77870000  1.0 0.6063362491
C  C5  1  0.22130000  0.69930000  0.39530000  1.0 0.6063362491
C  C6  1  0.22130000  0.30070000  0.60470000  1.0 0.6063362491
C  C7  1  0.77870000  0.30070000  0.39530000  1.0 0.6063362491
C  C8  1  0.77870000  0.69930000  0.60470000  1.0 0.6063362491
C  C9  1  0.39530000  0.22130000  0.69930000  1.0 0.6063362491
C  C10  1  0.60470000  0.22130000  0.30070000  1.0 0.6063362491
C  C11  1  0.39530000  0.77870000  0.30070000  1.0 0.6063362491
C  C12  1  0.60470000  0.77870000  0.69930000  1.0 0.6063362491
C  C13  1  0.89530000  0.19930000  0.72130000  1.0 0.6063362491
C  C14  1  0.10470000  0.80070000  0.72130000  1.0 0.6063362491
C  C15  1  0.89530000  0.80070000  0.27870000  1.0 0.6063362491
C  C16  1  0.10470000  0.19930000  0.27870000  1.0 0.6063362491
C  C17  1  0.19930000  0.72130000  0.89530000  1.0 0.6063362491
C  C18  1  0.80070000  0.72130000  0.10470000  1.0 0.6063362491
C  C19  1  0.80070000  0.27870000  0.89530000  1.0 0.6063362491
C  C20  1  0.19930000  0.27870000  0.10470000  1.0 0.6063362491
C  C21  1  0.72130000  0.89530000  0.19930000  1.0 0.6063362491
C  C22  1  0.72130000  0.10470000  0.80070000  1.0 0.6063362491
C  C23  1  0.27870000  0.89530000  0.80070000  1.0 0.6063362491
C  C24  1  0.27870000  0.10470000  0.19930000  1.0 0.6063362491
C  C25  1  0.67010000  0.45750000  0.21600000  1.0 -0.0141052835
C  C26  1  0.32990000  0.54250000  0.21600000  1.0 -0.0141052835
C  C27  1  0.32990000  0.45750000  0.78400000  1.0 -0.0141052835
C  C28  1  0.67010000  0.54250000  0.78400000  1.0 -0.0141052835
C  C29  1  0.21600000  0.67010000  0.45750000  1.0 -0.0141052835
C  C30  1  0.21600000  0.32990000  0.54250000  1.0 -0.0141052835
C  C31  1  0.78400000  0.32990000  0.45750000  1.0 -0.0141052835
C  C32  1  0.78400000  0.67010000  0.54250000  1.0 -0.0141052835
C  C33  1  0.45750000  0.21600000  0.67010000  1.0 -0.0141052835
C  C34  1  0.54250000  0.21600000  0.32990000  1.0 -0.0141052835
C  C35  1  0.45750000  0.78400000  0.32990000  1.0 -0.0141052835
C  C36  1  0.54250000  0.78400000  0.67010000  1.0 -0.0141052835
C  C37  1  0.95750000  0.17010000  0.71600000  1.0 -0.0141052835
C  C38  1  0.04250000  0.82990000  0.71600000  1.0 -0.0141052835
C  C39  1  0.95750000  0.82990000  0.28400000  1.0 -0.0141052835
C  C40  1  0.04250000  0.17010000  0.28400000  1.0 -0.0141052835
C  C41  1  0.17010000  0.71600000  0.95750000  1.0 -0.0141052835
C  C42  1  0.82990000  0.71600000  0.04250000  1.0 -0.0141052835
C  C43  1  0.82990000  0.28400000  0.95750000  1.0 -0.0141052835
C  C44  1  0.17010000  0.28400000  0.04250000  1.0 -0.0141052835
C  C45  1  0.71600000  0.95750000  0.17010000  1.0 -0.0141052835
C  C46  1  0.71600000  0.04250000  0.82990000  1.0 -0.0141052835
C  C47  1  0.28400000  0.95750000  0.82990000  1.0 -0.0141052835
C  C48  1  0.28400000  0.04250000  0.17010000  1.0 -0.0141052835
C  C49  1  0.70420000  0.51060000  0.21740000  1.0 -0.086290627
C  C50  1  0.29580000  0.48940000  0.21740000  1.0 -0.086290627
C  C51  1  0.29580000  0.51060000  0.78260000  1.0 -0.086290627
C  C52  1  0.70420000  0.48940000  0.78260000  1.0 -0.086290627
C  C53  1  0.21740000  0.70420000  0.51060000  1.0 -0.086290627
C  C54  1  0.21740000  0.29580000  0.48940000  1.0 -0.086290627
C  C55  1  0.78260000  0.29580000  0.51060000  1.0 -0.086290627
C  C56  1  0.78260000  0.70420000  0.48940000  1.0 -0.086290627
C  C57  1  0.51060000  0.21740000  0.70420000  1.0 -0.086290627
C  C58  1  0.48940000  0.21740000  0.29580000  1.0 -0.086290627
C  C59  1  0.51060000  0.78260000  0.29580000  1.0 -0.086290627
C  C60  1  0.48940000  0.78260000  0.70420000  1.0 -0.086290627
C  C61  1  0.01060000  0.20420000  0.71740000  1.0 -0.086290627
C  C62  1  0.98940000  0.79580000  0.71740000  1.0 -0.086290627
C  C63  1  0.01060000  0.79580000  0.28260000  1.0 -0.086290627
C  C64  1  0.98940000  0.20420000  0.28260000  1.0 -0.086290627
C  C65  1  0.20420000  0.71740000  0.01060000  1.0 -0.086290627
C  C66  1  0.79580000  0.71740000  0.98940000  1.0 -0.086290627
C  C67  1  0.79580000  0.28260000  0.01060000  1.0 -0.086290627
C  C68  1  0.20420000  0.28260000  0.98940000  1.0 -0.086290627
C  C69  1  0.71740000  0.01060000  0.20420000  1.0 -0.086290627
C  C70  1  0.71740000  0.98940000  0.79580000  1.0 -0.086290627
C  C71  1  0.28260000  0.01060000  0.79580000  1.0 -0.086290627
C  C72  1  0.28260000  0.98940000  0.20420000  1.0 -0.086290627
C  C73  1  0.67600000  0.56690000  0.21000000  1.0 -0.0485510174
C  C74  1  0.32400000  0.43310000  0.21000000  1.0 -0.0485510174
C  C75  1  0.32400000  0.56690000  0.79000000  1.0 -0.0485510174
C  C76  1  0.67600000  0.43310000  0.79000000  1.0 -0.0485510174
C  C77  1  0.21000000  0.67600000  0.56690000  1.0 -0.0485510174
C  C78  1  0.21000000  0.32400000  0.43310000  1.0 -0.0485510174
C  C79  1  0.79000000  0.32400000  0.56690000  1.0 -0.0485510174
C  C80  1  0.79000000  0.67600000  0.43310000  1.0 -0.0485510174
C  C81  1  0.56690000  0.21000000  0.67600000  1.0 -0.0485510174
C  C82  1  0.43310000  0.21000000  0.32400000  1.0 -0.0485510174
C  C83  1  0.56690000  0.79000000  0.32400000  1.0 -0.0485510174
C  C84  1  0.43310000  0.79000000  0.67600000  1.0 -0.0485510174
C  C85  1  0.06690000  0.17600000  0.71000000  1.0 -0.0485510174
C  C86  1  0.93310000  0.82400000  0.71000000  1.0 -0.0485510174
C  C87  1  0.06690000  0.82400000  0.29000000  1.0 -0.0485510174
C  C88  1  0.93310000  0.17600000  0.29000000  1.0 -0.0485510174
C  C89  1  0.17600000  0.71000000  0.06690000  1.0 -0.0485510174
C  C90  1  0.82400000  0.71000000  0.93310000  1.0 -0.0485510174
C  C91  1  0.82400000  0.29000000  0.06690000  1.0 -0.0485510174
C  C92  1  0.17600000  0.29000000  0.93310000  1.0 -0.0485510174
C  C93  1  0.71000000  0.06690000  0.17600000  1.0 -0.0485510174
C  C94  1  0.71000000  0.93310000  0.82400000  1.0 -0.0485510174
C  C95  1  0.29000000  0.06690000  0.82400000  1.0 -0.0485510174
C  C96  1  0.29000000  0.93310000  0.17600000  1.0 -0.0485510174
C  C97  1  0.70970000  0.62450000  0.20930000  1.0 0.6008976382
C  C98  1  0.29030000  0.37550000  0.20930000  1.0 0.6008976382
C  C99  1  0.29030000  0.62450000  0.79070000  1.0 0.6008976382
C  C100  1  0.70970000  0.37550000  0.79070000  1.0 0.6008976382
C  C101  1  0.20930000  0.70970000  0.62450000  1.0 0.6008976382
C  C102  1  0.20930000  0.29030000  0.37550000  1.0 0.6008976382
C  C103  1  0.79070000  0.29030000  0.62450000  1.0 0.6008976382
C  C104  1  0.79070000  0.70970000  0.37550000  1.0 0.6008976382
C  C105  1  0.62450000  0.20930000  0.70970000  1.0 0.6008976382
C  C106  1  0.37550000  0.20930000  0.29030000  1.0 0.6008976382
C  C107  1  0.62450000  0.79070000  0.29030000  1.0 0.6008976382
C  C108  1  0.37550000  0.79070000  0.70970000  1.0 0.6008976382
C  C109  1  0.12450000  0.20970000  0.70930000  1.0 0.6008976382
C  C110  1  0.87550000  0.79030000  0.70930000  1.0 0.6008976382
C  C111  1  0.12450000  0.79030000  0.29070000  1.0 0.6008976382
C  C112  1  0.87550000  0.20970000  0.29070000  1.0 0.6008976382
C  C113  1  0.20970000  0.70930000  0.12450000  1.0 0.6008976382
C  C114  1  0.79030000  0.70930000  0.87550000  1.0 0.6008976382
C  C115  1  0.79030000  0.29070000  0.12450000  1.0 0.6008976382
C  C116  1  0.20970000  0.29070000  0.87550000  1.0 0.6008976382
C  C117  1  0.70930000  0.12450000  0.20970000  1.0 0.6008976382
C  C118  1  0.70930000  0.87550000  0.79030000  1.0 0.6008976382
C  C119  1  0.29070000  0.12450000  0.79030000  1.0 0.6008976382
C  C120  1  0.29070000  0.87550000  0.20970000  1.0 0.6008976382
C  C121  1  0.60800000  0.46000000  0.21000000  1.0 -0.1357737287
C  C122  1  0.39200000  0.54000000  0.21000000  1.0 -0.1357737287
C  C123  1  0.39200000  0.46000000  0.79000000  1.0 -0.1357737287
C  C124  1  0.60800000  0.54000000  0.79000000  1.0 -0.1357737287
C  C125  1  0.21000000  0.60800000  0.46000000  1.0 -0.1357737287
C  C126  1  0.21000000  0.39200000  0.54000000  1.0 -0.1357737287
C  C127  1  0.79000000  0.39200000  0.46000000  1.0 -0.1357737287
C  C128  1  0.79000000  0.60800000  0.54000000  1.0 -0.1357737287
C  C129  1  0.46000000  0.21000000  0.60800000  1.0 -0.1357737287
C  C130  1  0.54000000  0.21000000  0.39200000  1.0 -0.1357737287
C  C131  1  0.46000000  0.79000000  0.39200000  1.0 -0.1357737287
C  C132  1  0.54000000  0.79000000  0.60800000  1.0 -0.1357737287
C  C133  1  0.96000000  0.10800000  0.71000000  1.0 -0.1357737287
C  C134  1  0.04000000  0.89200000  0.71000000  1.0 -0.1357737287
C  C135  1  0.96000000  0.89200000  0.29000000  1.0 -0.1357737287
C  C136  1  0.04000000  0.10800000  0.29000000  1.0 -0.1357737287
C  C137  1  0.10800000  0.71000000  0.96000000  1.0 -0.1357737287
C  C138  1  0.89200000  0.71000000  0.04000000  1.0 -0.1357737287
C  C139  1  0.89200000  0.29000000  0.96000000  1.0 -0.1357737287
C  C140  1  0.10800000  0.29000000  0.04000000  1.0 -0.1357737287
C  C141  1  0.71000000  0.96000000  0.10800000  1.0 -0.1357737287
C  C142  1  0.71000000  0.04000000  0.89200000  1.0 -0.1357737287
C  C143  1  0.29000000  0.96000000  0.89200000  1.0 -0.1357737287
C  C144  1  0.29000000  0.04000000  0.10800000  1.0 -0.1357737287
C  C145  1  0.57930000  0.51570000  0.20710000  1.0 0.1471713092
C  C146  1  0.42070000  0.48430000  0.20710000  1.0 0.1471713092
C  C147  1  0.42070000  0.51570000  0.79290000  1.0 0.1471713092
C  C148  1  0.57930000  0.48430000  0.79290000  1.0 0.1471713092
C  C149  1  0.20710000  0.57930000  0.51570000  1.0 0.1471713092
C  C150  1  0.20710000  0.42070000  0.48430000  1.0 0.1471713092
C  C151  1  0.79290000  0.42070000  0.51570000  1.0 0.1471713092
C  C152  1  0.79290000  0.57930000  0.48430000  1.0 0.1471713092
C  C153  1  0.51570000  0.20710000  0.57930000  1.0 0.1471713092
C  C154  1  0.48430000  0.20710000  0.42070000  1.0 0.1471713092
C  C155  1  0.51570000  0.79290000  0.42070000  1.0 0.1471713092
C  C156  1  0.48430000  0.79290000  0.57930000  1.0 0.1471713092
C  C157  1  0.01570000  0.07930000  0.70710000  1.0 0.1471713092
C  C158  1  0.98430000  0.92070000  0.70710000  1.0 0.1471713092
C  C159  1  0.01570000  0.92070000  0.29290000  1.0 0.1471713092
C  C160  1  0.98430000  0.07930000  0.29290000  1.0 0.1471713092
C  C161  1  0.07930000  0.70710000  0.01570000  1.0 0.1471713092
C  C162  1  0.92070000  0.70710000  0.98430000  1.0 0.1471713092
C  C163  1  0.92070000  0.29290000  0.01570000  1.0 0.1471713092
C  C164  1  0.07930000  0.29290000  0.98430000  1.0 0.1471713092
C  C165  1  0.70710000  0.01570000  0.07930000  1.0 0.1471713092
C  C166  1  0.70710000  0.98430000  0.92070000  1.0 0.1471713092
C  C167  1  0.29290000  0.01570000  0.92070000  1.0 0.1471713092
C  C168  1  0.29290000  0.98430000  0.07930000  1.0 0.1471713092
C  C169  1  0.61300000  0.56920000  0.20440000  1.0 -0.1357737287
C  C170  1  0.38700000  0.43080000  0.20440000  1.0 -0.1357737287
C  C171  1  0.38700000  0.56920000  0.79560000  1.0 -0.1357737287
C  C172  1  0.61300000  0.43080000  0.79560000  1.0 -0.1357737287
C  C173  1  0.20440000  0.61300000  0.56920000  1.0 -0.1357737287
C  C174  1  0.20440000  0.38700000  0.43080000  1.0 -0.1357737287
C  C175  1  0.79560000  0.38700000  0.56920000  1.0 -0.1357737287
C  C176  1  0.79560000  0.61300000  0.43080000  1.0 -0.1357737287
C  C177  1  0.56920000  0.20440000  0.61300000  1.0 -0.1357737287
C  C178  1  0.43080000  0.20440000  0.38700000  1.0 -0.1357737287
C  C179  1  0.56920000  0.79560000  0.38700000  1.0 -0.1357737287
C  C180  1  0.43080000  0.79560000  0.61300000  1.0 -0.1357737287
C  C181  1  0.06920000  0.11300000  0.70440000  1.0 -0.1357737287
C  C182  1  0.93080000  0.88700000  0.70440000  1.0 -0.1357737287
C  C183  1  0.06920000  0.88700000  0.29560000  1.0 -0.1357737287
C  C184  1  0.93080000  0.11300000  0.29560000  1.0 -0.1357737287
C  C185  1  0.11300000  0.70440000  0.06920000  1.0 -0.1357737287
C  C186  1  0.88700000  0.70440000  0.93080000  1.0 -0.1357737287
C  C187  1  0.88700000  0.29560000  0.06920000  1.0 -0.1357737287
C  C188  1  0.11300000  0.29560000  0.93080000  1.0 -0.1357737287
C  C189  1  0.70440000  0.06920000  0.11300000  1.0 -0.1357737287
C  C190  1  0.70440000  0.93080000  0.88700000  1.0 -0.1357737287
C  C191  1  0.29560000  0.06920000  0.88700000  1.0 -0.1349654216
C  C192  1  0.29560000  0.93080000  0.11300000  1.0 -0.1357737287
N  N1  1  0.51400000  0.52330000  0.20400000  1.0 -0.1028573391
N  N2  1  0.48600000  0.47670000  0.20400000  1.0 -0.1028573391
N  N3  1  0.48600000  0.52330000  0.79600000  1.0 -0.1028573391
N  N4  1  0.51400000  0.47670000  0.79600000  1.0 -0.1028573391
N  N5  1  0.20400000  0.51400000  0.52330000  1.0 -0.1028573391
N  N6  1  0.20400000  0.48600000  0.47670000  1.0 -0.1028573391
N  N7  1  0.79600000  0.48600000  0.52330000  1.0 -0.1028573391
N  N8  1  0.79600000  0.51400000  0.47670000  1.0 -0.1028573391
N  N9  1  0.52330000  0.20400000  0.51400000  1.0 -0.1028573391
N  N10  1  0.47670000  0.20400000  0.48600000  1.0 -0.1028573391
N  N11  1  0.52330000  0.79600000  0.48600000  1.0 -0.1028573391
N  N12  1  0.47670000  0.79600000  0.51400000  1.0 -0.1028573391
N  N13  1  0.02330000  0.01400000  0.70400000  1.0 -0.1028573391
N  N14  1  0.97670000  0.98600000  0.70400000  1.0 -0.1028573391
N  N15  1  0.02330000  0.98600000  0.29600000  1.0 -0.1028573391
N  N16  1  0.97670000  0.01400000  0.29600000  1.0 -0.1028573391
N  N17  1  0.01400000  0.70400000  0.02330000  1.0 -0.1028573391
N  N18  1  0.98600000  0.70400000  0.97670000  1.0 -0.1028573391
N  N19  1  0.98600000  0.29600000  0.02330000  1.0 -0.1028573391
N  N20  1  0.01400000  0.29600000  0.97670000  1.0 -0.1028573391
N  N21  1  0.70400000  0.02330000  0.01400000  1.0 -0.1028573391
N  N22  1  0.70400000  0.97670000  0.98600000  1.0 -0.1028573391
N  N23  1  0.29600000  0.02330000  0.98600000  1.0 -0.1028573391
N  N24  1  0.29600000  0.97670000  0.01400000  1.0 -0.1028573391
O  O1  1  0.66850000  0.35006000  0.20430000  1.0 -0.5341826347
O  O2  1  0.33150000  0.64994000  0.20430000  1.0 -0.5341826347
O  O3  1  0.33150000  0.35006000  0.79570000  1.0 -0.5341826347
O  O4  1  0.66850000  0.64994000  0.79570000  1.0 -0.5341826347
O  O5  1  0.20430000  0.66850000  0.35006000  1.0 -0.5341826347
O  O6  1  0.20430000  0.33150000  0.64994000  1.0 -0.5341826347
O  O7  1  0.79570000  0.33150000  0.35006000  1.0 -0.5341826347
O  O8  1  0.79570000  0.66850000  0.64994000  1.0 -0.5341826347
O  O9  1  0.35006000  0.20430000  0.66850000  1.0 -0.5341826347
O  O10  1  0.64994000  0.20430000  0.33150000  1.0 -0.5341826347
O  O11  1  0.35006000  0.79570000  0.33150000  1.0 -0.5341826347
O  O12  1  0.64994000  0.79570000  0.66850000  1.0 -0.5341826347
O  O13  1  0.85006000  0.16850000  0.70430000  1.0 -0.5341826347
O  O14  1  0.14994000  0.83150000  0.70430000  1.0 -0.5341826347
O  O15  1  0.85006000  0.83150000  0.29570000  1.0 -0.5341826347
O  O16  1  0.14994000  0.16850000  0.29570000  1.0 -0.5341826347
O  O17  1  0.16850000  0.70430000  0.85006000  1.0 -0.5341826347
O  O18  1  0.83150000  0.70430000  0.14994000  1.0 -0.5341826347
O  O19  1  0.83150000  0.29570000  0.85006000  1.0 -0.5341826347
O  O20  1  0.16850000  0.29570000  0.14994000  1.0 -0.5341826347
O  O21  1  0.70430000  0.85006000  0.16850000  1.0 -0.5341826347
O  O22  1  0.70430000  0.14994000  0.83150000  1.0 -0.5341826347
O  O23  1  0.29570000  0.85006000  0.83150000  1.0 -0.5341826347
O  O24  1  0.29570000  0.14994000  0.16850000  1.0 -0.5341826347
O  O25  1  0.74074000  0.25926000  0.25926000  1.0 -0.827232467
O  O26  1  0.25926000  0.74074000  0.25926000  1.0 -0.827232467
O  O27  1  0.25926000  0.25926000  0.74074000  1.0 -0.827232467
O  O28  1  0.74074000  0.74074000  0.74074000  1.0 -0.827232467
O  O29  1  0.75926000  0.24074000  0.75926000  1.0 -0.827232467
O  O30  1  0.24074000  0.75926000  0.75926000  1.0 -0.827232467
O  O31  1  0.75926000  0.75926000  0.24074000  1.0 -0.827232467
O  O32  1  0.24074000  0.24074000  0.24074000  1.0 -0.827232467
O  O33  1  0.76490000  0.62446000  0.22450000  1.0 -0.522768693
O  O34  1  0.23510000  0.37554000  0.22450000  1.0 -0.522768693
O  O35  1  0.23510000  0.62446000  0.77550000  1.0 -0.522768693
O  O36  1  0.76490000  0.37554000  0.77550000  1.0 -0.522768693
O  O37  1  0.22450000  0.76490000  0.62446000  1.0 -0.522768693
O  O38  1  0.22450000  0.23510000  0.37554000  1.0 -0.522768693
O  O39  1  0.77550000  0.23510000  0.62446000  1.0 -0.522768693
O  O40  1  0.77550000  0.76490000  0.37554000  1.0 -0.522768693
O  O41  1  0.62446000  0.22450000  0.76490000  1.0 -0.522768693
O  O42  1  0.37554000  0.22450000  0.23510000  1.0 -0.522768693
O  O43  1  0.62446000  0.77550000  0.23510000  1.0 -0.522768693
O  O44  1  0.37554000  0.77550000  0.76490000  1.0 -0.522768693
O  O45  1  0.12446000  0.26490000  0.72450000  1.0 -0.522768693
O  O46  1  0.87554000  0.73510000  0.72450000  1.0 -0.522768693
O  O47  1  0.12446000  0.73510000  0.27550000  1.0 -0.522768693
O  O48  1  0.87554000  0.26490000  0.27550000  1.0 -0.522768693
O  O49  1  0.26490000  0.72450000  0.12446000  1.0 -0.522768693
O  O50  1  0.73510000  0.72450000  0.87554000  1.0 -0.522768693
O  O51  1  0.73510000  0.27550000  0.12446000  1.0 -0.522768693
O  O52  1  0.26490000  0.27550000  0.87554000  1.0 -0.522768693
O  O53  1  0.72450000  0.12446000  0.26490000  1.0 -0.522768693
O  O54  1  0.72450000  0.87554000  0.73510000  1.0 -0.522768693
O  O55  1  0.27550000  0.12446000  0.73510000  1.0 -0.522768693
O  O56  1  0.27550000  0.87554000  0.26490000  1.0 -0.522768693
O  O57  1  0.75244000  0.39321000  0.24380000  1.0 -0.5380837004
O  O58  1  0.24756000  0.60679000  0.24380000  1.0 -0.5380837004
O  O59  1  0.24756000  0.39321000  0.75620000  1.0 -0.5380837004
O  O60  1  0.75244000  0.60679000  0.75620000  1.0 -0.5380837004
O  O61  1  0.24380000  0.75244000  0.39321000  1.0 -0.5380837004
O  O62  1  0.24380000  0.24756000  0.60679000  1.0 -0.5380837004
O  O63  1  0.75620000  0.24756000  0.39321000  1.0 -0.5380837004
O  O64  1  0.75620000  0.75244000  0.60679000  1.0 -0.5380837004
O  O65  1  0.39321000  0.24380000  0.75244000  1.0 -0.5380837004
O  O66  1  0.60679000  0.24380000  0.24756000  1.0 -0.5380837004
O  O67  1  0.39321000  0.75620000  0.24756000  1.0 -0.5380837004
O  O68  1  0.60679000  0.75620000  0.75244000  1.0 -0.5380837004
O  O69  1  0.89321000  0.25244000  0.74380000  1.0 -0.5380837004
O  O70  1  0.10679000  0.74756000  0.74380000  1.0 -0.5380837004
O  O71  1  0.89321000  0.74756000  0.25620000  1.0 -0.5380837004
O  O72  1  0.10679000  0.25244000  0.25620000  1.0 -0.5380837004
O  O73  1  0.25244000  0.74380000  0.89321000  1.0 -0.5380837004
O  O74  1  0.74756000  0.74380000  0.10679000  1.0 -0.5380837004
O  O75  1  0.74756000  0.25620000  0.89321000  1.0 -0.5380837004
O  O76  1  0.25244000  0.25620000  0.10679000  1.0 -0.5380837004
O  O77  1  0.74380000  0.89321000  0.25244000  1.0 -0.5380837004
O  O78  1  0.74380000  0.10679000  0.74756000  1.0 -0.5380837004
O  O79  1  0.25620000  0.89321000  0.74756000  1.0 -0.5380837004
O  O80  1  0.25620000  0.10679000  0.25244000  1.0 -0.5380837004
O  O81  1  0.68160000  0.66964000  0.18800000  1.0 -0.5380837004
O  O82  1  0.31840000  0.33036000  0.18800000  1.0 -0.5380837004
O  O83  1  0.31840000  0.66964000  0.81200000  1.0 -0.5380837004
O  O84  1  0.68160000  0.33036000  0.81200000  1.0 -0.5380837004
O  O85  1  0.18800000  0.68160000  0.66964000  1.0 -0.5380837004
O  O86  1  0.18800000  0.31840000  0.33036000  1.0 -0.5380837004
O  O87  1  0.81200000  0.31840000  0.66964000  1.0 -0.5380837004
O  O88  1  0.81200000  0.68160000  0.33036000  1.0 -0.5380837004
O  O89  1  0.66964000  0.18800000  0.68160000  1.0 -0.5380837004
O  O90  1  0.33036000  0.18800000  0.31840000  1.0 -0.5380837004
O  O91  1  0.66964000  0.81200000  0.31840000  1.0 -0.5380837004
O  O92  1  0.33036000  0.81200000  0.68160000  1.0 -0.5380837004
O  O93  1  0.16964000  0.18160000  0.68800000  1.0 -0.5380837004
O  O94  1  0.83036000  0.81840000  0.68800000  1.0 -0.5380837004
O  O95  1  0.16964000  0.81840000  0.31200000  1.0 -0.5380837004
O  O96  1  0.83036000  0.18160000  0.31200000  1.0 -0.5380837004
O  O97  1  0.18160000  0.68800000  0.16964000  1.0 -0.5380837004
O  O98  1  0.81840000  0.68800000  0.83036000  1.0 -0.5380837004
O  O99  1  0.81840000  0.31200000  0.16964000  1.0 -0.5380837004
O  O100  1  0.18160000  0.31200000  0.83036000  1.0 -0.5380837004
O  O101  1  0.68800000  0.16964000  0.18160000  1.0 -0.5380837004
O  O102  1  0.68800000  0.83036000  0.81840000  1.0 -0.5380837004
O  O103  1  0.31200000  0.16964000  0.81840000  1.0 -0.5380837004
O  O104  1  0.31200000  0.83036000  0.18160000  1.0 -0.5380837004
