# DDEC6 charges by PACMAN v1.1 (https://github.com/mtap-research/PACMAN-charge/)
data_LIDGUE_ASR_pacman
_symmetry_space_group_name_H-M   'P 1'
_cell_length_a   21.91070000
_cell_length_b   21.91070000
_cell_length_c   21.91070000
_cell_angle_alpha   90.00000000
_cell_angle_beta   90.00000000
_cell_angle_gamma   90.00000000
_symmetry_Int_Tables_number   1
_chemical_formula_structural   Fe3H9C24N3O13
_chemical_formula_sum   'Fe24 H72 C192 N24 O104'
_cell_volume   10518.86200422
_cell_formula_units_Z   8
loop_
 _symmetry_equiv_pos_site_id
 _symmetry_equiv_pos_as_xyz
  1  'x, y, z'
loop_
 _atom_site_type_symbol
 _atom_site_label
 _atom_site_symmetry_multiplicity
 _atom_site_fract_x
 _atom_site_fract_y
 _atom_site_fract_z
 _atom_site_occupancy
 _atom_site_charge
Fe  Fe1  1  0.68288000  0.26052000  0.19788000  1.0 1.1428495955
Fe  Fe2  1  0.31712000  0.73948000  0.19788000  1.0 1.1428495955
Fe  Fe3  1  0.31712000  0.26052000  0.80212000  1.0 1.1428495955
Fe  Fe4  1  0.68288000  0.73948000  0.80212000  1.0 1.1428495955
Fe  Fe5  1  0.19788000  0.68288000  0.26052000  1.0 1.1428495955
Fe  Fe6  1  0.19788000  0.31712000  0.73948000  1.0 1.1428495955
Fe  Fe7  1  0.80212000  0.31712000  0.26052000  1.0 1.1428495955
Fe  Fe8  1  0.80212000  0.68288000  0.73948000  1.0 1.1428495955
Fe  Fe9  1  0.26052000  0.19788000  0.68288000  1.0 1.1428495955
Fe  Fe10  1  0.73948000  0.19788000  0.31712000  1.0 1.1428495955
Fe  Fe11  1  0.26052000  0.80212000  0.31712000  1.0 1.1428495955
Fe  Fe12  1  0.73948000  0.80212000  0.68288000  1.0 1.1428495955
Fe  Fe13  1  0.76052000  0.18288000  0.69788000  1.0 1.1428495955
Fe  Fe14  1  0.23948000  0.81712000  0.69788000  1.0 1.1428495955
Fe  Fe15  1  0.76052000  0.81712000  0.30212000  1.0 1.1428495955
Fe  Fe16  1  0.23948000  0.18288000  0.30212000  1.0 1.1428495955
Fe  Fe17  1  0.18288000  0.69788000  0.76052000  1.0 1.1428495955
Fe  Fe18  1  0.81712000  0.69788000  0.23948000  1.0 1.1428495955
Fe  Fe19  1  0.81712000  0.30212000  0.76052000  1.0 1.1428495955
Fe  Fe20  1  0.18288000  0.30212000  0.23948000  1.0 1.1428495955
Fe  Fe21  1  0.69788000  0.76052000  0.18288000  1.0 1.1428495955
Fe  Fe22  1  0.69788000  0.23948000  0.81712000  1.0 1.1428495955
Fe  Fe23  1  0.30212000  0.76052000  0.81712000  1.0 1.1428495955
Fe  Fe24  1  0.30212000  0.23948000  0.18288000  1.0 1.1428495955
H  H1  1  0.74634000  0.50743000  0.22631000  1.0 0.1395445416
H  H2  1  0.25366000  0.49257000  0.22631000  1.0 0.1395445416
H  H3  1  0.25366000  0.50743000  0.77369000  1.0 0.1395445416
H  H4  1  0.74634000  0.49257000  0.77369000  1.0 0.1395445416
H  H5  1  0.22631000  0.74634000  0.50743000  1.0 0.1395445416
H  H6  1  0.22631000  0.25366000  0.49257000  1.0 0.1395445416
H  H7  1  0.77369000  0.25366000  0.50743000  1.0 0.1395445416
H  H8  1  0.77369000  0.74634000  0.49257000  1.0 0.1395445416
H  H9  1  0.50743000  0.22631000  0.74634000  1.0 0.1395445416
H  H10  1  0.49257000  0.22631000  0.25366000  1.0 0.1395445416
H  H11  1  0.50743000  0.77369000  0.25366000  1.0 0.1395445416
H  H12  1  0.49257000  0.77369000  0.74634000  1.0 0.1395445416
H  H13  1  0.00743000  0.24634000  0.72631000  1.0 0.1395445416
H  H14  1  0.99257000  0.75366000  0.72631000  1.0 0.1395445416
H  H15  1  0.00743000  0.75366000  0.27369000  1.0 0.1395445416
H  H16  1  0.99257000  0.24634000  0.27369000  1.0 0.1395445416
H  H17  1  0.24634000  0.72631000  0.00743000  1.0 0.1395445416
H  H18  1  0.75366000  0.72631000  0.99257000  1.0 0.1395445416
H  H19  1  0.75366000  0.27369000  0.00743000  1.0 0.1395445416
H  H20  1  0.24634000  0.27369000  0.99257000  1.0 0.1395445416
H  H21  1  0.72631000  0.00743000  0.24634000  1.0 0.1395445416
H  H22  1  0.72631000  0.99257000  0.75366000  1.0 0.1395445416
H  H23  1  0.27369000  0.00743000  0.75366000  1.0 0.1395445416
H  H24  1  0.27369000  0.99257000  0.24634000  1.0 0.1395445416
H  H25  1  0.58587000  0.42461000  0.21090000  1.0 0.1348944616
H  H26  1  0.41413000  0.57539000  0.21090000  1.0 0.1348944616
H  H27  1  0.41413000  0.42461000  0.78910000  1.0 0.1348944616
H  H28  1  0.58587000  0.57539000  0.78910000  1.0 0.1348944616
H  H29  1  0.21090000  0.58587000  0.42461000  1.0 0.1348944616
H  H30  1  0.21090000  0.41413000  0.57539000  1.0 0.1348944616
H  H31  1  0.78910000  0.41413000  0.42461000  1.0 0.1348944616
H  H32  1  0.78910000  0.58587000  0.57539000  1.0 0.1348944616
H  H33  1  0.42461000  0.21090000  0.58587000  1.0 0.1348944616
H  H34  1  0.57539000  0.21090000  0.41413000  1.0 0.1348944616
H  H35  1  0.42461000  0.78910000  0.41413000  1.0 0.1348944616
H  H36  1  0.57539000  0.78910000  0.58587000  1.0 0.1395445416
H  H37  1  0.92461000  0.08587000  0.71090000  1.0 0.1348944616
H  H38  1  0.07539000  0.91413000  0.71090000  1.0 0.1348944616
H  H39  1  0.92461000  0.91413000  0.28910000  1.0 0.1395445416
H  H40  1  0.07539000  0.08587000  0.28910000  1.0 0.1348944616
H  H41  1  0.08587000  0.71090000  0.92461000  1.0 0.1348944616
H  H42  1  0.91413000  0.71090000  0.07539000  1.0 0.1395445416
H  H43  1  0.91413000  0.28910000  0.92461000  1.0 0.1348944616
H  H44  1  0.08587000  0.28910000  0.07539000  1.0 0.1348944616
H  H45  1  0.71090000  0.92461000  0.08587000  1.0 0.1348944616
H  H46  1  0.71090000  0.07539000  0.91413000  1.0 0.1348944616
H  H47  1  0.28910000  0.92461000  0.91413000  1.0 0.1395445416
H  H48  1  0.28910000  0.07539000  0.08587000  1.0 0.1348944616
H  H49  1  0.59216000  0.60614000  0.20144000  1.0 0.1395445416
H  H50  1  0.40784000  0.39386000  0.20144000  1.0 0.1395445416
H  H51  1  0.40784000  0.60614000  0.79856000  1.0 0.1395445416
H  H52  1  0.59216000  0.39386000  0.79856000  1.0 0.1395445416
H  H53  1  0.20144000  0.59216000  0.60614000  1.0 0.1395445416
H  H54  1  0.20144000  0.40784000  0.39386000  1.0 0.1395445416
H  H55  1  0.79856000  0.40784000  0.60614000  1.0 0.1395445416
H  H56  1  0.79856000  0.59216000  0.39386000  1.0 0.1395445416
H  H57  1  0.60614000  0.20144000  0.59216000  1.0 0.1395445416
H  H58  1  0.39386000  0.20144000  0.40784000  1.0 0.1395445416
H  H59  1  0.60614000  0.79856000  0.40784000  1.0 0.1395445416
H  H60  1  0.39386000  0.79856000  0.59216000  1.0 0.1395445416
H  H61  1  0.10614000  0.09216000  0.70144000  1.0 0.1395445416
H  H62  1  0.89386000  0.90784000  0.70144000  1.0 0.1395445416
H  H63  1  0.10614000  0.90784000  0.29856000  1.0 0.1395445416
H  H64  1  0.89386000  0.09216000  0.29856000  1.0 0.1395445416
H  H65  1  0.09216000  0.70144000  0.10614000  1.0 0.1395445416
H  H66  1  0.90784000  0.70144000  0.89386000  1.0 0.1395445416
H  H67  1  0.90784000  0.29856000  0.10614000  1.0 0.1395445416
H  H68  1  0.09216000  0.29856000  0.89386000  1.0 0.1395445416
H  H69  1  0.70144000  0.10614000  0.09216000  1.0 0.1395445416
H  H70  1  0.70144000  0.89386000  0.90784000  1.0 0.1395445416
H  H71  1  0.29856000  0.10614000  0.90784000  1.0 0.1395445416
H  H72  1  0.29856000  0.89386000  0.09216000  1.0 0.1395445416
C  C1  1  0.70480000  0.50980000  0.21810000  1.0 -0.0898028927
C  C2  1  0.29520000  0.49020000  0.21810000  1.0 -0.0898028927
C  C3  1  0.29520000  0.50980000  0.78190000  1.0 -0.0898028927
C  C4  1  0.70480000  0.49020000  0.78190000  1.0 -0.0898028927
C  C5  1  0.21810000  0.70480000  0.50980000  1.0 -0.0898028927
C  C6  1  0.21810000  0.29520000  0.49020000  1.0 -0.0898028927
C  C7  1  0.78190000  0.29520000  0.50980000  1.0 -0.0898028927
C  C8  1  0.78190000  0.70480000  0.49020000  1.0 -0.0898028927
C  C9  1  0.50980000  0.21810000  0.70480000  1.0 -0.0898028927
C  C10  1  0.49020000  0.21810000  0.29520000  1.0 -0.0898028927
C  C11  1  0.50980000  0.78190000  0.29520000  1.0 -0.0898028927
C  C12  1  0.49020000  0.78190000  0.70480000  1.0 -0.0898028927
C  C13  1  0.00980000  0.20480000  0.71810000  1.0 -0.0898028927
C  C14  1  0.99020000  0.79520000  0.71810000  1.0 -0.0898028927
C  C15  1  0.00980000  0.79520000  0.28190000  1.0 -0.0898028927
C  C16  1  0.99020000  0.20480000  0.28190000  1.0 -0.0898028927
C  C17  1  0.20480000  0.71810000  0.00980000  1.0 -0.0898028927
C  C18  1  0.79520000  0.71810000  0.99020000  1.0 -0.0898028927
C  C19  1  0.79520000  0.28190000  0.00980000  1.0 -0.0898028927
C  C20  1  0.20480000  0.28190000  0.99020000  1.0 -0.0898028927
C  C21  1  0.71810000  0.00980000  0.20480000  1.0 -0.0898028927
C  C22  1  0.71810000  0.99020000  0.79520000  1.0 -0.0898028927
C  C23  1  0.28190000  0.00980000  0.79520000  1.0 -0.0898028927
C  C24  1  0.28190000  0.99020000  0.20480000  1.0 -0.0898028927
C  C25  1  0.69910000  0.39480000  0.22000000  1.0 0.6082418721
C  C26  1  0.30090000  0.60520000  0.22000000  1.0 0.6082418721
C  C27  1  0.30090000  0.39480000  0.78000000  1.0 0.6082418721
C  C28  1  0.69910000  0.60520000  0.78000000  1.0 0.6082418721
C  C29  1  0.22000000  0.69910000  0.39480000  1.0 0.6082418721
C  C30  1  0.22000000  0.30090000  0.60520000  1.0 0.6082418721
C  C31  1  0.78000000  0.30090000  0.39480000  1.0 0.6082418721
C  C32  1  0.78000000  0.69910000  0.60520000  1.0 0.6082418721
C  C33  1  0.39480000  0.22000000  0.69910000  1.0 0.6082418721
C  C34  1  0.60520000  0.22000000  0.30090000  1.0 0.6082418721
C  C35  1  0.39480000  0.78000000  0.30090000  1.0 0.6082418721
C  C36  1  0.60520000  0.78000000  0.69910000  1.0 0.6082418721
C  C37  1  0.89480000  0.19910000  0.72000000  1.0 0.6082418721
C  C38  1  0.10520000  0.80090000  0.72000000  1.0 0.6082418721
C  C39  1  0.89480000  0.80090000  0.28000000  1.0 0.6082418721
C  C40  1  0.10520000  0.19910000  0.28000000  1.0 0.6082418721
C  C41  1  0.19910000  0.72000000  0.89480000  1.0 0.6082418721
C  C42  1  0.80090000  0.72000000  0.10520000  1.0 0.6082418721
C  C43  1  0.80090000  0.28000000  0.89480000  1.0 0.6082418721
C  C44  1  0.19910000  0.28000000  0.10520000  1.0 0.6082418721
C  C45  1  0.72000000  0.89480000  0.19910000  1.0 0.6082418721
C  C46  1  0.72000000  0.10520000  0.80090000  1.0 0.6082418721
C  C47  1  0.28000000  0.89480000  0.80090000  1.0 0.6082418721
C  C48  1  0.28000000  0.10520000  0.19910000  1.0 0.6082418721
C  C49  1  0.66940000  0.45700000  0.21340000  1.0 -0.0063384769
C  C50  1  0.33060000  0.54300000  0.21340000  1.0 -0.0063384769
C  C51  1  0.33060000  0.45700000  0.78660000  1.0 -0.0063384769
C  C52  1  0.66940000  0.54300000  0.78660000  1.0 -0.0063384769
C  C53  1  0.21340000  0.66940000  0.45700000  1.0 -0.0063384769
C  C54  1  0.21340000  0.33060000  0.54300000  1.0 -0.0063384769
C  C55  1  0.78660000  0.33060000  0.45700000  1.0 -0.0063384769
C  C56  1  0.78660000  0.66940000  0.54300000  1.0 -0.0063384769
C  C57  1  0.45700000  0.21340000  0.66940000  1.0 -0.0063384769
C  C58  1  0.54300000  0.21340000  0.33060000  1.0 -0.0063384769
C  C59  1  0.45700000  0.78660000  0.33060000  1.0 -0.0063384769
C  C60  1  0.54300000  0.78660000  0.66940000  1.0 -0.0063384769
C  C61  1  0.95700000  0.16940000  0.71340000  1.0 -0.0063384769
C  C62  1  0.04300000  0.83060000  0.71340000  1.0 -0.0063384769
C  C63  1  0.95700000  0.83060000  0.28660000  1.0 -0.0063384769
C  C64  1  0.04300000  0.16940000  0.28660000  1.0 -0.0063384769
C  C65  1  0.16940000  0.71340000  0.95700000  1.0 -0.0063384769
C  C66  1  0.83060000  0.71340000  0.04300000  1.0 -0.0063384769
C  C67  1  0.83060000  0.28660000  0.95700000  1.0 -0.0063384769
C  C68  1  0.16940000  0.28660000  0.04300000  1.0 -0.0063384769
C  C69  1  0.71340000  0.95700000  0.16940000  1.0 -0.0063384769
C  C70  1  0.71340000  0.04300000  0.83060000  1.0 -0.0063384769
C  C71  1  0.28660000  0.95700000  0.83060000  1.0 -0.0063384769
C  C72  1  0.28660000  0.04300000  0.16940000  1.0 -0.0063384769
C  C73  1  0.67560000  0.56730000  0.20990000  1.0 -0.0552643861
C  C74  1  0.32440000  0.43270000  0.20990000  1.0 -0.0552643861
C  C75  1  0.32440000  0.56730000  0.79010000  1.0 -0.0552643861
C  C76  1  0.67560000  0.43270000  0.79010000  1.0 -0.0552643861
C  C77  1  0.20990000  0.67560000  0.56730000  1.0 -0.0552643861
C  C78  1  0.20990000  0.32440000  0.43270000  1.0 -0.0552643861
C  C79  1  0.79010000  0.32440000  0.56730000  1.0 -0.0552643861
C  C80  1  0.79010000  0.67560000  0.43270000  1.0 -0.0552643861
C  C81  1  0.56730000  0.20990000  0.67560000  1.0 -0.0552643861
C  C82  1  0.43270000  0.20990000  0.32440000  1.0 -0.0552643861
C  C83  1  0.56730000  0.79010000  0.32440000  1.0 -0.0552643861
C  C84  1  0.43270000  0.79010000  0.67560000  1.0 -0.0552643861
C  C85  1  0.06730000  0.17560000  0.70990000  1.0 -0.0552643861
C  C86  1  0.93270000  0.82440000  0.70990000  1.0 -0.0552643861
C  C87  1  0.06730000  0.82440000  0.29010000  1.0 -0.0552643861
C  C88  1  0.93270000  0.17560000  0.29010000  1.0 -0.0552643861
C  C89  1  0.17560000  0.70990000  0.06730000  1.0 -0.0552643861
C  C90  1  0.82440000  0.70990000  0.93270000  1.0 -0.0552643861
C  C91  1  0.82440000  0.29010000  0.06730000  1.0 -0.0552643861
C  C92  1  0.17560000  0.29010000  0.93270000  1.0 -0.0552643861
C  C93  1  0.70990000  0.06730000  0.17560000  1.0 -0.0552643861
C  C94  1  0.70990000  0.93270000  0.82440000  1.0 -0.0552643861
C  C95  1  0.29010000  0.06730000  0.82440000  1.0 -0.0552643861
C  C96  1  0.29010000  0.93270000  0.17560000  1.0 -0.0552643861
C  C97  1  0.60870000  0.46040000  0.21120000  1.0 -0.1198486659
C  C98  1  0.39130000  0.53960000  0.21120000  1.0 -0.1198486659
C  C99  1  0.39130000  0.46040000  0.78880000  1.0 -0.1198486659
C  C100  1  0.60870000  0.53960000  0.78880000  1.0 -0.1198486659
C  C101  1  0.21120000  0.60870000  0.46040000  1.0 -0.1198486659
C  C102  1  0.21120000  0.39130000  0.53960000  1.0 -0.1198486659
C  C103  1  0.78880000  0.39130000  0.46040000  1.0 -0.1198486659
C  C104  1  0.78880000  0.60870000  0.53960000  1.0 -0.1198486659
C  C105  1  0.46040000  0.21120000  0.60870000  1.0 -0.1198486659
C  C106  1  0.53960000  0.21120000  0.39130000  1.0 -0.1198486659
C  C107  1  0.46040000  0.78880000  0.39130000  1.0 -0.1198486659
C  C108  1  0.53960000  0.78880000  0.60870000  1.0 -0.1198486659
C  C109  1  0.96040000  0.10870000  0.71120000  1.0 -0.1198486659
C  C110  1  0.03960000  0.89130000  0.71120000  1.0 -0.1198486659
C  C111  1  0.96040000  0.89130000  0.28880000  1.0 -0.1198486659
C  C112  1  0.03960000  0.10870000  0.28880000  1.0 -0.1198486659
C  C113  1  0.10870000  0.71120000  0.96040000  1.0 -0.1198486659
C  C114  1  0.89130000  0.71120000  0.03960000  1.0 -0.1198486659
C  C115  1  0.89130000  0.28880000  0.96040000  1.0 -0.1198486659
C  C116  1  0.10870000  0.28880000  0.03960000  1.0 -0.1198486659
C  C117  1  0.71120000  0.96040000  0.10870000  1.0 -0.1198486659
C  C118  1  0.71120000  0.03960000  0.89130000  1.0 -0.1198486659
C  C119  1  0.28880000  0.96040000  0.89130000  1.0 -0.1198486659
C  C120  1  0.28880000  0.03960000  0.10870000  1.0 -0.1198486659
C  C121  1  0.57970000  0.51530000  0.20930000  1.0 0.1348944616
C  C122  1  0.42030000  0.48470000  0.20930000  1.0 0.1348944616
C  C123  1  0.42030000  0.51530000  0.79070000  1.0 0.1395445416
C  C124  1  0.57970000  0.48470000  0.79070000  1.0 0.1395445416
C  C125  1  0.20930000  0.57970000  0.51530000  1.0 0.1348944616
C  C126  1  0.20930000  0.42030000  0.48470000  1.0 0.1348944616
C  C127  1  0.79070000  0.42030000  0.51530000  1.0 0.1395445416
C  C128  1  0.79070000  0.57970000  0.48470000  1.0 0.1395445416
C  C129  1  0.51530000  0.20930000  0.57970000  1.0 0.1348944616
C  C130  1  0.48470000  0.20930000  0.42030000  1.0 0.1348944616
C  C131  1  0.51530000  0.79070000  0.42030000  1.0 0.1395445416
C  C132  1  0.48470000  0.79070000  0.57970000  1.0 0.1395445416
C  C133  1  0.01530000  0.07970000  0.70930000  1.0 0.1348944616
C  C134  1  0.98470000  0.92030000  0.70930000  1.0 0.1395445416
C  C135  1  0.01530000  0.92030000  0.29070000  1.0 0.1395445416
C  C136  1  0.98470000  0.07970000  0.29070000  1.0 0.1348944616
C  C137  1  0.07970000  0.70930000  0.01530000  1.0 0.1395445416
C  C138  1  0.92030000  0.70930000  0.98470000  1.0 0.1395445416
C  C139  1  0.92030000  0.29070000  0.01530000  1.0 0.1348944616
C  C140  1  0.07970000  0.29070000  0.98470000  1.0 0.1395445416
C  C141  1  0.70930000  0.01530000  0.07970000  1.0 0.1348944616
C  C142  1  0.70930000  0.98470000  0.92030000  1.0 0.1395445416
C  C143  1  0.29070000  0.01530000  0.92030000  1.0 0.1348944616
C  C144  1  0.29070000  0.98470000  0.07970000  1.0 0.1395445416
C  C145  1  0.70830000  0.62490000  0.21120000  1.0 0.5949142289
C  C146  1  0.29170000  0.37510000  0.21120000  1.0 0.5949142289
C  C147  1  0.29170000  0.62490000  0.78880000  1.0 0.5949142289
C  C148  1  0.70830000  0.37510000  0.78880000  1.0 0.5949142289
C  C149  1  0.21120000  0.70830000  0.62490000  1.0 0.5949142289
C  C150  1  0.21120000  0.29170000  0.37510000  1.0 0.5949142289
C  C151  1  0.78880000  0.29170000  0.62490000  1.0 0.5949142289
C  C152  1  0.78880000  0.70830000  0.37510000  1.0 0.5949142289
C  C153  1  0.62490000  0.21120000  0.70830000  1.0 0.5949142289
C  C154  1  0.37510000  0.21120000  0.29170000  1.0 0.5949142289
C  C155  1  0.62490000  0.78880000  0.29170000  1.0 0.5949142289
C  C156  1  0.37510000  0.78880000  0.70830000  1.0 0.5949142289
C  C157  1  0.12490000  0.20830000  0.71120000  1.0 0.5949142289
C  C158  1  0.87510000  0.79170000  0.71120000  1.0 0.5949142289
C  C159  1  0.12490000  0.79170000  0.28880000  1.0 0.5949142289
C  C160  1  0.87510000  0.20830000  0.28880000  1.0 0.5949142289
C  C161  1  0.20830000  0.71120000  0.12490000  1.0 0.5949142289
C  C162  1  0.79170000  0.71120000  0.87510000  1.0 0.5949142289
C  C163  1  0.79170000  0.28880000  0.12490000  1.0 0.5949142289
C  C164  1  0.20830000  0.28880000  0.87510000  1.0 0.5949142289
C  C165  1  0.71120000  0.12490000  0.20830000  1.0 0.5949142289
C  C166  1  0.71120000  0.87510000  0.79170000  1.0 0.5949142289
C  C167  1  0.28880000  0.12490000  0.79170000  1.0 0.5949142289
C  C168  1  0.28880000  0.87510000  0.20830000  1.0 0.5949142289
C  C169  1  0.61230000  0.56910000  0.20610000  1.0 -0.1400094275
C  C170  1  0.38770000  0.43090000  0.20610000  1.0 -0.1400094275
C  C171  1  0.38770000  0.56910000  0.79390000  1.0 -0.1400094275
C  C172  1  0.61230000  0.43090000  0.79390000  1.0 -0.1400094275
C  C173  1  0.20610000  0.61230000  0.56910000  1.0 -0.1400094275
C  C174  1  0.20610000  0.38770000  0.43090000  1.0 -0.1400094275
C  C175  1  0.79390000  0.38770000  0.56910000  1.0 -0.1400094275
C  C176  1  0.79390000  0.61230000  0.43090000  1.0 -0.1400094275
C  C177  1  0.56910000  0.20610000  0.61230000  1.0 -0.1400094275
C  C178  1  0.43090000  0.20610000  0.38770000  1.0 -0.1400094275
C  C179  1  0.56910000  0.79390000  0.38770000  1.0 -0.1400094275
C  C180  1  0.43090000  0.79390000  0.61230000  1.0 -0.1400094275
C  C181  1  0.06910000  0.11230000  0.70610000  1.0 -0.1400094275
C  C182  1  0.93090000  0.88770000  0.70610000  1.0 -0.1400094275
C  C183  1  0.06910000  0.88770000  0.29390000  1.0 -0.1400094275
C  C184  1  0.93090000  0.11230000  0.29390000  1.0 -0.1400094275
C  C185  1  0.11230000  0.70610000  0.06910000  1.0 -0.1400094275
C  C186  1  0.88770000  0.70610000  0.93090000  1.0 -0.1400094275
C  C187  1  0.88770000  0.29390000  0.06910000  1.0 -0.1400094275
C  C188  1  0.11230000  0.29390000  0.93090000  1.0 -0.1400094275
C  C189  1  0.70610000  0.06910000  0.11230000  1.0 -0.1400094275
C  C190  1  0.70610000  0.93090000  0.88770000  1.0 -0.1400094275
C  C191  1  0.29390000  0.06910000  0.88770000  1.0 -0.1400094275
C  C192  1  0.29390000  0.93090000  0.11230000  1.0 -0.1400094275
N  N1  1  0.51330000  0.52310000  0.20530000  1.0 -0.0898028927
N  N2  1  0.48670000  0.47690000  0.20530000  1.0 -0.0898028927
N  N3  1  0.48670000  0.52310000  0.79470000  1.0 -0.0898028927
N  N4  1  0.51330000  0.47690000  0.79470000  1.0 -0.0898028927
N  N5  1  0.20530000  0.51330000  0.52310000  1.0 -0.0898028927
N  N6  1  0.20530000  0.48670000  0.47690000  1.0 -0.0898028927
N  N7  1  0.79470000  0.48670000  0.52310000  1.0 -0.0898028927
N  N8  1  0.79470000  0.51330000  0.47690000  1.0 -0.0898028927
N  N9  1  0.52310000  0.20530000  0.51330000  1.0 -0.0898028927
N  N10  1  0.47690000  0.20530000  0.48670000  1.0 -0.0898028927
N  N11  1  0.52310000  0.79470000  0.48670000  1.0 -0.0898028927
N  N12  1  0.47690000  0.79470000  0.51330000  1.0 -0.0898028927
N  N13  1  0.02310000  0.01330000  0.70530000  1.0 -0.0898028927
N  N14  1  0.97690000  0.98670000  0.70530000  1.0 -0.0898028927
N  N15  1  0.02310000  0.98670000  0.29470000  1.0 -0.0898028927
N  N16  1  0.97690000  0.01330000  0.29470000  1.0 -0.0898028927
N  N17  1  0.01330000  0.70530000  0.02310000  1.0 -0.0898028927
N  N18  1  0.98670000  0.70530000  0.97690000  1.0 -0.0898028927
N  N19  1  0.98670000  0.29470000  0.02310000  1.0 -0.0898028927
N  N20  1  0.01330000  0.29470000  0.97690000  1.0 -0.0898028927
N  N21  1  0.70530000  0.02310000  0.01330000  1.0 -0.0898028927
N  N22  1  0.70530000  0.97690000  0.98670000  1.0 -0.0898028927
N  N23  1  0.29470000  0.02310000  0.98670000  1.0 -0.0898028927
N  N24  1  0.29470000  0.97690000  0.01330000  1.0 -0.0898028927
O  O1  1  0.76430000  0.62490000  0.22260000  1.0 -0.5214246289
O  O2  1  0.23570000  0.37510000  0.22260000  1.0 -0.5214246289
O  O3  1  0.23570000  0.62490000  0.77740000  1.0 -0.5214246289
O  O4  1  0.76430000  0.37510000  0.77740000  1.0 -0.5214246289
O  O5  1  0.22260000  0.76430000  0.62490000  1.0 -0.5214246289
O  O6  1  0.22260000  0.23570000  0.37510000  1.0 -0.5214246289
O  O7  1  0.77740000  0.23570000  0.62490000  1.0 -0.5214246289
O  O8  1  0.77740000  0.76430000  0.37510000  1.0 -0.5214246289
O  O9  1  0.62490000  0.22260000  0.76430000  1.0 -0.5214246289
O  O10  1  0.37510000  0.22260000  0.23570000  1.0 -0.5214246289
O  O11  1  0.62490000  0.77740000  0.23570000  1.0 -0.5214246289
O  O12  1  0.37510000  0.77740000  0.76430000  1.0 -0.5214246289
O  O13  1  0.12490000  0.26430000  0.72260000  1.0 -0.5214246289
O  O14  1  0.87510000  0.73570000  0.72260000  1.0 -0.5214246289
O  O15  1  0.12490000  0.73570000  0.27740000  1.0 -0.5214246289
O  O16  1  0.87510000  0.26430000  0.27740000  1.0 -0.5214246289
O  O17  1  0.26430000  0.72260000  0.12490000  1.0 -0.5214246289
O  O18  1  0.73570000  0.72260000  0.87510000  1.0 -0.5214246289
O  O19  1  0.73570000  0.27740000  0.12490000  1.0 -0.5214246289
O  O20  1  0.26430000  0.27740000  0.87510000  1.0 -0.5214246289
O  O21  1  0.72260000  0.12490000  0.26430000  1.0 -0.5214246289
O  O22  1  0.72260000  0.87510000  0.73570000  1.0 -0.5214246289
O  O23  1  0.27740000  0.12490000  0.73570000  1.0 -0.5214246289
O  O24  1  0.27740000  0.87510000  0.26430000  1.0 -0.5214246289
O  O25  1  0.66810000  0.34900000  0.20300000  1.0 -0.5310814965
O  O26  1  0.33190000  0.65100000  0.20300000  1.0 -0.5310814965
O  O27  1  0.33190000  0.34900000  0.79700000  1.0 -0.5310814965
O  O28  1  0.66810000  0.65100000  0.79700000  1.0 -0.5310814965
O  O29  1  0.20300000  0.66810000  0.34900000  1.0 -0.5310814965
O  O30  1  0.20300000  0.33190000  0.65100000  1.0 -0.5310814965
O  O31  1  0.79700000  0.33190000  0.34900000  1.0 -0.5310814965
O  O32  1  0.79700000  0.66810000  0.65100000  1.0 -0.5310814965
O  O33  1  0.34900000  0.20300000  0.66810000  1.0 -0.5310814965
O  O34  1  0.65100000  0.20300000  0.33190000  1.0 -0.5310814965
O  O35  1  0.34900000  0.79700000  0.33190000  1.0 -0.5310814965
O  O36  1  0.65100000  0.79700000  0.66810000  1.0 -0.5310814965
O  O37  1  0.84900000  0.16810000  0.70300000  1.0 -0.5310814965
O  O38  1  0.15100000  0.83190000  0.70300000  1.0 -0.5310814965
O  O39  1  0.84900000  0.83190000  0.29700000  1.0 -0.5310814965
O  O40  1  0.15100000  0.16810000  0.29700000  1.0 -0.5310814965
O  O41  1  0.16810000  0.70300000  0.84900000  1.0 -0.5310814965
O  O42  1  0.83190000  0.70300000  0.15100000  1.0 -0.5310814965
O  O43  1  0.83190000  0.29700000  0.84900000  1.0 -0.5310814965
O  O44  1  0.16810000  0.29700000  0.15100000  1.0 -0.5310814965
O  O45  1  0.70300000  0.84900000  0.16810000  1.0 -0.5310814965
O  O46  1  0.70300000  0.15100000  0.83190000  1.0 -0.5310814965
O  O47  1  0.29700000  0.84900000  0.83190000  1.0 -0.5310814965
O  O48  1  0.29700000  0.15100000  0.16810000  1.0 -0.5310814965
O  O49  1  0.75220000  0.39400000  0.24440000  1.0 -0.5444271802
O  O50  1  0.24780000  0.60600000  0.24440000  1.0 -0.5444271802
O  O51  1  0.24780000  0.39400000  0.75560000  1.0 -0.5444271802
O  O52  1  0.75220000  0.60600000  0.75560000  1.0 -0.5444271802
O  O53  1  0.24440000  0.75220000  0.39400000  1.0 -0.5444271802
O  O54  1  0.24440000  0.24780000  0.60600000  1.0 -0.5444271802
O  O55  1  0.75560000  0.24780000  0.39400000  1.0 -0.5444271802
O  O56  1  0.75560000  0.75220000  0.60600000  1.0 -0.5444271802
O  O57  1  0.39400000  0.24440000  0.75220000  1.0 -0.5444271802
O  O58  1  0.60600000  0.24440000  0.24780000  1.0 -0.5444271802
O  O59  1  0.39400000  0.75560000  0.24780000  1.0 -0.5444271802
O  O60  1  0.60600000  0.75560000  0.75220000  1.0 -0.5444271802
O  O61  1  0.89400000  0.25220000  0.74440000  1.0 -0.5444271802
O  O62  1  0.10600000  0.74780000  0.74440000  1.0 -0.5444271802
O  O63  1  0.89400000  0.74780000  0.25560000  1.0 -0.5444271802
O  O64  1  0.10600000  0.25220000  0.25560000  1.0 -0.5444271802
O  O65  1  0.25220000  0.74440000  0.89400000  1.0 -0.5444271802
O  O66  1  0.74780000  0.74440000  0.10600000  1.0 -0.5444271802
O  O67  1  0.74780000  0.25560000  0.89400000  1.0 -0.5444271802
O  O68  1  0.25220000  0.25560000  0.10600000  1.0 -0.5444271802
O  O69  1  0.74440000  0.89400000  0.25220000  1.0 -0.5444271802
O  O70  1  0.74440000  0.10600000  0.74780000  1.0 -0.5444271802
O  O71  1  0.25560000  0.89400000  0.74780000  1.0 -0.5444271802
O  O72  1  0.25560000  0.10600000  0.25220000  1.0 -0.5444271802
O  O73  1  0.68200000  0.66890000  0.18790000  1.0 -0.5214246289
O  O74  1  0.31800000  0.33110000  0.18790000  1.0 -0.5214246289
O  O75  1  0.31800000  0.66890000  0.81210000  1.0 -0.5214246289
O  O76  1  0.68200000  0.33110000  0.81210000  1.0 -0.5214246289
O  O77  1  0.18790000  0.68200000  0.66890000  1.0 -0.5214246289
O  O78  1  0.18790000  0.31800000  0.33110000  1.0 -0.5214246289
O  O79  1  0.81210000  0.31800000  0.66890000  1.0 -0.5214246289
O  O80  1  0.81210000  0.68200000  0.33110000  1.0 -0.5214246289
O  O81  1  0.66890000  0.18790000  0.68200000  1.0 -0.5214246289
O  O82  1  0.33110000  0.18790000  0.31800000  1.0 -0.5214246289
O  O83  1  0.66890000  0.81210000  0.31800000  1.0 -0.5214246289
O  O84  1  0.33110000  0.81210000  0.68200000  1.0 -0.5214246289
O  O85  1  0.16890000  0.18200000  0.68790000  1.0 -0.5214246289
O  O86  1  0.83110000  0.81800000  0.68790000  1.0 -0.5214246289
O  O87  1  0.16890000  0.81800000  0.31210000  1.0 -0.5214246289
O  O88  1  0.83110000  0.18200000  0.31210000  1.0 -0.5214246289
O  O89  1  0.18200000  0.68790000  0.16890000  1.0 -0.5214246289
O  O90  1  0.81800000  0.68790000  0.83110000  1.0 -0.5214246289
O  O91  1  0.81800000  0.31210000  0.16890000  1.0 -0.5214246289
O  O92  1  0.18200000  0.31210000  0.83110000  1.0 -0.5214246289
O  O93  1  0.68790000  0.16890000  0.18200000  1.0 -0.5214246289
O  O94  1  0.68790000  0.83110000  0.81800000  1.0 -0.5214246289
O  O95  1  0.31210000  0.16890000  0.81800000  1.0 -0.5214246289
O  O96  1  0.31210000  0.83110000  0.18200000  1.0 -0.5214246289
O  O97  1  0.74030000  0.25970000  0.25970000  1.0 -0.8362584997
O  O98  1  0.25970000  0.74030000  0.25970000  1.0 -0.8362584997
O  O99  1  0.25970000  0.25970000  0.74030000  1.0 -0.8362584997
O  O100  1  0.74030000  0.74030000  0.74030000  1.0 -0.8362584997
O  O101  1  0.75970000  0.24030000  0.75970000  1.0 -0.8362584997
O  O102  1  0.24030000  0.75970000  0.75970000  1.0 -0.8362584997
O  O103  1  0.75970000  0.75970000  0.24030000  1.0 -0.8362584997
O  O104  1  0.24030000  0.24030000  0.24030000  1.0 -0.8362584997
