# DDEC6 charges by PACMAN v1.1 (https://github.com/mtap-research/PACMAN-charge/)
data_LIDGAK_ASR_pacman
_symmetry_space_group_name_H-M   'P 1'
_cell_length_a   21.86720000
_cell_length_b   21.86720000
_cell_length_c   21.86720000
_cell_angle_alpha   90.00000000
_cell_angle_beta   90.00000000
_cell_angle_gamma   90.00000000
_symmetry_Int_Tables_number   1
_chemical_formula_structural   Fe3H9C24N3O13
_chemical_formula_sum   'Fe24 H72 C192 N24 O104'
_cell_volume   10456.33602340
_cell_formula_units_Z   8
loop_
 _symmetry_equiv_pos_site_id
 _symmetry_equiv_pos_as_xyz
  1  'x, y, z'
loop_
 _atom_site_type_symbol
 _atom_site_label
 _atom_site_symmetry_multiplicity
 _atom_site_fract_x
 _atom_site_fract_y
 _atom_site_fract_z
 _atom_site_occupancy
 _atom_site_charge
Fe  Fe1  1  0.67987000  0.73896000  0.19643000  1.0 1.2093713293
Fe  Fe2  1  0.32013000  0.26104000  0.19643000  1.0 1.2093713293
Fe  Fe3  1  0.32013000  0.73896000  0.80357000  1.0 1.2093713293
Fe  Fe4  1  0.67987000  0.26104000  0.80357000  1.0 1.2093713293
Fe  Fe5  1  0.19643000  0.67987000  0.73896000  1.0 1.2093713293
Fe  Fe6  1  0.19643000  0.32013000  0.26104000  1.0 1.2093713293
Fe  Fe7  1  0.80357000  0.32013000  0.73896000  1.0 1.2093713293
Fe  Fe8  1  0.80357000  0.67987000  0.26104000  1.0 1.2093713293
Fe  Fe9  1  0.73896000  0.19643000  0.67987000  1.0 1.2093713293
Fe  Fe10  1  0.26104000  0.19643000  0.32013000  1.0 1.2093713293
Fe  Fe11  1  0.73896000  0.80357000  0.32013000  1.0 1.2093713293
Fe  Fe12  1  0.26104000  0.80357000  0.67987000  1.0 1.2093713293
Fe  Fe13  1  0.23896000  0.17987000  0.69643000  1.0 1.2093713293
Fe  Fe14  1  0.76104000  0.82013000  0.69643000  1.0 1.2093713293
Fe  Fe15  1  0.23896000  0.82013000  0.30357000  1.0 1.2093713293
Fe  Fe16  1  0.76104000  0.17987000  0.30357000  1.0 1.2093713293
Fe  Fe17  1  0.17987000  0.69643000  0.23896000  1.0 1.2093713293
Fe  Fe18  1  0.82013000  0.69643000  0.76104000  1.0 1.2093713293
Fe  Fe19  1  0.82013000  0.30357000  0.23896000  1.0 1.2093713293
Fe  Fe20  1  0.17987000  0.30357000  0.76104000  1.0 1.2093713293
Fe  Fe21  1  0.69643000  0.23896000  0.17987000  1.0 1.2093713293
Fe  Fe22  1  0.69643000  0.76104000  0.82013000  1.0 1.2093713293
Fe  Fe23  1  0.30357000  0.23896000  0.82013000  1.0 1.2093713293
Fe  Fe24  1  0.30357000  0.76104000  0.17987000  1.0 1.2093713293
H  H1  1  0.74585000  0.49151000  0.22406000  1.0 0.1386900603
H  H2  1  0.25415000  0.50849000  0.22406000  1.0 0.1386900603
H  H3  1  0.25415000  0.49151000  0.77594000  1.0 0.1386900603
H  H4  1  0.74585000  0.50849000  0.77594000  1.0 0.1386900603
H  H5  1  0.22406000  0.74585000  0.49151000  1.0 0.1386900603
H  H6  1  0.22406000  0.25415000  0.50849000  1.0 0.1386900603
H  H7  1  0.77594000  0.25415000  0.49151000  1.0 0.1386900603
H  H8  1  0.77594000  0.74585000  0.50849000  1.0 0.1386900603
H  H9  1  0.49151000  0.22406000  0.74585000  1.0 0.1386900603
H  H10  1  0.50849000  0.22406000  0.25415000  1.0 0.1386900603
H  H11  1  0.49151000  0.77594000  0.25415000  1.0 0.1386900603
H  H12  1  0.50849000  0.77594000  0.74585000  1.0 0.1386900603
H  H13  1  0.99151000  0.24585000  0.72406000  1.0 0.1386900603
H  H14  1  0.00849000  0.75415000  0.72406000  1.0 0.1386900603
H  H15  1  0.99151000  0.75415000  0.27594000  1.0 0.1386900603
H  H16  1  0.00849000  0.24585000  0.27594000  1.0 0.1386900603
H  H17  1  0.24585000  0.72406000  0.99151000  1.0 0.1386900603
H  H18  1  0.75415000  0.72406000  0.00849000  1.0 0.1386900603
H  H19  1  0.75415000  0.27594000  0.99151000  1.0 0.1386900603
H  H20  1  0.24585000  0.27594000  0.00849000  1.0 0.1386900603
H  H21  1  0.72406000  0.99151000  0.24585000  1.0 0.1386900603
H  H22  1  0.72406000  0.00849000  0.75415000  1.0 0.1386900603
H  H23  1  0.27594000  0.99151000  0.75415000  1.0 0.1386900603
H  H24  1  0.27594000  0.00849000  0.24585000  1.0 0.1386900603
H  H25  1  0.58422000  0.57619000  0.20690000  1.0 0.1333281047
H  H26  1  0.41578000  0.42381000  0.20690000  1.0 0.1333281047
H  H27  1  0.41578000  0.57619000  0.79310000  1.0 0.1333281047
H  H28  1  0.58422000  0.42381000  0.79310000  1.0 0.1333281047
H  H29  1  0.20690000  0.58422000  0.57619000  1.0 0.1333281047
H  H30  1  0.20690000  0.41578000  0.42381000  1.0 0.1333281047
H  H31  1  0.79310000  0.41578000  0.57619000  1.0 0.1333281047
H  H32  1  0.79310000  0.58422000  0.42381000  1.0 0.1333281047
H  H33  1  0.57619000  0.20690000  0.58422000  1.0 0.1333281047
H  H34  1  0.42381000  0.20690000  0.41578000  1.0 0.1333281047
H  H35  1  0.57619000  0.79310000  0.41578000  1.0 0.1333281047
H  H36  1  0.42381000  0.79310000  0.58422000  1.0 0.1333281047
H  H37  1  0.07619000  0.08422000  0.70690000  1.0 0.1333281047
H  H38  1  0.92381000  0.91578000  0.70690000  1.0 0.1333281047
H  H39  1  0.07619000  0.91578000  0.29310000  1.0 0.1333281047
H  H40  1  0.92381000  0.08422000  0.29310000  1.0 0.1333281047
H  H41  1  0.08422000  0.70690000  0.07619000  1.0 0.1333281047
H  H42  1  0.91578000  0.70690000  0.92381000  1.0 0.1333281047
H  H43  1  0.91578000  0.29310000  0.07619000  1.0 0.1333281047
H  H44  1  0.08422000  0.29310000  0.92381000  1.0 0.1333281047
H  H45  1  0.70690000  0.07619000  0.08422000  1.0 0.1333281047
H  H46  1  0.70690000  0.92381000  0.91578000  1.0 0.1333281047
H  H47  1  0.29310000  0.07619000  0.91578000  1.0 0.1333281047
H  H48  1  0.29310000  0.92381000  0.08422000  1.0 0.1333281047
H  H49  1  0.59290000  0.39273000  0.19505000  1.0 0.1386900603
H  H50  1  0.40710000  0.60727000  0.19505000  1.0 0.1386900603
H  H51  1  0.40710000  0.39273000  0.80495000  1.0 0.1386900603
H  H52  1  0.59290000  0.60727000  0.80495000  1.0 0.1386900603
H  H53  1  0.19505000  0.59290000  0.39273000  1.0 0.1386900603
H  H54  1  0.19505000  0.40710000  0.60727000  1.0 0.1386900603
H  H55  1  0.80495000  0.40710000  0.39273000  1.0 0.1386900603
H  H56  1  0.80495000  0.59290000  0.60727000  1.0 0.1386900603
H  H57  1  0.39273000  0.19505000  0.59290000  1.0 0.1386900603
H  H58  1  0.60727000  0.19505000  0.40710000  1.0 0.1386900603
H  H59  1  0.39273000  0.80495000  0.40710000  1.0 0.1386900603
H  H60  1  0.60727000  0.80495000  0.59290000  1.0 0.1386900603
H  H61  1  0.89273000  0.09290000  0.69505000  1.0 0.1386900603
H  H62  1  0.10727000  0.90710000  0.69505000  1.0 0.1386900603
H  H63  1  0.89273000  0.90710000  0.30495000  1.0 0.1386900603
H  H64  1  0.10727000  0.09290000  0.30495000  1.0 0.1386900603
H  H65  1  0.09290000  0.69505000  0.89273000  1.0 0.1386900603
H  H66  1  0.90710000  0.69505000  0.10727000  1.0 0.1386900603
H  H67  1  0.90710000  0.30495000  0.89273000  1.0 0.1386900603
H  H68  1  0.09290000  0.30495000  0.10727000  1.0 0.1386900603
H  H69  1  0.69505000  0.89273000  0.09290000  1.0 0.1386900603
H  H70  1  0.69505000  0.10727000  0.90710000  1.0 0.1386900603
H  H71  1  0.30495000  0.89273000  0.90710000  1.0 0.1386900603
H  H72  1  0.30495000  0.10727000  0.09290000  1.0 0.1386900603
C  C1  1  0.66940000  0.54270000  0.21520000  1.0 -0.0127879855
C  C2  1  0.33060000  0.45730000  0.21520000  1.0 -0.0127879855
C  C3  1  0.33060000  0.54270000  0.78480000  1.0 -0.0127879855
C  C4  1  0.66940000  0.45730000  0.78480000  1.0 -0.0127879855
C  C5  1  0.21520000  0.66940000  0.54270000  1.0 -0.0127879855
C  C6  1  0.21520000  0.33060000  0.45730000  1.0 -0.0127879855
C  C7  1  0.78480000  0.33060000  0.54270000  1.0 -0.0127879855
C  C8  1  0.78480000  0.66940000  0.45730000  1.0 -0.0127879855
C  C9  1  0.54270000  0.21520000  0.66940000  1.0 -0.0127879855
C  C10  1  0.45730000  0.21520000  0.33060000  1.0 -0.0127879855
C  C11  1  0.54270000  0.78480000  0.33060000  1.0 -0.0127879855
C  C12  1  0.45730000  0.78480000  0.66940000  1.0 -0.0127879855
C  C13  1  0.04270000  0.16940000  0.71520000  1.0 -0.0127879855
C  C14  1  0.95730000  0.83060000  0.71520000  1.0 -0.0127879855
C  C15  1  0.04270000  0.83060000  0.28480000  1.0 -0.0127879855
C  C16  1  0.95730000  0.16940000  0.28480000  1.0 -0.0127879855
C  C17  1  0.16940000  0.71520000  0.04270000  1.0 -0.0127879855
C  C18  1  0.83060000  0.71520000  0.95730000  1.0 -0.0127879855
C  C19  1  0.83060000  0.28480000  0.04270000  1.0 -0.0127879855
C  C20  1  0.16940000  0.28480000  0.95730000  1.0 -0.0127879855
C  C21  1  0.71520000  0.04270000  0.16940000  1.0 -0.0127879855
C  C22  1  0.71520000  0.95730000  0.83060000  1.0 -0.0127879855
C  C23  1  0.28480000  0.04270000  0.83060000  1.0 -0.0127879855
C  C24  1  0.28480000  0.95730000  0.16940000  1.0 -0.0127879855
C  C25  1  0.67520000  0.43210000  0.20840000  1.0 -0.0383104949
C  C26  1  0.32480000  0.56790000  0.20840000  1.0 -0.0383104949
C  C27  1  0.32480000  0.43210000  0.79160000  1.0 -0.0383104949
C  C28  1  0.67520000  0.56790000  0.79160000  1.0 -0.0383104949
C  C29  1  0.20840000  0.67520000  0.43210000  1.0 -0.0383104949
C  C30  1  0.20840000  0.32480000  0.56790000  1.0 -0.0383104949
C  C31  1  0.79160000  0.32480000  0.43210000  1.0 -0.0383104949
C  C32  1  0.79160000  0.67520000  0.56790000  1.0 -0.0383104949
C  C33  1  0.43210000  0.20840000  0.67520000  1.0 -0.0383104949
C  C34  1  0.56790000  0.20840000  0.32480000  1.0 -0.0383104949
C  C35  1  0.43210000  0.79160000  0.32480000  1.0 -0.0383104949
C  C36  1  0.56790000  0.79160000  0.67520000  1.0 -0.0383104949
C  C37  1  0.93210000  0.17520000  0.70840000  1.0 -0.0383104949
C  C38  1  0.06790000  0.82480000  0.70840000  1.0 -0.0383104949
C  C39  1  0.93210000  0.82480000  0.29160000  1.0 -0.0383104949
C  C40  1  0.06790000  0.17520000  0.29160000  1.0 -0.0383104949
C  C41  1  0.17520000  0.70840000  0.93210000  1.0 -0.0383104949
C  C42  1  0.82480000  0.70840000  0.06790000  1.0 -0.0383104949
C  C43  1  0.82480000  0.29160000  0.93210000  1.0 -0.0383104949
C  C44  1  0.17520000  0.29160000  0.06790000  1.0 -0.0383104949
C  C45  1  0.70840000  0.93210000  0.17520000  1.0 -0.0383104949
C  C46  1  0.70840000  0.06790000  0.82480000  1.0 -0.0383104949
C  C47  1  0.29160000  0.93210000  0.82480000  1.0 -0.0383104949
C  C48  1  0.29160000  0.06790000  0.17520000  1.0 -0.0383104949
C  C49  1  0.69890000  0.60460000  0.22270000  1.0 0.6006673485
C  C50  1  0.30110000  0.39540000  0.22270000  1.0 0.6006673485
C  C51  1  0.30110000  0.60460000  0.77730000  1.0 0.6006673485
C  C52  1  0.69890000  0.39540000  0.77730000  1.0 0.6006673485
C  C53  1  0.22270000  0.69890000  0.60460000  1.0 0.6006673485
C  C54  1  0.22270000  0.30110000  0.39540000  1.0 0.6006673485
C  C55  1  0.77730000  0.30110000  0.60460000  1.0 0.6006673485
C  C56  1  0.77730000  0.69890000  0.39540000  1.0 0.6006673485
C  C57  1  0.60460000  0.22270000  0.69890000  1.0 0.6006673485
C  C58  1  0.39540000  0.22270000  0.30110000  1.0 0.6006673485
C  C59  1  0.60460000  0.77730000  0.30110000  1.0 0.6006673485
C  C60  1  0.39540000  0.77730000  0.69890000  1.0 0.6006673485
C  C61  1  0.10460000  0.19890000  0.72270000  1.0 0.6006673485
C  C62  1  0.89540000  0.80110000  0.72270000  1.0 0.6006673485
C  C63  1  0.10460000  0.80110000  0.27730000  1.0 0.6006673485
C  C64  1  0.89540000  0.19890000  0.27730000  1.0 0.6006673485
C  C65  1  0.19890000  0.72270000  0.10460000  1.0 0.6006673485
C  C66  1  0.80110000  0.72270000  0.89540000  1.0 0.6006673485
C  C67  1  0.80110000  0.27730000  0.10460000  1.0 0.6006673485
C  C68  1  0.19890000  0.27730000  0.89540000  1.0 0.6006673485
C  C69  1  0.72270000  0.10460000  0.19890000  1.0 0.6006673485
C  C70  1  0.72270000  0.89540000  0.80110000  1.0 0.6006673485
C  C71  1  0.27730000  0.10460000  0.80110000  1.0 0.6006673485
C  C72  1  0.27730000  0.89540000  0.19890000  1.0 0.6006673485
C  C73  1  0.70390000  0.48950000  0.21710000  1.0 -0.0926583301
C  C74  1  0.29610000  0.51050000  0.21710000  1.0 -0.0926583301
C  C75  1  0.29610000  0.48950000  0.78290000  1.0 -0.0926583301
C  C76  1  0.70390000  0.51050000  0.78290000  1.0 -0.0926583301
C  C77  1  0.21710000  0.70390000  0.48950000  1.0 -0.0926583301
C  C78  1  0.21710000  0.29610000  0.51050000  1.0 -0.0926583301
C  C79  1  0.78290000  0.29610000  0.48950000  1.0 -0.0926583301
C  C80  1  0.78290000  0.70390000  0.51050000  1.0 -0.0926583301
C  C81  1  0.48950000  0.21710000  0.70390000  1.0 -0.0926583301
C  C82  1  0.51050000  0.21710000  0.29610000  1.0 -0.0926583301
C  C83  1  0.48950000  0.78290000  0.29610000  1.0 -0.0926583301
C  C84  1  0.51050000  0.78290000  0.70390000  1.0 -0.0926583301
C  C85  1  0.98950000  0.20390000  0.71710000  1.0 -0.0926583301
C  C86  1  0.01050000  0.79610000  0.71710000  1.0 -0.0926583301
C  C87  1  0.98950000  0.79610000  0.28290000  1.0 -0.0926583301
C  C88  1  0.01050000  0.20390000  0.28290000  1.0 -0.0926583301
C  C89  1  0.20390000  0.71710000  0.98950000  1.0 -0.0926583301
C  C90  1  0.79610000  0.71710000  0.01050000  1.0 -0.0926583301
C  C91  1  0.79610000  0.28290000  0.98950000  1.0 -0.0926583301
C  C92  1  0.20390000  0.28290000  0.01050000  1.0 -0.0926583301
C  C93  1  0.71710000  0.98950000  0.20390000  1.0 -0.0926583301
C  C94  1  0.71710000  0.01050000  0.79610000  1.0 -0.0926583301
C  C95  1  0.28290000  0.98950000  0.79610000  1.0 -0.0926583301
C  C96  1  0.28290000  0.01050000  0.20390000  1.0 -0.0926583301
C  C97  1  0.71010000  0.37450000  0.20700000  1.0 0.6006673485
C  C98  1  0.28990000  0.62550000  0.20700000  1.0 0.6006673485
C  C99  1  0.28990000  0.37450000  0.79300000  1.0 0.6006673485
C  C100  1  0.71010000  0.62550000  0.79300000  1.0 0.6006673485
C  C101  1  0.20700000  0.71010000  0.37450000  1.0 0.6006673485
C  C102  1  0.20700000  0.28990000  0.62550000  1.0 0.6006673485
C  C103  1  0.79300000  0.28990000  0.37450000  1.0 0.6006673485
C  C104  1  0.79300000  0.71010000  0.62550000  1.0 0.6006673485
C  C105  1  0.37450000  0.20700000  0.71010000  1.0 0.6006673485
C  C106  1  0.62550000  0.20700000  0.28990000  1.0 0.6006673485
C  C107  1  0.37450000  0.79300000  0.28990000  1.0 0.6006673485
C  C108  1  0.62550000  0.79300000  0.71010000  1.0 0.6006673485
C  C109  1  0.87450000  0.21010000  0.70700000  1.0 0.6006673485
C  C110  1  0.12550000  0.78990000  0.70700000  1.0 0.6006673485
C  C111  1  0.87450000  0.78990000  0.29300000  1.0 0.6006673485
C  C112  1  0.12550000  0.21010000  0.29300000  1.0 0.6006673485
C  C113  1  0.21010000  0.70700000  0.87450000  1.0 0.6006673485
C  C114  1  0.78990000  0.70700000  0.12550000  1.0 0.6006673485
C  C115  1  0.78990000  0.29300000  0.87450000  1.0 0.6006673485
C  C116  1  0.21010000  0.29300000  0.12550000  1.0 0.6006673485
C  C117  1  0.70700000  0.87450000  0.21010000  1.0 0.6006673485
C  C118  1  0.70700000  0.12550000  0.78990000  1.0 0.6006673485
C  C119  1  0.29300000  0.87450000  0.78990000  1.0 0.6006673485
C  C120  1  0.29300000  0.12550000  0.21010000  1.0 0.6006673485
C  C121  1  0.60720000  0.54040000  0.20780000  1.0 -0.1396937498
C  C122  1  0.39280000  0.45960000  0.20780000  1.0 -0.1396937498
C  C123  1  0.39280000  0.54040000  0.79220000  1.0 -0.1396937498
C  C124  1  0.60720000  0.45960000  0.79220000  1.0 -0.1396937498
C  C125  1  0.20780000  0.60720000  0.54040000  1.0 -0.1396937498
C  C126  1  0.20780000  0.39280000  0.45960000  1.0 -0.1396937498
C  C127  1  0.79220000  0.39280000  0.54040000  1.0 -0.1396937498
C  C128  1  0.79220000  0.60720000  0.45960000  1.0 -0.1396937498
C  C129  1  0.54040000  0.20780000  0.60720000  1.0 -0.1396937498
C  C130  1  0.45960000  0.20780000  0.39280000  1.0 -0.1396937498
C  C131  1  0.54040000  0.79220000  0.39280000  1.0 -0.1396937498
C  C132  1  0.45960000  0.79220000  0.60720000  1.0 -0.1396937498
C  C133  1  0.04040000  0.10720000  0.70780000  1.0 -0.1396937498
C  C134  1  0.95960000  0.89280000  0.70780000  1.0 -0.1396937498
C  C135  1  0.04040000  0.89280000  0.29220000  1.0 -0.1396937498
C  C136  1  0.95960000  0.10720000  0.29220000  1.0 -0.1396937498
C  C137  1  0.10720000  0.70780000  0.04040000  1.0 -0.1396937498
C  C138  1  0.89280000  0.70780000  0.95960000  1.0 -0.1396937498
C  C139  1  0.89280000  0.29220000  0.04040000  1.0 -0.1396937498
C  C140  1  0.10720000  0.29220000  0.95960000  1.0 -0.1396937498
C  C141  1  0.70780000  0.04040000  0.10720000  1.0 -0.1396937498
C  C142  1  0.70780000  0.95960000  0.89280000  1.0 -0.1396937498
C  C143  1  0.29220000  0.04040000  0.89280000  1.0 -0.1396937498
C  C144  1  0.29220000  0.95960000  0.10720000  1.0 -0.1396937498
C  C145  1  0.57920000  0.48400000  0.20160000  1.0 0.1472189522
C  C146  1  0.42080000  0.51600000  0.20160000  1.0 0.1472189522
C  C147  1  0.42080000  0.48400000  0.79840000  1.0 0.1472189522
C  C148  1  0.57920000  0.51600000  0.79840000  1.0 0.1472189522
C  C149  1  0.20160000  0.57920000  0.48400000  1.0 0.1472189522
C  C150  1  0.20160000  0.42080000  0.51600000  1.0 0.1472189522
C  C151  1  0.79840000  0.42080000  0.48400000  1.0 0.1472189522
C  C152  1  0.79840000  0.57920000  0.51600000  1.0 0.1472189522
C  C153  1  0.48400000  0.20160000  0.57920000  1.0 0.1472189522
C  C154  1  0.51600000  0.20160000  0.42080000  1.0 0.1472189522
C  C155  1  0.48400000  0.79840000  0.42080000  1.0 0.1472189522
C  C156  1  0.51600000  0.79840000  0.57920000  1.0 0.1472189522
C  C157  1  0.98400000  0.07920000  0.70160000  1.0 0.1472189522
C  C158  1  0.01600000  0.92080000  0.70160000  1.0 0.1472189522
C  C159  1  0.98400000  0.92080000  0.29840000  1.0 0.1472189522
C  C160  1  0.01600000  0.07920000  0.29840000  1.0 0.1472189522
C  C161  1  0.07920000  0.70160000  0.98400000  1.0 0.1472189522
C  C162  1  0.92080000  0.70160000  0.01600000  1.0 0.1472189522
C  C163  1  0.92080000  0.29840000  0.98400000  1.0 0.1472189522
C  C164  1  0.07920000  0.29840000  0.01600000  1.0 0.1472189522
C  C165  1  0.70160000  0.98400000  0.07920000  1.0 0.1472189522
C  C166  1  0.70160000  0.01600000  0.92080000  1.0 0.1472189522
C  C167  1  0.29840000  0.98400000  0.92080000  1.0 0.1472189522
C  C168  1  0.29840000  0.01600000  0.07920000  1.0 0.1472189522
C  C169  1  0.61260000  0.43000000  0.20070000  1.0 -0.1396937498
C  C170  1  0.38740000  0.57000000  0.20070000  1.0 -0.1396937498
C  C171  1  0.38740000  0.43000000  0.79930000  1.0 -0.1396937498
C  C172  1  0.61260000  0.57000000  0.79930000  1.0 -0.1396937498
C  C173  1  0.20070000  0.61260000  0.43000000  1.0 -0.1396937498
C  C174  1  0.20070000  0.38740000  0.57000000  1.0 -0.1396937498
C  C175  1  0.79930000  0.38740000  0.43000000  1.0 -0.1396937498
C  C176  1  0.79930000  0.61260000  0.57000000  1.0 -0.1396937498
C  C177  1  0.43000000  0.20070000  0.61260000  1.0 -0.1396937498
C  C178  1  0.57000000  0.20070000  0.38740000  1.0 -0.1396937498
C  C179  1  0.43000000  0.79930000  0.38740000  1.0 -0.1396937498
C  C180  1  0.57000000  0.79930000  0.61260000  1.0 -0.1396937498
C  C181  1  0.93000000  0.11260000  0.70070000  1.0 -0.1396937498
C  C182  1  0.07000000  0.88740000  0.70070000  1.0 -0.1396937498
C  C183  1  0.93000000  0.88740000  0.29930000  1.0 -0.1396937498
C  C184  1  0.07000000  0.11260000  0.29930000  1.0 -0.1396937498
C  C185  1  0.11260000  0.70070000  0.93000000  1.0 -0.1396937498
C  C186  1  0.88740000  0.70070000  0.07000000  1.0 -0.1396937498
C  C187  1  0.88740000  0.29930000  0.93000000  1.0 -0.1396937498
C  C188  1  0.11260000  0.29930000  0.07000000  1.0 -0.1396937498
C  C189  1  0.70070000  0.93000000  0.11260000  1.0 -0.1396937498
C  C190  1  0.70070000  0.07000000  0.88740000  1.0 -0.1396937498
C  C191  1  0.29930000  0.93000000  0.88740000  1.0 -0.1396937498
C  C192  1  0.29930000  0.07000000  0.11260000  1.0 -0.1396937498
N  N1  1  0.51420000  0.47670000  0.19880000  1.0 -0.1045951477
N  N2  1  0.48580000  0.52330000  0.19880000  1.0 -0.1045951477
N  N3  1  0.48580000  0.47670000  0.80120000  1.0 -0.1045951477
N  N4  1  0.51420000  0.52330000  0.80120000  1.0 -0.1045951477
N  N5  1  0.19880000  0.51420000  0.47670000  1.0 -0.1045951477
N  N6  1  0.19880000  0.48580000  0.52330000  1.0 -0.1045951477
N  N7  1  0.80120000  0.48580000  0.47670000  1.0 -0.1045951477
N  N8  1  0.80120000  0.51420000  0.52330000  1.0 -0.1045951477
N  N9  1  0.47670000  0.19880000  0.51420000  1.0 -0.1045951477
N  N10  1  0.52330000  0.19880000  0.48580000  1.0 -0.1045951477
N  N11  1  0.47670000  0.80120000  0.48580000  1.0 -0.1045951477
N  N12  1  0.52330000  0.80120000  0.51420000  1.0 -0.1045951477
N  N13  1  0.97670000  0.01420000  0.69880000  1.0 -0.1045951477
N  N14  1  0.02330000  0.98580000  0.69880000  1.0 -0.1045951477
N  N15  1  0.97670000  0.98580000  0.30120000  1.0 -0.1045951477
N  N16  1  0.02330000  0.01420000  0.30120000  1.0 -0.1045951477
N  N17  1  0.01420000  0.69880000  0.97670000  1.0 -0.1045951477
N  N18  1  0.98580000  0.69880000  0.02330000  1.0 -0.1045951477
N  N19  1  0.98580000  0.30120000  0.97670000  1.0 -0.1045951477
N  N20  1  0.01420000  0.30120000  0.02330000  1.0 -0.1045951477
N  N21  1  0.69880000  0.97670000  0.01420000  1.0 -0.1045951477
N  N22  1  0.69880000  0.02330000  0.98580000  1.0 -0.1045951477
N  N23  1  0.30120000  0.97670000  0.98580000  1.0 -0.1045951477
N  N24  1  0.30120000  0.02330000  0.01420000  1.0 -0.1045951477
O  O1  1  0.74044000  0.74044000  0.25956000  1.0 -0.9212313533
O  O2  1  0.25956000  0.25956000  0.25956000  1.0 -0.9212313533
O  O3  1  0.25956000  0.74044000  0.74044000  1.0 -0.9212313533
O  O4  1  0.74044000  0.25956000  0.74044000  1.0 -0.9212313533
O  O5  1  0.24044000  0.24044000  0.75956000  1.0 -0.9212313533
O  O6  1  0.75956000  0.75956000  0.75956000  1.0 -0.9212313533
O  O7  1  0.24044000  0.75956000  0.24044000  1.0 -0.9212313533
O  O8  1  0.75956000  0.24044000  0.24044000  1.0 -0.9212313533
O  O9  1  0.66688000  0.64919000  0.20540000  1.0 -0.5406881214
O  O10  1  0.33312000  0.35081000  0.20540000  1.0 -0.5406881214
O  O11  1  0.33312000  0.64919000  0.79460000  1.0 -0.5406881214
O  O12  1  0.66688000  0.35081000  0.79460000  1.0 -0.5406881214
O  O13  1  0.20540000  0.66688000  0.64919000  1.0 -0.5406881214
O  O14  1  0.20540000  0.33312000  0.35081000  1.0 -0.5406881214
O  O15  1  0.79460000  0.33312000  0.64919000  1.0 -0.5406881214
O  O16  1  0.79460000  0.66688000  0.35081000  1.0 -0.5406881214
O  O17  1  0.64919000  0.20540000  0.66688000  1.0 -0.5406881214
O  O18  1  0.35081000  0.20540000  0.33312000  1.0 -0.5406881214
O  O19  1  0.64919000  0.79460000  0.33312000  1.0 -0.5406881214
O  O20  1  0.35081000  0.79460000  0.66688000  1.0 -0.5406881214
O  O21  1  0.14919000  0.16688000  0.70540000  1.0 -0.5406881214
O  O22  1  0.85081000  0.83312000  0.70540000  1.0 -0.5406881214
O  O23  1  0.14919000  0.83312000  0.29460000  1.0 -0.5406881214
O  O24  1  0.85081000  0.16688000  0.29460000  1.0 -0.5406881214
O  O25  1  0.16688000  0.70540000  0.14919000  1.0 -0.5406881214
O  O26  1  0.83312000  0.70540000  0.85081000  1.0 -0.5406881214
O  O27  1  0.83312000  0.29460000  0.14919000  1.0 -0.5406881214
O  O28  1  0.16688000  0.29460000  0.85081000  1.0 -0.5406881214
O  O29  1  0.70540000  0.14919000  0.16688000  1.0 -0.5406881214
O  O30  1  0.70540000  0.85081000  0.83312000  1.0 -0.5406881214
O  O31  1  0.29460000  0.14919000  0.83312000  1.0 -0.5406881214
O  O32  1  0.29460000  0.85081000  0.16688000  1.0 -0.5406881214
O  O33  1  0.76400000  0.37427000  0.22440000  1.0 -0.5180423995
O  O34  1  0.23600000  0.62573000  0.22440000  1.0 -0.5180423995
O  O35  1  0.23600000  0.37427000  0.77560000  1.0 -0.5180423995
O  O36  1  0.76400000  0.62573000  0.77560000  1.0 -0.5180423995
O  O37  1  0.22440000  0.76400000  0.37427000  1.0 -0.5180423995
O  O38  1  0.22440000  0.23600000  0.62573000  1.0 -0.5180423995
O  O39  1  0.77560000  0.23600000  0.37427000  1.0 -0.5180423995
O  O40  1  0.77560000  0.76400000  0.62573000  1.0 -0.5180423995
O  O41  1  0.37427000  0.22440000  0.76400000  1.0 -0.5180423995
O  O42  1  0.62573000  0.22440000  0.23600000  1.0 -0.5180423995
O  O43  1  0.37427000  0.77560000  0.23600000  1.0 -0.5180423995
O  O44  1  0.62573000  0.77560000  0.76400000  1.0 -0.5180423995
O  O45  1  0.87427000  0.26400000  0.72440000  1.0 -0.5180423995
O  O46  1  0.12573000  0.73600000  0.72440000  1.0 -0.5180423995
O  O47  1  0.87427000  0.73600000  0.27560000  1.0 -0.5180423995
O  O48  1  0.12573000  0.26400000  0.27560000  1.0 -0.5180423995
O  O49  1  0.26400000  0.72440000  0.87427000  1.0 -0.5180423995
O  O50  1  0.73600000  0.72440000  0.12573000  1.0 -0.5180423995
O  O51  1  0.73600000  0.27560000  0.87427000  1.0 -0.5180423995
O  O52  1  0.26400000  0.27560000  0.12573000  1.0 -0.5180423995
O  O53  1  0.72440000  0.87427000  0.26400000  1.0 -0.5180423995
O  O54  1  0.72440000  0.12573000  0.73600000  1.0 -0.5180423995
O  O55  1  0.27560000  0.87427000  0.73600000  1.0 -0.5180423995
O  O56  1  0.27560000  0.12573000  0.26400000  1.0 -0.5180423995
O  O57  1  0.75132000  0.60654000  0.24470000  1.0 -0.5287397321
O  O58  1  0.24868000  0.39346000  0.24470000  1.0 -0.5287397321
O  O59  1  0.24868000  0.60654000  0.75530000  1.0 -0.5287397321
O  O60  1  0.75132000  0.39346000  0.75530000  1.0 -0.5287397321
O  O61  1  0.24470000  0.75132000  0.60654000  1.0 -0.5287397321
O  O62  1  0.24470000  0.24868000  0.39346000  1.0 -0.5287397321
O  O63  1  0.75530000  0.24868000  0.60654000  1.0 -0.5287397321
O  O64  1  0.75530000  0.75132000  0.39346000  1.0 -0.5287397321
O  O65  1  0.60654000  0.24470000  0.75132000  1.0 -0.5287397321
O  O66  1  0.39346000  0.24470000  0.24868000  1.0 -0.5287397321
O  O67  1  0.60654000  0.75530000  0.24868000  1.0 -0.5287397321
O  O68  1  0.39346000  0.75530000  0.75132000  1.0 -0.5287397321
O  O69  1  0.10654000  0.25132000  0.74470000  1.0 -0.5287397321
O  O70  1  0.89346000  0.74868000  0.74470000  1.0 -0.5287397321
O  O71  1  0.10654000  0.74868000  0.25530000  1.0 -0.5287397321
O  O72  1  0.89346000  0.25132000  0.25530000  1.0 -0.5287397321
O  O73  1  0.25132000  0.74470000  0.10654000  1.0 -0.5287397321
O  O74  1  0.74868000  0.74470000  0.89346000  1.0 -0.5287397321
O  O75  1  0.74868000  0.25530000  0.10654000  1.0 -0.5287397321
O  O76  1  0.25132000  0.25530000  0.89346000  1.0 -0.5287397321
O  O77  1  0.74470000  0.10654000  0.25132000  1.0 -0.5287397321
O  O78  1  0.74470000  0.89346000  0.74868000  1.0 -0.5287397321
O  O79  1  0.25530000  0.10654000  0.74868000  1.0 -0.5287397321
O  O80  1  0.25530000  0.89346000  0.25132000  1.0 -0.5287397321
O  O81  1  0.68095000  0.32846000  0.18800000  1.0 -0.5463463754
O  O82  1  0.31905000  0.67154000  0.18800000  1.0 -0.5463463754
O  O83  1  0.31905000  0.32846000  0.81200000  1.0 -0.5463463754
O  O84  1  0.68095000  0.67154000  0.81200000  1.0 -0.5463463754
O  O85  1  0.18800000  0.68095000  0.32846000  1.0 -0.5463463754
O  O86  1  0.18800000  0.31905000  0.67154000  1.0 -0.5463463754
O  O87  1  0.81200000  0.31905000  0.32846000  1.0 -0.5463463754
O  O88  1  0.81200000  0.68095000  0.67154000  1.0 -0.5463463754
O  O89  1  0.32846000  0.18800000  0.68095000  1.0 -0.5463463754
O  O90  1  0.67154000  0.18800000  0.31905000  1.0 -0.5463463754
O  O91  1  0.32846000  0.81200000  0.31905000  1.0 -0.5463463754
O  O92  1  0.67154000  0.81200000  0.68095000  1.0 -0.5463463754
O  O93  1  0.82846000  0.18095000  0.68800000  1.0 -0.5463463754
O  O94  1  0.17154000  0.81905000  0.68800000  1.0 -0.5463463754
O  O95  1  0.82846000  0.81905000  0.31200000  1.0 -0.5463463754
O  O96  1  0.17154000  0.18095000  0.31200000  1.0 -0.5463463754
O  O97  1  0.18095000  0.68800000  0.82846000  1.0 -0.5463463754
O  O98  1  0.81905000  0.68800000  0.17154000  1.0 -0.5463463754
O  O99  1  0.81905000  0.31200000  0.82846000  1.0 -0.5463463754
O  O100  1  0.18095000  0.31200000  0.17154000  1.0 -0.5463463754
O  O101  1  0.68800000  0.82846000  0.18095000  1.0 -0.5463463754
O  O102  1  0.68800000  0.17154000  0.81905000  1.0 -0.5463463754
O  O103  1  0.31200000  0.82846000  0.81905000  1.0 -0.5463463754
O  O104  1  0.31200000  0.17154000  0.18095000  1.0 -0.5463463754
