# DDEC6 charges by PACMAN v1.1 (https://github.com/mtap-research/PACMAN-charge/)
data_LIDGEO_ASR_pacman
_symmetry_space_group_name_H-M   'P 1'
_cell_length_a   21.88410000
_cell_length_b   21.88410000
_cell_length_c   21.88410000
_cell_angle_alpha   90.00000000
_cell_angle_beta   90.00000000
_cell_angle_gamma   90.00000000
_symmetry_Int_Tables_number   1
_chemical_formula_structural   Fe3H9C24N3O13
_chemical_formula_sum   'Fe24 H72 C192 N24 O104'
_cell_volume   10480.59820860
_cell_formula_units_Z   8
loop_
 _symmetry_equiv_pos_site_id
 _symmetry_equiv_pos_as_xyz
  1  'x, y, z'
loop_
 _atom_site_type_symbol
 _atom_site_label
 _atom_site_symmetry_multiplicity
 _atom_site_fract_x
 _atom_site_fract_y
 _atom_site_fract_z
 _atom_site_occupancy
 _atom_site_charge
Fe  Fe1  1  0.18071000  0.76075000  0.30310000  1.0 1.2165629122
Fe  Fe2  1  0.81929000  0.23925000  0.30310000  1.0 1.2165629122
Fe  Fe3  1  0.81929000  0.76075000  0.69690000  1.0 1.2165629122
Fe  Fe4  1  0.18071000  0.23925000  0.69690000  1.0 1.2165629122
Fe  Fe5  1  0.30310000  0.18071000  0.76075000  1.0 1.2165629122
Fe  Fe6  1  0.30310000  0.81929000  0.23925000  1.0 1.2165629122
Fe  Fe7  1  0.69690000  0.81929000  0.76075000  1.0 1.2165629122
Fe  Fe8  1  0.69690000  0.18071000  0.23925000  1.0 1.2165629122
Fe  Fe9  1  0.76075000  0.30310000  0.18071000  1.0 1.2165629122
Fe  Fe10  1  0.23925000  0.30310000  0.81929000  1.0 1.2165629122
Fe  Fe11  1  0.76075000  0.69690000  0.81929000  1.0 1.2165629122
Fe  Fe12  1  0.23925000  0.69690000  0.18071000  1.0 1.2165629122
Fe  Fe13  1  0.26075000  0.68071000  0.80310000  1.0 1.2165629122
Fe  Fe14  1  0.73925000  0.31929000  0.80310000  1.0 1.2165629122
Fe  Fe15  1  0.26075000  0.31929000  0.19690000  1.0 1.2165629122
Fe  Fe16  1  0.73925000  0.68071000  0.19690000  1.0 1.2165629122
Fe  Fe17  1  0.68071000  0.80310000  0.26075000  1.0 1.2165629122
Fe  Fe18  1  0.31929000  0.80310000  0.73925000  1.0 1.2165629122
Fe  Fe19  1  0.31929000  0.19690000  0.26075000  1.0 1.2165629122
Fe  Fe20  1  0.68071000  0.19690000  0.73925000  1.0 1.2165629122
Fe  Fe21  1  0.80310000  0.26075000  0.68071000  1.0 1.2165629122
Fe  Fe22  1  0.80310000  0.73925000  0.31929000  1.0 1.2165629122
Fe  Fe23  1  0.19690000  0.26075000  0.31929000  1.0 1.2165629122
Fe  Fe24  1  0.19690000  0.73925000  0.68071000  1.0 1.2165629122
H  H1  1  0.25411000  0.77673000  0.49156000  1.0 0.1384782894
H  H2  1  0.74589000  0.22327000  0.49156000  1.0 0.1384782894
H  H3  1  0.74589000  0.77673000  0.50844000  1.0 0.1384782894
H  H4  1  0.25411000  0.22327000  0.50844000  1.0 0.1384782894
H  H5  1  0.49156000  0.25411000  0.77673000  1.0 0.1384782894
H  H6  1  0.49156000  0.74589000  0.22327000  1.0 0.1384782894
H  H7  1  0.50844000  0.74589000  0.77673000  1.0 0.1384782894
H  H8  1  0.50844000  0.25411000  0.22327000  1.0 0.1384782894
H  H9  1  0.77673000  0.49156000  0.25411000  1.0 0.1384782894
H  H10  1  0.22327000  0.49156000  0.74589000  1.0 0.1384782894
H  H11  1  0.77673000  0.50844000  0.74589000  1.0 0.1384782894
H  H12  1  0.22327000  0.50844000  0.25411000  1.0 0.1384782894
H  H13  1  0.27673000  0.75411000  0.99156000  1.0 0.1384782894
H  H14  1  0.72327000  0.24589000  0.99156000  1.0 0.1384782894
H  H15  1  0.27673000  0.24589000  0.00844000  1.0 0.1384782894
H  H16  1  0.72327000  0.75411000  0.00844000  1.0 0.1384782894
H  H17  1  0.75411000  0.99156000  0.27673000  1.0 0.1384782894
H  H18  1  0.24589000  0.99156000  0.72327000  1.0 0.1384782894
H  H19  1  0.24589000  0.00844000  0.27673000  1.0 0.1384782894
H  H20  1  0.75411000  0.00844000  0.72327000  1.0 0.1384782894
H  H21  1  0.99156000  0.27673000  0.75411000  1.0 0.1384782894
H  H22  1  0.99156000  0.72327000  0.24589000  1.0 0.1384782894
H  H23  1  0.00844000  0.27673000  0.24589000  1.0 0.1384782894
H  H24  1  0.00844000  0.72327000  0.75411000  1.0 0.1384782894
H  H25  1  0.41541000  0.79279000  0.57590000  1.0 0.1331306557
H  H26  1  0.58459000  0.20721000  0.57590000  1.0 0.1331306557
H  H27  1  0.58459000  0.79279000  0.42410000  1.0 0.1331306557
H  H28  1  0.41541000  0.20721000  0.42410000  1.0 0.1331306557
H  H29  1  0.57590000  0.41541000  0.79279000  1.0 0.1331306557
H  H30  1  0.57590000  0.58459000  0.20721000  1.0 0.1331306557
H  H31  1  0.42410000  0.58459000  0.79279000  1.0 0.1331306557
H  H32  1  0.42410000  0.41541000  0.20721000  1.0 0.1331306557
H  H33  1  0.79279000  0.57590000  0.41541000  1.0 0.1331306557
H  H34  1  0.20721000  0.57590000  0.58459000  1.0 0.1331306557
H  H35  1  0.79279000  0.42410000  0.58459000  1.0 0.1331306557
H  H36  1  0.20721000  0.42410000  0.41541000  1.0 0.1331306557
H  H37  1  0.29279000  0.91541000  0.07590000  1.0 0.1331306557
H  H38  1  0.70721000  0.08459000  0.07590000  1.0 0.1331306557
H  H39  1  0.29279000  0.08459000  0.92410000  1.0 0.1331306557
H  H40  1  0.70721000  0.91541000  0.92410000  1.0 0.1331306557
H  H41  1  0.91541000  0.07590000  0.29279000  1.0 0.1331306557
H  H42  1  0.08459000  0.07590000  0.70721000  1.0 0.1331306557
H  H43  1  0.08459000  0.92410000  0.29279000  1.0 0.1331306557
H  H44  1  0.91541000  0.92410000  0.70721000  1.0 0.1331306557
H  H45  1  0.07590000  0.29279000  0.91541000  1.0 0.1331306557
H  H46  1  0.07590000  0.70721000  0.08459000  1.0 0.1331306557
H  H47  1  0.92410000  0.29279000  0.08459000  1.0 0.1331306557
H  H48  1  0.92410000  0.70721000  0.91541000  1.0 0.1331306557
H  H49  1  0.40664000  0.80372000  0.39302000  1.0 0.1384782894
H  H50  1  0.59336000  0.19628000  0.39302000  1.0 0.1384782894
H  H51  1  0.59336000  0.80372000  0.60698000  1.0 0.1384782894
H  H52  1  0.40664000  0.19628000  0.60698000  1.0 0.1384782894
H  H53  1  0.39302000  0.40664000  0.80372000  1.0 0.1384782894
H  H54  1  0.39302000  0.59336000  0.19628000  1.0 0.1384782894
H  H55  1  0.60698000  0.59336000  0.80372000  1.0 0.1384782894
H  H56  1  0.60698000  0.40664000  0.19628000  1.0 0.1384782894
H  H57  1  0.80372000  0.39302000  0.40664000  1.0 0.1384782894
H  H58  1  0.19628000  0.39302000  0.59336000  1.0 0.1384782894
H  H59  1  0.80372000  0.60698000  0.59336000  1.0 0.1384782894
H  H60  1  0.19628000  0.60698000  0.40664000  1.0 0.1384782894
H  H61  1  0.30372000  0.90664000  0.89302000  1.0 0.1384782894
H  H62  1  0.69628000  0.09336000  0.89302000  1.0 0.1384782894
H  H63  1  0.30372000  0.09336000  0.10698000  1.0 0.1384782894
H  H64  1  0.69628000  0.90664000  0.10698000  1.0 0.1384782894
H  H65  1  0.90664000  0.89302000  0.30372000  1.0 0.1384782894
H  H66  1  0.09336000  0.89302000  0.69628000  1.0 0.1384782894
H  H67  1  0.09336000  0.10698000  0.30372000  1.0 0.1384782894
H  H68  1  0.90664000  0.10698000  0.69628000  1.0 0.1384782894
H  H69  1  0.89302000  0.30372000  0.90664000  1.0 0.1384782894
H  H70  1  0.89302000  0.69628000  0.09336000  1.0 0.1384782894
H  H71  1  0.10698000  0.30372000  0.09336000  1.0 0.1384782894
H  H72  1  0.10698000  0.69628000  0.90664000  1.0 0.1384782894
C  C1  1  0.30090000  0.77820000  0.60490000  1.0 0.6026490943
C  C2  1  0.69910000  0.22180000  0.60490000  1.0 0.6026490943
C  C3  1  0.69910000  0.77820000  0.39510000  1.0 0.6026490943
C  C4  1  0.30090000  0.22180000  0.39510000  1.0 0.6026490943
C  C5  1  0.60490000  0.30090000  0.77820000  1.0 0.6026490943
C  C6  1  0.60490000  0.69910000  0.22180000  1.0 0.6026490943
C  C7  1  0.39510000  0.69910000  0.77820000  1.0 0.6026490943
C  C8  1  0.39510000  0.30090000  0.22180000  1.0 0.6026490943
C  C9  1  0.77820000  0.60490000  0.30090000  1.0 0.6026490943
C  C10  1  0.22180000  0.60490000  0.69910000  1.0 0.6026490943
C  C11  1  0.77820000  0.39510000  0.69910000  1.0 0.6026490943
C  C12  1  0.22180000  0.39510000  0.30090000  1.0 0.6026490943
C  C13  1  0.27820000  0.80090000  0.10490000  1.0 0.6026490943
C  C14  1  0.72180000  0.19910000  0.10490000  1.0 0.6026490943
C  C15  1  0.27820000  0.19910000  0.89510000  1.0 0.6026490943
C  C16  1  0.72180000  0.80090000  0.89510000  1.0 0.6026490943
C  C17  1  0.80090000  0.10490000  0.27820000  1.0 0.6026490943
C  C18  1  0.19910000  0.10490000  0.72180000  1.0 0.6026490943
C  C19  1  0.19910000  0.89510000  0.27820000  1.0 0.6026490943
C  C20  1  0.80090000  0.89510000  0.72180000  1.0 0.6026490943
C  C21  1  0.10490000  0.27820000  0.80090000  1.0 0.6026490943
C  C22  1  0.10490000  0.72180000  0.19910000  1.0 0.6026490943
C  C23  1  0.89510000  0.27820000  0.19910000  1.0 0.6026490943
C  C24  1  0.89510000  0.72180000  0.80090000  1.0 0.6026490943
C  C25  1  0.29610000  0.78300000  0.48960000  1.0 -0.0919070861
C  C26  1  0.70390000  0.21700000  0.48960000  1.0 -0.0919070861
C  C27  1  0.70390000  0.78300000  0.51040000  1.0 -0.0919070861
C  C28  1  0.29610000  0.21700000  0.51040000  1.0 -0.0919070861
C  C29  1  0.48960000  0.29610000  0.78300000  1.0 -0.0919070861
C  C30  1  0.48960000  0.70390000  0.21700000  1.0 -0.0919070861
C  C31  1  0.51040000  0.70390000  0.78300000  1.0 -0.0919070861
C  C32  1  0.51040000  0.29610000  0.21700000  1.0 -0.0919070861
C  C33  1  0.78300000  0.48960000  0.29610000  1.0 -0.0919070861
C  C34  1  0.21700000  0.48960000  0.70390000  1.0 -0.0919070861
C  C35  1  0.78300000  0.51040000  0.70390000  1.0 -0.0919070861
C  C36  1  0.21700000  0.51040000  0.29610000  1.0 -0.0919070861
C  C37  1  0.28300000  0.79610000  0.98960000  1.0 -0.0919070861
C  C38  1  0.71700000  0.20390000  0.98960000  1.0 -0.0919070861
C  C39  1  0.28300000  0.20390000  0.01040000  1.0 -0.0919070861
C  C40  1  0.71700000  0.79610000  0.01040000  1.0 -0.0919070861
C  C41  1  0.79610000  0.98960000  0.28300000  1.0 -0.0919070861
C  C42  1  0.20390000  0.98960000  0.71700000  1.0 -0.0919070861
C  C43  1  0.20390000  0.01040000  0.28300000  1.0 -0.0919070861
C  C44  1  0.79610000  0.01040000  0.71700000  1.0 -0.0919070861
C  C45  1  0.98960000  0.28300000  0.79610000  1.0 -0.0919070861
C  C46  1  0.98960000  0.71700000  0.20390000  1.0 -0.0919070861
C  C47  1  0.01040000  0.28300000  0.20390000  1.0 -0.0919070861
C  C48  1  0.01040000  0.71700000  0.79610000  1.0 -0.0919070861
C  C49  1  0.32990000  0.78460000  0.54260000  1.0 -0.0157551343
C  C50  1  0.67010000  0.21540000  0.54260000  1.0 -0.0157551343
C  C51  1  0.67010000  0.78460000  0.45740000  1.0 -0.0157551343
C  C52  1  0.32990000  0.21540000  0.45740000  1.0 -0.0157551343
C  C53  1  0.54260000  0.32990000  0.78460000  1.0 -0.0157551343
C  C54  1  0.54260000  0.67010000  0.21540000  1.0 -0.0157551343
C  C55  1  0.45740000  0.67010000  0.78460000  1.0 -0.0157551343
C  C56  1  0.45740000  0.32990000  0.21540000  1.0 -0.0157551343
C  C57  1  0.78460000  0.54260000  0.32990000  1.0 -0.0157551343
C  C58  1  0.21540000  0.54260000  0.67010000  1.0 -0.0157551343
C  C59  1  0.78460000  0.45740000  0.67010000  1.0 -0.0157551343
C  C60  1  0.21540000  0.45740000  0.32990000  1.0 -0.0157551343
C  C61  1  0.28460000  0.82990000  0.04260000  1.0 -0.0157551343
C  C62  1  0.71540000  0.17010000  0.04260000  1.0 -0.0157551343
C  C63  1  0.28460000  0.17010000  0.95740000  1.0 -0.0157551343
C  C64  1  0.71540000  0.82990000  0.95740000  1.0 -0.0157551343
C  C65  1  0.82990000  0.04260000  0.28460000  1.0 -0.0157551343
C  C66  1  0.17010000  0.04260000  0.71540000  1.0 -0.0157551343
C  C67  1  0.17010000  0.95740000  0.28460000  1.0 -0.0157551343
C  C68  1  0.82990000  0.95740000  0.71540000  1.0 -0.0157551343
C  C69  1  0.04260000  0.28460000  0.82990000  1.0 -0.0157551343
C  C70  1  0.04260000  0.71540000  0.17010000  1.0 -0.0157551343
C  C71  1  0.95740000  0.28460000  0.17010000  1.0 -0.0157551343
C  C72  1  0.95740000  0.71540000  0.82990000  1.0 -0.0157551343
C  C73  1  0.32470000  0.79090000  0.43250000  1.0 -0.0428623815
C  C74  1  0.67530000  0.20910000  0.43250000  1.0 -0.0428623815
C  C75  1  0.67530000  0.79090000  0.56750000  1.0 -0.0428623815
C  C76  1  0.32470000  0.20910000  0.56750000  1.0 -0.0428623815
C  C77  1  0.43250000  0.32470000  0.79090000  1.0 -0.0428623815
C  C78  1  0.43250000  0.67530000  0.20910000  1.0 -0.0428623815
C  C79  1  0.56750000  0.67530000  0.79090000  1.0 -0.0428623815
C  C80  1  0.56750000  0.32470000  0.20910000  1.0 -0.0428623815
C  C81  1  0.79090000  0.43250000  0.32470000  1.0 -0.0428623815
C  C82  1  0.20910000  0.43250000  0.67530000  1.0 -0.0428623815
C  C83  1  0.79090000  0.56750000  0.67530000  1.0 -0.0428623815
C  C84  1  0.20910000  0.56750000  0.32470000  1.0 -0.0428623815
C  C85  1  0.29090000  0.82470000  0.93250000  1.0 -0.0428623815
C  C86  1  0.70910000  0.17530000  0.93250000  1.0 -0.0428623815
C  C87  1  0.29090000  0.17530000  0.06750000  1.0 -0.0428623815
C  C88  1  0.70910000  0.82470000  0.06750000  1.0 -0.0428623815
C  C89  1  0.82470000  0.93250000  0.29090000  1.0 -0.0428623815
C  C90  1  0.17530000  0.93250000  0.70910000  1.0 -0.0428623815
C  C91  1  0.17530000  0.06750000  0.29090000  1.0 -0.0428623815
C  C92  1  0.82470000  0.06750000  0.70910000  1.0 -0.0428623815
C  C93  1  0.93250000  0.29090000  0.82470000  1.0 -0.0428623815
C  C94  1  0.93250000  0.70910000  0.17530000  1.0 -0.0428623815
C  C95  1  0.06750000  0.29090000  0.17530000  1.0 -0.0428623815
C  C96  1  0.06750000  0.70910000  0.82470000  1.0 -0.0428623815
C  C97  1  0.29020000  0.79230000  0.37500000  1.0 0.6026490943
C  C98  1  0.70980000  0.20770000  0.37500000  1.0 0.6026490943
C  C99  1  0.70980000  0.79230000  0.62500000  1.0 0.6026490943
C  C100  1  0.29020000  0.20770000  0.62500000  1.0 0.6026490943
C  C101  1  0.37500000  0.29020000  0.79230000  1.0 0.6026490943
C  C102  1  0.37500000  0.70980000  0.20770000  1.0 0.6026490943
C  C103  1  0.62500000  0.70980000  0.79230000  1.0 0.6026490943
C  C104  1  0.62500000  0.29020000  0.20770000  1.0 0.6026490943
C  C105  1  0.79230000  0.37500000  0.29020000  1.0 0.6026490943
C  C106  1  0.20770000  0.37500000  0.70980000  1.0 0.6026490943
C  C107  1  0.79230000  0.62500000  0.70980000  1.0 0.6026490943
C  C108  1  0.20770000  0.62500000  0.29020000  1.0 0.6026490943
C  C109  1  0.29230000  0.79020000  0.87500000  1.0 0.6026490943
C  C110  1  0.70770000  0.20980000  0.87500000  1.0 0.6026490943
C  C111  1  0.29230000  0.20980000  0.12500000  1.0 0.6026490943
C  C112  1  0.70770000  0.79020000  0.12500000  1.0 0.6026490943
C  C113  1  0.79020000  0.87500000  0.29230000  1.0 0.6026490943
C  C114  1  0.20980000  0.87500000  0.70770000  1.0 0.6026490943
C  C115  1  0.20980000  0.12500000  0.29230000  1.0 0.6026490943
C  C116  1  0.79020000  0.12500000  0.70770000  1.0 0.6026490943
C  C117  1  0.87500000  0.29230000  0.79020000  1.0 0.6026490943
C  C118  1  0.87500000  0.70770000  0.20980000  1.0 0.6026490943
C  C119  1  0.12500000  0.29230000  0.20980000  1.0 0.6026490943
C  C120  1  0.12500000  0.70770000  0.79020000  1.0 0.6026490943
C  C121  1  0.39260000  0.79160000  0.54010000  1.0 -0.1378135349
C  C122  1  0.60740000  0.20840000  0.54010000  1.0 -0.1378135349
C  C123  1  0.60740000  0.79160000  0.45990000  1.0 -0.1378135349
C  C124  1  0.39260000  0.20840000  0.45990000  1.0 -0.1378135349
C  C125  1  0.54010000  0.39260000  0.79160000  1.0 -0.1378135349
C  C126  1  0.54010000  0.60740000  0.20840000  1.0 -0.1378135349
C  C127  1  0.45990000  0.60740000  0.79160000  1.0 -0.1378135349
C  C128  1  0.45990000  0.39260000  0.20840000  1.0 -0.1378135349
C  C129  1  0.79160000  0.54010000  0.39260000  1.0 -0.1378135349
C  C130  1  0.20840000  0.54010000  0.60740000  1.0 -0.1378135349
C  C131  1  0.79160000  0.45990000  0.60740000  1.0 -0.1378135349
C  C132  1  0.20840000  0.45990000  0.39260000  1.0 -0.1378135349
C  C133  1  0.29160000  0.89260000  0.04010000  1.0 -0.1378135349
C  C134  1  0.70840000  0.10740000  0.04010000  1.0 -0.1378135349
C  C135  1  0.29160000  0.10740000  0.95990000  1.0 -0.1378135349
C  C136  1  0.70840000  0.89260000  0.95990000  1.0 -0.1378135349
C  C137  1  0.89260000  0.04010000  0.29160000  1.0 -0.1378135349
C  C138  1  0.10740000  0.04010000  0.70840000  1.0 -0.1378135349
C  C139  1  0.10740000  0.95990000  0.29160000  1.0 -0.1378135349
C  C140  1  0.89260000  0.95990000  0.70840000  1.0 -0.1378135349
C  C141  1  0.04010000  0.29160000  0.89260000  1.0 -0.1378135349
C  C142  1  0.04010000  0.70840000  0.10740000  1.0 -0.1378135349
C  C143  1  0.95990000  0.29160000  0.10740000  1.0 -0.1378135349
C  C144  1  0.95990000  0.70840000  0.89260000  1.0 -0.1378135349
C  C145  1  0.42140000  0.79700000  0.48390000  1.0 0.1547048045
C  C146  1  0.57860000  0.20300000  0.48390000  1.0 0.1547048045
C  C147  1  0.57860000  0.79700000  0.51610000  1.0 0.1547048045
C  C148  1  0.42140000  0.20300000  0.51610000  1.0 0.1547048045
C  C149  1  0.48390000  0.42140000  0.79700000  1.0 0.1547048045
C  C150  1  0.48390000  0.57860000  0.20300000  1.0 0.1547048045
C  C151  1  0.51610000  0.57860000  0.79700000  1.0 0.1547048045
C  C152  1  0.51610000  0.42140000  0.20300000  1.0 0.1547048045
C  C153  1  0.79700000  0.48390000  0.42140000  1.0 0.1547048045
C  C154  1  0.20300000  0.48390000  0.57860000  1.0 0.1547048045
C  C155  1  0.79700000  0.51610000  0.57860000  1.0 0.1547048045
C  C156  1  0.20300000  0.51610000  0.42140000  1.0 0.1547048045
C  C157  1  0.29700000  0.92140000  0.98390000  1.0 0.1547048045
C  C158  1  0.70300000  0.07860000  0.98390000  1.0 0.1547048045
C  C159  1  0.29700000  0.07860000  0.01610000  1.0 0.1547048045
C  C160  1  0.70300000  0.92140000  0.01610000  1.0 0.1553545399
C  C161  1  0.92140000  0.98390000  0.29700000  1.0 0.1547048045
C  C162  1  0.07860000  0.98390000  0.70300000  1.0 0.1547048045
C  C163  1  0.07860000  0.01610000  0.29700000  1.0 0.1547048045
C  C164  1  0.92140000  0.01610000  0.70300000  1.0 0.1547048045
C  C165  1  0.98390000  0.29700000  0.92140000  1.0 0.1547048045
C  C166  1  0.98390000  0.70300000  0.07860000  1.0 0.1547048045
C  C167  1  0.01610000  0.29700000  0.07860000  1.0 0.1547048045
C  C168  1  0.01610000  0.70300000  0.92140000  1.0 0.1547048045
C  C169  1  0.38720000  0.79810000  0.43040000  1.0 -0.1378135349
C  C170  1  0.61280000  0.20190000  0.43040000  1.0 -0.1378135349
C  C171  1  0.61280000  0.79810000  0.56960000  1.0 -0.1378135349
C  C172  1  0.38720000  0.20190000  0.56960000  1.0 -0.1378135349
C  C173  1  0.43040000  0.38720000  0.79810000  1.0 -0.1378135349
C  C174  1  0.43040000  0.61280000  0.20190000  1.0 -0.1378135349
C  C175  1  0.56960000  0.61280000  0.79810000  1.0 -0.1378135349
C  C176  1  0.56960000  0.38720000  0.20190000  1.0 -0.1378135349
C  C177  1  0.79810000  0.43040000  0.38720000  1.0 -0.1378135349
C  C178  1  0.20190000  0.43040000  0.61280000  1.0 -0.1378135349
C  C179  1  0.79810000  0.56960000  0.61280000  1.0 -0.1378135349
C  C180  1  0.20190000  0.56960000  0.38720000  1.0 -0.1378135349
C  C181  1  0.29810000  0.88720000  0.93040000  1.0 -0.1378135349
C  C182  1  0.70190000  0.11280000  0.93040000  1.0 -0.1378135349
C  C183  1  0.29810000  0.11280000  0.06960000  1.0 -0.1378135349
C  C184  1  0.70190000  0.88720000  0.06960000  1.0 -0.1378135349
C  C185  1  0.88720000  0.93040000  0.29810000  1.0 -0.1378135349
C  C186  1  0.11280000  0.93040000  0.70190000  1.0 -0.1378135349
C  C187  1  0.11280000  0.06960000  0.29810000  1.0 -0.1378135349
C  C188  1  0.88720000  0.06960000  0.70190000  1.0 -0.1378135349
C  C189  1  0.93040000  0.29810000  0.88720000  1.0 -0.1378135349
C  C190  1  0.93040000  0.70190000  0.11280000  1.0 -0.1378135349
C  C191  1  0.06960000  0.29810000  0.11280000  1.0 -0.1378135349
C  C192  1  0.06960000  0.70190000  0.88720000  1.0 -0.1378135349
N  N1  1  0.48580000  0.80030000  0.47640000  1.0 -0.1140466193
N  N2  1  0.51420000  0.19970000  0.47640000  1.0 -0.1140466193
N  N3  1  0.51420000  0.80030000  0.52360000  1.0 -0.1140466193
N  N4  1  0.48580000  0.19970000  0.52360000  1.0 -0.1140466193
N  N5  1  0.47640000  0.48580000  0.80030000  1.0 -0.1140466193
N  N6  1  0.47640000  0.51420000  0.19970000  1.0 -0.1140466193
N  N7  1  0.52360000  0.51420000  0.80030000  1.0 -0.1140466193
N  N8  1  0.52360000  0.48580000  0.19970000  1.0 -0.1140466193
N  N9  1  0.80030000  0.47640000  0.48580000  1.0 -0.1140466193
N  N10  1  0.19970000  0.47640000  0.51420000  1.0 -0.1140466193
N  N11  1  0.80030000  0.52360000  0.51420000  1.0 -0.1140466193
N  N12  1  0.19970000  0.52360000  0.48580000  1.0 -0.1140466193
N  N13  1  0.30030000  0.98580000  0.97640000  1.0 -0.1140466193
N  N14  1  0.69970000  0.01420000  0.97640000  1.0 -0.1140466193
N  N15  1  0.30030000  0.01420000  0.02360000  1.0 -0.1140466193
N  N16  1  0.69970000  0.98580000  0.02360000  1.0 -0.1140466193
N  N17  1  0.98580000  0.97640000  0.30030000  1.0 -0.1140466193
N  N18  1  0.01420000  0.97640000  0.69970000  1.0 -0.1140466193
N  N19  1  0.01420000  0.02360000  0.30030000  1.0 -0.1140466193
N  N20  1  0.98580000  0.02360000  0.69970000  1.0 -0.1140466193
N  N21  1  0.97640000  0.30030000  0.98580000  1.0 -0.1140466193
N  N22  1  0.97640000  0.69970000  0.01420000  1.0 -0.1140466193
N  N23  1  0.02360000  0.30030000  0.01420000  1.0 -0.1140466193
N  N24  1  0.02360000  0.69970000  0.98580000  1.0 -0.1140466193
O  O1  1  0.24067000  0.75933000  0.24067000  1.0 -0.9028529869
O  O2  1  0.75933000  0.24067000  0.24067000  1.0 -0.9028529869
O  O3  1  0.75933000  0.75933000  0.75933000  1.0 -0.9028529869
O  O4  1  0.24067000  0.24067000  0.75933000  1.0 -0.9028529869
O  O5  1  0.25933000  0.74067000  0.74067000  1.0 -0.9028529869
O  O6  1  0.74067000  0.25933000  0.74067000  1.0 -0.9028529869
O  O7  1  0.25933000  0.25933000  0.25933000  1.0 -0.9028529869
O  O8  1  0.74067000  0.74067000  0.25933000  1.0 -0.9028529869
O  O9  1  0.33249000  0.79510000  0.64956000  1.0 -0.537064696
O  O10  1  0.66751000  0.20490000  0.64956000  1.0 -0.537064696
O  O11  1  0.66751000  0.79510000  0.35044000  1.0 -0.537064696
O  O12  1  0.33249000  0.20490000  0.35044000  1.0 -0.537064696
O  O13  1  0.64956000  0.33249000  0.79510000  1.0 -0.537064696
O  O14  1  0.64956000  0.66751000  0.20490000  1.0 -0.537064696
O  O15  1  0.35044000  0.66751000  0.79510000  1.0 -0.537064696
O  O16  1  0.35044000  0.33249000  0.20490000  1.0 -0.537064696
O  O17  1  0.79510000  0.64956000  0.33249000  1.0 -0.537064696
O  O18  1  0.20490000  0.64956000  0.66751000  1.0 -0.537064696
O  O19  1  0.79510000  0.35044000  0.66751000  1.0 -0.537064696
O  O20  1  0.20490000  0.35044000  0.33249000  1.0 -0.537064696
O  O21  1  0.29510000  0.83249000  0.14956000  1.0 -0.537064696
O  O22  1  0.70490000  0.16751000  0.14956000  1.0 -0.537064696
O  O23  1  0.29510000  0.16751000  0.85044000  1.0 -0.537064696
O  O24  1  0.70490000  0.83249000  0.85044000  1.0 -0.537064696
O  O25  1  0.83249000  0.14956000  0.29510000  1.0 -0.537064696
O  O26  1  0.16751000  0.14956000  0.70490000  1.0 -0.537064696
O  O27  1  0.16751000  0.85044000  0.29510000  1.0 -0.537064696
O  O28  1  0.83249000  0.85044000  0.70490000  1.0 -0.537064696
O  O29  1  0.14956000  0.29510000  0.83249000  1.0 -0.537064696
O  O30  1  0.14956000  0.70490000  0.16751000  1.0 -0.537064696
O  O31  1  0.85044000  0.29510000  0.16751000  1.0 -0.537064696
O  O32  1  0.85044000  0.70490000  0.83249000  1.0 -0.537064696
O  O33  1  0.23568000  0.77497000  0.37463000  1.0 -0.524614458
O  O34  1  0.76432000  0.22503000  0.37463000  1.0 -0.5251623439
O  O35  1  0.76432000  0.77497000  0.62537000  1.0 -0.5251623439
O  O36  1  0.23568000  0.22503000  0.62537000  1.0 -0.5251623439
O  O37  1  0.37463000  0.23568000  0.77497000  1.0 -0.5251623439
O  O38  1  0.37463000  0.76432000  0.22503000  1.0 -0.5251623439
O  O39  1  0.62537000  0.76432000  0.77497000  1.0 -0.5251623439
O  O40  1  0.62537000  0.23568000  0.22503000  1.0 -0.5251623439
O  O41  1  0.77497000  0.37463000  0.23568000  1.0 -0.5251623439
O  O42  1  0.22503000  0.37463000  0.76432000  1.0 -0.5251623439
O  O43  1  0.77497000  0.62537000  0.76432000  1.0 -0.5251623439
O  O44  1  0.22503000  0.62537000  0.23568000  1.0 -0.5251623439
O  O45  1  0.27497000  0.73568000  0.87463000  1.0 -0.524614458
O  O46  1  0.72503000  0.26432000  0.87463000  1.0 -0.5251623439
O  O47  1  0.27497000  0.26432000  0.12537000  1.0 -0.5251623439
O  O48  1  0.72503000  0.73568000  0.12537000  1.0 -0.5251623439
O  O49  1  0.73568000  0.87463000  0.27497000  1.0 -0.5251623439
O  O50  1  0.26432000  0.87463000  0.72503000  1.0 -0.524614458
O  O51  1  0.26432000  0.12537000  0.27497000  1.0 -0.5251623439
O  O52  1  0.73568000  0.12537000  0.72503000  1.0 -0.5251623439
O  O53  1  0.87463000  0.27497000  0.73568000  1.0 -0.5251623439
O  O54  1  0.87463000  0.72503000  0.26432000  1.0 -0.5251623439
O  O55  1  0.12537000  0.27497000  0.26432000  1.0 -0.5251623439
O  O56  1  0.12537000  0.72503000  0.73568000  1.0 -0.524614458
O  O57  1  0.24821000  0.75530000  0.60702000  1.0 -0.537064696
O  O58  1  0.75179000  0.24470000  0.60702000  1.0 -0.537064696
O  O59  1  0.75179000  0.75530000  0.39298000  1.0 -0.537064696
O  O60  1  0.24821000  0.24470000  0.39298000  1.0 -0.537064696
O  O61  1  0.60702000  0.24821000  0.75530000  1.0 -0.537064696
O  O62  1  0.60702000  0.75179000  0.24470000  1.0 -0.537064696
O  O63  1  0.39298000  0.75179000  0.75530000  1.0 -0.537064696
O  O64  1  0.39298000  0.24821000  0.24470000  1.0 -0.537064696
O  O65  1  0.75530000  0.60702000  0.24821000  1.0 -0.537064696
O  O66  1  0.24470000  0.60702000  0.75179000  1.0 -0.537064696
O  O67  1  0.75530000  0.39298000  0.75179000  1.0 -0.537064696
O  O68  1  0.24470000  0.39298000  0.24821000  1.0 -0.537064696
O  O69  1  0.25530000  0.74821000  0.10702000  1.0 -0.537064696
O  O70  1  0.74470000  0.25179000  0.10702000  1.0 -0.537064696
O  O71  1  0.25530000  0.25179000  0.89298000  1.0 -0.537064696
O  O72  1  0.74470000  0.74821000  0.89298000  1.0 -0.537064696
O  O73  1  0.74821000  0.10702000  0.25530000  1.0 -0.537064696
O  O74  1  0.25179000  0.10702000  0.74470000  1.0 -0.537064696
O  O75  1  0.25179000  0.89298000  0.25530000  1.0 -0.537064696
O  O76  1  0.74821000  0.89298000  0.74470000  1.0 -0.537064696
O  O77  1  0.10702000  0.25530000  0.74821000  1.0 -0.537064696
O  O78  1  0.10702000  0.74470000  0.25179000  1.0 -0.537064696
O  O79  1  0.89298000  0.25530000  0.25179000  1.0 -0.537064696
O  O80  1  0.89298000  0.74470000  0.74821000  1.0 -0.537064696
O  O81  1  0.31893000  0.81160000  0.32863000  1.0 -0.5463305038
O  O82  1  0.68107000  0.18840000  0.32863000  1.0 -0.5463305038
O  O83  1  0.68107000  0.81160000  0.67137000  1.0 -0.5463305038
O  O84  1  0.31893000  0.18840000  0.67137000  1.0 -0.5463305038
O  O85  1  0.32863000  0.31893000  0.81160000  1.0 -0.5463305038
O  O86  1  0.32863000  0.68107000  0.18840000  1.0 -0.5463305038
O  O87  1  0.67137000  0.68107000  0.81160000  1.0 -0.5463305038
O  O88  1  0.67137000  0.31893000  0.18840000  1.0 -0.5463305038
O  O89  1  0.81160000  0.32863000  0.31893000  1.0 -0.5463305038
O  O90  1  0.18840000  0.32863000  0.68107000  1.0 -0.5463305038
O  O91  1  0.81160000  0.67137000  0.68107000  1.0 -0.5463305038
O  O92  1  0.18840000  0.67137000  0.31893000  1.0 -0.5463305038
O  O93  1  0.31160000  0.81893000  0.82863000  1.0 -0.5463305038
O  O94  1  0.68840000  0.18107000  0.82863000  1.0 -0.5463305038
O  O95  1  0.31160000  0.18107000  0.17137000  1.0 -0.5463305038
O  O96  1  0.68840000  0.81893000  0.17137000  1.0 -0.5463305038
O  O97  1  0.81893000  0.82863000  0.31160000  1.0 -0.5463305038
O  O98  1  0.18107000  0.82863000  0.68840000  1.0 -0.5463305038
O  O99  1  0.18107000  0.17137000  0.31160000  1.0 -0.5463305038
O  O100  1  0.81893000  0.17137000  0.68840000  1.0 -0.5463305038
O  O101  1  0.82863000  0.31160000  0.81893000  1.0 -0.5463305038
O  O102  1  0.82863000  0.68840000  0.18107000  1.0 -0.5463305038
O  O103  1  0.17137000  0.31160000  0.18107000  1.0 -0.5463305038
O  O104  1  0.17137000  0.68840000  0.81893000  1.0 -0.5463305038
