# DDEC6 charges by PACMAN v1.1 (https://github.com/mtap-research/PACMAN-charge/)
data_LIDGOY_ASR_pacman
_symmetry_space_group_name_H-M   'P 1'
_cell_length_a   21.97310000
_cell_length_b   21.97310000
_cell_length_c   21.97310000
_cell_angle_alpha   90.00000000
_cell_angle_beta   90.00000000
_cell_angle_gamma   90.00000000
_symmetry_Int_Tables_number   1
_chemical_formula_structural   Fe3H9C24N3O13
_chemical_formula_sum   'Fe24 H72 C192 N24 O104'
_cell_volume   10608.98893879
_cell_formula_units_Z   8
loop_
 _symmetry_equiv_pos_site_id
 _symmetry_equiv_pos_as_xyz
  1  'x, y, z'
loop_
 _atom_site_type_symbol
 _atom_site_label
 _atom_site_symmetry_multiplicity
 _atom_site_fract_x
 _atom_site_fract_y
 _atom_site_fract_z
 _atom_site_occupancy
 _atom_site_charge
Fe  Fe1  1  0.68200000  0.73929000  0.80162000  1.0 1.1970595087
Fe  Fe2  1  0.31800000  0.26071000  0.80162000  1.0 1.1970595087
Fe  Fe3  1  0.31800000  0.73929000  0.19838000  1.0 1.1970595087
Fe  Fe4  1  0.68200000  0.26071000  0.19838000  1.0 1.1970595087
Fe  Fe5  1  0.80162000  0.68200000  0.73929000  1.0 1.1970595087
Fe  Fe6  1  0.80162000  0.31800000  0.26071000  1.0 1.1970595087
Fe  Fe7  1  0.19838000  0.31800000  0.73929000  1.0 1.1970595087
Fe  Fe8  1  0.19838000  0.68200000  0.26071000  1.0 1.1970595087
Fe  Fe9  1  0.73929000  0.80162000  0.68200000  1.0 1.1970595087
Fe  Fe10  1  0.26071000  0.80162000  0.31800000  1.0 1.1970595087
Fe  Fe11  1  0.73929000  0.19838000  0.31800000  1.0 1.1970595087
Fe  Fe12  1  0.26071000  0.19838000  0.68200000  1.0 1.1970595087
Fe  Fe13  1  0.23929000  0.18200000  0.30162000  1.0 1.1970595087
Fe  Fe14  1  0.76071000  0.81800000  0.30162000  1.0 1.1970595087
Fe  Fe15  1  0.23929000  0.81800000  0.69838000  1.0 1.1970595087
Fe  Fe16  1  0.76071000  0.18200000  0.69838000  1.0 1.1970595087
Fe  Fe17  1  0.18200000  0.30162000  0.23929000  1.0 1.1970595087
Fe  Fe18  1  0.81800000  0.30162000  0.76071000  1.0 1.1970595087
Fe  Fe19  1  0.81800000  0.69838000  0.23929000  1.0 1.1970595087
Fe  Fe20  1  0.18200000  0.69838000  0.76071000  1.0 1.1970595087
Fe  Fe21  1  0.30162000  0.23929000  0.18200000  1.0 1.1970595087
Fe  Fe22  1  0.30162000  0.76071000  0.81800000  1.0 1.1970595087
Fe  Fe23  1  0.69838000  0.23929000  0.81800000  1.0 1.1970595087
Fe  Fe24  1  0.69838000  0.76071000  0.18200000  1.0 1.1970595087
H  H1  1  0.74669000  0.49162000  0.77721000  1.0 0.1391135469
H  H2  1  0.25331000  0.50838000  0.77721000  1.0 0.1391135469
H  H3  1  0.25331000  0.49162000  0.22279000  1.0 0.1391135469
H  H4  1  0.74669000  0.50838000  0.22279000  1.0 0.1391135469
H  H5  1  0.77721000  0.74669000  0.49162000  1.0 0.1391135469
H  H6  1  0.77721000  0.25331000  0.50838000  1.0 0.1391135469
H  H7  1  0.22279000  0.25331000  0.49162000  1.0 0.1391135469
H  H8  1  0.22279000  0.74669000  0.50838000  1.0 0.1391135469
H  H9  1  0.49162000  0.77721000  0.74669000  1.0 0.1391135469
H  H10  1  0.50838000  0.77721000  0.25331000  1.0 0.1391135469
H  H11  1  0.49162000  0.22279000  0.25331000  1.0 0.1391135469
H  H12  1  0.50838000  0.22279000  0.74669000  1.0 0.1391135469
H  H13  1  0.99162000  0.24669000  0.27721000  1.0 0.1391135469
H  H14  1  0.00838000  0.75331000  0.27721000  1.0 0.1391135469
H  H15  1  0.99162000  0.75331000  0.72279000  1.0 0.1391135469
H  H16  1  0.00838000  0.24669000  0.72279000  1.0 0.1391135469
H  H17  1  0.24669000  0.27721000  0.99162000  1.0 0.1391135469
H  H18  1  0.75331000  0.27721000  0.00838000  1.0 0.1391135469
H  H19  1  0.75331000  0.72279000  0.99162000  1.0 0.1391135469
H  H20  1  0.24669000  0.72279000  0.00838000  1.0 0.1391135469
H  H21  1  0.27721000  0.99162000  0.24669000  1.0 0.1391135469
H  H22  1  0.27721000  0.00838000  0.75331000  1.0 0.1391135469
H  H23  1  0.72279000  0.99162000  0.75331000  1.0 0.1391135469
H  H24  1  0.72279000  0.00838000  0.24669000  1.0 0.1391135469
H  H25  1  0.58493000  0.57572000  0.79121000  1.0 0.1391135469
H  H26  1  0.41507000  0.42428000  0.79121000  1.0 0.1391135469
H  H27  1  0.41507000  0.57572000  0.20879000  1.0 0.1391135469
H  H28  1  0.58493000  0.42428000  0.20879000  1.0 0.1391135469
H  H29  1  0.79121000  0.58493000  0.57572000  1.0 0.1391135469
H  H30  1  0.79121000  0.41507000  0.42428000  1.0 0.1391135469
H  H31  1  0.20879000  0.41507000  0.57572000  1.0 0.1391135469
H  H32  1  0.20879000  0.58493000  0.42428000  1.0 0.1391135469
H  H33  1  0.57572000  0.79121000  0.58493000  1.0 0.1391135469
H  H34  1  0.42428000  0.79121000  0.41507000  1.0 0.1391135469
H  H35  1  0.57572000  0.20879000  0.41507000  1.0 0.1391135469
H  H36  1  0.42428000  0.20879000  0.58493000  1.0 0.1391135469
H  H37  1  0.07572000  0.08493000  0.29121000  1.0 0.1391135469
H  H38  1  0.92428000  0.91507000  0.29121000  1.0 0.1391135469
H  H39  1  0.07572000  0.91507000  0.70879000  1.0 0.1391135469
H  H40  1  0.92428000  0.08493000  0.70879000  1.0 0.1391135469
H  H41  1  0.08493000  0.29121000  0.07572000  1.0 0.1391135469
H  H42  1  0.91507000  0.29121000  0.92428000  1.0 0.1391135469
H  H43  1  0.91507000  0.70879000  0.07572000  1.0 0.1391135469
H  H44  1  0.08493000  0.70879000  0.92428000  1.0 0.1391135469
H  H45  1  0.29121000  0.07572000  0.08493000  1.0 0.1391135469
H  H46  1  0.29121000  0.92428000  0.91507000  1.0 0.1391135469
H  H47  1  0.70879000  0.07572000  0.91507000  1.0 0.1391135469
H  H48  1  0.70879000  0.92428000  0.08493000  1.0 0.1391135469
H  H49  1  0.59406000  0.39305000  0.80110000  1.0 0.1391135469
H  H50  1  0.40594000  0.60695000  0.80110000  1.0 0.1391135469
H  H51  1  0.40594000  0.39305000  0.19890000  1.0 0.1391135469
H  H52  1  0.59406000  0.60695000  0.19890000  1.0 0.1391135469
H  H53  1  0.80110000  0.59406000  0.39305000  1.0 0.1391135469
H  H54  1  0.80110000  0.40594000  0.60695000  1.0 0.1391135469
H  H55  1  0.19890000  0.40594000  0.39305000  1.0 0.1391135469
H  H56  1  0.19890000  0.59406000  0.60695000  1.0 0.1391135469
H  H57  1  0.39305000  0.80110000  0.59406000  1.0 0.1391135469
H  H58  1  0.60695000  0.80110000  0.40594000  1.0 0.1391135469
H  H59  1  0.39305000  0.19890000  0.40594000  1.0 0.1391135469
H  H60  1  0.60695000  0.19890000  0.59406000  1.0 0.1391135469
H  H61  1  0.89305000  0.09406000  0.30110000  1.0 0.1391135469
H  H62  1  0.10695000  0.90594000  0.30110000  1.0 0.1391135469
H  H63  1  0.89305000  0.90594000  0.69890000  1.0 0.1391135469
H  H64  1  0.10695000  0.09406000  0.69890000  1.0 0.1391135469
H  H65  1  0.09406000  0.30110000  0.89305000  1.0 0.1391135469
H  H66  1  0.90594000  0.30110000  0.10695000  1.0 0.1391135469
H  H67  1  0.90594000  0.69890000  0.89305000  1.0 0.1391135469
H  H68  1  0.09406000  0.69890000  0.10695000  1.0 0.1391135469
H  H69  1  0.30110000  0.89305000  0.09406000  1.0 0.1391135469
H  H70  1  0.30110000  0.10695000  0.90594000  1.0 0.1391135469
H  H71  1  0.69890000  0.89305000  0.90594000  1.0 0.1391135469
H  H72  1  0.69890000  0.10695000  0.09406000  1.0 0.1391135469
C  C1  1  0.69957000  0.60442000  0.77782000  1.0 0.606568641
C  C2  1  0.30043000  0.39558000  0.77782000  1.0 0.606568641
C  C3  1  0.30043000  0.60442000  0.22218000  1.0 0.606568641
C  C4  1  0.69957000  0.39558000  0.22218000  1.0 0.606568641
C  C5  1  0.77782000  0.69957000  0.60442000  1.0 0.606568641
C  C6  1  0.77782000  0.30043000  0.39558000  1.0 0.606568641
C  C7  1  0.22218000  0.30043000  0.60442000  1.0 0.606568641
C  C8  1  0.22218000  0.69957000  0.39558000  1.0 0.606568641
C  C9  1  0.60442000  0.77782000  0.69957000  1.0 0.606568641
C  C10  1  0.39558000  0.77782000  0.30043000  1.0 0.606568641
C  C11  1  0.60442000  0.22218000  0.30043000  1.0 0.606568641
C  C12  1  0.39558000  0.22218000  0.69957000  1.0 0.606568641
C  C13  1  0.10442000  0.19957000  0.27782000  1.0 0.606568641
C  C14  1  0.89558000  0.80043000  0.27782000  1.0 0.606568641
C  C15  1  0.10442000  0.80043000  0.72218000  1.0 0.606568641
C  C16  1  0.89558000  0.19957000  0.72218000  1.0 0.606568641
C  C17  1  0.19957000  0.27782000  0.10442000  1.0 0.606568641
C  C18  1  0.80043000  0.27782000  0.89558000  1.0 0.606568641
C  C19  1  0.80043000  0.72218000  0.10442000  1.0 0.606568641
C  C20  1  0.19957000  0.72218000  0.89558000  1.0 0.606568641
C  C21  1  0.27782000  0.10442000  0.19957000  1.0 0.606568641
C  C22  1  0.27782000  0.89558000  0.80043000  1.0 0.606568641
C  C23  1  0.72218000  0.10442000  0.80043000  1.0 0.606568641
C  C24  1  0.72218000  0.89558000  0.19957000  1.0 0.606568641
C  C25  1  0.67008000  0.54268000  0.78394000  1.0 -0.0129166868
C  C26  1  0.32992000  0.45732000  0.78394000  1.0 -0.0129166868
C  C27  1  0.32992000  0.54268000  0.21606000  1.0 -0.0129166868
C  C28  1  0.67008000  0.45732000  0.21606000  1.0 -0.0129166868
C  C29  1  0.78394000  0.67008000  0.54268000  1.0 -0.0129166868
C  C30  1  0.78394000  0.32992000  0.45732000  1.0 -0.0129166868
C  C31  1  0.21606000  0.32992000  0.54268000  1.0 -0.0129166868
C  C32  1  0.21606000  0.67008000  0.45732000  1.0 -0.0129166868
C  C33  1  0.54268000  0.78394000  0.67008000  1.0 -0.0129166868
C  C34  1  0.45732000  0.78394000  0.32992000  1.0 -0.0129166868
C  C35  1  0.54268000  0.21606000  0.32992000  1.0 -0.0129166868
C  C36  1  0.45732000  0.21606000  0.67008000  1.0 -0.0129166868
C  C37  1  0.04268000  0.17008000  0.28394000  1.0 -0.0129166868
C  C38  1  0.95732000  0.82992000  0.28394000  1.0 -0.0129166868
C  C39  1  0.04268000  0.82992000  0.71606000  1.0 -0.0129166868
C  C40  1  0.95732000  0.17008000  0.71606000  1.0 -0.0129166868
C  C41  1  0.17008000  0.28394000  0.04268000  1.0 -0.0129166868
C  C42  1  0.82992000  0.28394000  0.95732000  1.0 -0.0129166868
C  C43  1  0.82992000  0.71606000  0.04268000  1.0 -0.0129166868
C  C44  1  0.17008000  0.71606000  0.95732000  1.0 -0.0129166868
C  C45  1  0.28394000  0.04268000  0.17008000  1.0 -0.0129166868
C  C46  1  0.28394000  0.95732000  0.82992000  1.0 -0.0129166868
C  C47  1  0.71606000  0.04268000  0.82992000  1.0 -0.0129166868
C  C48  1  0.71606000  0.95732000  0.17008000  1.0 -0.0129166868
C  C49  1  0.70481000  0.48971000  0.78296000  1.0 -0.0993795765
C  C50  1  0.29519000  0.51029000  0.78296000  1.0 -0.0993795765
C  C51  1  0.29519000  0.48971000  0.21704000  1.0 -0.0993795765
C  C52  1  0.70481000  0.51029000  0.21704000  1.0 -0.0993795765
C  C53  1  0.78296000  0.70481000  0.48971000  1.0 -0.0993795765
C  C54  1  0.78296000  0.29519000  0.51029000  1.0 -0.0993795765
C  C55  1  0.21704000  0.29519000  0.48971000  1.0 -0.0993795765
C  C56  1  0.21704000  0.70481000  0.51029000  1.0 -0.0993795765
C  C57  1  0.48971000  0.78296000  0.70481000  1.0 -0.0993795765
C  C58  1  0.51029000  0.78296000  0.29519000  1.0 -0.0993795765
C  C59  1  0.48971000  0.21704000  0.29519000  1.0 -0.0993795765
C  C60  1  0.51029000  0.21704000  0.70481000  1.0 -0.0993795765
C  C61  1  0.98971000  0.20481000  0.28296000  1.0 -0.0993795765
C  C62  1  0.01029000  0.79519000  0.28296000  1.0 -0.0993795765
C  C63  1  0.98971000  0.79519000  0.71704000  1.0 -0.0993795765
C  C64  1  0.01029000  0.20481000  0.71704000  1.0 -0.0993795765
C  C65  1  0.20481000  0.28296000  0.98971000  1.0 -0.0993795765
C  C66  1  0.79519000  0.28296000  0.01029000  1.0 -0.0993795765
C  C67  1  0.79519000  0.71704000  0.98971000  1.0 -0.0993795765
C  C68  1  0.20481000  0.71704000  0.01029000  1.0 -0.0993795765
C  C69  1  0.28296000  0.98971000  0.20481000  1.0 -0.0993795765
C  C70  1  0.28296000  0.01029000  0.79519000  1.0 -0.0993795765
C  C71  1  0.71704000  0.98971000  0.79519000  1.0 -0.0993795765
C  C72  1  0.71704000  0.01029000  0.20481000  1.0 -0.0993795765
C  C73  1  0.67570000  0.43331000  0.79077000  1.0 -0.0234557139
C  C74  1  0.32430000  0.56669000  0.79077000  1.0 -0.0234557139
C  C75  1  0.32430000  0.43331000  0.20923000  1.0 -0.0234557139
C  C76  1  0.67570000  0.56669000  0.20923000  1.0 -0.0234557139
C  C77  1  0.79077000  0.67570000  0.43331000  1.0 -0.0234557139
C  C78  1  0.79077000  0.32430000  0.56669000  1.0 -0.0234557139
C  C79  1  0.20923000  0.32430000  0.43331000  1.0 -0.0234557139
C  C80  1  0.20923000  0.67570000  0.56669000  1.0 -0.0234557139
C  C81  1  0.43331000  0.79077000  0.67570000  1.0 -0.0234557139
C  C82  1  0.56669000  0.79077000  0.32430000  1.0 -0.0234557139
C  C83  1  0.43331000  0.20923000  0.32430000  1.0 -0.0234557139
C  C84  1  0.56669000  0.20923000  0.67570000  1.0 -0.0234557139
C  C85  1  0.93331000  0.17570000  0.29077000  1.0 -0.0234557139
C  C86  1  0.06669000  0.82430000  0.29077000  1.0 -0.0234557139
C  C87  1  0.93331000  0.82430000  0.70923000  1.0 -0.0234557139
C  C88  1  0.06669000  0.17570000  0.70923000  1.0 -0.0234557139
C  C89  1  0.17570000  0.29077000  0.93331000  1.0 -0.0234557139
C  C90  1  0.82430000  0.29077000  0.06669000  1.0 -0.0234557139
C  C91  1  0.82430000  0.70923000  0.93331000  1.0 -0.0234557139
C  C92  1  0.17570000  0.70923000  0.06669000  1.0 -0.0234557139
C  C93  1  0.29077000  0.93331000  0.17570000  1.0 -0.0234557139
C  C94  1  0.29077000  0.06669000  0.82430000  1.0 -0.0234557139
C  C95  1  0.70923000  0.93331000  0.82430000  1.0 -0.0234557139
C  C96  1  0.70923000  0.06669000  0.17570000  1.0 -0.0234557139
C  C97  1  0.71084000  0.37524000  0.79265000  1.0 0.606568641
C  C98  1  0.28916000  0.62476000  0.79265000  1.0 0.606568641
C  C99  1  0.28916000  0.37524000  0.20735000  1.0 0.606568641
C  C100  1  0.71084000  0.62476000  0.20735000  1.0 0.606568641
C  C101  1  0.79265000  0.71084000  0.37524000  1.0 0.606568641
C  C102  1  0.79265000  0.28916000  0.62476000  1.0 0.606568641
C  C103  1  0.20735000  0.28916000  0.37524000  1.0 0.606568641
C  C104  1  0.20735000  0.71084000  0.62476000  1.0 0.606568641
C  C105  1  0.37524000  0.79265000  0.71084000  1.0 0.606568641
C  C106  1  0.62476000  0.79265000  0.28916000  1.0 0.606568641
C  C107  1  0.37524000  0.20735000  0.28916000  1.0 0.606568641
C  C108  1  0.62476000  0.20735000  0.71084000  1.0 0.606568641
C  C109  1  0.87524000  0.21084000  0.29265000  1.0 0.606568641
C  C110  1  0.12476000  0.78916000  0.29265000  1.0 0.606568641
C  C111  1  0.87524000  0.78916000  0.70735000  1.0 0.606568641
C  C112  1  0.12476000  0.21084000  0.70735000  1.0 0.606568641
C  C113  1  0.21084000  0.29265000  0.87524000  1.0 0.606568641
C  C114  1  0.78916000  0.29265000  0.12476000  1.0 0.606568641
C  C115  1  0.78916000  0.70735000  0.87524000  1.0 0.606568641
C  C116  1  0.21084000  0.70735000  0.12476000  1.0 0.606568641
C  C117  1  0.29265000  0.87524000  0.21084000  1.0 0.606568641
C  C118  1  0.29265000  0.12476000  0.78916000  1.0 0.606568641
C  C119  1  0.70735000  0.87524000  0.78916000  1.0 0.606568641
C  C120  1  0.70735000  0.12476000  0.21084000  1.0 0.606568641
C  C121  1  0.60765000  0.54003000  0.79011000  1.0 -0.1409863305
C  C122  1  0.39235000  0.45997000  0.79011000  1.0 -0.1409863305
C  C123  1  0.39235000  0.54003000  0.20989000  1.0 -0.1409863305
C  C124  1  0.60765000  0.45997000  0.20989000  1.0 -0.1409863305
C  C125  1  0.79011000  0.60765000  0.54003000  1.0 -0.1409863305
C  C126  1  0.79011000  0.39235000  0.45997000  1.0 -0.1409863305
C  C127  1  0.20989000  0.39235000  0.54003000  1.0 -0.1409863305
C  C128  1  0.20989000  0.60765000  0.45997000  1.0 -0.1409863305
C  C129  1  0.54003000  0.79011000  0.60765000  1.0 -0.1409863305
C  C130  1  0.45997000  0.79011000  0.39235000  1.0 -0.1409863305
C  C131  1  0.54003000  0.20989000  0.39235000  1.0 -0.1409863305
C  C132  1  0.45997000  0.20989000  0.60765000  1.0 -0.1409863305
C  C133  1  0.04003000  0.10765000  0.29011000  1.0 -0.1409863305
C  C134  1  0.95997000  0.89235000  0.29011000  1.0 -0.1409863305
C  C135  1  0.04003000  0.89235000  0.70989000  1.0 -0.1409863305
C  C136  1  0.95997000  0.10765000  0.70989000  1.0 -0.1409863305
C  C137  1  0.10765000  0.29011000  0.04003000  1.0 -0.1409863305
C  C138  1  0.89235000  0.29011000  0.95997000  1.0 -0.1409863305
C  C139  1  0.89235000  0.70989000  0.04003000  1.0 -0.1409863305
C  C140  1  0.10765000  0.70989000  0.95997000  1.0 -0.1409863305
C  C141  1  0.29011000  0.04003000  0.10765000  1.0 -0.1409863305
C  C142  1  0.29011000  0.95997000  0.89235000  1.0 -0.1409863305
C  C143  1  0.70989000  0.04003000  0.89235000  1.0 -0.1409863305
C  C144  1  0.70989000  0.95997000  0.10765000  1.0 -0.1409863305
C  C145  1  0.61328000  0.43045000  0.79630000  1.0 -0.1409863305
C  C146  1  0.38672000  0.56955000  0.79630000  1.0 -0.1409863305
C  C147  1  0.38672000  0.43045000  0.20370000  1.0 -0.1409863305
C  C148  1  0.61328000  0.56955000  0.20370000  1.0 -0.1409863305
C  C149  1  0.79630000  0.61328000  0.43045000  1.0 -0.1409863305
C  C150  1  0.79630000  0.38672000  0.56955000  1.0 -0.1409863305
C  C151  1  0.20370000  0.38672000  0.43045000  1.0 -0.1409863305
C  C152  1  0.20370000  0.61328000  0.56955000  1.0 -0.1409863305
C  C153  1  0.43045000  0.79630000  0.61328000  1.0 -0.1409863305
C  C154  1  0.56955000  0.79630000  0.38672000  1.0 -0.1409863305
C  C155  1  0.43045000  0.20370000  0.38672000  1.0 -0.1409863305
C  C156  1  0.56955000  0.20370000  0.61328000  1.0 -0.1409863305
C  C157  1  0.93045000  0.11328000  0.29630000  1.0 -0.1409863305
C  C158  1  0.06955000  0.88672000  0.29630000  1.0 -0.1409863305
C  C159  1  0.93045000  0.88672000  0.70370000  1.0 -0.1409863305
C  C160  1  0.06955000  0.11328000  0.70370000  1.0 -0.1409863305
C  C161  1  0.11328000  0.29630000  0.93045000  1.0 -0.1409863305
C  C162  1  0.88672000  0.29630000  0.06955000  1.0 -0.1409863305
C  C163  1  0.88672000  0.70370000  0.93045000  1.0 -0.1409863305
C  C164  1  0.11328000  0.70370000  0.06955000  1.0 -0.1409863305
C  C165  1  0.29630000  0.93045000  0.11328000  1.0 -0.1409863305
C  C166  1  0.29630000  0.06955000  0.88672000  1.0 -0.1409863305
C  C167  1  0.70370000  0.93045000  0.88672000  1.0 -0.1409863305
C  C168  1  0.70370000  0.06955000  0.11328000  1.0 -0.1409863305
C  C169  1  0.57889000  0.48416000  0.79465000  1.0 0.1641929805
C  C170  1  0.42111000  0.51584000  0.79465000  1.0 0.1641929805
C  C171  1  0.42111000  0.48416000  0.20535000  1.0 0.1641929805
C  C172  1  0.57889000  0.51584000  0.20535000  1.0 0.1641929805
C  C173  1  0.79465000  0.57889000  0.48416000  1.0 0.1641929805
C  C174  1  0.79465000  0.42111000  0.51584000  1.0 0.1641929805
C  C175  1  0.20535000  0.42111000  0.48416000  1.0 0.1641929805
C  C176  1  0.20535000  0.57889000  0.51584000  1.0 0.1641929805
C  C177  1  0.48416000  0.79465000  0.57889000  1.0 0.1641929805
C  C178  1  0.51584000  0.79465000  0.42111000  1.0 0.1641929805
C  C179  1  0.48416000  0.20535000  0.42111000  1.0 0.1641929805
C  C180  1  0.51584000  0.20535000  0.57889000  1.0 0.1641929805
C  C181  1  0.98416000  0.07889000  0.29465000  1.0 0.1641929805
C  C182  1  0.01584000  0.92111000  0.29465000  1.0 0.1641929805
C  C183  1  0.98416000  0.92111000  0.70535000  1.0 0.1641929805
C  C184  1  0.01584000  0.07889000  0.70535000  1.0 0.1641929805
C  C185  1  0.07889000  0.29465000  0.98416000  1.0 0.1641929805
C  C186  1  0.92111000  0.29465000  0.01584000  1.0 0.1641929805
C  C187  1  0.92111000  0.70535000  0.98416000  1.0 0.1641929805
C  C188  1  0.07889000  0.70535000  0.01584000  1.0 0.1641929805
C  C189  1  0.29465000  0.98416000  0.07889000  1.0 0.1641929805
C  C190  1  0.29465000  0.01584000  0.92111000  1.0 0.1641929805
C  C191  1  0.70535000  0.98416000  0.92111000  1.0 0.1641929805
C  C192  1  0.70535000  0.01584000  0.07889000  1.0 0.1641929805
N  N1  1  0.51429000  0.47577000  0.79724000  1.0 -0.1239660451
N  N2  1  0.48571000  0.52423000  0.79724000  1.0 -0.1239660451
N  N3  1  0.48571000  0.47577000  0.20276000  1.0 -0.1239660451
N  N4  1  0.51429000  0.52423000  0.20276000  1.0 -0.1239660451
N  N5  1  0.79724000  0.51429000  0.47577000  1.0 -0.1239660451
N  N6  1  0.79724000  0.48571000  0.52423000  1.0 -0.1239660451
N  N7  1  0.20276000  0.48571000  0.47577000  1.0 -0.1239660451
N  N8  1  0.20276000  0.51429000  0.52423000  1.0 -0.1239660451
N  N9  1  0.47577000  0.79724000  0.51429000  1.0 -0.1239660451
N  N10  1  0.52423000  0.79724000  0.48571000  1.0 -0.1239660451
N  N11  1  0.47577000  0.20276000  0.48571000  1.0 -0.1239660451
N  N12  1  0.52423000  0.20276000  0.51429000  1.0 -0.1239660451
N  N13  1  0.97577000  0.01429000  0.29724000  1.0 -0.1239660451
N  N14  1  0.02423000  0.98571000  0.29724000  1.0 -0.1239660451
N  N15  1  0.97577000  0.98571000  0.70276000  1.0 -0.1239660451
N  N16  1  0.02423000  0.01429000  0.70276000  1.0 -0.1239660451
N  N17  1  0.01429000  0.29724000  0.97577000  1.0 -0.1239660451
N  N18  1  0.98571000  0.29724000  0.02423000  1.0 -0.1239660451
N  N19  1  0.98571000  0.70276000  0.97577000  1.0 -0.1239660451
N  N20  1  0.01429000  0.70276000  0.02423000  1.0 -0.1239660451
N  N21  1  0.29724000  0.97577000  0.01429000  1.0 -0.1239660451
N  N22  1  0.29724000  0.02423000  0.98571000  1.0 -0.1239660451
N  N23  1  0.70276000  0.97577000  0.98571000  1.0 -0.1239660451
N  N24  1  0.70276000  0.02423000  0.01429000  1.0 -0.1239660451
O  O1  1  0.66806000  0.64891000  0.79573000  1.0 -0.541312518
O  O2  1  0.33194000  0.35109000  0.79573000  1.0 -0.541312518
O  O3  1  0.33194000  0.64891000  0.20427000  1.0 -0.541312518
O  O4  1  0.66806000  0.35109000  0.20427000  1.0 -0.541312518
O  O5  1  0.79573000  0.66806000  0.64891000  1.0 -0.541312518
O  O6  1  0.79573000  0.33194000  0.35109000  1.0 -0.541312518
O  O7  1  0.20427000  0.33194000  0.64891000  1.0 -0.541312518
O  O8  1  0.20427000  0.66806000  0.35109000  1.0 -0.541312518
O  O9  1  0.64891000  0.79573000  0.66806000  1.0 -0.541312518
O  O10  1  0.35109000  0.79573000  0.33194000  1.0 -0.541312518
O  O11  1  0.64891000  0.20427000  0.33194000  1.0 -0.541312518
O  O12  1  0.35109000  0.20427000  0.66806000  1.0 -0.541312518
O  O13  1  0.14891000  0.16806000  0.29573000  1.0 -0.541312518
O  O14  1  0.85109000  0.83194000  0.29573000  1.0 -0.541312518
O  O15  1  0.14891000  0.83194000  0.70427000  1.0 -0.541312518
O  O16  1  0.85109000  0.16806000  0.70427000  1.0 -0.541312518
O  O17  1  0.16806000  0.29573000  0.14891000  1.0 -0.541312518
O  O18  1  0.83194000  0.29573000  0.85109000  1.0 -0.541312518
O  O19  1  0.83194000  0.70427000  0.14891000  1.0 -0.541312518
O  O20  1  0.16806000  0.70427000  0.85109000  1.0 -0.541312518
O  O21  1  0.29573000  0.14891000  0.16806000  1.0 -0.541312518
O  O22  1  0.29573000  0.85109000  0.83194000  1.0 -0.541312518
O  O23  1  0.70427000  0.14891000  0.83194000  1.0 -0.541312518
O  O24  1  0.70427000  0.85109000  0.16806000  1.0 -0.541312518
O  O25  1  0.74073000  0.74073000  0.74073000  1.0 -0.8543789471
O  O26  1  0.25927000  0.25927000  0.74073000  1.0 -0.8543789471
O  O27  1  0.25927000  0.74073000  0.25927000  1.0 -0.8543789471
O  O28  1  0.74073000  0.25927000  0.25927000  1.0 -0.8543789471
O  O29  1  0.24073000  0.24073000  0.24073000  1.0 -0.8543789471
O  O30  1  0.75927000  0.75927000  0.24073000  1.0 -0.8543789471
O  O31  1  0.24073000  0.75927000  0.75927000  1.0 -0.8543789471
O  O32  1  0.75927000  0.24073000  0.75927000  1.0 -0.8543789471
O  O33  1  0.76518000  0.37497000  0.77449000  1.0 -0.5310813869
O  O34  1  0.23482000  0.62503000  0.77449000  1.0 -0.5310813869
O  O35  1  0.23482000  0.37497000  0.22551000  1.0 -0.5310813869
O  O36  1  0.76518000  0.62503000  0.22551000  1.0 -0.5310813869
O  O37  1  0.77449000  0.76518000  0.37497000  1.0 -0.5310813869
O  O38  1  0.77449000  0.23482000  0.62503000  1.0 -0.5310813869
O  O39  1  0.22551000  0.23482000  0.37497000  1.0 -0.5310813869
O  O40  1  0.22551000  0.76518000  0.62503000  1.0 -0.5310813869
O  O41  1  0.37497000  0.77449000  0.76518000  1.0 -0.5310813869
O  O42  1  0.62503000  0.77449000  0.23482000  1.0 -0.5310813869
O  O43  1  0.37497000  0.22551000  0.23482000  1.0 -0.5310813869
O  O44  1  0.62503000  0.22551000  0.76518000  1.0 -0.5310813869
O  O45  1  0.87497000  0.26518000  0.27449000  1.0 -0.5310813869
O  O46  1  0.12503000  0.73482000  0.27449000  1.0 -0.5310813869
O  O47  1  0.87497000  0.73482000  0.72551000  1.0 -0.5310813869
O  O48  1  0.12503000  0.26518000  0.72551000  1.0 -0.5310813869
O  O49  1  0.26518000  0.27449000  0.87497000  1.0 -0.5310813869
O  O50  1  0.73482000  0.27449000  0.12503000  1.0 -0.5310813869
O  O51  1  0.73482000  0.72551000  0.87497000  1.0 -0.5310813869
O  O52  1  0.26518000  0.72551000  0.12503000  1.0 -0.5310813869
O  O53  1  0.27449000  0.87497000  0.26518000  1.0 -0.5310813869
O  O54  1  0.27449000  0.12503000  0.73482000  1.0 -0.5310813869
O  O55  1  0.72551000  0.87497000  0.73482000  1.0 -0.5310813869
O  O56  1  0.72551000  0.12503000  0.26518000  1.0 -0.5310813869
O  O57  1  0.75235000  0.60672000  0.75492000  1.0 -0.541312518
O  O58  1  0.24765000  0.39328000  0.75492000  1.0 -0.541312518
O  O59  1  0.24765000  0.60672000  0.24508000  1.0 -0.541312518
O  O60  1  0.75235000  0.39328000  0.24508000  1.0 -0.541312518
O  O61  1  0.75492000  0.75235000  0.60672000  1.0 -0.541312518
O  O62  1  0.75492000  0.24765000  0.39328000  1.0 -0.541312518
O  O63  1  0.24508000  0.24765000  0.60672000  1.0 -0.541312518
O  O64  1  0.24508000  0.75235000  0.39328000  1.0 -0.541312518
O  O65  1  0.60672000  0.75492000  0.75235000  1.0 -0.541312518
O  O66  1  0.39328000  0.75492000  0.24765000  1.0 -0.541312518
O  O67  1  0.60672000  0.24508000  0.24765000  1.0 -0.541312518
O  O68  1  0.39328000  0.24508000  0.75235000  1.0 -0.541312518
O  O69  1  0.10672000  0.25235000  0.25492000  1.0 -0.541312518
O  O70  1  0.89328000  0.74765000  0.25492000  1.0 -0.541312518
O  O71  1  0.10672000  0.74765000  0.74508000  1.0 -0.541312518
O  O72  1  0.89328000  0.25235000  0.74508000  1.0 -0.541312518
O  O73  1  0.25235000  0.25492000  0.10672000  1.0 -0.541312518
O  O74  1  0.74765000  0.25492000  0.89328000  1.0 -0.541312518
O  O75  1  0.74765000  0.74508000  0.10672000  1.0 -0.541312518
O  O76  1  0.25235000  0.74508000  0.89328000  1.0 -0.541312518
O  O77  1  0.25492000  0.10672000  0.25235000  1.0 -0.541312518
O  O78  1  0.25492000  0.89328000  0.74765000  1.0 -0.541312518
O  O79  1  0.74508000  0.10672000  0.74765000  1.0 -0.541312518
O  O80  1  0.74508000  0.89328000  0.25235000  1.0 -0.541312518
O  O81  1  0.68186000  0.32938000  0.81247000  1.0 -0.5515403236
O  O82  1  0.31814000  0.67062000  0.81247000  1.0 -0.5515403236
O  O83  1  0.31814000  0.32938000  0.18753000  1.0 -0.5515403236
O  O84  1  0.68186000  0.67062000  0.18753000  1.0 -0.5515403236
O  O85  1  0.81247000  0.68186000  0.32938000  1.0 -0.5515403236
O  O86  1  0.81247000  0.31814000  0.67062000  1.0 -0.5515403236
O  O87  1  0.18753000  0.31814000  0.32938000  1.0 -0.5515403236
O  O88  1  0.18753000  0.68186000  0.67062000  1.0 -0.5515403236
O  O89  1  0.32938000  0.81247000  0.68186000  1.0 -0.5515403236
O  O90  1  0.67062000  0.81247000  0.31814000  1.0 -0.5515403236
O  O91  1  0.32938000  0.18753000  0.31814000  1.0 -0.5515403236
O  O92  1  0.67062000  0.18753000  0.68186000  1.0 -0.5515403236
O  O93  1  0.82938000  0.18186000  0.31247000  1.0 -0.5515403236
O  O94  1  0.17062000  0.81814000  0.31247000  1.0 -0.5515403236
O  O95  1  0.82938000  0.81814000  0.68753000  1.0 -0.5515403236
O  O96  1  0.17062000  0.18186000  0.68753000  1.0 -0.5515403236
O  O97  1  0.18186000  0.31247000  0.82938000  1.0 -0.5515403236
O  O98  1  0.81814000  0.31247000  0.17062000  1.0 -0.5515403236
O  O99  1  0.81814000  0.68753000  0.82938000  1.0 -0.5515403236
O  O100  1  0.18186000  0.68753000  0.17062000  1.0 -0.5515403236
O  O101  1  0.31247000  0.82938000  0.18186000  1.0 -0.5515403236
O  O102  1  0.31247000  0.17062000  0.81814000  1.0 -0.5515403236
O  O103  1  0.68753000  0.82938000  0.81814000  1.0 -0.5515403236
O  O104  1  0.68753000  0.17062000  0.18186000  1.0 -0.5515403236
