# DDEC6 charges by PACMAN v1.1 (https://github.com/mtap-research/PACMAN-charge/)
data_LIDGIS_ASR_pacman
_symmetry_space_group_name_H-M   'P 1'
_cell_length_a   21.90120000
_cell_length_b   21.90120000
_cell_length_c   21.90120000
_cell_angle_alpha   90.00000000
_cell_angle_beta   90.00000000
_cell_angle_gamma   90.00000000
_symmetry_Int_Tables_number   1
_chemical_formula_structural   Fe3H9C24N3O13
_chemical_formula_sum   'Fe24 H72 C192 N24 O104'
_cell_volume   10505.18569061
_cell_formula_units_Z   8
loop_
 _symmetry_equiv_pos_site_id
 _symmetry_equiv_pos_as_xyz
  1  'x, y, z'
loop_
 _atom_site_type_symbol
 _atom_site_label
 _atom_site_symmetry_multiplicity
 _atom_site_fract_x
 _atom_site_fract_y
 _atom_site_fract_z
 _atom_site_occupancy
 _atom_site_charge
Fe  Fe1  1  0.26066000  0.19772000  0.31722000  1.0 1.1557485948
Fe  Fe2  1  0.73934000  0.80228000  0.31722000  1.0 1.1557485948
Fe  Fe3  1  0.73934000  0.19772000  0.68278000  1.0 1.1557485948
Fe  Fe4  1  0.26066000  0.80228000  0.68278000  1.0 1.1547014008
Fe  Fe5  1  0.31722000  0.26066000  0.19772000  1.0 1.1557485948
Fe  Fe6  1  0.31722000  0.73934000  0.80228000  1.0 1.1547014008
Fe  Fe7  1  0.68278000  0.73934000  0.19772000  1.0 1.1557485948
Fe  Fe8  1  0.68278000  0.26066000  0.80228000  1.0 1.1557485948
Fe  Fe9  1  0.19772000  0.31722000  0.26066000  1.0 1.1557485948
Fe  Fe10  1  0.80228000  0.31722000  0.73934000  1.0 1.1557485948
Fe  Fe11  1  0.19772000  0.68278000  0.73934000  1.0 1.1547014008
Fe  Fe12  1  0.80228000  0.68278000  0.26066000  1.0 1.1557485948
Fe  Fe13  1  0.69772000  0.76066000  0.81722000  1.0 1.1557485948
Fe  Fe14  1  0.30228000  0.23934000  0.81722000  1.0 1.1547014008
Fe  Fe15  1  0.69772000  0.23934000  0.18278000  1.0 1.1557485948
Fe  Fe16  1  0.30228000  0.76066000  0.18278000  1.0 1.1557485948
Fe  Fe17  1  0.76066000  0.81722000  0.69772000  1.0 1.1557485948
Fe  Fe18  1  0.23934000  0.81722000  0.30228000  1.0 1.1557485948
Fe  Fe19  1  0.23934000  0.18278000  0.69772000  1.0 1.1547014008
Fe  Fe20  1  0.76066000  0.18278000  0.30228000  1.0 1.1557485948
Fe  Fe21  1  0.81722000  0.69772000  0.76066000  1.0 1.1557485948
Fe  Fe22  1  0.81722000  0.30228000  0.23934000  1.0 1.1557485948
Fe  Fe23  1  0.18278000  0.69772000  0.23934000  1.0 1.1557485948
Fe  Fe24  1  0.18278000  0.30228000  0.76066000  1.0 1.1547014008
H  H1  1  0.50745000  0.22560000  0.25388000  1.0 0.1394734207
H  H2  1  0.49255000  0.77440000  0.25388000  1.0 0.1394734207
H  H3  1  0.49255000  0.22560000  0.74612000  1.0 0.1394734207
H  H4  1  0.50745000  0.77440000  0.74612000  1.0 0.1394734207
H  H5  1  0.25388000  0.50745000  0.22560000  1.0 0.1394734207
H  H6  1  0.25388000  0.49255000  0.77440000  1.0 0.1394734207
H  H7  1  0.74612000  0.49255000  0.22560000  1.0 0.1394734207
H  H8  1  0.74612000  0.50745000  0.77440000  1.0 0.1394734207
H  H9  1  0.22560000  0.25388000  0.50745000  1.0 0.1394734207
H  H10  1  0.77440000  0.25388000  0.49255000  1.0 0.1394734207
H  H11  1  0.22560000  0.74612000  0.49255000  1.0 0.1394734207
H  H12  1  0.77440000  0.74612000  0.50745000  1.0 0.1394734207
H  H13  1  0.72560000  0.00745000  0.75388000  1.0 0.1394734207
H  H14  1  0.27440000  0.99255000  0.75388000  1.0 0.1394734207
H  H15  1  0.72560000  0.99255000  0.24612000  1.0 0.1394734207
H  H16  1  0.27440000  0.00745000  0.24612000  1.0 0.1394734207
H  H17  1  0.00745000  0.75388000  0.72560000  1.0 0.1394734207
H  H18  1  0.99255000  0.75388000  0.27440000  1.0 0.1394734207
H  H19  1  0.99255000  0.24612000  0.72560000  1.0 0.1394734207
H  H20  1  0.00745000  0.24612000  0.27440000  1.0 0.1394734207
H  H21  1  0.75388000  0.72560000  0.00745000  1.0 0.1394734207
H  H22  1  0.75388000  0.27440000  0.99255000  1.0 0.1394734207
H  H23  1  0.24612000  0.72560000  0.99255000  1.0 0.1394734207
H  H24  1  0.24612000  0.27440000  0.00745000  1.0 0.1394734207
H  H25  1  0.42468000  0.20894000  0.41580000  1.0 0.1333705351
H  H26  1  0.57532000  0.79106000  0.41580000  1.0 0.1333705351
H  H27  1  0.57532000  0.20894000  0.58420000  1.0 0.1333705351
H  H28  1  0.42468000  0.79106000  0.58420000  1.0 0.1333705351
H  H29  1  0.41580000  0.42468000  0.20894000  1.0 0.1333705351
H  H30  1  0.41580000  0.57532000  0.79106000  1.0 0.1333705351
H  H31  1  0.58420000  0.57532000  0.20894000  1.0 0.1333705351
H  H32  1  0.58420000  0.42468000  0.79106000  1.0 0.1333705351
H  H33  1  0.20894000  0.41580000  0.42468000  1.0 0.1333705351
H  H34  1  0.79106000  0.41580000  0.57532000  1.0 0.1333705351
H  H35  1  0.20894000  0.58420000  0.57532000  1.0 0.1333705351
H  H36  1  0.79106000  0.58420000  0.42468000  1.0 0.1333705351
H  H37  1  0.70894000  0.92468000  0.91580000  1.0 0.1333705351
H  H38  1  0.29106000  0.07532000  0.91580000  1.0 0.1333705351
H  H39  1  0.70894000  0.07532000  0.08420000  1.0 0.1333705351
H  H40  1  0.29106000  0.92468000  0.08420000  1.0 0.1333705351
H  H41  1  0.92468000  0.91580000  0.70894000  1.0 0.1333705351
H  H42  1  0.07532000  0.91580000  0.29106000  1.0 0.1333705351
H  H43  1  0.07532000  0.08420000  0.70894000  1.0 0.1333705351
H  H44  1  0.92468000  0.08420000  0.29106000  1.0 0.1333705351
H  H45  1  0.91580000  0.70894000  0.92468000  1.0 0.1333705351
H  H46  1  0.91580000  0.29106000  0.07532000  1.0 0.1333705351
H  H47  1  0.08420000  0.70894000  0.07532000  1.0 0.1333705351
H  H48  1  0.08420000  0.29106000  0.92468000  1.0 0.1333705351
H  H49  1  0.60596000  0.19951000  0.40831000  1.0 0.1394734207
H  H50  1  0.39404000  0.80049000  0.40831000  1.0 0.1394734207
H  H51  1  0.39404000  0.19951000  0.59169000  1.0 0.1394734207
H  H52  1  0.60596000  0.80049000  0.59169000  1.0 0.1394734207
H  H53  1  0.40831000  0.60596000  0.19951000  1.0 0.1394734207
H  H54  1  0.40831000  0.39404000  0.80049000  1.0 0.1394734207
H  H55  1  0.59169000  0.39404000  0.19951000  1.0 0.1394734207
H  H56  1  0.59169000  0.60596000  0.80049000  1.0 0.1394734207
H  H57  1  0.19951000  0.40831000  0.60596000  1.0 0.1394734207
H  H58  1  0.80049000  0.40831000  0.39404000  1.0 0.1394734207
H  H59  1  0.19951000  0.59169000  0.39404000  1.0 0.1394734207
H  H60  1  0.80049000  0.59169000  0.60596000  1.0 0.1394734207
H  H61  1  0.69951000  0.10596000  0.90831000  1.0 0.1394734207
H  H62  1  0.30049000  0.89404000  0.90831000  1.0 0.1394734207
H  H63  1  0.69951000  0.89404000  0.09169000  1.0 0.1394734207
H  H64  1  0.30049000  0.10596000  0.09169000  1.0 0.1394734207
H  H65  1  0.10596000  0.90831000  0.69951000  1.0 0.1394734207
H  H66  1  0.89404000  0.90831000  0.30049000  1.0 0.1394734207
H  H67  1  0.89404000  0.09169000  0.69951000  1.0 0.1394734207
H  H68  1  0.10596000  0.09169000  0.30049000  1.0 0.1394734207
H  H69  1  0.90831000  0.69951000  0.10596000  1.0 0.1394734207
H  H70  1  0.90831000  0.30049000  0.89404000  1.0 0.1394734207
H  H71  1  0.09169000  0.69951000  0.89404000  1.0 0.1394734207
H  H72  1  0.09169000  0.30049000  0.10596000  1.0 0.1394734207
C  C1  1  0.39510000  0.21930000  0.30220000  1.0 0.605808329
C  C2  1  0.60490000  0.78070000  0.30220000  1.0 0.605808329
C  C3  1  0.60490000  0.21930000  0.69780000  1.0 0.605808329
C  C4  1  0.39510000  0.78070000  0.69780000  1.0 0.605808329
C  C5  1  0.30220000  0.39510000  0.21930000  1.0 0.605808329
C  C6  1  0.30220000  0.60490000  0.78070000  1.0 0.605808329
C  C7  1  0.69780000  0.60490000  0.21930000  1.0 0.605808329
C  C8  1  0.69780000  0.39510000  0.78070000  1.0 0.605808329
C  C9  1  0.21930000  0.30220000  0.39510000  1.0 0.605808329
C  C10  1  0.78070000  0.30220000  0.60490000  1.0 0.605808329
C  C11  1  0.21930000  0.69780000  0.60490000  1.0 0.605808329
C  C12  1  0.78070000  0.69780000  0.39510000  1.0 0.605808329
C  C13  1  0.71930000  0.89510000  0.80220000  1.0 0.605808329
C  C14  1  0.28070000  0.10490000  0.80220000  1.0 0.605808329
C  C15  1  0.71930000  0.10490000  0.19780000  1.0 0.605808329
C  C16  1  0.28070000  0.89510000  0.19780000  1.0 0.605808329
C  C17  1  0.89510000  0.80220000  0.71930000  1.0 0.605808329
C  C18  1  0.10490000  0.80220000  0.28070000  1.0 0.605808329
C  C19  1  0.10490000  0.19780000  0.71930000  1.0 0.605808329
C  C20  1  0.89510000  0.19780000  0.28070000  1.0 0.605808329
C  C21  1  0.80220000  0.71930000  0.89510000  1.0 0.605808329
C  C22  1  0.80220000  0.28070000  0.10490000  1.0 0.605808329
C  C23  1  0.19780000  0.71930000  0.10490000  1.0 0.605808329
C  C24  1  0.19780000  0.28070000  0.89510000  1.0 0.605808329
C  C25  1  0.50990000  0.21800000  0.29560000  1.0 -0.08380574
C  C26  1  0.49010000  0.78200000  0.29560000  1.0 -0.08380574
C  C27  1  0.49010000  0.21800000  0.70440000  1.0 -0.08380574
C  C28  1  0.50990000  0.78200000  0.70440000  1.0 -0.08380574
C  C29  1  0.29560000  0.50990000  0.21800000  1.0 -0.08380574
C  C30  1  0.29560000  0.49010000  0.78200000  1.0 -0.08380574
C  C31  1  0.70440000  0.49010000  0.21800000  1.0 -0.08380574
C  C32  1  0.70440000  0.50990000  0.78200000  1.0 -0.08380574
C  C33  1  0.21800000  0.29560000  0.50990000  1.0 -0.08380574
C  C34  1  0.78200000  0.29560000  0.49010000  1.0 -0.08380574
C  C35  1  0.21800000  0.70440000  0.49010000  1.0 -0.08380574
C  C36  1  0.78200000  0.70440000  0.50990000  1.0 -0.08380574
C  C37  1  0.71800000  0.00990000  0.79560000  1.0 -0.08380574
C  C38  1  0.28200000  0.99010000  0.79560000  1.0 -0.08380574
C  C39  1  0.71800000  0.99010000  0.20440000  1.0 -0.08380574
C  C40  1  0.28200000  0.00990000  0.20440000  1.0 -0.08380574
C  C41  1  0.00990000  0.79560000  0.71800000  1.0 -0.08380574
C  C42  1  0.99010000  0.79560000  0.28200000  1.0 -0.08380574
C  C43  1  0.99010000  0.20440000  0.71800000  1.0 -0.08380574
C  C44  1  0.00990000  0.20440000  0.28200000  1.0 -0.08380574
C  C45  1  0.79560000  0.71800000  0.00990000  1.0 -0.08380574
C  C46  1  0.79560000  0.28200000  0.99010000  1.0 -0.08380574
C  C47  1  0.20440000  0.71800000  0.99010000  1.0 -0.08380574
C  C48  1  0.20440000  0.28200000  0.00990000  1.0 -0.08380574
C  C49  1  0.45700000  0.21340000  0.33110000  1.0 -0.0131359195
C  C50  1  0.54300000  0.78660000  0.33110000  1.0 -0.0131359195
C  C51  1  0.54300000  0.21340000  0.66890000  1.0 -0.0131359195
C  C52  1  0.45700000  0.78660000  0.66890000  1.0 -0.0131359195
C  C53  1  0.33110000  0.45700000  0.21340000  1.0 -0.0131359195
C  C54  1  0.33110000  0.54300000  0.78660000  1.0 -0.0131359195
C  C55  1  0.66890000  0.54300000  0.21340000  1.0 -0.0131359195
C  C56  1  0.66890000  0.45700000  0.78660000  1.0 -0.0131359195
C  C57  1  0.21340000  0.33110000  0.45700000  1.0 -0.0131359195
C  C58  1  0.78660000  0.33110000  0.54300000  1.0 -0.0131359195
C  C59  1  0.21340000  0.66890000  0.54300000  1.0 -0.0131359195
C  C60  1  0.78660000  0.66890000  0.45700000  1.0 -0.0131359195
C  C61  1  0.71340000  0.95700000  0.83110000  1.0 -0.0131359195
C  C62  1  0.28660000  0.04300000  0.83110000  1.0 -0.0131359195
C  C63  1  0.71340000  0.04300000  0.16890000  1.0 -0.0131359195
C  C64  1  0.28660000  0.95700000  0.16890000  1.0 -0.0131359195
C  C65  1  0.95700000  0.83110000  0.71340000  1.0 -0.0131359195
C  C66  1  0.04300000  0.83110000  0.28660000  1.0 -0.0131359195
C  C67  1  0.04300000  0.16890000  0.71340000  1.0 -0.0131359195
C  C68  1  0.95700000  0.16890000  0.28660000  1.0 -0.0131359195
C  C69  1  0.83110000  0.71340000  0.95700000  1.0 -0.0131359195
C  C70  1  0.83110000  0.28660000  0.04300000  1.0 -0.0131359195
C  C71  1  0.16890000  0.71340000  0.04300000  1.0 -0.0131359195
C  C72  1  0.16890000  0.28660000  0.95700000  1.0 -0.0131359195
C  C73  1  0.56690000  0.21080000  0.32430000  1.0 -0.0556591312
C  C74  1  0.43310000  0.78920000  0.32430000  1.0 -0.0556591312
C  C75  1  0.43310000  0.21080000  0.67570000  1.0 -0.0556591312
C  C76  1  0.56690000  0.78920000  0.67570000  1.0 -0.0556591312
C  C77  1  0.32430000  0.56690000  0.21080000  1.0 -0.0556591312
C  C78  1  0.32430000  0.43310000  0.78920000  1.0 -0.0556591312
C  C79  1  0.67570000  0.43310000  0.21080000  1.0 -0.0556591312
C  C80  1  0.67570000  0.56690000  0.78920000  1.0 -0.0556591312
C  C81  1  0.21080000  0.32430000  0.56690000  1.0 -0.0556591312
C  C82  1  0.78920000  0.32430000  0.43310000  1.0 -0.0556591312
C  C83  1  0.21080000  0.67570000  0.43310000  1.0 -0.0556591312
C  C84  1  0.78920000  0.67570000  0.56690000  1.0 -0.0556591312
C  C85  1  0.71080000  0.06690000  0.82430000  1.0 -0.0556591312
C  C86  1  0.28920000  0.93310000  0.82430000  1.0 -0.0556591312
C  C87  1  0.71080000  0.93310000  0.17570000  1.0 -0.0556591312
C  C88  1  0.28920000  0.06690000  0.17570000  1.0 -0.0556591312
C  C89  1  0.06690000  0.82430000  0.71080000  1.0 -0.0556591312
C  C90  1  0.93310000  0.82430000  0.28920000  1.0 -0.0556591312
C  C91  1  0.93310000  0.17570000  0.71080000  1.0 -0.0556591312
C  C92  1  0.06690000  0.17570000  0.28920000  1.0 -0.0556591312
C  C93  1  0.82430000  0.71080000  0.06690000  1.0 -0.0556591312
C  C94  1  0.82430000  0.28920000  0.93310000  1.0 -0.0556591312
C  C95  1  0.17570000  0.71080000  0.93310000  1.0 -0.0556591312
C  C96  1  0.17570000  0.28920000  0.06690000  1.0 -0.0556591312
C  C97  1  0.46020000  0.21040000  0.39250000  1.0 -0.1236800499
C  C98  1  0.53980000  0.78960000  0.39250000  1.0 -0.1236800499
C  C99  1  0.53980000  0.21040000  0.60750000  1.0 -0.1236800499
C  C100  1  0.46020000  0.78960000  0.60750000  1.0 -0.1236800499
C  C101  1  0.39250000  0.46020000  0.21040000  1.0 -0.1236800499
C  C102  1  0.39250000  0.53980000  0.78960000  1.0 -0.1236800499
C  C103  1  0.60750000  0.53980000  0.21040000  1.0 -0.1236800499
C  C104  1  0.60750000  0.46020000  0.78960000  1.0 -0.1236800499
C  C105  1  0.21040000  0.39250000  0.46020000  1.0 -0.1236800499
C  C106  1  0.78960000  0.39250000  0.53980000  1.0 -0.1236800499
C  C107  1  0.21040000  0.60750000  0.53980000  1.0 -0.1236800499
C  C108  1  0.78960000  0.60750000  0.46020000  1.0 -0.1236800499
C  C109  1  0.71040000  0.96020000  0.89250000  1.0 -0.1236800499
C  C110  1  0.28960000  0.03980000  0.89250000  1.0 -0.1236800499
C  C111  1  0.71040000  0.03980000  0.10750000  1.0 -0.1236800499
C  C112  1  0.28960000  0.96020000  0.10750000  1.0 -0.1236800499
C  C113  1  0.96020000  0.89250000  0.71040000  1.0 -0.1236800499
C  C114  1  0.03980000  0.89250000  0.28960000  1.0 -0.1236800499
C  C115  1  0.03980000  0.10750000  0.71040000  1.0 -0.1236800499
C  C116  1  0.96020000  0.10750000  0.28960000  1.0 -0.1236800499
C  C117  1  0.89250000  0.71040000  0.96020000  1.0 -0.1236800499
C  C118  1  0.89250000  0.28960000  0.03980000  1.0 -0.1236800499
C  C119  1  0.10750000  0.71040000  0.03980000  1.0 -0.1236800499
C  C120  1  0.10750000  0.28960000  0.96020000  1.0 -0.1236800499
C  C121  1  0.51570000  0.20940000  0.41990000  1.0 0.1394734207
C  C122  1  0.48430000  0.79060000  0.41990000  1.0 0.1394734207
C  C123  1  0.48430000  0.20940000  0.58010000  1.0 0.1394734207
C  C124  1  0.51570000  0.79060000  0.58010000  1.0 0.1394734207
C  C125  1  0.41990000  0.51570000  0.20940000  1.0 0.1394734207
C  C126  1  0.41990000  0.48430000  0.79060000  1.0 0.1394734207
C  C127  1  0.58010000  0.48430000  0.20940000  1.0 0.1394734207
C  C128  1  0.58010000  0.51570000  0.79060000  1.0 0.1394734207
C  C129  1  0.20940000  0.41990000  0.51570000  1.0 0.1394734207
C  C130  1  0.79060000  0.41990000  0.48430000  1.0 0.1394734207
C  C131  1  0.20940000  0.58010000  0.48430000  1.0 0.1394734207
C  C132  1  0.79060000  0.58010000  0.51570000  1.0 0.1394734207
C  C133  1  0.70940000  0.01570000  0.91990000  1.0 0.1394734207
C  C134  1  0.29060000  0.98430000  0.91990000  1.0 0.1394734207
C  C135  1  0.70940000  0.98430000  0.08010000  1.0 0.1394734207
C  C136  1  0.29060000  0.01570000  0.08010000  1.0 0.1394734207
C  C137  1  0.01570000  0.91990000  0.70940000  1.0 0.1394734207
C  C138  1  0.98430000  0.91990000  0.29060000  1.0 0.1394734207
C  C139  1  0.98430000  0.08010000  0.70940000  1.0 0.1394734207
C  C140  1  0.01570000  0.08010000  0.29060000  1.0 0.1394734207
C  C141  1  0.91990000  0.70940000  0.01570000  1.0 0.1394734207
C  C142  1  0.91990000  0.29060000  0.98430000  1.0 0.1394734207
C  C143  1  0.08010000  0.70940000  0.98430000  1.0 0.1394734207
C  C144  1  0.08010000  0.29060000  0.01570000  1.0 0.1394734207
C  C145  1  0.62480000  0.21040000  0.29210000  1.0 0.5957502017
C  C146  1  0.37520000  0.78960000  0.29210000  1.0 0.5957502017
C  C147  1  0.37520000  0.21040000  0.70790000  1.0 0.5957502017
C  C148  1  0.62480000  0.78960000  0.70790000  1.0 0.5957502017
C  C149  1  0.29210000  0.62480000  0.21040000  1.0 0.5957502017
C  C150  1  0.29210000  0.37520000  0.78960000  1.0 0.5957502017
C  C151  1  0.70790000  0.37520000  0.21040000  1.0 0.5957502017
C  C152  1  0.70790000  0.62480000  0.78960000  1.0 0.5957502017
C  C153  1  0.21040000  0.29210000  0.62480000  1.0 0.5957502017
C  C154  1  0.78960000  0.29210000  0.37520000  1.0 0.5957502017
C  C155  1  0.21040000  0.70790000  0.37520000  1.0 0.5957502017
C  C156  1  0.78960000  0.70790000  0.62480000  1.0 0.5957502017
C  C157  1  0.71040000  0.12480000  0.79210000  1.0 0.5957502017
C  C158  1  0.28960000  0.87520000  0.79210000  1.0 0.5957502017
C  C159  1  0.71040000  0.87520000  0.20790000  1.0 0.5957502017
C  C160  1  0.28960000  0.12480000  0.20790000  1.0 0.5957502017
C  C161  1  0.12480000  0.79210000  0.71040000  1.0 0.5957502017
C  C162  1  0.87520000  0.79210000  0.28960000  1.0 0.5957502017
C  C163  1  0.87520000  0.20790000  0.71040000  1.0 0.5957502017
C  C164  1  0.12480000  0.20790000  0.28960000  1.0 0.5957502017
C  C165  1  0.79210000  0.71040000  0.12480000  1.0 0.5957502017
C  C166  1  0.79210000  0.28960000  0.87520000  1.0 0.5957502017
C  C167  1  0.20790000  0.71040000  0.87520000  1.0 0.5957502017
C  C168  1  0.20790000  0.28960000  0.12480000  1.0 0.5957502017
C  C169  1  0.56910000  0.20550000  0.38820000  1.0 -0.1403678467
C  C170  1  0.43090000  0.79450000  0.38820000  1.0 -0.1403678467
C  C171  1  0.43090000  0.20550000  0.61180000  1.0 -0.1403678467
C  C172  1  0.56910000  0.79450000  0.61180000  1.0 -0.1403678467
C  C173  1  0.38820000  0.56910000  0.20550000  1.0 -0.1403678467
C  C174  1  0.38820000  0.43090000  0.79450000  1.0 -0.1403678467
C  C175  1  0.61180000  0.43090000  0.20550000  1.0 -0.1403678467
C  C176  1  0.61180000  0.56910000  0.79450000  1.0 -0.1403678467
C  C177  1  0.20550000  0.38820000  0.56910000  1.0 -0.1403678467
C  C178  1  0.79450000  0.38820000  0.43090000  1.0 -0.1403678467
C  C179  1  0.20550000  0.61180000  0.43090000  1.0 -0.1403678467
C  C180  1  0.79450000  0.61180000  0.56910000  1.0 -0.1403678467
C  C181  1  0.70550000  0.06910000  0.88820000  1.0 -0.1403678467
C  C182  1  0.29450000  0.93090000  0.88820000  1.0 -0.1403678467
C  C183  1  0.70550000  0.93090000  0.11180000  1.0 -0.1403678467
C  C184  1  0.29450000  0.06910000  0.11180000  1.0 -0.1403678467
C  C185  1  0.06910000  0.88820000  0.70550000  1.0 -0.1403678467
C  C186  1  0.93090000  0.88820000  0.29450000  1.0 -0.1403678467
C  C187  1  0.93090000  0.11180000  0.70550000  1.0 -0.1403678467
C  C188  1  0.06910000  0.11180000  0.29450000  1.0 -0.1403678467
C  C189  1  0.88820000  0.70550000  0.06910000  1.0 -0.1403678467
C  C190  1  0.88820000  0.29450000  0.93090000  1.0 -0.1403678467
C  C191  1  0.11180000  0.70550000  0.93090000  1.0 -0.1403678467
C  C192  1  0.11180000  0.29450000  0.06910000  1.0 -0.1403678467
N  N1  1  0.52320000  0.20430000  0.48660000  1.0 -0.08380574
N  N2  1  0.47680000  0.79570000  0.48660000  1.0 -0.08380574
N  N3  1  0.47680000  0.20430000  0.51340000  1.0 -0.08380574
N  N4  1  0.52320000  0.79570000  0.51340000  1.0 -0.08380574
N  N5  1  0.48660000  0.52320000  0.20430000  1.0 -0.08380574
N  N6  1  0.48660000  0.47680000  0.79570000  1.0 -0.08380574
N  N7  1  0.51340000  0.47680000  0.20430000  1.0 -0.08380574
N  N8  1  0.51340000  0.52320000  0.79570000  1.0 -0.08380574
N  N9  1  0.20430000  0.48660000  0.52320000  1.0 -0.08380574
N  N10  1  0.79570000  0.48660000  0.47680000  1.0 -0.08380574
N  N11  1  0.20430000  0.51340000  0.47680000  1.0 -0.08380574
N  N12  1  0.79570000  0.51340000  0.52320000  1.0 -0.08380574
N  N13  1  0.70430000  0.02320000  0.98660000  1.0 -0.08380574
N  N14  1  0.29570000  0.97680000  0.98660000  1.0 -0.08380574
N  N15  1  0.70430000  0.97680000  0.01340000  1.0 -0.08380574
N  N16  1  0.29570000  0.02320000  0.01340000  1.0 -0.0852148941
N  N17  1  0.02320000  0.98660000  0.70430000  1.0 -0.08380574
N  N18  1  0.97680000  0.98660000  0.29570000  1.0 -0.08380574
N  N19  1  0.97680000  0.01340000  0.70430000  1.0 -0.08380574
N  N20  1  0.02320000  0.01340000  0.29570000  1.0 -0.0852148941
N  N21  1  0.98660000  0.70430000  0.02320000  1.0 -0.08380574
N  N22  1  0.98660000  0.29570000  0.97680000  1.0 -0.08380574
N  N23  1  0.01340000  0.70430000  0.97680000  1.0 -0.08380574
N  N24  1  0.01340000  0.29570000  0.02320000  1.0 -0.08380574
O  O1  1  0.62490000  0.22260000  0.23630000  1.0 -0.5224228197
O  O2  1  0.37510000  0.77740000  0.23630000  1.0 -0.5224228197
O  O3  1  0.37510000  0.22260000  0.76370000  1.0 -0.5224228197
O  O4  1  0.62490000  0.77740000  0.76370000  1.0 -0.5224228197
O  O5  1  0.23630000  0.62490000  0.22260000  1.0 -0.5224228197
O  O6  1  0.23630000  0.37510000  0.77740000  1.0 -0.5224228197
O  O7  1  0.76370000  0.37510000  0.22260000  1.0 -0.5224228197
O  O8  1  0.76370000  0.62490000  0.77740000  1.0 -0.5224228197
O  O9  1  0.22260000  0.23630000  0.62490000  1.0 -0.5224228197
O  O10  1  0.77740000  0.23630000  0.37510000  1.0 -0.5224228197
O  O11  1  0.22260000  0.76370000  0.37510000  1.0 -0.5224228197
O  O12  1  0.77740000  0.76370000  0.62490000  1.0 -0.5224228197
O  O13  1  0.72260000  0.12490000  0.73630000  1.0 -0.5224228197
O  O14  1  0.27740000  0.87510000  0.73630000  1.0 -0.5224228197
O  O15  1  0.72260000  0.87510000  0.26370000  1.0 -0.5224228197
O  O16  1  0.27740000  0.12490000  0.26370000  1.0 -0.5224228197
O  O17  1  0.12490000  0.73630000  0.72260000  1.0 -0.5224228197
O  O18  1  0.87510000  0.73630000  0.27740000  1.0 -0.5224228197
O  O19  1  0.87510000  0.26370000  0.72260000  1.0 -0.5224228197
O  O20  1  0.12490000  0.26370000  0.27740000  1.0 -0.5224228197
O  O21  1  0.73630000  0.72260000  0.12490000  1.0 -0.5224228197
O  O22  1  0.73630000  0.27740000  0.87510000  1.0 -0.5224228197
O  O23  1  0.26370000  0.72260000  0.87510000  1.0 -0.5224228197
O  O24  1  0.26370000  0.27740000  0.12490000  1.0 -0.5224228197
O  O25  1  0.34870000  0.20390000  0.33210000  1.0 -0.5224228197
O  O26  1  0.65130000  0.79610000  0.33210000  1.0 -0.5224228197
O  O27  1  0.65130000  0.20390000  0.66790000  1.0 -0.5224228197
O  O28  1  0.34870000  0.79610000  0.66790000  1.0 -0.5224228197
O  O29  1  0.33210000  0.34870000  0.20390000  1.0 -0.5224228197
O  O30  1  0.33210000  0.65130000  0.79610000  1.0 -0.5224228197
O  O31  1  0.66790000  0.65130000  0.20390000  1.0 -0.5224228197
O  O32  1  0.66790000  0.34870000  0.79610000  1.0 -0.5224228197
O  O33  1  0.20390000  0.33210000  0.34870000  1.0 -0.5224228197
O  O34  1  0.79610000  0.33210000  0.65130000  1.0 -0.5224228197
O  O35  1  0.20390000  0.66790000  0.65130000  1.0 -0.5224228197
O  O36  1  0.79610000  0.66790000  0.34870000  1.0 -0.5224228197
O  O37  1  0.70390000  0.84870000  0.83210000  1.0 -0.5224228197
O  O38  1  0.29610000  0.15130000  0.83210000  1.0 -0.5224228197
O  O39  1  0.70390000  0.15130000  0.16790000  1.0 -0.5224228197
O  O40  1  0.29610000  0.84870000  0.16790000  1.0 -0.5224228197
O  O41  1  0.84870000  0.83210000  0.70390000  1.0 -0.5224228197
O  O42  1  0.15130000  0.83210000  0.29610000  1.0 -0.5224228197
O  O43  1  0.15130000  0.16790000  0.70390000  1.0 -0.5224228197
O  O44  1  0.84870000  0.16790000  0.29610000  1.0 -0.5224228197
O  O45  1  0.83210000  0.70390000  0.84870000  1.0 -0.5224228197
O  O46  1  0.83210000  0.29610000  0.15130000  1.0 -0.5224228197
O  O47  1  0.16790000  0.70390000  0.15130000  1.0 -0.5224228197
O  O48  1  0.16790000  0.29610000  0.84870000  1.0 -0.5224228197
O  O49  1  0.25980000  0.25980000  0.25980000  1.0 -0.8408541193
O  O50  1  0.74020000  0.74020000  0.25980000  1.0 -0.8408541193
O  O51  1  0.74020000  0.25980000  0.74020000  1.0 -0.8408541193
O  O52  1  0.25980000  0.74020000  0.74020000  1.0 -0.8408541193
O  O53  1  0.75980000  0.75980000  0.75980000  1.0 -0.8408541193
O  O54  1  0.24020000  0.24020000  0.75980000  1.0 -0.8408541193
O  O55  1  0.75980000  0.24020000  0.24020000  1.0 -0.8408541193
O  O56  1  0.24020000  0.75980000  0.24020000  1.0 -0.8408541193
O  O57  1  0.39480000  0.24430000  0.24810000  1.0 -0.5607111017
O  O58  1  0.60520000  0.75570000  0.24810000  1.0 -0.5607111017
O  O59  1  0.60520000  0.24430000  0.75190000  1.0 -0.5607111017
O  O60  1  0.39480000  0.75570000  0.75190000  1.0 -0.5607111017
O  O61  1  0.24810000  0.39480000  0.24430000  1.0 -0.5607111017
O  O62  1  0.24810000  0.60520000  0.75570000  1.0 -0.5607111017
O  O63  1  0.75190000  0.60520000  0.24430000  1.0 -0.5607111017
O  O64  1  0.75190000  0.39480000  0.75570000  1.0 -0.5607111017
O  O65  1  0.24430000  0.24810000  0.39480000  1.0 -0.5607111017
O  O66  1  0.75570000  0.24810000  0.60520000  1.0 -0.5607111017
O  O67  1  0.24430000  0.75190000  0.60520000  1.0 -0.5607111017
O  O68  1  0.75570000  0.75190000  0.39480000  1.0 -0.5607111017
O  O69  1  0.74430000  0.89480000  0.74810000  1.0 -0.5607111017
O  O70  1  0.25570000  0.10520000  0.74810000  1.0 -0.5607111017
O  O71  1  0.74430000  0.10520000  0.25190000  1.0 -0.5607111017
O  O72  1  0.25570000  0.89480000  0.25190000  1.0 -0.5607111017
O  O73  1  0.89480000  0.74810000  0.74430000  1.0 -0.5607111017
O  O74  1  0.10520000  0.74810000  0.25570000  1.0 -0.5607111017
O  O75  1  0.10520000  0.25190000  0.74430000  1.0 -0.5607111017
O  O76  1  0.89480000  0.25190000  0.25570000  1.0 -0.5607111017
O  O77  1  0.74810000  0.74430000  0.89480000  1.0 -0.5607111017
O  O78  1  0.74810000  0.25570000  0.10520000  1.0 -0.5607111017
O  O79  1  0.25190000  0.74430000  0.10520000  1.0 -0.5607111017
O  O80  1  0.25190000  0.25570000  0.89480000  1.0 -0.5607111017
O  O81  1  0.66940000  0.18850000  0.31830000  1.0 -0.5224228197
O  O82  1  0.33060000  0.81150000  0.31830000  1.0 -0.5224228197
O  O83  1  0.33060000  0.18850000  0.68170000  1.0 -0.5224228197
O  O84  1  0.66940000  0.81150000  0.68170000  1.0 -0.5224228197
O  O85  1  0.31830000  0.66940000  0.18850000  1.0 -0.5224228197
O  O86  1  0.31830000  0.33060000  0.81150000  1.0 -0.5224228197
O  O87  1  0.68170000  0.33060000  0.18850000  1.0 -0.5224228197
O  O88  1  0.68170000  0.66940000  0.81150000  1.0 -0.5224228197
O  O89  1  0.18850000  0.31830000  0.66940000  1.0 -0.5224228197
O  O90  1  0.81150000  0.31830000  0.33060000  1.0 -0.5224228197
O  O91  1  0.18850000  0.68170000  0.33060000  1.0 -0.5224228197
O  O92  1  0.81150000  0.68170000  0.66940000  1.0 -0.5224228197
O  O93  1  0.68850000  0.16940000  0.81830000  1.0 -0.5224228197
O  O94  1  0.31150000  0.83060000  0.81830000  1.0 -0.5224228197
O  O95  1  0.68850000  0.83060000  0.18170000  1.0 -0.5224228197
O  O96  1  0.31150000  0.16940000  0.18170000  1.0 -0.5224228197
O  O97  1  0.16940000  0.81830000  0.68850000  1.0 -0.5224228197
O  O98  1  0.83060000  0.81830000  0.31150000  1.0 -0.5224228197
O  O99  1  0.83060000  0.18170000  0.68850000  1.0 -0.5224228197
O  O100  1  0.16940000  0.18170000  0.31150000  1.0 -0.5224228197
O  O101  1  0.81830000  0.68850000  0.16940000  1.0 -0.5224228197
O  O102  1  0.81830000  0.31150000  0.83060000  1.0 -0.5224228197
O  O103  1  0.18170000  0.68850000  0.83060000  1.0 -0.5224228197
O  O104  1  0.18170000  0.31150000  0.16940000  1.0 -0.5224228197
