# DDEC6 charges by PACMAN v1.1 (https://github.com/mtap-research/PACMAN-charge/)
data_LIDHAL_ASR_pacman
_symmetry_space_group_name_H-M   'P 1'
_cell_length_a   21.92140000
_cell_length_b   21.92140000
_cell_length_c   21.92140000
_cell_angle_alpha   90.00000000
_cell_angle_beta   90.00000000
_cell_angle_gamma   90.00000000
_symmetry_Int_Tables_number   1
_chemical_formula_structural   Fe3H9C24N3O13
_chemical_formula_sum   'Fe24 H72 C192 N24 O104'
_cell_volume   10534.28005977
_cell_formula_units_Z   8
loop_
 _symmetry_equiv_pos_site_id
 _symmetry_equiv_pos_as_xyz
  1  'x, y, z'
loop_
 _atom_site_type_symbol
 _atom_site_label
 _atom_site_symmetry_multiplicity
 _atom_site_fract_x
 _atom_site_fract_y
 _atom_site_fract_z
 _atom_site_occupancy
 _atom_site_charge
Fe  Fe1  1  0.68297000  0.19789000  0.73942000  1.0 1.1379375349
Fe  Fe2  1  0.31703000  0.80211000  0.73942000  1.0 1.1379375349
Fe  Fe3  1  0.31703000  0.19789000  0.26058000  1.0 1.1379375349
Fe  Fe4  1  0.68297000  0.80211000  0.26058000  1.0 1.1379375349
Fe  Fe5  1  0.73942000  0.68297000  0.19789000  1.0 1.1379375349
Fe  Fe6  1  0.73942000  0.31703000  0.80211000  1.0 1.1379375349
Fe  Fe7  1  0.26058000  0.31703000  0.19789000  1.0 1.1379375349
Fe  Fe8  1  0.26058000  0.68297000  0.80211000  1.0 1.1379375349
Fe  Fe9  1  0.19789000  0.73942000  0.68297000  1.0 1.1379375349
Fe  Fe10  1  0.80211000  0.73942000  0.31703000  1.0 1.1379375349
Fe  Fe11  1  0.19789000  0.26058000  0.31703000  1.0 1.1379375349
Fe  Fe12  1  0.80211000  0.26058000  0.68297000  1.0 1.1379375349
Fe  Fe13  1  0.69789000  0.18297000  0.23942000  1.0 1.1379375349
Fe  Fe14  1  0.30211000  0.81703000  0.23942000  1.0 1.1379375349
Fe  Fe15  1  0.69789000  0.81703000  0.76058000  1.0 1.1379375349
Fe  Fe16  1  0.30211000  0.18297000  0.76058000  1.0 1.1379375349
Fe  Fe17  1  0.18297000  0.23942000  0.69789000  1.0 1.1379375349
Fe  Fe18  1  0.81703000  0.23942000  0.30211000  1.0 1.1379375349
Fe  Fe19  1  0.81703000  0.76058000  0.69789000  1.0 1.1379375349
Fe  Fe20  1  0.18297000  0.76058000  0.30211000  1.0 1.1379375349
Fe  Fe21  1  0.23942000  0.69789000  0.18297000  1.0 1.1379375349
Fe  Fe22  1  0.23942000  0.30211000  0.81703000  1.0 1.1379375349
Fe  Fe23  1  0.76058000  0.69789000  0.81703000  1.0 1.1379375349
Fe  Fe24  1  0.76058000  0.30211000  0.18297000  1.0 1.1379375349
H  H1  1  0.74542000  0.22609000  0.49180000  1.0 0.1416500653
H  H2  1  0.25458000  0.77391000  0.49180000  1.0 0.1416500653
H  H3  1  0.25458000  0.22609000  0.50820000  1.0 0.1416500653
H  H4  1  0.74542000  0.77391000  0.50820000  1.0 0.1416500653
H  H5  1  0.49180000  0.74542000  0.22609000  1.0 0.1416500653
H  H6  1  0.49180000  0.25458000  0.77391000  1.0 0.1416500653
H  H7  1  0.50820000  0.25458000  0.22609000  1.0 0.1416500653
H  H8  1  0.50820000  0.74542000  0.77391000  1.0 0.1416500653
H  H9  1  0.22609000  0.49180000  0.74542000  1.0 0.1416500653
H  H10  1  0.77391000  0.49180000  0.25458000  1.0 0.1416500653
H  H11  1  0.22609000  0.50820000  0.25458000  1.0 0.1416500653
H  H12  1  0.77391000  0.50820000  0.74542000  1.0 0.1416500653
H  H13  1  0.72609000  0.24542000  0.99180000  1.0 0.1416500653
H  H14  1  0.27391000  0.75458000  0.99180000  1.0 0.1416500653
H  H15  1  0.72609000  0.75458000  0.00820000  1.0 0.1416500653
H  H16  1  0.27391000  0.24542000  0.00820000  1.0 0.1416500653
H  H17  1  0.24542000  0.99180000  0.72609000  1.0 0.1416500653
H  H18  1  0.75458000  0.99180000  0.27391000  1.0 0.1416500653
H  H19  1  0.75458000  0.00820000  0.72609000  1.0 0.1416500653
H  H20  1  0.24542000  0.00820000  0.27391000  1.0 0.1416500653
H  H21  1  0.99180000  0.72609000  0.24542000  1.0 0.1416500653
H  H22  1  0.99180000  0.27391000  0.75458000  1.0 0.1416500653
H  H23  1  0.00820000  0.72609000  0.75458000  1.0 0.1416500653
H  H24  1  0.00820000  0.27391000  0.24542000  1.0 0.1416500653
H  H25  1  0.58562000  0.20988000  0.57543000  1.0 0.1342419725
H  H26  1  0.41438000  0.79012000  0.57543000  1.0 0.1342419725
H  H27  1  0.41438000  0.20988000  0.42457000  1.0 0.1342419725
H  H28  1  0.58562000  0.79012000  0.42457000  1.0 0.1342419725
H  H29  1  0.57543000  0.58562000  0.20988000  1.0 0.1342419725
H  H30  1  0.57543000  0.41438000  0.79012000  1.0 0.1342419725
H  H31  1  0.42457000  0.41438000  0.20988000  1.0 0.1342419725
H  H32  1  0.42457000  0.58562000  0.79012000  1.0 0.1342419725
H  H33  1  0.20988000  0.57543000  0.58562000  1.0 0.1342419725
H  H34  1  0.79012000  0.57543000  0.41438000  1.0 0.1342419725
H  H35  1  0.20988000  0.42457000  0.41438000  1.0 0.1342419725
H  H36  1  0.79012000  0.42457000  0.58562000  1.0 0.1342419725
H  H37  1  0.70988000  0.08562000  0.07543000  1.0 0.1342419725
H  H38  1  0.29012000  0.91438000  0.07543000  1.0 0.1342419725
H  H39  1  0.70988000  0.91438000  0.92457000  1.0 0.1342419725
H  H40  1  0.29012000  0.08562000  0.92457000  1.0 0.1342419725
H  H41  1  0.08562000  0.07543000  0.70988000  1.0 0.1342419725
H  H42  1  0.91438000  0.07543000  0.29012000  1.0 0.1342419725
H  H43  1  0.91438000  0.92457000  0.70988000  1.0 0.1342419725
H  H44  1  0.08562000  0.92457000  0.29012000  1.0 0.1342419725
H  H45  1  0.07543000  0.70988000  0.08562000  1.0 0.1342419725
H  H46  1  0.07543000  0.29012000  0.91438000  1.0 0.1342419725
H  H47  1  0.92457000  0.70988000  0.91438000  1.0 0.1342419725
H  H48  1  0.92457000  0.29012000  0.08562000  1.0 0.1342419725
H  H49  1  0.59245000  0.20036000  0.39424000  1.0 0.1416500653
H  H50  1  0.40755000  0.79964000  0.39424000  1.0 0.1416500653
H  H51  1  0.40755000  0.20036000  0.60576000  1.0 0.1416500653
H  H52  1  0.59245000  0.79964000  0.60576000  1.0 0.1416500653
H  H53  1  0.39424000  0.59245000  0.20036000  1.0 0.1416500653
H  H54  1  0.39424000  0.40755000  0.79964000  1.0 0.1416500653
H  H55  1  0.60576000  0.40755000  0.20036000  1.0 0.1416500653
H  H56  1  0.60576000  0.59245000  0.79964000  1.0 0.1416500653
H  H57  1  0.20036000  0.39424000  0.59245000  1.0 0.1416500653
H  H58  1  0.79964000  0.39424000  0.40755000  1.0 0.1416500653
H  H59  1  0.20036000  0.60576000  0.40755000  1.0 0.1416500653
H  H60  1  0.79964000  0.60576000  0.59245000  1.0 0.1416500653
H  H61  1  0.70036000  0.09245000  0.89424000  1.0 0.1416500653
H  H62  1  0.29964000  0.90755000  0.89424000  1.0 0.1416500653
H  H63  1  0.70036000  0.90755000  0.10576000  1.0 0.1416500653
H  H64  1  0.29964000  0.09245000  0.10576000  1.0 0.1416500653
H  H65  1  0.09245000  0.89424000  0.70036000  1.0 0.1416500653
H  H66  1  0.90755000  0.89424000  0.29964000  1.0 0.1416500653
H  H67  1  0.90755000  0.10576000  0.70036000  1.0 0.1416500653
H  H68  1  0.09245000  0.10576000  0.29964000  1.0 0.1416500653
H  H69  1  0.89424000  0.70036000  0.09245000  1.0 0.1416500653
H  H70  1  0.89424000  0.29964000  0.90755000  1.0 0.1416500653
H  H71  1  0.10576000  0.70036000  0.90755000  1.0 0.1416500653
H  H72  1  0.10576000  0.29964000  0.09245000  1.0 0.1416500653
C  C1  1  0.70380000  0.21800000  0.48960000  1.0 -0.0791752351
C  C2  1  0.29620000  0.78200000  0.48960000  1.0 -0.0791752351
C  C3  1  0.29620000  0.21800000  0.51040000  1.0 -0.0791752351
C  C4  1  0.70380000  0.78200000  0.51040000  1.0 -0.0791752351
C  C5  1  0.48960000  0.70380000  0.21800000  1.0 -0.0791752351
C  C6  1  0.48960000  0.29620000  0.78200000  1.0 -0.0791752351
C  C7  1  0.51040000  0.29620000  0.21800000  1.0 -0.0791752351
C  C8  1  0.51040000  0.70380000  0.78200000  1.0 -0.0791752351
C  C9  1  0.21800000  0.48960000  0.70380000  1.0 -0.0791752351
C  C10  1  0.78200000  0.48960000  0.29620000  1.0 -0.0791752351
C  C11  1  0.21800000  0.51040000  0.29620000  1.0 -0.0791752351
C  C12  1  0.78200000  0.51040000  0.70380000  1.0 -0.0791752351
C  C13  1  0.71800000  0.20380000  0.98960000  1.0 -0.0791752351
C  C14  1  0.28200000  0.79620000  0.98960000  1.0 -0.0791752351
C  C15  1  0.71800000  0.79620000  0.01040000  1.0 -0.0791752351
C  C16  1  0.28200000  0.20380000  0.01040000  1.0 -0.0791752351
C  C17  1  0.20380000  0.98960000  0.71800000  1.0 -0.0791752351
C  C18  1  0.79620000  0.98960000  0.28200000  1.0 -0.0791752351
C  C19  1  0.79620000  0.01040000  0.71800000  1.0 -0.0791752351
C  C20  1  0.20380000  0.01040000  0.28200000  1.0 -0.0791752351
C  C21  1  0.98960000  0.71800000  0.20380000  1.0 -0.0791752351
C  C22  1  0.98960000  0.28200000  0.79620000  1.0 -0.0791752351
C  C23  1  0.01040000  0.71800000  0.79620000  1.0 -0.0791752351
C  C24  1  0.01040000  0.28200000  0.20380000  1.0 -0.0791752351
C  C25  1  0.69850000  0.21930000  0.60470000  1.0 0.6090425592
C  C26  1  0.30150000  0.78070000  0.60470000  1.0 0.6090425592
C  C27  1  0.30150000  0.21930000  0.39530000  1.0 0.6090425592
C  C28  1  0.69850000  0.78070000  0.39530000  1.0 0.6090425592
C  C29  1  0.60470000  0.69850000  0.21930000  1.0 0.6090425592
C  C30  1  0.60470000  0.30150000  0.78070000  1.0 0.6090425592
C  C31  1  0.39530000  0.30150000  0.21930000  1.0 0.6090425592
C  C32  1  0.39530000  0.69850000  0.78070000  1.0 0.6090425592
C  C33  1  0.21930000  0.60470000  0.69850000  1.0 0.6090425592
C  C34  1  0.78070000  0.60470000  0.30150000  1.0 0.6090425592
C  C35  1  0.21930000  0.39530000  0.30150000  1.0 0.6090425592
C  C36  1  0.78070000  0.39530000  0.69850000  1.0 0.6090425592
C  C37  1  0.71930000  0.19850000  0.10470000  1.0 0.6090425592
C  C38  1  0.28070000  0.80150000  0.10470000  1.0 0.6090425592
C  C39  1  0.71930000  0.80150000  0.89530000  1.0 0.6090425592
C  C40  1  0.28070000  0.19850000  0.89530000  1.0 0.6090425592
C  C41  1  0.19850000  0.10470000  0.71930000  1.0 0.6090425592
C  C42  1  0.80150000  0.10470000  0.28070000  1.0 0.6090425592
C  C43  1  0.80150000  0.89530000  0.71930000  1.0 0.6090425592
C  C44  1  0.19850000  0.89530000  0.28070000  1.0 0.6090425592
C  C45  1  0.10470000  0.71930000  0.19850000  1.0 0.6090425592
C  C46  1  0.10470000  0.28070000  0.80150000  1.0 0.6090425592
C  C47  1  0.89530000  0.71930000  0.80150000  1.0 0.6090425592
C  C48  1  0.89530000  0.28070000  0.19850000  1.0 0.6090425592
C  C49  1  0.67540000  0.21030000  0.43260000  1.0 -0.0650833829
C  C50  1  0.32460000  0.78970000  0.43260000  1.0 -0.0650833829
C  C51  1  0.32460000  0.21030000  0.56740000  1.0 -0.0650833829
C  C52  1  0.67540000  0.78970000  0.56740000  1.0 -0.0650833829
C  C53  1  0.43260000  0.67540000  0.21030000  1.0 -0.0650833829
C  C54  1  0.43260000  0.32460000  0.78970000  1.0 -0.0650833829
C  C55  1  0.56740000  0.32460000  0.21030000  1.0 -0.0650833829
C  C56  1  0.56740000  0.67540000  0.78970000  1.0 -0.0650833829
C  C57  1  0.21030000  0.43260000  0.67540000  1.0 -0.0650833829
C  C58  1  0.78970000  0.43260000  0.32460000  1.0 -0.0650833829
C  C59  1  0.21030000  0.56740000  0.32460000  1.0 -0.0650833829
C  C60  1  0.78970000  0.56740000  0.67540000  1.0 -0.0650833829
C  C61  1  0.71030000  0.17540000  0.93260000  1.0 -0.0650833829
C  C62  1  0.28970000  0.82460000  0.93260000  1.0 -0.0650833829
C  C63  1  0.71030000  0.82460000  0.06740000  1.0 -0.0650833829
C  C64  1  0.28970000  0.17540000  0.06740000  1.0 -0.0650833829
C  C65  1  0.17540000  0.93260000  0.71030000  1.0 -0.0650833829
C  C66  1  0.82460000  0.93260000  0.28970000  1.0 -0.0650833829
C  C67  1  0.82460000  0.06740000  0.71030000  1.0 -0.0650833829
C  C68  1  0.17540000  0.06740000  0.28970000  1.0 -0.0650833829
C  C69  1  0.93260000  0.71030000  0.17540000  1.0 -0.0650833829
C  C70  1  0.93260000  0.28970000  0.82460000  1.0 -0.0650833829
C  C71  1  0.06740000  0.71030000  0.82460000  1.0 -0.0650833829
C  C72  1  0.06740000  0.28970000  0.17540000  1.0 -0.0650833829
C  C73  1  0.66930000  0.21350000  0.54290000  1.0 -0.0128193308
C  C74  1  0.33070000  0.78650000  0.54290000  1.0 -0.0128193308
C  C75  1  0.33070000  0.21350000  0.45710000  1.0 -0.0128193308
C  C76  1  0.66930000  0.78650000  0.45710000  1.0 -0.0128193308
C  C77  1  0.54290000  0.66930000  0.21350000  1.0 -0.0128193308
C  C78  1  0.54290000  0.33070000  0.78650000  1.0 -0.0128193308
C  C79  1  0.45710000  0.33070000  0.21350000  1.0 -0.0128193308
C  C80  1  0.45710000  0.66930000  0.78650000  1.0 -0.0128193308
C  C81  1  0.21350000  0.54290000  0.66930000  1.0 -0.0128193308
C  C82  1  0.78650000  0.54290000  0.33070000  1.0 -0.0128193308
C  C83  1  0.21350000  0.45710000  0.33070000  1.0 -0.0128193308
C  C84  1  0.78650000  0.45710000  0.66930000  1.0 -0.0128193308
C  C85  1  0.71350000  0.16930000  0.04290000  1.0 -0.0128193308
C  C86  1  0.28650000  0.83070000  0.04290000  1.0 -0.0128193308
C  C87  1  0.71350000  0.83070000  0.95710000  1.0 -0.0128193308
C  C88  1  0.28650000  0.16930000  0.95710000  1.0 -0.0128193308
C  C89  1  0.16930000  0.04290000  0.71350000  1.0 -0.0128193308
C  C90  1  0.83070000  0.04290000  0.28650000  1.0 -0.0128193308
C  C91  1  0.83070000  0.95710000  0.71350000  1.0 -0.0128193308
C  C92  1  0.16930000  0.95710000  0.28650000  1.0 -0.0128193308
C  C93  1  0.04290000  0.71350000  0.16930000  1.0 -0.0128193308
C  C94  1  0.04290000  0.28650000  0.83070000  1.0 -0.0128193308
C  C95  1  0.95710000  0.71350000  0.83070000  1.0 -0.0128193308
C  C96  1  0.95710000  0.28650000  0.16930000  1.0 -0.0128193308
C  C97  1  0.58000000  0.20920000  0.48440000  1.0 0.1416500653
C  C98  1  0.42000000  0.79080000  0.48440000  1.0 0.1416500653
C  C99  1  0.42000000  0.20920000  0.51560000  1.0 0.1416500653
C  C100  1  0.58000000  0.79080000  0.51560000  1.0 0.1416500653
C  C101  1  0.48440000  0.58000000  0.20920000  1.0 0.1416500653
C  C102  1  0.48440000  0.42000000  0.79080000  1.0 0.1416500653
C  C103  1  0.51560000  0.42000000  0.20920000  1.0 0.1416500653
C  C104  1  0.51560000  0.58000000  0.79080000  1.0 0.1416500653
C  C105  1  0.20920000  0.48440000  0.58000000  1.0 0.1416500653
C  C106  1  0.79080000  0.48440000  0.42000000  1.0 0.1416500653
C  C107  1  0.20920000  0.51560000  0.42000000  1.0 0.1416500653
C  C108  1  0.79080000  0.51560000  0.58000000  1.0 0.1416500653
C  C109  1  0.70920000  0.08000000  0.98440000  1.0 0.1416500653
C  C110  1  0.29080000  0.92000000  0.98440000  1.0 0.1416500653
C  C111  1  0.70920000  0.92000000  0.01560000  1.0 0.1416500653
C  C112  1  0.29080000  0.08000000  0.01560000  1.0 0.1416500653
C  C113  1  0.08000000  0.98440000  0.70920000  1.0 0.1416500653
C  C114  1  0.92000000  0.98440000  0.29080000  1.0 0.1416500653
C  C115  1  0.92000000  0.01560000  0.70920000  1.0 0.1416500653
C  C116  1  0.08000000  0.01560000  0.29080000  1.0 0.1416500653
C  C117  1  0.98440000  0.70920000  0.08000000  1.0 0.1416500653
C  C118  1  0.98440000  0.29080000  0.92000000  1.0 0.1416500653
C  C119  1  0.01560000  0.70920000  0.92000000  1.0 0.1416500653
C  C120  1  0.01560000  0.29080000  0.08000000  1.0 0.1416500653
C  C121  1  0.60860000  0.21070000  0.53980000  1.0 -0.1188029606
C  C122  1  0.39140000  0.78930000  0.53980000  1.0 -0.1188029606
C  C123  1  0.39140000  0.21070000  0.46020000  1.0 -0.1188029606
C  C124  1  0.60860000  0.78930000  0.46020000  1.0 -0.1188029606
C  C125  1  0.53980000  0.60860000  0.21070000  1.0 -0.1188029606
C  C126  1  0.53980000  0.39140000  0.78930000  1.0 -0.1188029606
C  C127  1  0.46020000  0.39140000  0.21070000  1.0 -0.1188029606
C  C128  1  0.46020000  0.60860000  0.78930000  1.0 -0.1188029606
C  C129  1  0.21070000  0.53980000  0.60860000  1.0 -0.1188029606
C  C130  1  0.78930000  0.53980000  0.39140000  1.0 -0.1188029606
C  C131  1  0.21070000  0.46020000  0.39140000  1.0 -0.1188029606
C  C132  1  0.78930000  0.46020000  0.60860000  1.0 -0.1188029606
C  C133  1  0.71070000  0.10860000  0.03980000  1.0 -0.1188029606
C  C134  1  0.28930000  0.89140000  0.03980000  1.0 -0.1188029606
C  C135  1  0.71070000  0.89140000  0.96020000  1.0 -0.1188029606
C  C136  1  0.28930000  0.10860000  0.96020000  1.0 -0.1188029606
C  C137  1  0.10860000  0.03980000  0.71070000  1.0 -0.1188029606
C  C138  1  0.89140000  0.03980000  0.28930000  1.0 -0.1188029606
C  C139  1  0.89140000  0.96020000  0.71070000  1.0 -0.1188029606
C  C140  1  0.10860000  0.96020000  0.28930000  1.0 -0.1188029606
C  C141  1  0.03980000  0.71070000  0.10860000  1.0 -0.1188029606
C  C142  1  0.03980000  0.28930000  0.89140000  1.0 -0.1188029606
C  C143  1  0.96020000  0.71070000  0.89140000  1.0 -0.1188029606
C  C144  1  0.96020000  0.28930000  0.10860000  1.0 -0.1188029606
C  C145  1  0.70730000  0.21070000  0.37510000  1.0 0.5951075893
C  C146  1  0.29270000  0.78930000  0.37510000  1.0 0.5951075893
C  C147  1  0.29270000  0.21070000  0.62490000  1.0 0.5951075893
C  C148  1  0.70730000  0.78930000  0.62490000  1.0 0.5951075893
C  C149  1  0.37510000  0.70730000  0.21070000  1.0 0.5951075893
C  C150  1  0.37510000  0.29270000  0.78930000  1.0 0.5951075893
C  C151  1  0.62490000  0.29270000  0.21070000  1.0 0.5951075893
C  C152  1  0.62490000  0.70730000  0.78930000  1.0 0.5951075893
C  C153  1  0.21070000  0.37510000  0.70730000  1.0 0.5951075893
C  C154  1  0.78930000  0.37510000  0.29270000  1.0 0.5951075893
C  C155  1  0.21070000  0.62490000  0.29270000  1.0 0.5951075893
C  C156  1  0.78930000  0.62490000  0.70730000  1.0 0.5951075893
C  C157  1  0.71070000  0.20730000  0.87510000  1.0 0.5951075893
C  C158  1  0.28930000  0.79270000  0.87510000  1.0 0.5951075893
C  C159  1  0.71070000  0.79270000  0.12490000  1.0 0.5951075893
C  C160  1  0.28930000  0.20730000  0.12490000  1.0 0.5951075893
C  C161  1  0.20730000  0.87510000  0.71070000  1.0 0.5951075893
C  C162  1  0.79270000  0.87510000  0.28930000  1.0 0.5951075893
C  C163  1  0.79270000  0.12490000  0.71070000  1.0 0.5951075893
C  C164  1  0.20730000  0.12490000  0.28930000  1.0 0.5951075893
C  C165  1  0.87510000  0.71070000  0.20730000  1.0 0.5951075893
C  C166  1  0.87510000  0.28930000  0.79270000  1.0 0.5951075893
C  C167  1  0.12490000  0.71070000  0.79270000  1.0 0.5951075893
C  C168  1  0.12490000  0.28930000  0.20730000  1.0 0.5951075893
C  C169  1  0.61260000  0.20570000  0.43120000  1.0 -0.1319378636
C  C170  1  0.38740000  0.79430000  0.43120000  1.0 -0.1319378636
C  C171  1  0.38740000  0.20570000  0.56880000  1.0 -0.1319378636
C  C172  1  0.61260000  0.79430000  0.56880000  1.0 -0.1319378636
C  C173  1  0.43120000  0.61260000  0.20570000  1.0 -0.1319378636
C  C174  1  0.43120000  0.38740000  0.79430000  1.0 -0.1319378636
C  C175  1  0.56880000  0.38740000  0.20570000  1.0 -0.1319378636
C  C176  1  0.56880000  0.61260000  0.79430000  1.0 -0.1319378636
C  C177  1  0.20570000  0.43120000  0.61260000  1.0 -0.1319378636
C  C178  1  0.79430000  0.43120000  0.38740000  1.0 -0.1319378636
C  C179  1  0.20570000  0.56880000  0.38740000  1.0 -0.1319378636
C  C180  1  0.79430000  0.56880000  0.61260000  1.0 -0.1319378636
C  C181  1  0.70570000  0.11260000  0.93120000  1.0 -0.1319378636
C  C182  1  0.29430000  0.88740000  0.93120000  1.0 -0.1319378636
C  C183  1  0.70570000  0.88740000  0.06880000  1.0 -0.1319378636
C  C184  1  0.29430000  0.11260000  0.06880000  1.0 -0.1319378636
C  C185  1  0.11260000  0.93120000  0.70570000  1.0 -0.1319378636
C  C186  1  0.88740000  0.93120000  0.29430000  1.0 -0.1319378636
C  C187  1  0.88740000  0.06880000  0.70570000  1.0 -0.1319378636
C  C188  1  0.11260000  0.06880000  0.29430000  1.0 -0.1319378636
C  C189  1  0.93120000  0.70570000  0.11260000  1.0 -0.1319378636
C  C190  1  0.93120000  0.29430000  0.88740000  1.0 -0.1319378636
C  C191  1  0.06880000  0.70570000  0.88740000  1.0 -0.1319378636
C  C192  1  0.06880000  0.29430000  0.11260000  1.0 -0.1319378636
N  N1  1  0.51330000  0.20410000  0.47610000  1.0 -0.0997350753
N  N2  1  0.48670000  0.79590000  0.47610000  1.0 -0.0997350753
N  N3  1  0.48670000  0.20410000  0.52390000  1.0 -0.0997350753
N  N4  1  0.51330000  0.79590000  0.52390000  1.0 -0.0997350753
N  N5  1  0.47610000  0.51330000  0.20410000  1.0 -0.0997350753
N  N6  1  0.47610000  0.48670000  0.79590000  1.0 -0.0997350753
N  N7  1  0.52390000  0.48670000  0.20410000  1.0 -0.0997350753
N  N8  1  0.52390000  0.51330000  0.79590000  1.0 -0.0997350753
N  N9  1  0.20410000  0.47610000  0.51330000  1.0 -0.0997350753
N  N10  1  0.79590000  0.47610000  0.48670000  1.0 -0.0997350753
N  N11  1  0.20410000  0.52390000  0.48670000  1.0 -0.0997350753
N  N12  1  0.79590000  0.52390000  0.51330000  1.0 -0.0997350753
N  N13  1  0.70410000  0.01330000  0.97610000  1.0 -0.0997350753
N  N14  1  0.29590000  0.98670000  0.97610000  1.0 -0.0997350753
N  N15  1  0.70410000  0.98670000  0.02390000  1.0 -0.0997350753
N  N16  1  0.29590000  0.01330000  0.02390000  1.0 -0.0997350753
N  N17  1  0.01330000  0.97610000  0.70410000  1.0 -0.0997350753
N  N18  1  0.98670000  0.97610000  0.29590000  1.0 -0.0997350753
N  N19  1  0.98670000  0.02390000  0.70410000  1.0 -0.0997350753
N  N20  1  0.01330000  0.02390000  0.29590000  1.0 -0.0997350753
N  N21  1  0.97610000  0.70410000  0.01330000  1.0 -0.0997350753
N  N22  1  0.97610000  0.29590000  0.98670000  1.0 -0.0997350753
N  N23  1  0.02390000  0.70410000  0.98670000  1.0 -0.0997350753
N  N24  1  0.02390000  0.29590000  0.01330000  1.0 -0.0997350753
O  O1  1  0.76380000  0.22220000  0.37520000  1.0 -0.5232616871
O  O2  1  0.23620000  0.77780000  0.37520000  1.0 -0.5232616871
O  O3  1  0.23620000  0.22220000  0.62480000  1.0 -0.5232616871
O  O4  1  0.76380000  0.77780000  0.62480000  1.0 -0.5232616871
O  O5  1  0.37520000  0.76380000  0.22220000  1.0 -0.5232616871
O  O6  1  0.37520000  0.23620000  0.77780000  1.0 -0.5232616871
O  O7  1  0.62480000  0.23620000  0.22220000  1.0 -0.5232616871
O  O8  1  0.62480000  0.76380000  0.77780000  1.0 -0.5232616871
O  O9  1  0.22220000  0.37520000  0.76380000  1.0 -0.5232616871
O  O10  1  0.77780000  0.37520000  0.23620000  1.0 -0.5232616871
O  O11  1  0.22220000  0.62480000  0.23620000  1.0 -0.5232616871
O  O12  1  0.77780000  0.62480000  0.76380000  1.0 -0.5232616871
O  O13  1  0.72220000  0.26380000  0.87520000  1.0 -0.5232616871
O  O14  1  0.27780000  0.73620000  0.87520000  1.0 -0.5232616871
O  O15  1  0.72220000  0.73620000  0.12480000  1.0 -0.5232616871
O  O16  1  0.27780000  0.26380000  0.12480000  1.0 -0.5232616871
O  O17  1  0.26380000  0.87520000  0.72220000  1.0 -0.5232616871
O  O18  1  0.73620000  0.87520000  0.27780000  1.0 -0.5232616871
O  O19  1  0.73620000  0.12480000  0.72220000  1.0 -0.5232616871
O  O20  1  0.26380000  0.12480000  0.27780000  1.0 -0.5232616871
O  O21  1  0.87520000  0.72220000  0.26380000  1.0 -0.5232616871
O  O22  1  0.87520000  0.27780000  0.73620000  1.0 -0.5232616871
O  O23  1  0.12480000  0.72220000  0.73620000  1.0 -0.5232616871
O  O24  1  0.12480000  0.27780000  0.26380000  1.0 -0.5232616871
O  O25  1  0.75180000  0.24430000  0.60560000  1.0 -0.551588422
O  O26  1  0.24820000  0.75570000  0.60560000  1.0 -0.551588422
O  O27  1  0.24820000  0.24430000  0.39440000  1.0 -0.551588422
O  O28  1  0.75180000  0.75570000  0.39440000  1.0 -0.551588422
O  O29  1  0.60560000  0.75180000  0.24430000  1.0 -0.551588422
O  O30  1  0.60560000  0.24820000  0.75570000  1.0 -0.551588422
O  O31  1  0.39440000  0.24820000  0.24430000  1.0 -0.551588422
O  O32  1  0.39440000  0.75180000  0.75570000  1.0 -0.551588422
O  O33  1  0.24430000  0.60560000  0.75180000  1.0 -0.551588422
O  O34  1  0.75570000  0.60560000  0.24820000  1.0 -0.551588422
O  O35  1  0.24430000  0.39440000  0.24820000  1.0 -0.551588422
O  O36  1  0.75570000  0.39440000  0.75180000  1.0 -0.551588422
O  O37  1  0.74430000  0.25180000  0.10560000  1.0 -0.551588422
O  O38  1  0.25570000  0.74820000  0.10560000  1.0 -0.551588422
O  O39  1  0.74430000  0.74820000  0.89440000  1.0 -0.551588422
O  O40  1  0.25570000  0.25180000  0.89440000  1.0 -0.551588422
O  O41  1  0.25180000  0.10560000  0.74430000  1.0 -0.551588422
O  O42  1  0.74820000  0.10560000  0.25570000  1.0 -0.551588422
O  O43  1  0.74820000  0.89440000  0.74430000  1.0 -0.551588422
O  O44  1  0.25180000  0.89440000  0.25570000  1.0 -0.551588422
O  O45  1  0.10560000  0.74430000  0.25180000  1.0 -0.551588422
O  O46  1  0.10560000  0.25570000  0.74820000  1.0 -0.551588422
O  O47  1  0.89440000  0.74430000  0.74820000  1.0 -0.551588422
O  O48  1  0.89440000  0.25570000  0.25180000  1.0 -0.551588422
O  O49  1  0.66830000  0.20370000  0.65180000  1.0 -0.5309307883
O  O50  1  0.33170000  0.79630000  0.65180000  1.0 -0.5309307883
O  O51  1  0.33170000  0.20370000  0.34820000  1.0 -0.5309307883
O  O52  1  0.66830000  0.79630000  0.34820000  1.0 -0.5309307883
O  O53  1  0.65180000  0.66830000  0.20370000  1.0 -0.5309307883
O  O54  1  0.65180000  0.33170000  0.79630000  1.0 -0.5309307883
O  O55  1  0.34820000  0.33170000  0.20370000  1.0 -0.5309307883
O  O56  1  0.34820000  0.66830000  0.79630000  1.0 -0.5309307883
O  O57  1  0.20370000  0.65180000  0.66830000  1.0 -0.5309307883
O  O58  1  0.79630000  0.65180000  0.33170000  1.0 -0.5309307883
O  O59  1  0.20370000  0.34820000  0.33170000  1.0 -0.5309307883
O  O60  1  0.79630000  0.34820000  0.66830000  1.0 -0.5309307883
O  O61  1  0.70370000  0.16830000  0.15180000  1.0 -0.5309307883
O  O62  1  0.29630000  0.83170000  0.15180000  1.0 -0.5309307883
O  O63  1  0.70370000  0.83170000  0.84820000  1.0 -0.5309307883
O  O64  1  0.29630000  0.16830000  0.84820000  1.0 -0.5309307883
O  O65  1  0.16830000  0.15180000  0.70370000  1.0 -0.5309307883
O  O66  1  0.83170000  0.15180000  0.29630000  1.0 -0.5309307883
O  O67  1  0.83170000  0.84820000  0.70370000  1.0 -0.5309307883
O  O68  1  0.16830000  0.84820000  0.29630000  1.0 -0.5309307883
O  O69  1  0.15180000  0.70370000  0.16830000  1.0 -0.5309307883
O  O70  1  0.15180000  0.29630000  0.83170000  1.0 -0.5309307883
O  O71  1  0.84820000  0.70370000  0.83170000  1.0 -0.5309307883
O  O72  1  0.84820000  0.29630000  0.16830000  1.0 -0.5309307883
O  O73  1  0.74020000  0.25980000  0.74020000  1.0 -0.8342145343
O  O74  1  0.25980000  0.74020000  0.74020000  1.0 -0.8342145343
O  O75  1  0.25980000  0.25980000  0.25980000  1.0 -0.8342145343
O  O76  1  0.74020000  0.74020000  0.25980000  1.0 -0.8342145343
O  O77  1  0.75980000  0.24020000  0.24020000  1.0 -0.8342145343
O  O78  1  0.24020000  0.75980000  0.24020000  1.0 -0.8342145343
O  O79  1  0.75980000  0.75980000  0.75980000  1.0 -0.8342145343
O  O80  1  0.24020000  0.24020000  0.75980000  1.0 -0.8342145343
O  O81  1  0.68220000  0.18780000  0.33100000  1.0 -0.5098735947
O  O82  1  0.31780000  0.81220000  0.33100000  1.0 -0.5098735947
O  O83  1  0.31780000  0.18780000  0.66900000  1.0 -0.5098735947
O  O84  1  0.68220000  0.81220000  0.66900000  1.0 -0.5098735947
O  O85  1  0.33100000  0.68220000  0.18780000  1.0 -0.5098735947
O  O86  1  0.33100000  0.31780000  0.81220000  1.0 -0.5098735947
O  O87  1  0.66900000  0.31780000  0.18780000  1.0 -0.5098735947
O  O88  1  0.66900000  0.68220000  0.81220000  1.0 -0.5098735947
O  O89  1  0.18780000  0.33100000  0.68220000  1.0 -0.5098735947
O  O90  1  0.81220000  0.33100000  0.31780000  1.0 -0.5098735947
O  O91  1  0.18780000  0.66900000  0.31780000  1.0 -0.5098735947
O  O92  1  0.81220000  0.66900000  0.68220000  1.0 -0.5098735947
O  O93  1  0.68780000  0.18220000  0.83100000  1.0 -0.5098735947
O  O94  1  0.31220000  0.81780000  0.83100000  1.0 -0.5098735947
O  O95  1  0.68780000  0.81780000  0.16900000  1.0 -0.5098735947
O  O96  1  0.31220000  0.18220000  0.16900000  1.0 -0.5098735947
O  O97  1  0.18220000  0.83100000  0.68780000  1.0 -0.5098735947
O  O98  1  0.81780000  0.83100000  0.31220000  1.0 -0.5098735947
O  O99  1  0.81780000  0.16900000  0.68780000  1.0 -0.5098735947
O  O100  1  0.18220000  0.16900000  0.31220000  1.0 -0.5098735947
O  O101  1  0.83100000  0.68780000  0.18220000  1.0 -0.5098735947
O  O102  1  0.83100000  0.31220000  0.81780000  1.0 -0.5098735947
O  O103  1  0.16900000  0.68780000  0.81780000  1.0 -0.5098735947
O  O104  1  0.16900000  0.31220000  0.18220000  1.0 -0.5098735947
