# DDEC6 charges by PACMAN v1.1 (https://github.com/mtap-research/PACMAN-charge/)
data_LIFWEE_ASR_pacman
_symmetry_space_group_name_H-M   'P 1'
_cell_length_a   14.04550000
_cell_length_b   14.04550000
_cell_length_c   14.60750000
_cell_angle_alpha   90.00000000
_cell_angle_beta   90.00000000
_cell_angle_gamma   90.00000000
_symmetry_Int_Tables_number   1
_chemical_formula_structural   Cu3H12C12(N3O4)2
_chemical_formula_sum   'Cu12 H48 C48 N24 O32'
_cell_volume   2881.71019618
_cell_formula_units_Z   4
loop_
 _symmetry_equiv_pos_site_id
 _symmetry_equiv_pos_as_xyz
  1  'x, y, z'
loop_
 _atom_site_type_symbol
 _atom_site_label
 _atom_site_symmetry_multiplicity
 _atom_site_fract_x
 _atom_site_fract_y
 _atom_site_fract_z
 _atom_site_occupancy
 _atom_site_charge
Cu  Cu1  1  0.50000000  0.50000000  0.00000000  1.0 0.833762628
Cu  Cu2  1  0.00000000  0.00000000  0.00000000  1.0 0.8374564868
Cu  Cu3  1  0.00000000  0.50000000  0.50000000  1.0 0.833762628
Cu  Cu4  1  0.50000000  0.00000000  0.50000000  1.0 0.833762628
Cu  Cu5  1  0.16575000  0.33425000  0.79295000  1.0 0.7088469263
Cu  Cu6  1  0.83425000  0.66575000  0.20705000  1.0 0.7088469263
Cu  Cu7  1  0.33425000  0.16575000  0.79295000  1.0 0.7088469263
Cu  Cu8  1  0.66575000  0.83425000  0.20705000  1.0 0.7088469263
Cu  Cu9  1  0.16575000  0.16575000  0.29295000  1.0 0.7088469263
Cu  Cu10  1  0.83425000  0.83425000  0.70705000  1.0 0.7088469263
Cu  Cu11  1  0.33425000  0.33425000  0.29295000  1.0 0.7088469263
Cu  Cu12  1  0.66575000  0.66575000  0.70705000  1.0 0.7088469263
H  H1  1  0.21680000  0.53090000  0.85839000  1.0 0.1473351788
H  H2  1  0.78320000  0.46910000  0.14161000  1.0 0.1473351788
H  H3  1  0.28320000  0.96910000  0.85839000  1.0 0.1473351788
H  H4  1  0.71680000  0.03090000  0.14161000  1.0 0.1473351788
H  H5  1  0.96910000  0.21680000  0.35839000  1.0 0.1473351788
H  H6  1  0.03090000  0.78320000  0.64161000  1.0 0.1473351788
H  H7  1  0.53090000  0.28320000  0.35839000  1.0 0.1473351788
H  H8  1  0.46910000  0.71680000  0.64161000  1.0 0.1473351788
H  H9  1  0.78320000  0.03090000  0.64161000  1.0 0.1473351788
H  H10  1  0.21680000  0.96910000  0.35839000  1.0 0.1473351788
H  H11  1  0.71680000  0.46910000  0.64161000  1.0 0.1473351788
H  H12  1  0.28320000  0.53090000  0.35839000  1.0 0.1473351788
H  H13  1  0.03090000  0.71680000  0.14161000  1.0 0.1473351788
H  H14  1  0.96910000  0.28320000  0.85839000  1.0 0.1473351788
H  H15  1  0.46910000  0.78320000  0.14161000  1.0 0.1473351788
H  H16  1  0.53090000  0.21680000  0.85839000  1.0 0.1473351788
H  H17  1  0.32125000  0.58165000  0.91569000  1.0 0.1726299297
H  H18  1  0.67875000  0.41835000  0.08431000  1.0 0.1726299297
H  H19  1  0.17875000  0.91835000  0.91569000  1.0 0.1726299297
H  H20  1  0.82125000  0.08165000  0.08431000  1.0 0.1726299297
H  H21  1  0.91835000  0.32125000  0.41569000  1.0 0.1726299297
H  H22  1  0.08165000  0.67875000  0.58431000  1.0 0.1726299297
H  H23  1  0.58165000  0.17875000  0.41569000  1.0 0.1726299297
H  H24  1  0.41835000  0.82125000  0.58431000  1.0 0.1726299297
H  H25  1  0.67875000  0.08165000  0.58431000  1.0 0.1726299297
H  H26  1  0.32125000  0.91835000  0.41569000  1.0 0.1726299297
H  H27  1  0.82125000  0.41835000  0.58431000  1.0 0.1726299297
H  H28  1  0.17875000  0.58165000  0.41569000  1.0 0.1726299297
H  H29  1  0.08165000  0.82125000  0.08431000  1.0 0.1726299297
H  H30  1  0.91835000  0.17875000  0.91569000  1.0 0.1726299297
H  H31  1  0.41835000  0.67875000  0.08431000  1.0 0.1726299297
H  H32  1  0.58165000  0.32125000  0.91569000  1.0 0.1726299297
H  H33  1  0.23254000  0.51747000  0.98275000  1.0 0.1573463898
H  H34  1  0.76746000  0.48253000  0.01725000  1.0 0.1573463898
H  H35  1  0.26746000  0.98253000  0.98275000  1.0 0.1573463898
H  H36  1  0.73254000  0.01747000  0.01725000  1.0 0.1573463898
H  H37  1  0.98253000  0.23254000  0.48275000  1.0 0.1573463898
H  H38  1  0.01747000  0.76746000  0.51725000  1.0 0.1573463898
H  H39  1  0.51747000  0.26746000  0.48275000  1.0 0.1573463898
H  H40  1  0.48253000  0.73254000  0.51725000  1.0 0.1573463898
H  H41  1  0.76746000  0.01747000  0.51725000  1.0 0.1573463898
H  H42  1  0.23254000  0.98253000  0.48275000  1.0 0.1573463898
H  H43  1  0.73254000  0.48253000  0.51725000  1.0 0.1573463898
H  H44  1  0.26746000  0.51747000  0.48275000  1.0 0.1573463898
H  H45  1  0.01747000  0.73254000  0.01725000  1.0 0.1573463898
H  H46  1  0.98253000  0.26746000  0.98275000  1.0 0.1573463898
H  H47  1  0.48253000  0.76746000  0.01725000  1.0 0.1573463898
H  H48  1  0.51747000  0.23254000  0.98275000  1.0 0.1573463898
C  C1  1  0.32115000  0.43218000  0.89895000  1.0 0.4445107054
C  C2  1  0.67885000  0.56782000  0.10105000  1.0 0.4445107054
C  C3  1  0.17885000  0.06782000  0.89895000  1.0 0.4445107054
C  C4  1  0.82115000  0.93218000  0.10105000  1.0 0.4445107054
C  C5  1  0.06782000  0.32115000  0.39895000  1.0 0.4445107054
C  C6  1  0.93218000  0.67885000  0.60105000  1.0 0.4445107054
C  C7  1  0.43218000  0.17885000  0.39895000  1.0 0.4445107054
C  C8  1  0.56782000  0.82115000  0.60105000  1.0 0.4445107054
C  C9  1  0.67885000  0.93218000  0.60105000  1.0 0.4445107054
C  C10  1  0.32115000  0.06782000  0.39895000  1.0 0.4445107054
C  C11  1  0.82115000  0.56782000  0.60105000  1.0 0.4445107054
C  C12  1  0.17885000  0.43218000  0.39895000  1.0 0.4445107054
C  C13  1  0.93218000  0.82115000  0.10105000  1.0 0.4445107054
C  C14  1  0.06782000  0.17885000  0.89895000  1.0 0.4445107054
C  C15  1  0.56782000  0.67885000  0.10105000  1.0 0.4445107054
C  C16  1  0.43218000  0.32115000  0.89895000  1.0 0.4445107054
C  C17  1  0.26846000  0.52275000  0.91509000  1.0 -0.4490061927
C  C18  1  0.73154000  0.47725000  0.08491000  1.0 -0.4490061927
C  C19  1  0.23154000  0.97725000  0.91509000  1.0 -0.4490061927
C  C20  1  0.76846000  0.02275000  0.08491000  1.0 -0.4490061927
C  C21  1  0.97725000  0.26846000  0.41509000  1.0 -0.4490061927
C  C22  1  0.02275000  0.73154000  0.58491000  1.0 -0.4490061927
C  C23  1  0.52275000  0.23154000  0.41509000  1.0 -0.4490061927
C  C24  1  0.47725000  0.76846000  0.58491000  1.0 -0.4490061927
C  C25  1  0.73154000  0.02275000  0.58491000  1.0 -0.4490061927
C  C26  1  0.26846000  0.97725000  0.41509000  1.0 -0.4490061927
C  C27  1  0.76846000  0.47725000  0.58491000  1.0 -0.4490061927
C  C28  1  0.23154000  0.52275000  0.41509000  1.0 -0.4490061927
C  C29  1  0.02275000  0.76846000  0.08491000  1.0 -0.4490061927
C  C30  1  0.97725000  0.23154000  0.91509000  1.0 -0.4490061927
C  C31  1  0.47725000  0.73154000  0.08491000  1.0 -0.4490061927
C  C32  1  0.52275000  0.26846000  0.91509000  1.0 -0.4490061927
C  C33  1  0.11607000  0.46071000  0.65922000  1.0 0.457415152
C  C34  1  0.88393000  0.53929000  0.34078000  1.0 0.457415152
C  C35  1  0.38393000  0.03929000  0.65922000  1.0 0.457415152
C  C36  1  0.61607000  0.96071000  0.34078000  1.0 0.457415152
C  C37  1  0.03929000  0.11607000  0.15922000  1.0 0.457415152
C  C38  1  0.96071000  0.88393000  0.84078000  1.0 0.457415152
C  C39  1  0.46071000  0.38393000  0.15922000  1.0 0.457415152
C  C40  1  0.53929000  0.61607000  0.84078000  1.0 0.457415152
C  C41  1  0.88393000  0.96071000  0.84078000  1.0 0.457415152
C  C42  1  0.11607000  0.03929000  0.15922000  1.0 0.457415152
C  C43  1  0.61607000  0.53929000  0.84078000  1.0 0.457415152
C  C44  1  0.38393000  0.46071000  0.15922000  1.0 0.457415152
C  C45  1  0.96071000  0.61607000  0.34078000  1.0 0.457415152
C  C46  1  0.03929000  0.38393000  0.65922000  1.0 0.457415152
C  C47  1  0.53929000  0.88393000  0.34078000  1.0 0.457415152
C  C48  1  0.46071000  0.11607000  0.65922000  1.0 0.457415152
N  N1  1  0.41299000  0.41299000  0.92782000  1.0 -0.4732031751
N  N2  1  0.58701000  0.58701000  0.07218000  1.0 -0.4732031751
N  N3  1  0.08701000  0.08701000  0.92782000  1.0 -0.4732031751
N  N4  1  0.91299000  0.91299000  0.07218000  1.0 -0.4732031751
N  N5  1  0.08701000  0.41299000  0.42782000  1.0 -0.4732031751
N  N6  1  0.91299000  0.58701000  0.57218000  1.0 -0.4732031751
N  N7  1  0.41299000  0.08701000  0.42782000  1.0 -0.4732031751
N  N8  1  0.58701000  0.91299000  0.57218000  1.0 -0.4732031751
N  N9  1  0.28557000  0.35509000  0.85509000  1.0 -0.2928235088
N  N10  1  0.71443000  0.64491000  0.14491000  1.0 -0.2928235088
N  N11  1  0.21443000  0.14491000  0.85509000  1.0 -0.2928235088
N  N12  1  0.78557000  0.85509000  0.14491000  1.0 -0.2928235088
N  N13  1  0.14491000  0.28557000  0.35509000  1.0 -0.2928235088
N  N14  1  0.85509000  0.71443000  0.64491000  1.0 -0.2928235088
N  N15  1  0.35509000  0.21443000  0.35509000  1.0 -0.2928235088
N  N16  1  0.64491000  0.78557000  0.64491000  1.0 -0.2928235088
N  N17  1  0.71443000  0.85509000  0.64491000  1.0 -0.2928235088
N  N18  1  0.28557000  0.14491000  0.35509000  1.0 -0.2928235088
N  N19  1  0.78557000  0.64491000  0.64491000  1.0 -0.2928235088
N  N20  1  0.21443000  0.35509000  0.35509000  1.0 -0.2928235088
N  N21  1  0.85509000  0.78557000  0.14491000  1.0 -0.2928235088
N  N22  1  0.14491000  0.21443000  0.85509000  1.0 -0.2928235088
N  N23  1  0.64491000  0.71443000  0.14491000  1.0 -0.2928235088
N  N24  1  0.35509000  0.28557000  0.85509000  1.0 -0.2928235088
O  O1  1  0.38486000  0.52627000  0.09854000  1.0 -0.4867847994
O  O2  1  0.61514000  0.47373000  0.90146000  1.0 -0.4867847994
O  O3  1  0.11514000  0.97373000  0.09854000  1.0 -0.4867847994
O  O4  1  0.88486000  0.02627000  0.90146000  1.0 -0.4867847994
O  O5  1  0.97373000  0.38486000  0.59854000  1.0 -0.4867847994
O  O6  1  0.02627000  0.61514000  0.40146000  1.0 -0.4867847994
O  O7  1  0.52627000  0.11514000  0.59854000  1.0 -0.4867847994
O  O8  1  0.47373000  0.88486000  0.40146000  1.0 -0.4867847994
O  O9  1  0.61514000  0.02627000  0.40146000  1.0 -0.4867847994
O  O10  1  0.38486000  0.97373000  0.59854000  1.0 -0.4867847994
O  O11  1  0.88486000  0.47373000  0.40146000  1.0 -0.4867847994
O  O12  1  0.11514000  0.52627000  0.59854000  1.0 -0.4867847994
O  O13  1  0.02627000  0.88486000  0.90146000  1.0 -0.4867847994
O  O14  1  0.97373000  0.11514000  0.09854000  1.0 -0.4867847994
O  O15  1  0.47373000  0.61514000  0.90146000  1.0 -0.4867847994
O  O16  1  0.52627000  0.38486000  0.09854000  1.0 -0.4867847994
O  O17  1  0.18181000  0.45278000  0.72246000  1.0 -0.4771162536
O  O18  1  0.81819000  0.54722000  0.27754000  1.0 -0.4771162536
O  O19  1  0.31819000  0.04722000  0.72246000  1.0 -0.4771162536
O  O20  1  0.68181000  0.95278000  0.27754000  1.0 -0.4771162536
O  O21  1  0.04722000  0.18181000  0.22246000  1.0 -0.4771162536
O  O22  1  0.95278000  0.81819000  0.77754000  1.0 -0.4771162536
O  O23  1  0.45278000  0.31819000  0.22246000  1.0 -0.4771162536
O  O24  1  0.54722000  0.68181000  0.77754000  1.0 -0.4771162536
O  O25  1  0.81819000  0.95278000  0.77754000  1.0 -0.4771162536
O  O26  1  0.18181000  0.04722000  0.22246000  1.0 -0.4771162536
O  O27  1  0.68181000  0.54722000  0.77754000  1.0 -0.4771162536
O  O28  1  0.31819000  0.45278000  0.22246000  1.0 -0.4771162536
O  O29  1  0.95278000  0.68181000  0.27754000  1.0 -0.4771162536
O  O30  1  0.04722000  0.31819000  0.72246000  1.0 -0.4771162536
O  O31  1  0.54722000  0.81819000  0.27754000  1.0 -0.4771162536
O  O32  1  0.45278000  0.18181000  0.72246000  1.0 -0.4771162536
