# DDEC6 charges by PACMAN v1.1 (https://github.com/mtap-research/PACMAN-charge/)
data_LIHFER_ASR_pacman
_symmetry_space_group_name_H-M   'P 1'
_cell_length_a   40.18180000
_cell_length_b   40.18180000
_cell_length_c   20.15860000
_cell_angle_alpha   90.00000000
_cell_angle_beta   90.00000000
_cell_angle_gamma   120.00000000
_symmetry_Int_Tables_number   1
_chemical_formula_structural   Zr3H30(C25O6)2
_chemical_formula_sum   'Zr18 H180 C300 O72'
_cell_volume   28187.05964302
_cell_formula_units_Z   6
loop_
 _symmetry_equiv_pos_site_id
 _symmetry_equiv_pos_as_xyz
  1  'x, y, z'
loop_
 _atom_site_type_symbol
 _atom_site_label
 _atom_site_symmetry_multiplicity
 _atom_site_fract_x
 _atom_site_fract_y
 _atom_site_fract_z
 _atom_site_occupancy
 _atom_site_charge
Zr  Zr1  1  0.45617000  0.00000000  0.91230000  1.0 2.4826057487
Zr  Zr2  1  0.54383000  0.54383000  0.91230000  1.0 2.4826057487
Zr  Zr3  1  0.00000000  0.45617000  0.91230000  1.0 2.4826057487
Zr  Zr4  1  0.54383000  0.00000000  0.91230000  1.0 2.4826057487
Zr  Zr5  1  0.45617000  0.45617000  0.91230000  1.0 2.4826057487
Zr  Zr6  1  0.00000000  0.54383000  0.91230000  1.0 2.4826057487
Zr  Zr7  1  0.45617000  0.00000000  0.08770000  1.0 2.4826057487
Zr  Zr8  1  0.00000000  0.45617000  0.08770000  1.0 2.4826057487
Zr  Zr9  1  0.54383000  0.54383000  0.08770000  1.0 2.4826057487
Zr  Zr10  1  0.54383000  0.00000000  0.08770000  1.0 2.4826057487
Zr  Zr11  1  0.00000000  0.54383000  0.08770000  1.0 2.4826057487
Zr  Zr12  1  0.45617000  0.45617000  0.08770000  1.0 2.4826057487
Zr  Zr13  1  0.46454000  0.92908000  0.00000000  1.0 2.3485586776
Zr  Zr14  1  0.46454000  0.53546000  0.00000000  1.0 2.3485586776
Zr  Zr15  1  0.07092000  0.53546000  0.00000000  1.0 2.3485586776
Zr  Zr16  1  0.53546000  0.07092000  0.00000000  1.0 2.3485586776
Zr  Zr17  1  0.53546000  0.46454000  0.00000000  1.0 2.3485586776
Zr  Zr18  1  0.92908000  0.46454000  0.00000000  1.0 2.3485586776
H  H1  1  0.21711000  0.70241000  0.55917000  1.0 0.0883460817
H  H2  1  0.28957000  0.81076000  0.65668000  1.0 0.1105614172
H  H3  1  0.36297000  0.83347000  0.90668000  1.0 0.1306110182
H  H4  1  0.35878000  0.91304000  0.79277000  1.0 0.1035045378
H  H5  1  0.31154000  0.78460000  0.84601000  1.0 0.1105614172
H  H6  1  0.30815000  0.86388000  0.73154000  1.0 0.1187531274
H  H7  1  0.18108000  0.73980000  0.55879000  1.0 0.0883460817
H  H8  1  0.48530000  0.78289000  0.55917000  1.0 0.0883460817
H  H9  1  0.52119000  0.71043000  0.65668000  1.0 0.1105614172
H  H10  1  0.47050000  0.63703000  0.90668000  1.0 0.1306110182
H  H11  1  0.55426000  0.64122000  0.79277000  1.0 0.1035045378
H  H12  1  0.47306000  0.68846000  0.84601000  1.0 0.1105614172
H  H13  1  0.55573000  0.69185000  0.73154000  1.0 0.1187531274
H  H14  1  0.55872000  0.81892000  0.55879000  1.0 0.0883460817
H  H15  1  0.29759000  0.51470000  0.55917000  1.0 0.0883460817
H  H16  1  0.18924000  0.47881000  0.65668000  1.0 0.1105614172
H  H17  1  0.16653000  0.52950000  0.90668000  1.0 0.1306110182
H  H18  1  0.08696000  0.44574000  0.79277000  1.0 0.1035045378
H  H19  1  0.21540000  0.52694000  0.84601000  1.0 0.1105614172
H  H20  1  0.13612000  0.44427000  0.73154000  1.0 0.1187531274
H  H21  1  0.26020000  0.44128000  0.55879000  1.0 0.0883460817
H  H22  1  0.78289000  0.29759000  0.55917000  1.0 0.0883460817
H  H23  1  0.71043000  0.18924000  0.65668000  1.0 0.1105614172
H  H24  1  0.63703000  0.16653000  0.90668000  1.0 0.1306110182
H  H25  1  0.64122000  0.08696000  0.79277000  1.0 0.1035045378
H  H26  1  0.68846000  0.21540000  0.84601000  1.0 0.1105614172
H  H27  1  0.69185000  0.13612000  0.73154000  1.0 0.1187531274
H  H28  1  0.81892000  0.26020000  0.55879000  1.0 0.0883460817
H  H29  1  0.51470000  0.21711000  0.55917000  1.0 0.0883460817
H  H30  1  0.47881000  0.28957000  0.65668000  1.0 0.1105614172
H  H31  1  0.52950000  0.36297000  0.90668000  1.0 0.1306110182
H  H32  1  0.44574000  0.35878000  0.79277000  1.0 0.1035045378
H  H33  1  0.52694000  0.31154000  0.84601000  1.0 0.1105614172
H  H34  1  0.44427000  0.30815000  0.73154000  1.0 0.1187531274
H  H35  1  0.44128000  0.18108000  0.55879000  1.0 0.0883460817
H  H36  1  0.70241000  0.48530000  0.55917000  1.0 0.0883460817
H  H37  1  0.81076000  0.52119000  0.65668000  1.0 0.1105614172
H  H38  1  0.83347000  0.47050000  0.90668000  1.0 0.1306110182
H  H39  1  0.91304000  0.55426000  0.79277000  1.0 0.1035045378
H  H40  1  0.78460000  0.47306000  0.84601000  1.0 0.1105614172
H  H41  1  0.86388000  0.55573000  0.73154000  1.0 0.1187531274
H  H42  1  0.73980000  0.55872000  0.55879000  1.0 0.0883460817
H  H43  1  0.51470000  0.29759000  0.44083000  1.0 0.0883460817
H  H44  1  0.47881000  0.18924000  0.34332000  1.0 0.1105614172
H  H45  1  0.52950000  0.16653000  0.09332000  1.0 0.1306110182
H  H46  1  0.44574000  0.08696000  0.20723000  1.0 0.1035045378
H  H47  1  0.52694000  0.21540000  0.15399000  1.0 0.1105614172
H  H48  1  0.44427000  0.13612000  0.26846000  1.0 0.1187531274
H  H49  1  0.44128000  0.26020000  0.44121000  1.0 0.0883460817
H  H50  1  0.70241000  0.21711000  0.44083000  1.0 0.0883460817
H  H51  1  0.81076000  0.28957000  0.34332000  1.0 0.1105614172
H  H52  1  0.83347000  0.36297000  0.09332000  1.0 0.1306110182
H  H53  1  0.91304000  0.35878000  0.20723000  1.0 0.1035045378
H  H54  1  0.78460000  0.31154000  0.15399000  1.0 0.1105614172
H  H55  1  0.86388000  0.30815000  0.26846000  1.0 0.1187531274
H  H56  1  0.73980000  0.18108000  0.44121000  1.0 0.0883460817
H  H57  1  0.78289000  0.48530000  0.44083000  1.0 0.0883460817
H  H58  1  0.71043000  0.52119000  0.34332000  1.0 0.1105614172
H  H59  1  0.63703000  0.47050000  0.09332000  1.0 0.1306110182
H  H60  1  0.64122000  0.55426000  0.20723000  1.0 0.1035045378
H  H61  1  0.68846000  0.47306000  0.15399000  1.0 0.1105614172
H  H62  1  0.69185000  0.55573000  0.26846000  1.0 0.1187531274
H  H63  1  0.81892000  0.55872000  0.44121000  1.0 0.0883460817
H  H64  1  0.48530000  0.70241000  0.44083000  1.0 0.0883460817
H  H65  1  0.52119000  0.81076000  0.34332000  1.0 0.1105614172
H  H66  1  0.47050000  0.83347000  0.09332000  1.0 0.1306110182
H  H67  1  0.55426000  0.91304000  0.20723000  1.0 0.1035045378
H  H68  1  0.47306000  0.78460000  0.15399000  1.0 0.1105614172
H  H69  1  0.55573000  0.86388000  0.26846000  1.0 0.1187531274
H  H70  1  0.55872000  0.73980000  0.44121000  1.0 0.0883460817
H  H71  1  0.29759000  0.78289000  0.44083000  1.0 0.0883460817
H  H72  1  0.18924000  0.71043000  0.34332000  1.0 0.1105614172
H  H73  1  0.16653000  0.63703000  0.09332000  1.0 0.1306110182
H  H74  1  0.08696000  0.64122000  0.20723000  1.0 0.1035045378
H  H75  1  0.21540000  0.68846000  0.15399000  1.0 0.1105614172
H  H76  1  0.13612000  0.69185000  0.26846000  1.0 0.1187531274
H  H77  1  0.26020000  0.81892000  0.44121000  1.0 0.0883460817
H  H78  1  0.21711000  0.51470000  0.44083000  1.0 0.0883460817
H  H79  1  0.28957000  0.47881000  0.34332000  1.0 0.1105614172
H  H80  1  0.36297000  0.52950000  0.09332000  1.0 0.1306110182
H  H81  1  0.35878000  0.44574000  0.20723000  1.0 0.1035045378
H  H82  1  0.31154000  0.52694000  0.15399000  1.0 0.1105614172
H  H83  1  0.30815000  0.44427000  0.26846000  1.0 0.1187531274
H  H84  1  0.18108000  0.44128000  0.44121000  1.0 0.0883460817
H  H85  1  0.78289000  0.29759000  0.44083000  1.0 0.0883460817
H  H86  1  0.71043000  0.18924000  0.34332000  1.0 0.1105614172
H  H87  1  0.63703000  0.16653000  0.09332000  1.0 0.1306110182
H  H88  1  0.64122000  0.08696000  0.20723000  1.0 0.1035045378
H  H89  1  0.68846000  0.21540000  0.15399000  1.0 0.1105614172
H  H90  1  0.69185000  0.13612000  0.26846000  1.0 0.1187531274
H  H91  1  0.81892000  0.26020000  0.44121000  1.0 0.0883460817
H  H92  1  0.51470000  0.21711000  0.44083000  1.0 0.0883460817
H  H93  1  0.47881000  0.28957000  0.34332000  1.0 0.1105614172
H  H94  1  0.52950000  0.36297000  0.09332000  1.0 0.1306110182
H  H95  1  0.44574000  0.35878000  0.20723000  1.0 0.1035045378
H  H96  1  0.52694000  0.31154000  0.15399000  1.0 0.1105614172
H  H97  1  0.44427000  0.30815000  0.26846000  1.0 0.1187531274
H  H98  1  0.44128000  0.18108000  0.44121000  1.0 0.0883460817
H  H99  1  0.70241000  0.48530000  0.44083000  1.0 0.0883460817
H  H100  1  0.81076000  0.52119000  0.34332000  1.0 0.1105614172
H  H101  1  0.83347000  0.47050000  0.09332000  1.0 0.1306110182
H  H102  1  0.91304000  0.55426000  0.20723000  1.0 0.1035045378
H  H103  1  0.78460000  0.47306000  0.15399000  1.0 0.1105614172
H  H104  1  0.86388000  0.55573000  0.26846000  1.0 0.1187531274
H  H105  1  0.73980000  0.55872000  0.44121000  1.0 0.0883460817
H  H106  1  0.21711000  0.70241000  0.44083000  1.0 0.0883460817
H  H107  1  0.28957000  0.81076000  0.34332000  1.0 0.1105614172
H  H108  1  0.36297000  0.83347000  0.09332000  1.0 0.1306110182
H  H109  1  0.35878000  0.91304000  0.20723000  1.0 0.1035045378
H  H110  1  0.31154000  0.78460000  0.15399000  1.0 0.1105614172
H  H111  1  0.30815000  0.86388000  0.26846000  1.0 0.1187531274
H  H112  1  0.18108000  0.73980000  0.44121000  1.0 0.0883460817
H  H113  1  0.48530000  0.78289000  0.44083000  1.0 0.0883460817
H  H114  1  0.52119000  0.71043000  0.34332000  1.0 0.1105614172
H  H115  1  0.47050000  0.63703000  0.09332000  1.0 0.1306110182
H  H116  1  0.55426000  0.64122000  0.20723000  1.0 0.1035045378
H  H117  1  0.47306000  0.68846000  0.15399000  1.0 0.1105614172
H  H118  1  0.55573000  0.69185000  0.26846000  1.0 0.1187531274
H  H119  1  0.55872000  0.81892000  0.44121000  1.0 0.0883460817
H  H120  1  0.29759000  0.51470000  0.44083000  1.0 0.0883460817
H  H121  1  0.18924000  0.47881000  0.34332000  1.0 0.1105614172
H  H122  1  0.16653000  0.52950000  0.09332000  1.0 0.1306110182
H  H123  1  0.08696000  0.44574000  0.20723000  1.0 0.1035045378
H  H124  1  0.21540000  0.52694000  0.15399000  1.0 0.1105614172
H  H125  1  0.13612000  0.44427000  0.26846000  1.0 0.1187531274
H  H126  1  0.26020000  0.44128000  0.44121000  1.0 0.0883460817
H  H127  1  0.48530000  0.70241000  0.55917000  1.0 0.0883460817
H  H128  1  0.52119000  0.81076000  0.65668000  1.0 0.1105614172
H  H129  1  0.47050000  0.83347000  0.90668000  1.0 0.1306110182
H  H130  1  0.55426000  0.91304000  0.79277000  1.0 0.1035045378
H  H131  1  0.47306000  0.78460000  0.84601000  1.0 0.1105614172
H  H132  1  0.55573000  0.86388000  0.73154000  1.0 0.1187531274
H  H133  1  0.55872000  0.73980000  0.55879000  1.0 0.0883460817
H  H134  1  0.29759000  0.78289000  0.55917000  1.0 0.0883460817
H  H135  1  0.18924000  0.71043000  0.65668000  1.0 0.1105614172
H  H136  1  0.16653000  0.63703000  0.90668000  1.0 0.1306110182
H  H137  1  0.08696000  0.64122000  0.79277000  1.0 0.1035045378
H  H138  1  0.21540000  0.68846000  0.84601000  1.0 0.1105614172
H  H139  1  0.13612000  0.69185000  0.73154000  1.0 0.1187531274
H  H140  1  0.26020000  0.81892000  0.55879000  1.0 0.0883460817
H  H141  1  0.21711000  0.51470000  0.55917000  1.0 0.0883460817
H  H142  1  0.28957000  0.47881000  0.65668000  1.0 0.1105614172
H  H143  1  0.36297000  0.52950000  0.90668000  1.0 0.1306110182
H  H144  1  0.35878000  0.44574000  0.79277000  1.0 0.1035045378
H  H145  1  0.31154000  0.52694000  0.84601000  1.0 0.1105614172
H  H146  1  0.30815000  0.44427000  0.73154000  1.0 0.1187531274
H  H147  1  0.18108000  0.44128000  0.55879000  1.0 0.0883460817
H  H148  1  0.51470000  0.29759000  0.55917000  1.0 0.0883460817
H  H149  1  0.47881000  0.18924000  0.65668000  1.0 0.1105614172
H  H150  1  0.52950000  0.16653000  0.90668000  1.0 0.1306110182
H  H151  1  0.44574000  0.08696000  0.79277000  1.0 0.1035045378
H  H152  1  0.52694000  0.21540000  0.84601000  1.0 0.1105614172
H  H153  1  0.44427000  0.13612000  0.73154000  1.0 0.1187531274
H  H154  1  0.44128000  0.26020000  0.55879000  1.0 0.0883460817
H  H155  1  0.70241000  0.21711000  0.55917000  1.0 0.0883460817
H  H156  1  0.81076000  0.28957000  0.65668000  1.0 0.1105614172
H  H157  1  0.83347000  0.36297000  0.90668000  1.0 0.1306110182
H  H158  1  0.91304000  0.35878000  0.79277000  1.0 0.1035045378
H  H159  1  0.78460000  0.31154000  0.84601000  1.0 0.1105614172
H  H160  1  0.86388000  0.30815000  0.73154000  1.0 0.1187531274
H  H161  1  0.73980000  0.18108000  0.55879000  1.0 0.0883460817
H  H162  1  0.78289000  0.48530000  0.55917000  1.0 0.0883460817
H  H163  1  0.71043000  0.52119000  0.65668000  1.0 0.1105614172
H  H164  1  0.63703000  0.47050000  0.90668000  1.0 0.1306110182
H  H165  1  0.64122000  0.55426000  0.79277000  1.0 0.1035045378
H  H166  1  0.68846000  0.47306000  0.84601000  1.0 0.1105614172
H  H167  1  0.69185000  0.55573000  0.73154000  1.0 0.1187531274
H  H168  1  0.81892000  0.55872000  0.55879000  1.0 0.0883460817
H  H169  1  0.24418000  0.75582000  0.82606000  1.0 0.1105614172
H  H170  1  0.51164000  0.75582000  0.82606000  1.0 0.1105614172
H  H171  1  0.24418000  0.48836000  0.82606000  1.0 0.1105614172
H  H172  1  0.75582000  0.24418000  0.82606000  1.0 0.1105614172
H  H173  1  0.48836000  0.24418000  0.82606000  1.0 0.1105614172
H  H174  1  0.75582000  0.51164000  0.82606000  1.0 0.1105614172
H  H175  1  0.48836000  0.24418000  0.17394000  1.0 0.1105614172
H  H176  1  0.75582000  0.24418000  0.17394000  1.0 0.1105614172
H  H177  1  0.75582000  0.51164000  0.17394000  1.0 0.1105614172
H  H178  1  0.51164000  0.75582000  0.17394000  1.0 0.1105614172
H  H179  1  0.24418000  0.75582000  0.17394000  1.0 0.1105614172
H  H180  1  0.24418000  0.48836000  0.17394000  1.0 0.1105614172
C  C1  1  0.22570000  0.72560000  0.53520000  1.0 -0.1060459866
C  C2  1  0.36680000  0.87750000  0.85350000  1.0 -0.0304376606
C  C3  1  0.26890000  0.78960000  0.67830000  1.0 -0.2133440739
C  C4  1  0.35220000  0.84010000  0.87050000  1.0 -0.0998802744
C  C5  1  0.34981000  0.88691000  0.80340000  1.0 -0.0861828741
C  C6  1  0.40120000  0.90760000  0.89200000  1.0 0.6360019628
C  C7  1  0.27130000  0.78860000  0.74710000  1.0 0.070538316
C  C8  1  0.32100000  0.81080000  0.83470000  1.0 -0.1659740101
C  C9  1  0.30430000  0.81980000  0.78400000  1.0 0.0613917915
C  C10  1  0.31892000  0.85732000  0.76770000  1.0 -0.1607051198
C  C11  1  0.20440000  0.74840000  0.53510000  1.0 -0.0998802744
C  C12  1  0.49990000  0.77430000  0.53520000  1.0 -0.0998802744
C  C13  1  0.51070000  0.63320000  0.85350000  1.0 -0.0304376606
C  C14  1  0.52070000  0.73110000  0.67830000  1.0 -0.2133440739
C  C15  1  0.48790000  0.64780000  0.87050000  1.0 -0.0998802744
C  C16  1  0.53710000  0.65019000  0.80340000  1.0 -0.0861828741
C  C17  1  0.50640000  0.59880000  0.89200000  1.0 0.6360019628
C  C18  1  0.51730000  0.72870000  0.74710000  1.0 0.070538316
C  C19  1  0.48980000  0.67900000  0.83470000  1.0 -0.1659740101
C  C20  1  0.51550000  0.69570000  0.78400000  1.0 0.0613917915
C  C21  1  0.53840000  0.68108000  0.76770000  1.0 -0.1607051198
C  C22  1  0.54400000  0.79560000  0.53510000  1.0 -0.1060459866
C  C23  1  0.27440000  0.50010000  0.53520000  1.0 -0.1060459866
C  C24  1  0.12250000  0.48930000  0.85350000  1.0 -0.0304376606
C  C25  1  0.21040000  0.47930000  0.67830000  1.0 -0.2133440739
C  C26  1  0.15990000  0.51210000  0.87050000  1.0 -0.0998802744
C  C27  1  0.11309000  0.46290000  0.80340000  1.0 -0.0861828741
C  C28  1  0.09240000  0.49360000  0.89200000  1.0 0.6360019628
C  C29  1  0.21140000  0.48270000  0.74710000  1.0 0.070538316
C  C30  1  0.18920000  0.51020000  0.83470000  1.0 -0.1659740101
C  C31  1  0.18020000  0.48450000  0.78400000  1.0 0.0613917915
C  C32  1  0.14268000  0.46160000  0.76770000  1.0 -0.1607051198
C  C33  1  0.25160000  0.45600000  0.53510000  1.0 -0.0998802744
C  C34  1  0.77430000  0.27440000  0.53520000  1.0 -0.0998802744
C  C35  1  0.63320000  0.12250000  0.85350000  1.0 -0.0304376606
C  C36  1  0.73110000  0.21040000  0.67830000  1.0 -0.2133440739
C  C37  1  0.64780000  0.15990000  0.87050000  1.0 -0.0998802744
C  C38  1  0.65019000  0.11309000  0.80340000  1.0 -0.0861828741
C  C39  1  0.59880000  0.09240000  0.89200000  1.0 0.6360019628
C  C40  1  0.72870000  0.21140000  0.74710000  1.0 0.070538316
C  C41  1  0.67900000  0.18920000  0.83470000  1.0 -0.1659740101
C  C42  1  0.69570000  0.18020000  0.78400000  1.0 0.0613917915
C  C43  1  0.68108000  0.14268000  0.76770000  1.0 -0.1607051198
C  C44  1  0.79560000  0.25160000  0.53510000  1.0 -0.0998802744
C  C45  1  0.50010000  0.22570000  0.53520000  1.0 -0.0998802744
C  C46  1  0.48930000  0.36680000  0.85350000  1.0 -0.0304376606
C  C47  1  0.47930000  0.26890000  0.67830000  1.0 -0.2133440739
C  C48  1  0.51210000  0.35220000  0.87050000  1.0 -0.0998802744
C  C49  1  0.46290000  0.34981000  0.80340000  1.0 -0.0861828741
C  C50  1  0.49360000  0.40120000  0.89200000  1.0 0.6360019628
C  C51  1  0.48270000  0.27130000  0.74710000  1.0 0.070538316
C  C52  1  0.51020000  0.32100000  0.83470000  1.0 -0.1659740101
C  C53  1  0.48450000  0.30430000  0.78400000  1.0 0.0613917915
C  C54  1  0.46160000  0.31892000  0.76770000  1.0 -0.1607051198
C  C55  1  0.45600000  0.20440000  0.53510000  1.0 -0.0998802744
C  C56  1  0.72560000  0.49990000  0.53520000  1.0 -0.0998802744
C  C57  1  0.87750000  0.51070000  0.85350000  1.0 -0.0304376606
C  C58  1  0.78960000  0.52070000  0.67830000  1.0 -0.2133440739
C  C59  1  0.84010000  0.48790000  0.87050000  1.0 -0.0998802744
C  C60  1  0.88691000  0.53710000  0.80340000  1.0 -0.0861828741
C  C61  1  0.90760000  0.50640000  0.89200000  1.0 0.6360019628
C  C62  1  0.78860000  0.51730000  0.74710000  1.0 0.070538316
C  C63  1  0.81080000  0.48980000  0.83470000  1.0 -0.1659740101
C  C64  1  0.81980000  0.51550000  0.78400000  1.0 0.070538316
C  C65  1  0.85732000  0.53840000  0.76770000  1.0 -0.1607051198
C  C66  1  0.74840000  0.54400000  0.53510000  1.0 -0.1060459866
C  C67  1  0.50010000  0.27440000  0.46480000  1.0 -0.0998802744
C  C68  1  0.48930000  0.12250000  0.14650000  1.0 -0.0304376606
C  C69  1  0.47930000  0.21040000  0.32170000  1.0 -0.2133440739
C  C70  1  0.51210000  0.15990000  0.12950000  1.0 -0.0998802744
C  C71  1  0.46290000  0.11309000  0.19660000  1.0 -0.0861828741
C  C72  1  0.49360000  0.09240000  0.10800000  1.0 0.6360019628
C  C73  1  0.48270000  0.21140000  0.25290000  1.0 0.070538316
C  C74  1  0.51020000  0.18920000  0.16530000  1.0 -0.1659740101
C  C75  1  0.48450000  0.18020000  0.21600000  1.0 0.0613917915
C  C76  1  0.46160000  0.14268000  0.23230000  1.0 -0.1607051198
C  C77  1  0.45600000  0.25160000  0.46490000  1.0 -0.1060459866
C  C78  1  0.72560000  0.22570000  0.46480000  1.0 -0.0998802744
C  C79  1  0.87750000  0.36680000  0.14650000  1.0 -0.0304376606
C  C80  1  0.78960000  0.26890000  0.32170000  1.0 -0.2133440739
C  C81  1  0.84010000  0.35220000  0.12950000  1.0 -0.0998802744
C  C82  1  0.88691000  0.34981000  0.19660000  1.0 -0.0861828741
C  C83  1  0.90760000  0.40120000  0.10800000  1.0 0.6360019628
C  C84  1  0.78860000  0.27130000  0.25290000  1.0 0.070538316
C  C85  1  0.81080000  0.32100000  0.16530000  1.0 -0.1659740101
C  C86  1  0.81980000  0.30430000  0.21600000  1.0 0.0613917915
C  C87  1  0.85732000  0.31892000  0.23230000  1.0 -0.1607051198
C  C88  1  0.74840000  0.20440000  0.46490000  1.0 -0.0998802744
C  C89  1  0.77430000  0.49990000  0.46480000  1.0 -0.1060459866
C  C90  1  0.63320000  0.51070000  0.14650000  1.0 -0.0304376606
C  C91  1  0.73110000  0.52070000  0.32170000  1.0 -0.2133440739
C  C92  1  0.64780000  0.48790000  0.12950000  1.0 -0.0998802744
C  C93  1  0.65019000  0.53710000  0.19660000  1.0 -0.0861828741
C  C94  1  0.59880000  0.50640000  0.10800000  1.0 0.6360019628
C  C95  1  0.72870000  0.51730000  0.25290000  1.0 0.070538316
C  C96  1  0.67900000  0.48980000  0.16530000  1.0 -0.1659740101
C  C97  1  0.69570000  0.51550000  0.21600000  1.0 0.070538316
C  C98  1  0.68108000  0.53840000  0.23230000  1.0 -0.1607051198
C  C99  1  0.79560000  0.54400000  0.46490000  1.0 -0.0998802744
C  C100  1  0.49990000  0.72560000  0.46480000  1.0 -0.0998802744
C  C101  1  0.51070000  0.87750000  0.14650000  1.0 -0.0304376606
C  C102  1  0.52070000  0.78960000  0.32170000  1.0 -0.2133440739
C  C103  1  0.48790000  0.84010000  0.12950000  1.0 -0.0998802744
C  C104  1  0.53710000  0.88691000  0.19660000  1.0 -0.0861828741
C  C105  1  0.50640000  0.90760000  0.10800000  1.0 0.6360019628
C  C106  1  0.51730000  0.78860000  0.25290000  1.0 0.070538316
C  C107  1  0.48980000  0.81080000  0.16530000  1.0 -0.1659740101
C  C108  1  0.51550000  0.81980000  0.21600000  1.0 0.0613917915
C  C109  1  0.53840000  0.85732000  0.23230000  1.0 -0.1607051198
C  C110  1  0.54400000  0.74840000  0.46490000  1.0 -0.0998802744
C  C111  1  0.27440000  0.77430000  0.46480000  1.0 -0.0998802744
C  C112  1  0.12250000  0.63320000  0.14650000  1.0 -0.0304376606
C  C113  1  0.21040000  0.73110000  0.32170000  1.0 -0.2133440739
C  C114  1  0.15990000  0.64780000  0.12950000  1.0 -0.0998802744
C  C115  1  0.11309000  0.65019000  0.19660000  1.0 -0.0861828741
C  C116  1  0.09240000  0.59880000  0.10800000  1.0 0.6360019628
C  C117  1  0.21140000  0.72870000  0.25290000  1.0 0.070538316
C  C118  1  0.18920000  0.67900000  0.16530000  1.0 -0.1659740101
C  C119  1  0.18020000  0.69570000  0.21600000  1.0 0.0613917915
C  C120  1  0.14268000  0.68108000  0.23230000  1.0 -0.1607051198
C  C121  1  0.25160000  0.79560000  0.46490000  1.0 -0.1060459866
C  C122  1  0.22570000  0.50010000  0.46480000  1.0 -0.0998802744
C  C123  1  0.36680000  0.48930000  0.14650000  1.0 -0.0304376606
C  C124  1  0.26890000  0.47930000  0.32170000  1.0 -0.2133440739
C  C125  1  0.35220000  0.51210000  0.12950000  1.0 -0.0998802744
C  C126  1  0.34981000  0.46290000  0.19660000  1.0 -0.0861828741
C  C127  1  0.40120000  0.49360000  0.10800000  1.0 0.6360019628
C  C128  1  0.27130000  0.48270000  0.25290000  1.0 0.070538316
C  C129  1  0.32100000  0.51020000  0.16530000  1.0 -0.1659740101
C  C130  1  0.30430000  0.48450000  0.21600000  1.0 0.0613917915
C  C131  1  0.31892000  0.46160000  0.23230000  1.0 -0.1607051198
C  C132  1  0.20440000  0.45600000  0.46490000  1.0 -0.1060459866
C  C133  1  0.77430000  0.27440000  0.46480000  1.0 -0.0998802744
C  C134  1  0.63320000  0.12250000  0.14650000  1.0 -0.0304376606
C  C135  1  0.73110000  0.21040000  0.32170000  1.0 -0.2133440739
C  C136  1  0.64780000  0.15990000  0.12950000  1.0 -0.0998802744
C  C137  1  0.65019000  0.11309000  0.19660000  1.0 -0.0861828741
C  C138  1  0.59880000  0.09240000  0.10800000  1.0 0.6360019628
C  C139  1  0.72870000  0.21140000  0.25290000  1.0 0.070538316
C  C140  1  0.67900000  0.18920000  0.16530000  1.0 -0.1659740101
C  C141  1  0.69570000  0.18020000  0.21600000  1.0 0.0613917915
C  C142  1  0.68108000  0.14268000  0.23230000  1.0 -0.1607051198
C  C143  1  0.79560000  0.25160000  0.46490000  1.0 -0.0998802744
C  C144  1  0.50010000  0.22570000  0.46480000  1.0 -0.0998802744
C  C145  1  0.48930000  0.36680000  0.14650000  1.0 -0.0304376606
C  C146  1  0.47930000  0.26890000  0.32170000  1.0 -0.2133440739
C  C147  1  0.51210000  0.35220000  0.12950000  1.0 -0.0998802744
C  C148  1  0.46290000  0.34981000  0.19660000  1.0 -0.0861828741
C  C149  1  0.49360000  0.40120000  0.10800000  1.0 0.6360019628
C  C150  1  0.48270000  0.27130000  0.25290000  1.0 0.070538316
C  C151  1  0.51020000  0.32100000  0.16530000  1.0 -0.1659740101
C  C152  1  0.48450000  0.30430000  0.21600000  1.0 0.0613917915
C  C153  1  0.46160000  0.31892000  0.23230000  1.0 -0.1607051198
C  C154  1  0.45600000  0.20440000  0.46490000  1.0 -0.0998802744
C  C155  1  0.72560000  0.49990000  0.46480000  1.0 -0.0998802744
C  C156  1  0.87750000  0.51070000  0.14650000  1.0 -0.0304376606
C  C157  1  0.78960000  0.52070000  0.32170000  1.0 -0.2133440739
C  C158  1  0.84010000  0.48790000  0.12950000  1.0 -0.0998802744
C  C159  1  0.88691000  0.53710000  0.19660000  1.0 -0.0861828741
C  C160  1  0.90760000  0.50640000  0.10800000  1.0 0.6360019628
C  C161  1  0.78860000  0.51730000  0.25290000  1.0 0.070538316
C  C162  1  0.81080000  0.48980000  0.16530000  1.0 -0.1659740101
C  C163  1  0.81980000  0.51550000  0.21600000  1.0 0.070538316
C  C164  1  0.85732000  0.53840000  0.23230000  1.0 -0.1607051198
C  C165  1  0.74840000  0.54400000  0.46490000  1.0 -0.1060459866
C  C166  1  0.22570000  0.72560000  0.46480000  1.0 -0.1060459866
C  C167  1  0.36680000  0.87750000  0.14650000  1.0 -0.0304376606
C  C168  1  0.26890000  0.78960000  0.32170000  1.0 -0.2133440739
C  C169  1  0.35220000  0.84010000  0.12950000  1.0 -0.0998802744
C  C170  1  0.34981000  0.88691000  0.19660000  1.0 -0.0861828741
C  C171  1  0.40120000  0.90760000  0.10800000  1.0 0.6360019628
C  C172  1  0.27130000  0.78860000  0.25290000  1.0 0.070538316
C  C173  1  0.32100000  0.81080000  0.16530000  1.0 -0.1659740101
C  C174  1  0.30430000  0.81980000  0.21600000  1.0 0.0613917915
C  C175  1  0.31892000  0.85732000  0.23230000  1.0 -0.1607051198
C  C176  1  0.20440000  0.74840000  0.46490000  1.0 -0.0998802744
C  C177  1  0.49990000  0.77430000  0.46480000  1.0 -0.0998802744
C  C178  1  0.51070000  0.63320000  0.14650000  1.0 -0.0304376606
C  C179  1  0.52070000  0.73110000  0.32170000  1.0 -0.2133440739
C  C180  1  0.48790000  0.64780000  0.12950000  1.0 -0.0998802744
C  C181  1  0.53710000  0.65019000  0.19660000  1.0 -0.0861828741
C  C182  1  0.50640000  0.59880000  0.10800000  1.0 0.6360019628
C  C183  1  0.51730000  0.72870000  0.25290000  1.0 0.070538316
C  C184  1  0.48980000  0.67900000  0.16530000  1.0 -0.1659740101
C  C185  1  0.51550000  0.69570000  0.21600000  1.0 0.0613917915
C  C186  1  0.53840000  0.68108000  0.23230000  1.0 -0.1607051198
C  C187  1  0.54400000  0.79560000  0.46490000  1.0 -0.1060459866
C  C188  1  0.27440000  0.50010000  0.46480000  1.0 -0.1060459866
C  C189  1  0.12250000  0.48930000  0.14650000  1.0 -0.0304376606
C  C190  1  0.21040000  0.47930000  0.32170000  1.0 -0.2133440739
C  C191  1  0.15990000  0.51210000  0.12950000  1.0 -0.0998802744
C  C192  1  0.11309000  0.46290000  0.19660000  1.0 -0.0861828741
C  C193  1  0.09240000  0.49360000  0.10800000  1.0 0.6360019628
C  C194  1  0.21140000  0.48270000  0.25290000  1.0 0.070538316
C  C195  1  0.18920000  0.51020000  0.16530000  1.0 -0.1659740101
C  C196  1  0.18020000  0.48450000  0.21600000  1.0 0.0613917915
C  C197  1  0.14268000  0.46160000  0.23230000  1.0 -0.1607051198
C  C198  1  0.25160000  0.45600000  0.46490000  1.0 -0.0998802744
C  C199  1  0.49990000  0.72560000  0.53520000  1.0 -0.0998802744
C  C200  1  0.51070000  0.87750000  0.85350000  1.0 -0.0304376606
C  C201  1  0.52070000  0.78960000  0.67830000  1.0 -0.2133440739
C  C202  1  0.48790000  0.84010000  0.87050000  1.0 -0.0998802744
C  C203  1  0.53710000  0.88691000  0.80340000  1.0 -0.0861828741
C  C204  1  0.50640000  0.90760000  0.89200000  1.0 0.6360019628
C  C205  1  0.51730000  0.78860000  0.74710000  1.0 0.070538316
C  C206  1  0.48980000  0.81080000  0.83470000  1.0 -0.1659740101
C  C207  1  0.51550000  0.81980000  0.78400000  1.0 0.0613917915
C  C208  1  0.53840000  0.85732000  0.76770000  1.0 -0.1607051198
C  C209  1  0.54400000  0.74840000  0.53510000  1.0 -0.0998802744
C  C210  1  0.27440000  0.77430000  0.53520000  1.0 -0.0998802744
C  C211  1  0.12250000  0.63320000  0.85350000  1.0 -0.0304376606
C  C212  1  0.21040000  0.73110000  0.67830000  1.0 -0.2133440739
C  C213  1  0.15990000  0.64780000  0.87050000  1.0 -0.0998802744
C  C214  1  0.11309000  0.65019000  0.80340000  1.0 -0.0861828741
C  C215  1  0.09240000  0.59880000  0.89200000  1.0 0.6360019628
C  C216  1  0.21140000  0.72870000  0.74710000  1.0 0.070538316
C  C217  1  0.18920000  0.67900000  0.83470000  1.0 -0.1659740101
C  C218  1  0.18020000  0.69570000  0.78400000  1.0 0.0613917915
C  C219  1  0.14268000  0.68108000  0.76770000  1.0 -0.1607051198
C  C220  1  0.25160000  0.79560000  0.53510000  1.0 -0.1060459866
C  C221  1  0.22570000  0.50010000  0.53520000  1.0 -0.0998802744
C  C222  1  0.36680000  0.48930000  0.85350000  1.0 -0.0304376606
C  C223  1  0.26890000  0.47930000  0.67830000  1.0 -0.2133440739
C  C224  1  0.35220000  0.51210000  0.87050000  1.0 -0.0998802744
C  C225  1  0.34981000  0.46290000  0.80340000  1.0 -0.0861828741
C  C226  1  0.40120000  0.49360000  0.89200000  1.0 0.6360019628
C  C227  1  0.27130000  0.48270000  0.74710000  1.0 0.070538316
C  C228  1  0.32100000  0.51020000  0.83470000  1.0 -0.1659740101
C  C229  1  0.30430000  0.48450000  0.78400000  1.0 0.0613917915
C  C230  1  0.31892000  0.46160000  0.76770000  1.0 -0.1607051198
C  C231  1  0.20440000  0.45600000  0.53510000  1.0 -0.1060459866
C  C232  1  0.50010000  0.27440000  0.53520000  1.0 -0.0998802744
C  C233  1  0.48930000  0.12250000  0.85350000  1.0 -0.0304376606
C  C234  1  0.47930000  0.21040000  0.67830000  1.0 -0.2133440739
C  C235  1  0.51210000  0.15990000  0.87050000  1.0 -0.0998802744
C  C236  1  0.46290000  0.11309000  0.80340000  1.0 -0.0861828741
C  C237  1  0.49360000  0.09240000  0.89200000  1.0 0.6360019628
C  C238  1  0.48270000  0.21140000  0.74710000  1.0 0.070538316
C  C239  1  0.51020000  0.18920000  0.83470000  1.0 -0.1659740101
C  C240  1  0.48450000  0.18020000  0.78400000  1.0 0.0613917915
C  C241  1  0.46160000  0.14268000  0.76770000  1.0 -0.1607051198
C  C242  1  0.45600000  0.25160000  0.53510000  1.0 -0.1060459866
C  C243  1  0.72560000  0.22570000  0.53520000  1.0 -0.0998802744
C  C244  1  0.87750000  0.36680000  0.85350000  1.0 -0.0304376606
C  C245  1  0.78960000  0.26890000  0.67830000  1.0 -0.2133440739
C  C246  1  0.84010000  0.35220000  0.87050000  1.0 -0.0998802744
C  C247  1  0.88691000  0.34981000  0.80340000  1.0 -0.0861828741
C  C248  1  0.90760000  0.40120000  0.89200000  1.0 0.6360019628
C  C249  1  0.78860000  0.27130000  0.74710000  1.0 0.070538316
C  C250  1  0.81080000  0.32100000  0.83470000  1.0 -0.1659740101
C  C251  1  0.81980000  0.30430000  0.78400000  1.0 0.0613917915
C  C252  1  0.85732000  0.31892000  0.76770000  1.0 -0.1607051198
C  C253  1  0.74840000  0.20440000  0.53510000  1.0 -0.0998802744
C  C254  1  0.77430000  0.49990000  0.53520000  1.0 -0.1060459866
C  C255  1  0.63320000  0.51070000  0.85350000  1.0 -0.0304376606
C  C256  1  0.73110000  0.52070000  0.67830000  1.0 -0.2133440739
C  C257  1  0.64780000  0.48790000  0.87050000  1.0 -0.0998802744
C  C258  1  0.65019000  0.53710000  0.80340000  1.0 -0.0861828741
C  C259  1  0.59880000  0.50640000  0.89200000  1.0 0.6360019628
C  C260  1  0.72870000  0.51730000  0.74710000  1.0 0.070538316
C  C261  1  0.67900000  0.48980000  0.83470000  1.0 -0.1659740101
C  C262  1  0.69570000  0.51550000  0.78400000  1.0 0.070538316
C  C263  1  0.68108000  0.53840000  0.76770000  1.0 -0.1607051198
C  C264  1  0.79560000  0.54400000  0.53510000  1.0 -0.0998802744
C  C265  1  0.23890000  0.76110000  0.56920000  1.0 0.0613917915
C  C266  1  0.24250000  0.75750000  0.77940000  1.0 -0.1986314075
C  C267  1  0.23895000  0.76105000  0.64240000  1.0 0.070538316
C  C268  1  0.52220000  0.76110000  0.56920000  1.0 0.0613917915
C  C269  1  0.51500000  0.75750000  0.77940000  1.0 -0.1986314075
C  C270  1  0.52210000  0.76105000  0.64240000  1.0 0.070538316
C  C271  1  0.23890000  0.47780000  0.56920000  1.0 0.0613917915
C  C272  1  0.24250000  0.48500000  0.77940000  1.0 -0.1986314075
C  C273  1  0.23895000  0.47790000  0.64240000  1.0 0.070538316
C  C274  1  0.76110000  0.23890000  0.56920000  1.0 0.0613917915
C  C275  1  0.75750000  0.24250000  0.77940000  1.0 -0.1986314075
C  C276  1  0.76105000  0.23895000  0.64240000  1.0 0.070538316
C  C277  1  0.47780000  0.23890000  0.56920000  1.0 0.0613917915
C  C278  1  0.48500000  0.24250000  0.77940000  1.0 -0.1986314075
C  C279  1  0.47790000  0.23895000  0.64240000  1.0 0.070538316
C  C280  1  0.76110000  0.52220000  0.56920000  1.0 0.0613917915
C  C281  1  0.75750000  0.51500000  0.77940000  1.0 -0.1986314075
C  C282  1  0.76105000  0.52210000  0.64240000  1.0 0.070538316
C  C283  1  0.47780000  0.23890000  0.43080000  1.0 0.0613917915
C  C284  1  0.48500000  0.24250000  0.22060000  1.0 -0.1986314075
C  C285  1  0.47790000  0.23895000  0.35760000  1.0 0.070538316
C  C286  1  0.76110000  0.23890000  0.43080000  1.0 0.0613917915
C  C287  1  0.75750000  0.24250000  0.22060000  1.0 -0.1986314075
C  C288  1  0.76105000  0.23895000  0.35760000  1.0 0.070538316
C  C289  1  0.76110000  0.52220000  0.43080000  1.0 0.0613917915
C  C290  1  0.75750000  0.51500000  0.22060000  1.0 -0.1986314075
C  C291  1  0.76105000  0.52210000  0.35760000  1.0 0.070538316
C  C292  1  0.52220000  0.76110000  0.43080000  1.0 0.0613917915
C  C293  1  0.51500000  0.75750000  0.22060000  1.0 -0.1986314075
C  C294  1  0.52210000  0.76105000  0.35760000  1.0 0.070538316
C  C295  1  0.23890000  0.76110000  0.43080000  1.0 0.0613917915
C  C296  1  0.24250000  0.75750000  0.22060000  1.0 -0.1986314075
C  C297  1  0.23895000  0.76105000  0.35760000  1.0 0.070538316
C  C298  1  0.23890000  0.47780000  0.43080000  1.0 0.0613917915
C  C299  1  0.24250000  0.48500000  0.22060000  1.0 -0.1986314075
C  C300  1  0.23895000  0.47790000  0.35760000  1.0 0.070538316
O  O1  1  0.41545000  0.89659000  0.93508000  1.0 -0.5657744672
O  O2  1  0.41005000  0.94257000  0.87570000  1.0 -0.6425388198
O  O3  1  0.48114000  0.58455000  0.93508000  1.0 -0.5639320479
O  O4  1  0.53252000  0.58995000  0.87570000  1.0 -0.6425388198
O  O5  1  0.10341000  0.51886000  0.93508000  1.0 -0.5639320479
O  O6  1  0.05743000  0.46748000  0.87570000  1.0 -0.6425388198
O  O7  1  0.58455000  0.10341000  0.93508000  1.0 -0.5639320479
O  O8  1  0.58995000  0.05743000  0.87570000  1.0 -0.6425388198
O  O9  1  0.51886000  0.41545000  0.93508000  1.0 -0.5657744672
O  O10  1  0.46748000  0.41005000  0.87570000  1.0 -0.6425388198
O  O11  1  0.89659000  0.48114000  0.93508000  1.0 -0.5639320479
O  O12  1  0.94257000  0.53252000  0.87570000  1.0 -0.6425388198
O  O13  1  0.51886000  0.10341000  0.06492000  1.0 -0.5639320479
O  O14  1  0.46748000  0.05743000  0.12430000  1.0 -0.6425388198
O  O15  1  0.89659000  0.41545000  0.06492000  1.0 -0.5639320479
O  O16  1  0.94257000  0.41005000  0.12430000  1.0 -0.6425388198
O  O17  1  0.58455000  0.48114000  0.06492000  1.0 -0.5657744672
O  O18  1  0.58995000  0.53252000  0.12430000  1.0 -0.6425388198
O  O19  1  0.48114000  0.89659000  0.06492000  1.0 -0.5639320479
O  O20  1  0.53252000  0.94257000  0.12430000  1.0 -0.6425388198
O  O21  1  0.10341000  0.58455000  0.06492000  1.0 -0.5657744672
O  O22  1  0.05743000  0.58995000  0.12430000  1.0 -0.6425388198
O  O23  1  0.41545000  0.51886000  0.06492000  1.0 -0.5639320479
O  O24  1  0.41005000  0.46748000  0.12430000  1.0 -0.6425388198
O  O25  1  0.58455000  0.10341000  0.06492000  1.0 -0.5639320479
O  O26  1  0.58995000  0.05743000  0.12430000  1.0 -0.6425388198
O  O27  1  0.51886000  0.41545000  0.06492000  1.0 -0.5657744672
O  O28  1  0.46748000  0.41005000  0.12430000  1.0 -0.6425388198
O  O29  1  0.89659000  0.48114000  0.06492000  1.0 -0.5639320479
O  O30  1  0.94257000  0.53252000  0.12430000  1.0 -0.6425388198
O  O31  1  0.41545000  0.89659000  0.06492000  1.0 -0.5639320479
O  O32  1  0.41005000  0.94257000  0.12430000  1.0 -0.6425388198
O  O33  1  0.48114000  0.58455000  0.06492000  1.0 -0.5639320479
O  O34  1  0.53252000  0.58995000  0.12430000  1.0 -0.6425388198
O  O35  1  0.10341000  0.51886000  0.06492000  1.0 -0.5639320479
O  O36  1  0.05743000  0.46748000  0.12430000  1.0 -0.6425388198
O  O37  1  0.48114000  0.89659000  0.93508000  1.0 -0.5657744672
O  O38  1  0.53252000  0.94257000  0.87570000  1.0 -0.6425388198
O  O39  1  0.10341000  0.58455000  0.93508000  1.0 -0.5657744672
O  O40  1  0.05743000  0.58995000  0.87570000  1.0 -0.6425388198
O  O41  1  0.41545000  0.51886000  0.93508000  1.0 -0.5639320479
O  O42  1  0.41005000  0.46748000  0.87570000  1.0 -0.6425388198
O  O43  1  0.51886000  0.10341000  0.93508000  1.0 -0.5639320479
O  O44  1  0.46748000  0.05743000  0.87570000  1.0 -0.6425388198
O  O45  1  0.89659000  0.41545000  0.93508000  1.0 -0.5657744672
O  O46  1  0.94257000  0.41005000  0.87570000  1.0 -0.6425388198
O  O47  1  0.58455000  0.48114000  0.93508000  1.0 -0.5657744672
O  O48  1  0.58995000  0.53252000  0.87570000  1.0 -0.6425388198
O  O49  1  0.48263000  0.96526000  0.91140000  1.0 -1.2012055284
O  O50  1  0.48263000  0.51737000  0.91140000  1.0 -1.2064568317
O  O51  1  0.03474000  0.51737000  0.91140000  1.0 -1.2012055284
O  O52  1  0.51737000  0.03474000  0.91140000  1.0 -1.2064568317
O  O53  1  0.51737000  0.48263000  0.91140000  1.0 -1.2012055284
O  O54  1  0.96526000  0.48263000  0.91140000  1.0 -1.2064568317
O  O55  1  0.51737000  0.03474000  0.08860000  1.0 -1.2064568317
O  O56  1  0.96526000  0.48263000  0.08860000  1.0 -1.2064568317
O  O57  1  0.51737000  0.48263000  0.08860000  1.0 -1.2012055284
O  O58  1  0.48263000  0.96526000  0.08860000  1.0 -1.2012055284
O  O59  1  0.03474000  0.51737000  0.08860000  1.0 -1.2012055284
O  O60  1  0.48263000  0.51737000  0.08860000  1.0 -1.2064568317
O  O61  1  0.43650000  0.96415000  0.00000000  1.0 -1.2012055284
O  O62  1  0.52765000  0.56350000  0.00000000  1.0 -1.2012055284
O  O63  1  0.03585000  0.47235000  0.00000000  1.0 -1.2064568317
O  O64  1  0.56350000  0.03585000  0.00000000  1.0 -1.2012055284
O  O65  1  0.47235000  0.43650000  0.00000000  1.0 -1.2064568317
O  O66  1  0.96415000  0.52765000  0.00000000  1.0 -1.2012055284
O  O67  1  0.47235000  0.03585000  0.00000000  1.0 -1.2012055284
O  O68  1  0.96415000  0.43650000  0.00000000  1.0 -1.2012055284
O  O69  1  0.56350000  0.52765000  0.00000000  1.0 -1.2012055284
O  O70  1  0.52765000  0.96415000  0.00000000  1.0 -1.2012055284
O  O71  1  0.03585000  0.56350000  0.00000000  1.0 -1.2012055284
O  O72  1  0.43650000  0.47235000  0.00000000  1.0 -1.2012055284
