# DDEC6 charges by PACMAN v1.1 (https://github.com/mtap-research/PACMAN-charge/)
data_LIHGES_FSR_pacman
_symmetry_space_group_name_H-M   'P 1'
_cell_length_a   21.10110000
_cell_length_b   21.10110000
_cell_length_c   21.10110000
_cell_angle_alpha   109.71000000
_cell_angle_beta   109.37100000
_cell_angle_gamma   109.33200000
_symmetry_Int_Tables_number   1
_chemical_formula_structural   Zr3H9(C3O2)8
_chemical_formula_sum   'Zr24 H72 C192 O128'
_cell_volume   7232.57009448
_cell_formula_units_Z   8
loop_
 _symmetry_equiv_pos_site_id
 _symmetry_equiv_pos_as_xyz
  1  'x, y, z'
loop_
 _atom_site_type_symbol
 _atom_site_label
 _atom_site_symmetry_multiplicity
 _atom_site_fract_x
 _atom_site_fract_y
 _atom_site_fract_z
 _atom_site_occupancy
 _atom_site_charge
Zr  Zr1  1  0.50178000  0.91676000  0.88516000  1.0 2.278406137
Zr  Zr2  1  0.61724000  0.11070000  0.03294000  1.0 2.3172861787
Zr  Zr3  1  0.57977000  0.96389000  0.08150000  1.0 2.1785911856
Zr  Zr4  1  0.96840000  0.08324000  0.58502000  1.0 2.278406137
Zr  Zr5  1  0.92224000  0.88930000  0.50654000  1.0 2.3146803317
Zr  Zr6  1  0.11761000  0.03611000  0.61588000  1.0 2.1785911856
Zr  Zr7  1  0.49822000  0.38338000  0.41498000  1.0 2.278406137
Zr  Zr8  1  0.38276000  0.41570000  0.49346000  1.0 2.3172861787
Zr  Zr9  1  0.42023000  0.50173000  0.38412000  1.0 2.1785911856
Zr  Zr10  1  0.03160000  0.61662000  0.11484000  1.0 2.278406137
Zr  Zr11  1  0.07776000  0.58430000  0.96706000  1.0 2.3172861787
Zr  Zr12  1  0.88239000  0.49827000  0.91850000  1.0 2.1785911856
Zr  Zr13  1  0.49822000  0.08324000  0.11484000  1.0 2.278406137
Zr  Zr14  1  0.38276000  0.88930000  0.96706000  1.0 2.3172861787
Zr  Zr15  1  0.42023000  0.03611000  0.91850000  1.0 2.1785911856
Zr  Zr16  1  0.03160000  0.91676000  0.41498000  1.0 2.278406137
Zr  Zr17  1  0.07776000  0.11070000  0.49346000  1.0 2.3172861787
Zr  Zr18  1  0.88239000  0.96389000  0.38412000  1.0 2.1785911856
Zr  Zr19  1  0.50178000  0.61662000  0.58502000  1.0 2.278406137
Zr  Zr20  1  0.61724000  0.58430000  0.50654000  1.0 2.3172861787
Zr  Zr21  1  0.57977000  0.49827000  0.61588000  1.0 2.1785911856
Zr  Zr22  1  0.96840000  0.38338000  0.88516000  1.0 2.278406137
Zr  Zr23  1  0.92224000  0.41570000  0.03294000  1.0 2.3172861787
Zr  Zr24  1  0.11761000  0.50173000  0.08150000  1.0 2.1785911856
H  H1  1  0.65210000  0.95800000  0.77850000  1.0 0.139880717
H  H2  1  0.72980000  0.37340000  0.18720000  1.0 0.1313321764
H  H3  1  0.73620000  0.86280000  0.04260000  1.0 0.1313321764
H  H4  1  0.38120000  0.83920000  0.62640000  1.0 0.139880717
H  H5  1  0.87380000  0.19410000  0.15190000  1.0 0.1313321764
H  H6  1  0.54220000  0.80390000  0.17770000  1.0 0.1313321764
H  H7  1  0.82050000  0.04200000  0.69410000  1.0 0.139880717
H  H8  1  0.81380000  0.62660000  0.35640000  1.0 0.1313321764
H  H9  1  0.17980000  0.13720000  0.87340000  1.0 0.1313321764
H  H10  1  0.78720000  0.16080000  0.54200000  1.0 0.139880717
H  H11  1  0.95780000  0.80590000  0.67970000  1.0 0.1313321764
H  H12  1  0.37380000  0.19610000  0.73830000  1.0 0.1313321764
H  H13  1  0.34790000  0.12640000  0.30590000  1.0 0.139880717
H  H14  1  0.27020000  0.45740000  0.64360000  1.0 0.1313321764
H  H15  1  0.26380000  0.30640000  0.12660000  1.0 0.1313321764
H  H16  1  0.61880000  0.24520000  0.45800000  1.0 0.139880717
H  H17  1  0.12620000  0.27810000  0.32030000  1.0 0.1313321764
H  H18  1  0.45780000  0.63550000  0.26170000  1.0 0.1313321764
H  H19  1  0.17950000  0.87360000  0.22150000  1.0 0.139880717
H  H20  1  0.18620000  0.54260000  0.81280000  1.0 0.1313321764
H  H21  1  0.82020000  0.69360000  0.95740000  1.0 0.1313321764
H  H22  1  0.21280000  0.75480000  0.37360000  1.0 0.139880717
H  H23  1  0.04220000  0.72190000  0.84810000  1.0 0.1313321764
H  H24  1  0.62620000  0.36450000  0.82230000  1.0 0.1313321764
H  H25  1  0.34790000  0.04200000  0.22150000  1.0 0.139880717
H  H26  1  0.27020000  0.62660000  0.81280000  1.0 0.1313321764
H  H27  1  0.26380000  0.13720000  0.95740000  1.0 0.1313321764
H  H28  1  0.61880000  0.16080000  0.37360000  1.0 0.139880717
H  H29  1  0.12620000  0.80590000  0.84810000  1.0 0.1313321764
H  H30  1  0.45780000  0.19610000  0.82230000  1.0 0.1313321764
H  H31  1  0.17950000  0.95800000  0.30590000  1.0 0.139880717
H  H32  1  0.18620000  0.37340000  0.64360000  1.0 0.1313321764
H  H33  1  0.82020000  0.86280000  0.12660000  1.0 0.1313321764
H  H34  1  0.21280000  0.83920000  0.45800000  1.0 0.139880717
H  H35  1  0.04220000  0.19410000  0.32030000  1.0 0.1313321764
H  H36  1  0.62620000  0.80390000  0.26170000  1.0 0.1313321764
H  H37  1  0.65210000  0.87360000  0.69410000  1.0 0.139880717
H  H38  1  0.72980000  0.54260000  0.35640000  1.0 0.1313321764
H  H39  1  0.73620000  0.69360000  0.87340000  1.0 0.1313321764
H  H40  1  0.38120000  0.75480000  0.54200000  1.0 0.139880717
H  H41  1  0.87380000  0.72190000  0.67970000  1.0 0.1313321764
H  H42  1  0.54220000  0.36450000  0.73830000  1.0 0.1313321764
H  H43  1  0.82050000  0.12640000  0.77850000  1.0 0.139880717
H  H44  1  0.81380000  0.45740000  0.18720000  1.0 0.1313321764
H  H45  1  0.17980000  0.30640000  0.04260000  1.0 0.1313321764
H  H46  1  0.78720000  0.24520000  0.62640000  1.0 0.139880717
H  H47  1  0.95780000  0.27810000  0.15190000  1.0 0.1313321764
H  H48  1  0.37380000  0.63550000  0.17770000  1.0 0.1313321764
H  H49  1  0.73630000  0.18860000  0.92490000  1.0 0.139880717
H  H50  1  0.73630000  0.81140000  0.54770000  1.0 0.139880717
H  H51  1  0.26370000  0.18860000  0.45230000  1.0 0.139880717
H  H52  1  0.26370000  0.81140000  0.07510000  1.0 0.139880717
H  H53  1  0.58410000  0.31230000  0.27180000  1.0 0.1313321764
H  H54  1  0.95950000  0.68770000  0.27180000  1.0 0.1313321764
H  H55  1  0.41590000  0.68770000  0.72820000  1.0 0.1313321764
H  H56  1  0.04050000  0.31230000  0.72820000  1.0 0.1313321764
H  H57  1  0.59020000  0.77820000  0.81200000  1.0 0.139880717
H  H58  1  0.03380000  0.22180000  0.81200000  1.0 0.139880717
H  H59  1  0.40980000  0.22180000  0.18800000  1.0 0.139880717
H  H60  1  0.96620000  0.77820000  0.18800000  1.0 0.139880717
H  H61  1  0.29700000  0.98560000  0.68860000  1.0 0.139880717
H  H62  1  0.70300000  0.01440000  0.31140000  1.0 0.139880717
H  H63  1  0.70300000  0.39160000  0.68860000  1.0 0.139880717
H  H64  1  0.29700000  0.60840000  0.31140000  1.0 0.139880717
H  H65  1  0.81230000  0.04840000  0.23610000  1.0 0.1213743774
H  H66  1  0.18770000  0.95160000  0.76390000  1.0 0.1213743774
H  H67  1  0.18770000  0.42380000  0.23610000  1.0 0.1213743774
H  H68  1  0.81230000  0.57620000  0.76390000  1.0 0.1213743774
H  H69  1  0.31200000  0.71970000  0.03170000  1.0 0.1453514186
H  H70  1  0.31200000  0.28030000  0.59230000  1.0 0.1453514186
H  H71  1  0.68800000  0.71970000  0.40770000  1.0 0.1453514186
H  H72  1  0.68800000  0.28030000  0.96830000  1.0 0.1453514186
C  C1  1  0.68560000  0.06970000  0.85670000  1.0 0.0319223398
C  C2  1  0.68560000  0.01080000  0.79780000  1.0 -0.1664398244
C  C3  1  0.63020000  0.04640000  0.88880000  1.0 0.598926538
C  C4  1  0.65200000  0.32920000  0.22080000  1.0 0.0108235591
C  C5  1  0.71050000  0.38770000  0.22080000  1.0 -0.1609022857
C  C6  1  0.62000000  0.24160000  0.16520000  1.0 0.6357607481
C  C7  1  0.65830000  0.82920000  0.93110000  1.0 0.0160449159
C  C8  1  0.71690000  0.82920000  0.98970000  1.0 -0.1609022857
C  C9  1  0.62620000  0.88480000  0.95460000  1.0 0.598926538
C  C10  1  0.34780000  0.91740000  0.67120000  1.0 0.0160449159
C  C11  1  0.34780000  0.85850000  0.61230000  1.0 -0.1517746782
C  C12  1  0.40310000  0.94950000  0.75860000  1.0 0.5697342468
C  C13  1  0.82940000  0.11630000  0.18530000  1.0 0.0108235591
C  C14  1  0.88790000  0.17480000  0.18530000  1.0 -0.1609022857
C  C15  1  0.74210000  0.08430000  0.13000000  1.0 0.5697342468
C  C16  1  0.43080000  0.77040000  0.09980000  1.0 0.0108235591
C  C17  1  0.48940000  0.77040000  0.15840000  1.0 -0.1609022857
C  C18  1  0.45400000  0.82570000  0.06770000  1.0 0.598926538
C  C19  1  0.78700000  0.93030000  0.61590000  1.0 0.0319223398
C  C20  1  0.78700000  0.98920000  0.67480000  1.0 -0.1664398244
C  C21  1  0.84240000  0.95360000  0.58380000  1.0 0.598926538
C  C22  1  0.89160000  0.67080000  0.32280000  1.0 0.0108235591
C  C23  1  0.83310000  0.61230000  0.32280000  1.0 -0.1609022857
C  C24  1  0.92360000  0.75840000  0.37840000  1.0 0.6357607481
C  C25  1  0.10190000  0.17080000  0.82910000  1.0 0.0160449159
C  C26  1  0.16050000  0.17080000  0.88770000  1.0 -0.1609022857
C  C27  1  0.06980000  0.11520000  0.74140000  1.0 0.598926538
C  C28  1  0.75380000  0.08260000  0.43040000  1.0 0.0160449159
C  C29  1  0.75380000  0.14150000  0.48930000  1.0 -0.1517746782
C  C30  1  0.80910000  0.05050000  0.45360000  1.0 0.5697342468
C  C31  1  0.06900000  0.88370000  0.71310000  1.0 0.0108235591
C  C32  1  0.01050000  0.82520000  0.71310000  1.0 -0.1609022857
C  C33  1  0.04570000  0.91570000  0.65780000  1.0 0.5697342468
C  C34  1  0.32940000  0.22960000  0.66040000  1.0 0.0108235591
C  C35  1  0.38800000  0.22960000  0.71900000  1.0 -0.1609022857
C  C36  1  0.24200000  0.17430000  0.62830000  1.0 0.598926538
C  C37  1  0.31440000  0.17110000  0.38410000  1.0 0.0319223398
C  C38  1  0.31440000  0.11220000  0.32520000  1.0 -0.1664398244
C  C39  1  0.36980000  0.25860000  0.41620000  1.0 0.598926538
C  C40  1  0.34800000  0.56880000  0.67720000  1.0 0.0108235591
C  C41  1  0.28950000  0.51030000  0.67720000  1.0 -0.1609022857
C  C42  1  0.38000000  0.54520000  0.62160000  1.0 0.6357607481
C  C43  1  0.34170000  0.27280000  0.17090000  1.0 0.0160449159
C  C44  1  0.28310000  0.27280000  0.11230000  1.0 -0.1609022857
C  C45  1  0.37380000  0.32840000  0.25860000  1.0 0.598926538
C  C46  1  0.65220000  0.32340000  0.56960000  1.0 0.0160449159
C  C47  1  0.65220000  0.26450000  0.51070000  1.0 -0.1517746782
C  C48  1  0.59690000  0.35550000  0.54640000  1.0 0.5697342468
C  C49  1  0.17060000  0.35590000  0.28690000  1.0 0.0108235591
C  C50  1  0.11210000  0.29740000  0.28690000  1.0 -0.1609022857
C  C51  1  0.25790000  0.38790000  0.34220000  1.0 0.5697342468
C  C52  1  0.56920000  0.66900000  0.33960000  1.0 0.0108235591
C  C53  1  0.51060000  0.66900000  0.28100000  1.0 -0.1609022857
C  C54  1  0.54600000  0.61370000  0.37170000  1.0 0.598926538
C  C55  1  0.21300000  0.82890000  0.14330000  1.0 0.0319223398
C  C56  1  0.21300000  0.88780000  0.20220000  1.0 -0.1664398244
C  C57  1  0.15760000  0.74140000  0.11120000  1.0 0.598926538
C  C58  1  0.10840000  0.43120000  0.77920000  1.0 0.0108235591
C  C59  1  0.16690000  0.48970000  0.77920000  1.0 -0.1609022857
C  C60  1  0.07640000  0.45480000  0.83480000  1.0 0.6357607481
C  C61  1  0.89810000  0.72720000  0.06890000  1.0 0.0160449159
C  C62  1  0.83950000  0.72720000  0.01030000  1.0 -0.1609022857
C  C63  1  0.93020000  0.67160000  0.04540000  1.0 0.598926538
C  C64  1  0.24620000  0.67660000  0.32880000  1.0 0.0160449159
C  C65  1  0.24620000  0.73550000  0.38770000  1.0 -0.1517746782
C  C66  1  0.19090000  0.64450000  0.24140000  1.0 0.5697342468
C  C67  1  0.93100000  0.64410000  0.81470000  1.0 0.0108235591
C  C68  1  0.98950000  0.70260000  0.81470000  1.0 -0.1609022857
C  C69  1  0.95430000  0.61210000  0.87000000  1.0 0.5697342468
C  C70  1  0.67060000  0.33100000  0.90020000  1.0 0.0108235591
C  C71  1  0.61200000  0.33100000  0.84160000  1.0 -0.1609022857
C  C72  1  0.75800000  0.38630000  0.93230000  1.0 0.598926538
C  C73  1  0.31440000  0.93030000  0.14330000  1.0 0.0319223398
C  C74  1  0.31440000  0.98920000  0.20220000  1.0 -0.1664398244
C  C75  1  0.36980000  0.95360000  0.11120000  1.0 0.598926538
C  C76  1  0.34800000  0.67080000  0.77920000  1.0 0.0108235591
C  C77  1  0.28950000  0.61230000  0.77920000  1.0 -0.1609022857
C  C78  1  0.38000000  0.75840000  0.83480000  1.0 0.6357607481
C  C79  1  0.34170000  0.17080000  0.06890000  1.0 0.0160449159
C  C80  1  0.28310000  0.17080000  0.01030000  1.0 -0.1609022857
C  C81  1  0.37380000  0.11520000  0.04540000  1.0 0.598926538
C  C82  1  0.65220000  0.08260000  0.32880000  1.0 0.0160449159
C  C83  1  0.65220000  0.14150000  0.38770000  1.0 -0.1517746782
C  C84  1  0.59690000  0.05050000  0.24140000  1.0 0.5697342468
C  C85  1  0.17060000  0.88370000  0.81470000  1.0 0.0108235591
C  C86  1  0.11210000  0.82520000  0.81470000  1.0 -0.1609022857
C  C87  1  0.25790000  0.91570000  0.87000000  1.0 0.5697342468
C  C88  1  0.56920000  0.22960000  0.90020000  1.0 0.0108235591
C  C89  1  0.51060000  0.22960000  0.84160000  1.0 -0.1609022857
C  C90  1  0.54600000  0.17430000  0.93230000  1.0 0.598926538
C  C91  1  0.21300000  0.06970000  0.38410000  1.0 0.0319223398
C  C92  1  0.21300000  0.01080000  0.32520000  1.0 -0.1664398244
C  C93  1  0.15760000  0.04640000  0.41620000  1.0 0.598926538
C  C94  1  0.10840000  0.32920000  0.67720000  1.0 0.0108235591
C  C95  1  0.16690000  0.38770000  0.67720000  1.0 -0.1609022857
C  C96  1  0.07640000  0.24160000  0.62160000  1.0 0.6357607481
C  C97  1  0.89810000  0.82920000  0.17090000  1.0 0.0108235591
C  C98  1  0.83950000  0.82920000  0.11230000  1.0 -0.1609022857
C  C99  1  0.93020000  0.88480000  0.25860000  1.0 0.598926538
C  C100  1  0.24620000  0.91740000  0.56960000  1.0 0.0160449159
C  C101  1  0.24620000  0.85850000  0.51070000  1.0 -0.1517746782
C  C102  1  0.19090000  0.94950000  0.54640000  1.0 0.5697342468
C  C103  1  0.93100000  0.11630000  0.28690000  1.0 0.0108235591
C  C104  1  0.98950000  0.17480000  0.28690000  1.0 -0.1609022857
C  C105  1  0.95430000  0.08430000  0.34220000  1.0 0.5697342468
C  C106  1  0.67060000  0.77040000  0.33960000  1.0 0.0108235591
C  C107  1  0.61200000  0.77040000  0.28100000  1.0 -0.1609022857
C  C108  1  0.75800000  0.82570000  0.37170000  1.0 0.598926538
C  C109  1  0.68560000  0.82890000  0.61590000  1.0 0.0319223398
C  C110  1  0.68560000  0.88780000  0.67480000  1.0 -0.1664398244
C  C111  1  0.63020000  0.74140000  0.58380000  1.0 0.598926538
C  C112  1  0.65200000  0.43120000  0.32280000  1.0 0.0108235591
C  C113  1  0.71050000  0.48970000  0.32280000  1.0 -0.1609022857
C  C114  1  0.62000000  0.45480000  0.37840000  1.0 0.6357607481
C  C115  1  0.65830000  0.72720000  0.82910000  1.0 0.0160449159
C  C116  1  0.71690000  0.72720000  0.88770000  1.0 -0.1609022857
C  C117  1  0.62620000  0.67160000  0.74140000  1.0 0.598926538
C  C118  1  0.34780000  0.67660000  0.43040000  1.0 0.0160449159
C  C119  1  0.34780000  0.73550000  0.48930000  1.0 -0.1517746782
C  C120  1  0.40310000  0.64450000  0.45360000  1.0 0.5697342468
C  C121  1  0.82940000  0.64410000  0.71310000  1.0 0.0108235591
C  C122  1  0.88790000  0.70260000  0.71310000  1.0 -0.1609022857
C  C123  1  0.74210000  0.61210000  0.65780000  1.0 0.5697342468
C  C124  1  0.43080000  0.33100000  0.66040000  1.0 0.0108235591
C  C125  1  0.48940000  0.33100000  0.71900000  1.0 -0.1609022857
C  C126  1  0.45400000  0.38630000  0.62830000  1.0 0.598926538
C  C127  1  0.78700000  0.17110000  0.85670000  1.0 0.0319223398
C  C128  1  0.78700000  0.11220000  0.79780000  1.0 -0.1664398244
C  C129  1  0.84240000  0.25860000  0.88880000  1.0 0.598926538
C  C130  1  0.89160000  0.56880000  0.22080000  1.0 0.0108235591
C  C131  1  0.83310000  0.51030000  0.22080000  1.0 -0.1609022857
C  C132  1  0.92360000  0.54520000  0.16520000  1.0 0.6357607481
C  C133  1  0.10190000  0.27280000  0.93110000  1.0 0.0160449159
C  C134  1  0.16050000  0.27280000  0.98970000  1.0 -0.1609022857
C  C135  1  0.06980000  0.32840000  0.95460000  1.0 0.598926538
C  C136  1  0.75380000  0.32340000  0.67120000  1.0 0.0160449159
C  C137  1  0.75380000  0.26450000  0.61230000  1.0 -0.1517746782
C  C138  1  0.80910000  0.35550000  0.75860000  1.0 0.5697342468
C  C139  1  0.06900000  0.35590000  0.18530000  1.0 0.0108235591
C  C140  1  0.01050000  0.29740000  0.18530000  1.0 -0.1609022857
C  C141  1  0.04570000  0.38790000  0.13000000  1.0 0.5697342468
C  C142  1  0.32940000  0.66900000  0.09980000  1.0 0.0108235591
C  C143  1  0.38800000  0.66900000  0.15840000  1.0 -0.1609022857
C  C144  1  0.24200000  0.61370000  0.06770000  1.0 0.598926538
C  C145  1  0.73630000  0.14980000  0.88610000  1.0 -0.1410465511
C  C146  1  0.73630000  0.03210000  0.76840000  1.0 0.0881377583
C  C147  1  0.73630000  0.85020000  0.58650000  1.0 -0.1410465511
C  C148  1  0.73630000  0.96790000  0.70420000  1.0 0.0881377583
C  C149  1  0.26370000  0.14980000  0.41350000  1.0 -0.1410465511
C  C150  1  0.26370000  0.03210000  0.29580000  1.0 0.0881377583
C  C151  1  0.26370000  0.85020000  0.11390000  1.0 -0.1410465511
C  C152  1  0.26370000  0.96790000  0.23160000  1.0 0.0881377583
C  C153  1  0.62270000  0.35090000  0.27180000  1.0 -0.1517746782
C  C154  1  0.73980000  0.46800000  0.27180000  1.0 0.0881377583
C  C155  1  0.92090000  0.64910000  0.27180000  1.0 -0.1410465511
C  C156  1  0.80380000  0.53200000  0.27180000  1.0 0.0881377583
C  C157  1  0.37730000  0.64910000  0.72820000  1.0 -0.1517746782
C  C158  1  0.26020000  0.53200000  0.72820000  1.0 0.0881377583
C  C159  1  0.07910000  0.35090000  0.72820000  1.0 -0.1517746782
C  C160  1  0.19620000  0.46800000  0.72820000  1.0 0.0881377583
C  C161  1  0.62920000  0.77820000  0.85100000  1.0 -0.1292387812
C  C162  1  0.74620000  0.77820000  0.96800000  1.0 0.0786892616
C  C163  1  0.07280000  0.22180000  0.85100000  1.0 -0.1292387812
C  C164  1  0.18980000  0.22180000  0.96800000  1.0 0.0786892616
C  C165  1  0.37080000  0.22180000  0.14900000  1.0 -0.1292387812
C  C166  1  0.25380000  0.22180000  0.03200000  1.0 0.0786892616
C  C167  1  0.92720000  0.77820000  0.14900000  1.0 -0.1292387812
C  C168  1  0.81020000  0.77820000  0.03200000  1.0 0.0786892616
C  C169  1  0.29700000  0.94680000  0.64980000  1.0 -0.18767866
C  C170  1  0.29700000  0.82910000  0.53210000  1.0 0.0786892616
C  C171  1  0.70300000  0.05320000  0.35020000  1.0 -0.18767866
C  C172  1  0.70300000  0.17090000  0.46790000  1.0 0.0786892616
C  C173  1  0.70300000  0.35280000  0.64980000  1.0 -0.18767866
C  C174  1  0.70300000  0.23510000  0.53210000  1.0 0.0786892616
C  C175  1  0.29700000  0.64720000  0.35020000  1.0 -0.18767866
C  C176  1  0.29700000  0.76490000  0.46790000  1.0 0.0786892616
C  C177  1  0.85090000  0.08700000  0.23610000  1.0 -0.1609022857
C  C178  1  0.96800000  0.20410000  0.23610000  1.0 0.0786892616
C  C179  1  0.14910000  0.91300000  0.76390000  1.0 -0.1609022857
C  C180  1  0.03200000  0.79590000  0.76390000  1.0 0.0786892616
C  C181  1  0.14910000  0.38520000  0.23610000  1.0 -0.1609022857
C  C182  1  0.03200000  0.26810000  0.23610000  1.0 0.0786892616
C  C183  1  0.85090000  0.61480000  0.76390000  1.0 -0.1609022857
C  C184  1  0.96800000  0.73190000  0.76390000  1.0 0.0786892616
C  C185  1  0.35100000  0.71970000  0.07070000  1.0 -0.1292387812
C  C186  1  0.46800000  0.71970000  0.18770000  1.0 0.0881377583
C  C187  1  0.35100000  0.28030000  0.63130000  1.0 -0.1292387812
C  C188  1  0.46800000  0.28030000  0.74830000  1.0 0.0881377583
C  C189  1  0.64900000  0.71970000  0.36870000  1.0 -0.1292387812
C  C190  1  0.53200000  0.71970000  0.25170000  1.0 0.0881377583
C  C191  1  0.64900000  0.28030000  0.92930000  1.0 -0.1292387812
C  C192  1  0.53200000  0.28030000  0.81230000  1.0 0.0881377583
O  O1  1  0.52110000  0.03390000  0.93640000  1.0 -0.9274690586
O  O2  1  0.60940000  0.10520000  0.13120000  1.0 -1.050443911
O  O3  1  0.48590000  0.89810000  0.97040000  1.0 -0.9176839056
O  O4  1  0.62100000  0.00230000  0.00190000  1.0 -0.9176839056
O  O5  1  0.44680000  0.91360000  0.77280000  1.0 -0.5926410991
O  O6  1  0.67310000  0.23420000  0.13970000  1.0 -0.6024683478
O  O7  1  0.53200000  0.88160000  0.10600000  1.0 -0.555423415
O  O8  1  0.58020000  0.96750000  0.84010000  1.0 -0.5677051368
O  O9  1  0.74520000  0.13590000  0.10290000  1.0 -0.550056571
O  O10  1  0.62580000  0.88370000  0.01890000  1.0 -0.4779353278
O  O11  1  0.66720000  0.10340000  0.96740000  1.0 -0.6097010386
O  O12  1  0.69580000  0.00180000  0.10380000  1.0 -0.5131741228
O  O13  1  0.59590000  0.89460000  0.88870000  1.0 -0.5677051368
O  O14  1  0.41600000  0.99950000  0.82930000  1.0 -0.4230000141
O  O15  1  0.55650000  0.19030000  0.16360000  1.0 -0.6097010386
O  O16  1  0.39320000  0.81510000  0.00670000  1.0 -0.6097010386
O  O17  1  0.90250000  0.96610000  0.48720000  1.0 -0.9274690586
O  O18  1  0.02600000  0.89480000  0.50420000  1.0 -1.050443911
O  O19  1  0.07230000  0.10190000  0.58780000  1.0 -0.914671916
O  O20  1  0.99960000  0.99770000  0.61870000  1.0 -0.914671916
O  O21  1  0.85920000  0.08640000  0.53320000  1.0 -0.5926410991
O  O22  1  0.90550000  0.76580000  0.43890000  1.0 -0.6024683478
O  O23  1  0.22440000  0.11840000  0.65040000  1.0 -0.555423415
O  O24  1  0.87260000  0.03250000  0.61270000  1.0 -0.5677051368
O  O25  1  0.96700000  0.86410000  0.60930000  1.0 -0.550056571
O  O26  1  0.13520000  0.11630000  0.74210000  1.0 -0.4779353278
O  O27  1  0.86400000  0.89660000  0.56380000  1.0 -0.6097010386
O  O28  1  0.10200000  0.99820000  0.69400000  1.0 -0.5131741228
O  O29  1  0.99410000  0.10540000  0.70130000  1.0 -0.5752881827
O  O30  1  0.82980000  0.00050000  0.41650000  1.0 -0.4230000141
O  O31  1  0.97330000  0.80970000  0.36620000  1.0 -0.6097010386
O  O32  1  0.19160000  0.18490000  0.57810000  1.0 -0.6097010386
O  O33  1  0.47890000  0.41530000  0.51280000  1.0 -0.9274690586
O  O34  1  0.39060000  0.52180000  0.49580000  1.0 -1.050443911
O  O35  1  0.51410000  0.48450000  0.41220000  1.0 -0.9176839056
O  O36  1  0.37900000  0.38090000  0.38130000  1.0 -0.914671916
O  O37  1  0.55320000  0.32600000  0.46680000  1.0 -0.5926410991
O  O38  1  0.32690000  0.46660000  0.56110000  1.0 -0.6024683478
O  O39  1  0.46800000  0.57400000  0.34960000  1.0 -0.555423415
O  O40  1  0.41980000  0.25990000  0.38730000  1.0 -0.5677051368
O  O41  1  0.25480000  0.35770000  0.39070000  1.0 -0.550056571
O  O42  1  0.37420000  0.39310000  0.25790000  1.0 -0.4779353278
O  O43  1  0.33280000  0.30020000  0.43620000  1.0 -0.6097010386
O  O44  1  0.30420000  0.40800000  0.30600000  1.0 -0.5131741228
O  O45  1  0.40410000  0.29280000  0.29870000  1.0 -0.5752881827
O  O46  1  0.58400000  0.41330000  0.58350000  1.0 -0.4230000141
O  O47  1  0.44350000  0.60710000  0.63380000  1.0 -0.6097010386
O  O48  1  0.60680000  0.61350000  0.42190000  1.0 -0.6097010386
O  O49  1  0.09750000  0.58470000  0.06360000  1.0 -0.9274690586
O  O50  1  0.97400000  0.47820000  0.86880000  1.0 -1.050443911
O  O51  1  0.92770000  0.51550000  0.02960000  1.0 -0.9176839056
O  O52  1  0.00040000  0.61910000  0.99810000  1.0 -0.9176839056
O  O53  1  0.14080000  0.67400000  0.22720000  1.0 -0.5926410991
O  O54  1  0.09450000  0.53340000  0.86030000  1.0 -0.6024683478
O  O55  1  0.77560000  0.42600000  0.89400000  1.0 -0.555423415
O  O56  1  0.12740000  0.74010000  0.15990000  1.0 -0.5677051368
O  O57  1  0.03300000  0.64230000  0.89710000  1.0 -0.550056571
O  O58  1  0.86480000  0.60690000  0.98110000  1.0 -0.4779353278
O  O59  1  0.13600000  0.69980000  0.03260000  1.0 -0.6097010386
O  O60  1  0.89800000  0.59200000  0.89620000  1.0 -0.5131741228
O  O61  1  0.00590000  0.70720000  0.11130000  1.0 -0.5752881827
O  O62  1  0.17020000  0.58670000  0.17070000  1.0 -0.4230000141
O  O63  1  0.02670000  0.39290000  0.83640000  1.0 -0.6097010386
O  O64  1  0.80840000  0.38650000  0.99330000  1.0 -0.6097010386
O  O65  1  0.47890000  0.96610000  0.06360000  1.0 -0.9274690586
O  O66  1  0.39060000  0.89480000  0.86880000  1.0 -1.050443911
O  O67  1  0.51410000  0.10190000  0.02960000  1.0 -0.9176839056
O  O68  1  0.37900000  0.99770000  0.99810000  1.0 -0.9176839056
O  O69  1  0.55320000  0.08640000  0.22720000  1.0 -0.5926410991
O  O70  1  0.32690000  0.76580000  0.86030000  1.0 -0.6024683478
O  O71  1  0.46800000  0.11840000  0.89400000  1.0 -0.555423415
O  O72  1  0.41980000  0.03250000  0.15990000  1.0 -0.5677051368
O  O73  1  0.25480000  0.86410000  0.89710000  1.0 -0.550056571
O  O74  1  0.37420000  0.11630000  0.98110000  1.0 -0.4779353278
O  O75  1  0.33280000  0.89660000  0.03260000  1.0 -0.6097010386
O  O76  1  0.30420000  0.99820000  0.89620000  1.0 -0.5131741228
O  O77  1  0.40410000  0.10540000  0.11130000  1.0 -0.5752881827
O  O78  1  0.58400000  0.00050000  0.17070000  1.0 -0.4230000141
O  O79  1  0.44350000  0.80970000  0.83640000  1.0 -0.6097010386
O  O80  1  0.60680000  0.18490000  0.99330000  1.0 -0.6097010386
O  O81  1  0.09750000  0.03390000  0.51280000  1.0 -0.9274690586
O  O82  1  0.97400000  0.10520000  0.49580000  1.0 -1.0552350345
O  O83  1  0.92770000  0.89810000  0.41220000  1.0 -0.9176839056
O  O84  1  0.00040000  0.00230000  0.38130000  1.0 -0.9176839056
O  O85  1  0.14080000  0.91360000  0.46680000  1.0 -0.5926410991
O  O86  1  0.09450000  0.23420000  0.56110000  1.0 -0.6024683478
O  O87  1  0.77560000  0.88160000  0.34960000  1.0 -0.550056571
O  O88  1  0.12740000  0.96750000  0.38730000  1.0 -0.5677051368
O  O89  1  0.03300000  0.13590000  0.39070000  1.0 -0.550056571
O  O90  1  0.86480000  0.88370000  0.25790000  1.0 -0.4779353278
O  O91  1  0.13600000  0.10340000  0.43620000  1.0 -0.6097010386
O  O92  1  0.89800000  0.00180000  0.30600000  1.0 -0.5131741228
O  O93  1  0.00590000  0.89460000  0.29870000  1.0 -0.5752881827
O  O94  1  0.17020000  0.99950000  0.58350000  1.0 -0.4230000141
O  O95  1  0.02670000  0.19030000  0.63380000  1.0 -0.6097010386
O  O96  1  0.80840000  0.81510000  0.42190000  1.0 -0.6097010386
O  O97  1  0.52110000  0.58470000  0.48720000  1.0 -0.9274690586
O  O98  1  0.60940000  0.47820000  0.50420000  1.0 -1.050443911
O  O99  1  0.48590000  0.51550000  0.58780000  1.0 -0.914671916
O  O100  1  0.62100000  0.61910000  0.61870000  1.0 -0.9176839056
O  O101  1  0.44680000  0.67400000  0.53320000  1.0 -0.5926410991
O  O102  1  0.67310000  0.53340000  0.43890000  1.0 -0.6024683478
O  O103  1  0.53200000  0.42600000  0.65040000  1.0 -0.550056571
O  O104  1  0.58020000  0.74010000  0.61270000  1.0 -0.5677051368
O  O105  1  0.74520000  0.64230000  0.60930000  1.0 -0.550056571
O  O106  1  0.62580000  0.60690000  0.74210000  1.0 -0.4779353278
O  O107  1  0.66720000  0.69980000  0.56380000  1.0 -0.6097010386
O  O108  1  0.69580000  0.59200000  0.69400000  1.0 -0.5131741228
O  O109  1  0.59590000  0.70720000  0.70130000  1.0 -0.5752881827
O  O110  1  0.41600000  0.58670000  0.41650000  1.0 -0.4230000141
O  O111  1  0.55650000  0.39290000  0.36620000  1.0 -0.6097010386
O  O112  1  0.39320000  0.38650000  0.57810000  1.0 -0.6097010386
O  O113  1  0.90250000  0.41530000  0.93640000  1.0 -0.9274690586
O  O114  1  0.02600000  0.52180000  0.13120000  1.0 -1.050443911
O  O115  1  0.07230000  0.48450000  0.97040000  1.0 -0.914671916
O  O116  1  0.99960000  0.38090000  0.00190000  1.0 -0.9176839056
O  O117  1  0.85920000  0.32600000  0.77280000  1.0 -0.5926410991
O  O118  1  0.90550000  0.46660000  0.13970000  1.0 -0.6024683478
O  O119  1  0.22440000  0.57400000  0.10600000  1.0 -0.555423415
O  O120  1  0.87260000  0.25990000  0.84010000  1.0 -0.5677051368
O  O121  1  0.96700000  0.35770000  0.10290000  1.0 -0.550056571
O  O122  1  0.13520000  0.39310000  0.01890000  1.0 -0.4779353278
O  O123  1  0.86400000  0.30020000  0.96740000  1.0 -0.6097010386
O  O124  1  0.10200000  0.40800000  0.10380000  1.0 -0.5131741228
O  O125  1  0.99410000  0.29280000  0.88870000  1.0 -0.5677051368
O  O126  1  0.82980000  0.41330000  0.82930000  1.0 -0.4230000141
O  O127  1  0.97330000  0.60710000  0.16360000  1.0 -0.6097010386
O  O128  1  0.19160000  0.61350000  0.00670000  1.0 -0.6097010386
