# DDEC6 charges by PACMAN v1.1 (https://github.com/mtap-research/PACMAN-charge/)
data_LIHKEW_ASR_pacman
_symmetry_space_group_name_H-M   'P 1'
_cell_length_a   10.37990000
_cell_length_b   21.73820000
_cell_length_c   20.98490000
_cell_angle_alpha   90.00000000
_cell_angle_beta   102.39200000
_cell_angle_gamma   90.00000000
_symmetry_Int_Tables_number   1
_chemical_formula_structural   Fe6H68C98N17O28
_chemical_formula_sum   'Fe12 H136 C196 N34 O56'
_cell_volume   4624.72424527
_cell_formula_units_Z   2
loop_
 _symmetry_equiv_pos_site_id
 _symmetry_equiv_pos_as_xyz
  1  'x, y, z'
loop_
 _atom_site_type_symbol
 _atom_site_label
 _atom_site_symmetry_multiplicity
 _atom_site_fract_x
 _atom_site_fract_y
 _atom_site_fract_z
 _atom_site_occupancy
 _atom_site_charge
Fe  Fe1  1  0.22988000  0.39356000  0.09829000  1.0 1.1571049775
Fe  Fe2  1  0.77012000  0.89356000  0.90171000  1.0 1.1571049775
Fe  Fe3  1  0.24900000  0.38149000  0.94515000  1.0 1.0110888566
Fe  Fe4  1  0.75100000  0.88149000  0.05485000  1.0 1.0110888566
Fe  Fe5  1  0.41975000  0.59700000  0.61071000  1.0 0.9739270891
Fe  Fe6  1  0.58025000  0.09700000  0.38929000  1.0 0.9739270891
Fe  Fe7  1  0.37540000  0.46812000  0.53063000  1.0 0.984581777
Fe  Fe8  1  0.62460000  0.96812000  0.46937000  1.0 0.984581777
Fe  Fe9  1  0.09260000  0.27449000  0.01603000  1.0 1.0727657164
Fe  Fe10  1  0.90740000  0.77449000  0.98397000  1.0 1.0727657164
Fe  Fe11  1  0.20030000  0.59397000  0.47340000  1.0 0.9739270891
Fe  Fe12  1  0.79970000  0.09397000  0.52660000  1.0 0.9739270891
H  H1  1  0.10529000  0.49208000  0.17882000  1.0 0.1091195397
H  H2  1  0.89471000  0.99208000  0.82118000  1.0 0.1091195397
H  H3  1  0.13660000  0.53065000  0.28514000  1.0 0.1284822287
H  H4  1  0.86340000  0.03065000  0.71486000  1.0 0.1284822287
H  H5  1  0.48058000  0.43653000  0.33507000  1.0 0.1091195397
H  H6  1  0.51942000  0.93653000  0.66493000  1.0 0.1091195397
H  H7  1  0.44928000  0.39796000  0.22874000  1.0 0.1009543918
H  H8  1  0.55072000  0.89796000  0.77126000  1.0 0.1009543918
H  H9  1  0.37394000  0.76820000  0.39948000  1.0 0.1206084163
H  H10  1  0.62606000  0.26820000  0.60052000  1.0 0.1206084163
H  H11  1  0.07778000  0.57382000  0.90021000  1.0 0.1284822287
H  H12  1  0.92222000  0.07382000  0.09979000  1.0 0.1284822287
H  H13  1  0.08927000  0.57298000  0.09249000  1.0 0.1365029562
H  H14  1  0.91073000  0.07298000  0.90751000  1.0 0.1365029562
H  H15  1  0.37676000  0.53590000  0.78502000  1.0 0.1206084163
H  H16  1  0.62324000  0.03590000  0.21498000  1.0 0.1206084163
H  H17  1  0.45727000  0.29217000  0.25460000  1.0 0.1206084163
H  H18  1  0.54273000  0.79217000  0.74540000  1.0 0.1284822287
H  H19  1  0.32053000  0.36320000  0.71251000  1.0 0.1206084163
H  H20  1  0.67947000  0.86320000  0.28749000  1.0 0.1206084163
H  H21  1  0.58460000  0.76942000  0.58829000  1.0 0.1091195397
H  H22  1  0.41540000  0.26942000  0.41171000  1.0 0.1091195397
H  H23  1  0.01651000  0.67329000  0.89625000  1.0 0.1091195397
H  H24  1  0.98349000  0.17329000  0.10375000  1.0 0.1091195397
H  H25  1  0.28018000  0.33282000  0.80985000  1.0 0.1091195397
H  H26  1  0.71982000  0.83282000  0.19015000  1.0 0.1091195397
H  H27  1  0.26901000  0.14238000  0.16631000  1.0 0.1284822287
H  H28  1  0.73099000  0.64238000  0.83369000  1.0 0.1284822287
H  H29  1  0.72930000  0.28836000  0.09006000  1.0 0.1284822287
H  H30  1  0.27070000  0.78836000  0.90994000  1.0 0.1284822287
H  H31  1  0.38048000  0.08383000  0.25477000  1.0 0.1091195397
H  H32  1  0.61952000  0.58383000  0.74523000  1.0 0.1091195397
H  H33  1  0.57172000  0.22966000  0.33487000  1.0 0.1009543918
H  H34  1  0.42828000  0.72966000  0.66513000  1.0 0.1009543918
H  H35  1  0.46308000  0.86332000  0.38931000  1.0 0.0903067432
H  H36  1  0.53692000  0.36332000  0.61069000  1.0 0.0903067432
H  H37  1  0.34024000  0.49919000  0.88432000  1.0 0.1009543918
H  H38  1  0.65976000  0.99919000  0.11568000  1.0 0.1009543918
H  H39  1  0.66718000  0.86151000  0.56868000  1.0 0.1091195397
H  H40  1  0.33282000  0.36151000  0.43132000  1.0 0.1091195397
H  H41  1  0.99948000  0.67050000  0.08180000  1.0 0.1091195397
H  H42  1  0.00052000  0.17050000  0.91820000  1.0 0.1091195397
H  H43  1  0.96250000  0.39011000  0.22984000  1.0 0.1284822287
H  H44  1  0.03750000  0.89011000  0.77016000  1.0 0.1284822287
H  H45  1  0.56317000  0.29520000  0.15011000  1.0 0.1009543918
H  H46  1  0.43683000  0.79520000  0.84989000  1.0 0.1009543918
H  H47  1  0.78225000  0.53626000  0.19444000  1.0 0.1009543918
H  H48  1  0.21775000  0.03626000  0.80556000  1.0 0.1009543918
H  H49  1  0.88532000  0.48287000  0.02716000  1.0 0.1009543918
H  H50  1  0.11468000  0.98287000  0.97284000  1.0 0.1009543918
H  H51  1  0.67879000  0.43646000  0.99227000  1.0 0.1206084163
H  H52  1  0.32121000  0.93646000  0.00773000  1.0 0.1206084163
H  H53  1  0.57572000  0.48985000  0.15956000  1.0 0.1284822287
H  H54  1  0.42428000  0.98985000  0.84044000  1.0 0.1284822287
H  H55  1  0.78199000  0.41731000  0.58726000  1.0 0.0706553338
H  H56  1  0.21801000  0.91731000  0.41274000  1.0 0.0706553338
H  H57  1  0.78343000  0.39540000  0.28172000  1.0 0.0903067432
H  H58  1  0.21657000  0.89540000  0.71828000  1.0 0.0903067432
H  H59  1  0.06980000  0.55738000  0.70672000  1.0 0.0903067432
H  H60  1  0.93020000  0.05738000  0.29328000  1.0 0.0903067432
H  H61  1  0.00741000  0.39297000  0.61657000  1.0 0.0622299498
H  H62  1  0.99259000  0.89297000  0.38343000  1.0 0.0622299498
H  H63  1  0.82782000  0.51518000  0.44676000  1.0 0.0903067432
H  H64  1  0.17218000  0.01518000  0.55324000  1.0 0.0903067432
H  H65  1  0.02947000  0.35235000  0.44277000  1.0 0.1091195397
H  H66  1  0.97053000  0.85235000  0.55723000  1.0 0.1091195397
H  H67  1  0.62891000  0.45419000  0.41980000  1.0 0.1091195397
H  H68  1  0.37109000  0.95419000  0.58020000  1.0 0.1091195397
H  H69  1  0.84692000  0.58526000  0.66582000  1.0 0.0903067432
H  H70  1  0.15308000  0.08526000  0.33418000  1.0 0.0805038864
H  H71  1  0.54268000  0.28747000  0.79421000  1.0 0.0903067432
H  H72  1  0.45732000  0.78747000  0.20579000  1.0 0.0903067432
H  H73  1  0.73027000  0.28231000  0.87886000  1.0 0.1206084163
H  H74  1  0.26973000  0.78231000  0.12114000  1.0 0.1206084163
H  H75  1  0.93470000  0.38231000  0.77088000  1.0 0.1091195397
H  H76  1  0.06530000  0.88231000  0.22912000  1.0 0.1091195397
H  H77  1  0.74711000  0.38747000  0.68622000  1.0 0.1009543918
H  H78  1  0.25289000  0.88747000  0.31378000  1.0 0.1009543918
H  H79  1  0.82732000  0.29820000  0.40936000  1.0 0.1009543918
H  H80  1  0.17268000  0.79820000  0.59064000  1.0 0.1009543918
H  H81  1  0.30006000  0.13537000  0.00353000  1.0 0.1284822287
H  H82  1  0.69994000  0.63537000  0.99647000  1.0 0.1284822287
H  H83  1  0.45400000  0.05549000  0.02738000  1.0 0.1091195397
H  H84  1  0.54600000  0.55549000  0.97262000  1.0 0.1091195397
H  H85  1  0.73398000  0.16613000  0.98048000  1.0 0.1009543918
H  H86  1  0.26602000  0.66613000  0.01952000  1.0 0.1009543918
H  H87  1  0.58004000  0.24601000  0.95664000  1.0 0.1091195397
H  H88  1  0.41996000  0.74601000  0.04336000  1.0 0.1091195397
H  H89  1  0.88711000  0.65129000  0.54027000  1.0 0.0805038864
H  H90  1  0.11289000  0.15129000  0.45973000  1.0 0.0805038864
H  H91  1  0.71002000  0.68869000  0.58158000  1.0 0.1206084163
H  H92  1  0.28998000  0.18869000  0.41842000  1.0 0.1206084163
H  H93  1  0.96443000  0.74604000  0.74522000  1.0 0.1206084163
H  H94  1  0.03557000  0.24604000  0.25478000  1.0 0.1206084163
H  H95  1  0.14152000  0.70864000  0.70390000  1.0 0.1009543918
H  H96  1  0.85848000  0.20864000  0.29610000  1.0 0.1009543918
H  H97  1  0.87692000  0.43282000  0.84285000  1.0 0.1365029562
H  H98  1  0.12308000  0.93282000  0.15715000  1.0 0.1365029562
H  H99  1  0.75835000  0.25490000  0.83767000  1.0 0.1091195397
H  H100  1  0.24165000  0.75490000  0.16233000  1.0 0.1091195397
H  H101  1  0.61403000  0.27252000  0.73726000  1.0 0.0805038864
H  H102  1  0.38597000  0.77252000  0.26274000  1.0 0.0805038864
H  H103  1  0.73260000  0.45043000  0.74244000  1.0 0.0903067432
H  H104  1  0.26740000  0.95043000  0.25756000  1.0 0.0903067432
H  H105  1  0.34133000  0.13052000  0.99988000  1.0 0.1206084163
H  H106  1  0.65867000  0.63052000  0.00012000  1.0 0.1206084163
H  H107  1  0.53679000  0.07096000  0.01880000  1.0 0.1206084163
H  H108  1  0.46321000  0.57096000  0.98120000  1.0 0.1206084163
H  H109  1  0.52377000  0.24192000  0.89453000  1.0 0.0903067432
H  H110  1  0.47623000  0.74192000  0.10547000  1.0 0.0903067432
H  H111  1  0.64695000  0.15679000  0.86983000  1.0 0.1009543918
H  H112  1  0.35305000  0.65679000  0.13017000  1.0 0.1009543918
H  H113  1  0.64383000  0.41109000  0.41779000  1.0 0.1284822287
H  H114  1  0.35617000  0.91109000  0.58221000  1.0 0.1284822287
H  H115  1  0.81895000  0.48121000  0.43709000  1.0 0.0903067432
H  H116  1  0.18105000  0.98121000  0.56291000  1.0 0.0903067432
H  H117  1  0.07842000  0.34013000  0.47987000  1.0 0.1091195397
H  H118  1  0.92158000  0.84013000  0.52013000  1.0 0.1091195397
H  H119  1  0.90330000  0.27001000  0.46057000  1.0 0.0706553338
H  H120  1  0.09670000  0.77001000  0.53943000  1.0 0.0706553338
H  H121  1  0.80877000  0.56716000  0.70492000  1.0 0.0805038864
H  H122  1  0.19123000  0.06716000  0.29508000  1.0 0.0805038864
H  H123  1  0.03511000  0.55282000  0.74495000  1.0 0.0706553338
H  H124  1  0.96489000  0.05282000  0.25505000  1.0 0.0706553338
H  H125  1  0.04219000  0.42802000  0.60225000  1.0 0.1009543918
H  H126  1  0.95781000  0.92802000  0.39775000  1.0 0.1009543918
H  H127  1  0.81584000  0.44237000  0.56222000  1.0 0.0903067432
H  H128  1  0.18416000  0.94237000  0.43778000  1.0 0.0903067432
H  H129  1  0.89064000  0.68275000  0.58159000  1.0 0.0706553338
H  H130  1  0.10936000  0.18275000  0.41841000  1.0 0.0706553338
H  H131  1  0.76374000  0.71818000  0.65373000  1.0 0.1284822287
H  H132  1  0.23626000  0.21818000  0.34627000  1.0 0.1284822287
H  H133  1  0.08570000  0.71166000  0.80220000  1.0 0.1009543918
H  H134  1  0.91430000  0.21166000  0.19780000  1.0 0.1009543918
H  H135  1  0.21261000  0.67623000  0.73006000  1.0 0.0903067432
H  H136  1  0.78739000  0.17623000  0.26994000  1.0 0.0903067432
C  C1  1  0.18150000  0.48080000  0.21050000  1.0 0.0805038864
C  C2  1  0.81850000  0.98080000  0.78950000  1.0 0.0805038864
C  C3  1  0.20010000  0.50370000  0.27370000  1.0 -0.1591365252
C  C4  1  0.79990000  0.00370000  0.72630000  1.0 -0.1591365252
C  C5  1  0.31150000  0.48720000  0.32010000  1.0 0.0186156075
C  C6  1  0.68850000  0.98720000  0.67990000  1.0 0.0186156075
C  C7  1  0.40440000  0.44780000  0.30340000  1.0 -0.1959135075
C  C8  1  0.59560000  0.94780000  0.69660000  1.0 -0.1959135075
C  C9  1  0.38580000  0.42490000  0.24020000  1.0 0.0622299498
C  C10  1  0.61420000  0.92490000  0.75980000  1.0 0.0622299498
C  C11  1  0.79400000  0.50420000  0.61830000  1.0 -0.0405814145
C  C12  1  0.20600000  0.00420000  0.38170000  1.0 -0.0405814145
C  C13  1  0.34830000  0.22310000  0.20190000  1.0 0.030247202
C  C14  1  0.65170000  0.72310000  0.79810000  1.0 0.030247202
C  C15  1  0.43230000  0.78650000  0.43560000  1.0 -0.189889949
C  C16  1  0.56770000  0.28650000  0.56440000  1.0 -0.189889949
C  C17  1  0.64970000  0.51720000  0.59840000  1.0 0.4412673499
C  C18  1  0.35030000  0.01720000  0.40160000  1.0 0.4412673499
C  C19  1  0.34780000  0.45350000  0.73810000  1.0 0.0186156075
C  C20  1  0.65220000  0.95350000  0.26190000  1.0 0.0186156075
C  C21  1  0.09540000  0.56330000  0.99890000  1.0 0.0186156075
C  C22  1  0.90460000  0.06330000  0.00110000  1.0 0.0186156075
C  C23  1  0.27890000  0.26650000  0.14870000  1.0 0.5673689033
C  C24  1  0.72110000  0.76650000  0.85130000  1.0 0.5673689033
C  C25  1  0.06770000  0.59420000  0.93890000  1.0 -0.1794558194
C  C26  1  0.93230000  0.09420000  0.06110000  1.0 -0.1794558194
C  C27  1  0.14830000  0.49730000  0.00560000  1.0 0.5799461092
C  C28  1  0.85170000  0.99730000  0.99440000  1.0 0.5799461092
C  C29  1  0.07140000  0.59260000  0.05110000  1.0 -0.1396503975
C  C30  1  0.92860000  0.09260000  0.94890000  1.0 -0.1469042018
C  C31  1  0.46500000  0.75620000  0.49590000  1.0 0.0481044694
C  C32  1  0.53500000  0.25620000  0.50410000  1.0 0.0481044694
C  C33  1  0.35600000  0.49380000  0.78970000  1.0 -0.2274985713
C  C34  1  0.64400000  0.99380000  0.21030000  1.0 -0.2274985713
C  C35  1  0.44080000  0.24910000  0.25340000  1.0 -0.1665127863
C  C36  1  0.55920000  0.74910000  0.74660000  1.0 -0.1665127863
C  C37  1  0.96600000  0.34010000  0.11190000  1.0 0.5799461092
C  C38  1  0.03400000  0.84010000  0.88810000  1.0 0.5799461092
C  C39  1  0.32220000  0.39220000  0.74650000  1.0 -0.1794558194
C  C40  1  0.67780000  0.89220000  0.25350000  1.0 -0.1794558194
C  C41  1  0.55750000  0.78770000  0.54650000  1.0 -0.2100990876
C  C42  1  0.44250000  0.28770000  0.45350000  1.0 -0.2151614194
C  C43  1  0.02710000  0.65210000  0.93670000  1.0 0.0424648985
C  C44  1  0.97290000  0.15210000  0.06330000  1.0 0.0424648985
C  C45  1  0.41090000  0.69540000  0.50910000  1.0 0.5673689033
C  C46  1  0.58910000  0.19540000  0.49090000  1.0 0.5673689033
C  C47  1  0.32810000  0.50900000  0.39020000  1.0 0.5799461092
C  C48  1  0.67190000  0.00900000  0.60980000  1.0 0.5799461092
C  C49  1  0.47340000  0.42900000  0.05290000  1.0 0.5673689033
C  C50  1  0.52660000  0.92900000  0.94710000  1.0 0.5673689033
C  C51  1  0.37200000  0.47720000  0.67440000  1.0 0.5515128161
C  C52  1  0.62800000  0.97720000  0.32560000  1.0 0.5515128161
C  C53  1  0.29950000  0.37500000  0.80470000  1.0 0.0424648985
C  C54  1  0.70050000  0.87500000  0.19530000  1.0 0.0424648985
C  C55  1  0.32820000  0.16160000  0.20150000  1.0 -0.189889949
C  C56  1  0.67180000  0.66160000  0.79850000  1.0 -0.189889949
C  C57  1  0.74400000  0.31190000  0.12910000  1.0 -0.1469042018
C  C58  1  0.25600000  0.81190000  0.87090000  1.0 -0.1469042018
C  C59  1  0.39680000  0.12680000  0.25430000  1.0 0.0622299498
C  C60  1  0.60320000  0.62680000  0.74570000  1.0 0.0622299498
C  C61  1  0.97360000  0.32560000  0.88540000  1.0 0.4532261576
C  C62  1  0.02640000  0.82560000  0.11460000  1.0 0.4532261576
C  C63  1  0.50630000  0.21200000  0.30120000  1.0 0.010567252
C  C64  1  0.49370000  0.71200000  0.69880000  1.0 0.010567252
C  C65  1  0.48680000  0.84310000  0.43030000  1.0 0.010567252
C  C66  1  0.51320000  0.34310000  0.56970000  1.0 0.010567252
C  C67  1  0.33333333  0.47170000  0.84860000  1.0 0.0424648985
C  C68  1  0.66666667  0.97170000  0.15140000  1.0 0.0424648985
C  C69  1  0.60480000  0.84250000  0.53460000  1.0 0.030247202
C  C70  1  0.39520000  0.34250000  0.46540000  1.0 0.030247202
C  C71  1  0.85890000  0.34250000  0.14890000  1.0 -0.0080178595
C  C72  1  0.14110000  0.84250000  0.85110000  1.0 -0.0080178595
C  C73  1  0.02080000  0.65140000  0.04470000  1.0 0.030247202
C  C74  1  0.97920000  0.15140000  0.95530000  1.0 0.030247202
C  C75  1  0.32580000  0.24550000  0.95740000  1.0 0.4316466833
C  C76  1  0.67420000  0.74550000  0.04260000  1.0 0.4316466833
C  C77  1  0.08030000  0.46800000  0.47180000  1.0 0.4412673499
C  C78  1  0.91970000  0.96800000  0.52820000  1.0 0.4412673499
C  C79  1  0.88020000  0.37170000  0.21080000  1.0 -0.1959135075
C  C80  1  0.11980000  0.87170000  0.78920000  1.0 -0.1959135075
C  C81  1  0.64570000  0.31470000  0.16620000  1.0 0.0706553338
C  C82  1  0.35430000  0.81470000  0.83380000  1.0 0.0805038864
C  C83  1  0.76120000  0.51600000  0.15340000  1.0 0.0481044694
C  C84  1  0.23880000  0.01600000  0.84660000  1.0 0.0481044694
C  C85  1  0.82250000  0.48430000  0.05400000  1.0 0.0424648985
C  C86  1  0.17750000  0.98430000  0.94600000  1.0 0.0424648985
C  C87  1  0.69980000  0.45670000  0.03330000  1.0 -0.189889949
C  C88  1  0.30020000  0.95670000  0.96670000  1.0 -0.189889949
C  C89  1  0.60780000  0.45880000  0.07260000  1.0 -0.0080178595
C  C90  1  0.39220000  0.95880000  0.92740000  1.0 -0.0080178595
C  C91  1  0.63860000  0.48840000  0.13270000  1.0 -0.1591365252
C  C92  1  0.36140000  0.98840000  0.86730000  1.0 -0.1591365252
C  C93  1  0.84200000  0.44780000  0.60800000  1.0 -0.0726517056
C  C94  1  0.15800000  0.94780000  0.39200000  1.0 -0.0726517056
C  C95  1  0.77370000  0.37220000  0.24260000  1.0 0.0424648985
C  C96  1  0.22630000  0.87220000  0.75740000  1.0 0.0424648985
C  C97  1  0.94200000  0.43600000  0.44790000  1.0 0.0424648985
C  C98  1  0.05800000  0.93600000  0.55210000  1.0 0.0424648985
C  C99  1  0.01200000  0.53060000  0.67800000  1.0 0.0622299498
C  C100  1  0.98800000  0.03060000  0.32200000  1.0 0.0622299498
C  C101  1  0.97500000  0.43200000  0.62600000  1.0 -0.0317741016
C  C102  1  0.02500000  0.93200000  0.37400000  1.0 -0.0317741016
C  C103  1  0.82800000  0.47180000  0.44120000  1.0 -0.0405814145
C  C104  1  0.17200000  0.97180000  0.55880000  1.0 -0.0405814145
C  C105  1  0.94700000  0.37310000  0.43760000  1.0 -0.0405814145
C  C106  1  0.05300000  0.87310000  0.56240000  1.0 -0.0405814145
C  C107  1  0.71200000  0.43450000  0.42500000  1.0 -0.0886067539
C  C108  1  0.28800000  0.93450000  0.57500000  1.0 -0.0886067539
C  C109  1  0.87900000  0.54630000  0.65600000  1.0 -0.0499613778
C  C110  1  0.12100000  0.04630000  0.34400000  1.0 -0.0499613778
C  C111  1  0.62230000  0.30670000  0.78950000  1.0 -0.0886067539
C  C112  1  0.37770000  0.80670000  0.21050000  1.0 -0.0886067539
C  C113  1  0.73370000  0.30370000  0.83980000  1.0 -0.0726517056
C  C114  1  0.26630000  0.80370000  0.16020000  1.0 -0.0726517056
C  C115  1  0.85010000  0.33180000  0.83280000  1.0 0.0622299498
C  C116  1  0.14990000  0.83180000  0.16720000  1.0 0.0622299498
C  C117  1  0.85510000  0.36310000  0.77560000  1.0 -0.07868978
C  C118  1  0.14490000  0.86310000  0.22440000  1.0 -0.07868978
C  C119  1  0.74370000  0.36610000  0.72530000  1.0 0.0186156075
C  C120  1  0.25630000  0.86610000  0.27470000  1.0 0.0186156075
C  C121  1  0.82800000  0.34080000  0.41940000  1.0 0.0424648985
C  C122  1  0.17200000  0.84080000  0.58060000  1.0 0.0424648985
C  C123  1  0.42600000  0.19820000  0.97780000  1.0 0.0481044694
C  C124  1  0.57400000  0.69820000  0.02220000  1.0 0.0481044694
C  C125  1  0.38800000  0.14160000  0.99900000  1.0 -0.0499613778
C  C126  1  0.61200000  0.64160000  0.00100000  1.0 -0.0499613778
C  C127  1  0.48000000  0.09420000  0.01300000  1.0 -0.0886067539
C  C128  1  0.52000000  0.59420000  0.98700000  1.0 -0.0886067539
C  C129  1  0.64590000  0.15990000  0.98520000  1.0 0.010567252
C  C130  1  0.35410000  0.65990000  0.01480000  1.0 0.010567252
C  C131  1  0.55400000  0.20730000  0.97100000  1.0 -0.1121751079
C  C132  1  0.44600000  0.70730000  0.02900000  1.0 -0.1121751079
C  C133  1  0.14600000  0.65500000  0.59070000  1.0 0.3198615696
C  C134  1  0.85400000  0.15500000  0.40930000  1.0 0.3198615696
C  C135  1  0.03100000  0.67640000  0.61820000  1.0 -0.0026363973
C  C136  1  0.96900000  0.17640000  0.38180000  1.0 -0.0026363973
C  C137  1  0.90300000  0.67050000  0.58190000  1.0 -0.1396503975
C  C138  1  0.09700000  0.17050000  0.41810000  1.0 -0.1396503975
C  C139  1  0.79760000  0.69270000  0.60640000  1.0 -0.0992204956
C  C140  1  0.20240000  0.19270000  0.39360000  1.0 -0.0992204956
C  C141  1  0.94900000  0.72680000  0.70360000  1.0 0.0481044694
C  C142  1  0.05100000  0.22680000  0.29640000  1.0 0.0481044694
C  C143  1  0.05390000  0.70460000  0.67910000  1.0 -0.0080178595
C  C144  1  0.94610000  0.20460000  0.32090000  1.0 -0.0080178595
C  C145  1  0.82400000  0.40000000  0.82100000  1.0 -0.1396503975
C  C146  1  0.17600000  0.90000000  0.17900000  1.0 -0.1396503975
C  C147  1  0.83100000  0.34200000  0.85000000  1.0 0.0622299498
C  C148  1  0.16900000  0.84200000  0.15000000  1.0 0.0622299498
C  C149  1  0.75300000  0.29500000  0.81800000  1.0 -0.07868978
C  C150  1  0.24700000  0.79500000  0.18200000  1.0 -0.07868978
C  C151  1  0.66700000  0.30500000  0.75900000  1.0 0.0424648985
C  C152  1  0.33300000  0.80500000  0.24100000  1.0 0.0424648985
C  C153  1  0.73800000  0.41100000  0.76200000  1.0 -0.0499613778
C  C154  1  0.26200000  0.91100000  0.23800000  1.0 -0.0590929044
C  C155  1  0.42200000  0.19680000  0.95200000  1.0 0.0706553338
C  C156  1  0.57800000  0.69680000  0.04800000  1.0 0.0706553338
C  C157  1  0.41500000  0.14060000  0.98100000  1.0 -0.07868978
C  C158  1  0.58500000  0.64060000  0.01900000  1.0 -0.07868978
C  C159  1  0.51800000  0.09900000  0.98400000  1.0 0.1091195397
C  C160  1  0.48200000  0.59900000  0.01600000  1.0 0.1091195397
C  C161  1  0.51400000  0.20300000  0.91300000  1.0 -0.0992204956
C  C162  1  0.48600000  0.70300000  0.08700000  1.0 -0.0992204956
C  C163  1  0.59400000  0.15320000  0.90100000  1.0 -0.1396503975
C  C164  1  0.40600000  0.65320000  0.09900000  1.0 -0.1396503975
C  C165  1  0.73200000  0.39670000  0.43000000  1.0 0.0706553338
C  C166  1  0.26800000  0.89670000  0.57000000  1.0 0.0706553338
C  C167  1  0.83600000  0.43830000  0.44190000  1.0 -0.0405814145
C  C168  1  0.16400000  0.93830000  0.55810000  1.0 -0.0405814145
C  C169  1  0.96500000  0.41730000  0.46030000  1.0 0.0481044694
C  C170  1  0.03500000  0.91730000  0.53970000  1.0 0.0481044694
C  C171  1  0.99000000  0.35450000  0.46700000  1.0 -0.1121751079
C  C172  1  0.01000000  0.85450000  0.53300000  1.0 -0.1121751079
C  C173  1  0.88600000  0.31290000  0.45600000  1.0 -0.0992204956
C  C174  1  0.11400000  0.81290000  0.54400000  1.0 -0.0992204956
C  C175  1  0.79100000  0.50610000  0.62980000  1.0 -0.0499613778
C  C176  1  0.20900000  0.00610000  0.37020000  1.0 -0.0499613778
C  C177  1  0.85600000  0.53890000  0.68400000  1.0 -0.0202326894
C  C178  1  0.14400000  0.03890000  0.31600000  1.0 -0.0202326894
C  C179  1  0.99100000  0.53040000  0.70800000  1.0 -0.0405814145
C  C180  1  0.00900000  0.03040000  0.29200000  1.0 -0.0499613778
C  C181  1  0.99500000  0.45600000  0.62310000  1.0 0.0706553338
C  C182  1  0.00500000  0.95600000  0.37690000  1.0 0.0706553338
C  C183  1  0.86000000  0.46480000  0.59930000  1.0 -0.07868978
C  C184  1  0.14000000  0.96480000  0.40070000  1.0 -0.07868978
C  C185  1  0.13900000  0.64100000  0.60470000  1.0 0.3083728637
C  C186  1  0.86100000  0.14100000  0.39530000  1.0 0.3083728637
C  C187  1  0.06400000  0.67620000  0.64900000  1.0 0.030247202
C  C188  1  0.93600000  0.17620000  0.35100000  1.0 0.030247202
C  C189  1  0.93000000  0.68860000  0.62640000  1.0 0.030247202
C  C190  1  0.07000000  0.18860000  0.37360000  1.0 0.030247202
C  C191  1  0.85500000  0.71000000  0.66920000  1.0 -0.0026363973
C  C192  1  0.14500000  0.21000000  0.33080000  1.0 0.0010570757
C  C193  1  0.04600000  0.70580000  0.75740000  1.0 -0.0726517056
C  C194  1  0.95400000  0.20580000  0.24260000  1.0 -0.0726517056
C  C195  1  0.12100000  0.68470000  0.71460000  1.0 -0.1591365252
C  C196  1  0.87900000  0.18470000  0.28540000  1.0 -0.1591365252
N  N1  1  0.00000000  0.68310000  0.98790000  1.0 -0.2426336621
N  N2  1  0.00000000  0.18310000  0.01210000  1.0 -0.2426336621
N  N3  1  0.48300000  0.15110000  0.30330000  1.0 -0.2426336621
N  N4  1  0.51700000  0.65110000  0.69670000  1.0 -0.2426336621
N  N5  1  0.27430000  0.44140000  0.19380000  1.0 -0.2596541856
N  N6  1  0.72570000  0.94140000  0.80620000  1.0 -0.2596541856
N  N7  1  0.30180000  0.41230000  0.85640000  1.0 -0.2596541856
N  N8  1  0.69820000  0.91230000  0.14360000  1.0 -0.2596541856
N  N9  1  0.57010000  0.87230000  0.47780000  1.0 -0.2426336621
N  N10  1  0.42990000  0.37230000  0.52220000  1.0 -0.2426336621
N  N11  1  0.66570000  0.34390000  0.22270000  1.0 -0.2274985713
N  N12  1  0.33430000  0.84390000  0.77730000  1.0 -0.2274985713
N  N13  1  0.85320000  0.51390000  0.11410000  1.0 -0.2812819396
N  N14  1  0.14680000  0.01390000  0.88590000  1.0 -0.2812819396
N  N15  1  0.05800000  0.47730000  0.65900000  1.0 -0.1121751079
N  N16  1  0.94200000  0.97730000  0.34100000  1.0 -0.1121751079
N  N17  1  0.71500000  0.37160000  0.41640000  1.0 -0.0590929044
N  N18  1  0.28500000  0.87160000  0.58360000  1.0 -0.0590929044
N  N19  1  0.62730000  0.33800000  0.73230000  1.0 -0.0080178595
N  N20  1  0.37270000  0.83800000  0.26770000  1.0 -0.0080178595
N  N21  1  0.60800000  0.10330000  0.00620000  1.0 -0.0202326894
N  N22  1  0.39200000  0.60330000  0.99380000  1.0 -0.0202326894
N  N23  1  0.82100000  0.72090000  0.66730000  1.0 -0.1794558194
N  N24  1  0.17900000  0.22090000  0.33270000  1.0 -0.1794558194
N  N25  1  0.66000000  0.36300000  0.73040000  1.0 0.0706553338
N  N26  1  0.34000000  0.86300000  0.26960000  1.0 0.0706553338
N  N27  1  0.59300000  0.09770000  0.93700000  1.0 -0.2100990876
N  N28  1  0.40700000  0.59770000  0.06300000  1.0 -0.2100990876
N  N29  1  0.75700000  0.33400000  0.43700000  1.0 -0.1336356168
N  N30  1  0.24300000  0.83400000  0.56300000  1.0 -0.1396503975
N  N31  1  0.05990000  0.48910000  0.67700000  1.0 -0.1121751079
N  N32  1  0.94010000  0.98910000  0.32300000  1.0 -0.1121751079
N  N33  1  0.91300000  0.71820000  0.73470000  1.0 -0.1794558194
N  N34  1  0.08700000  0.21820000  0.26530000  1.0 -0.1794558194
O  O1  1  0.05600000  0.37870000  0.12570000  1.0 -0.5274986937
O  O2  1  0.94400000  0.87870000  0.87430000  1.0 -0.5274986937
O  O3  1  0.57810000  0.47740000  0.56460000  1.0 -0.5094986672
O  O4  1  0.42190000  0.97740000  0.43540000  1.0 -0.5094986672
O  O5  1  0.18560000  0.34910000  0.02150000  1.0 -0.8796557401
O  O6  1  0.81440000  0.84910000  0.97850000  1.0 -0.8796557401
O  O7  1  0.33080000  0.55420000  0.53890000  1.0 -0.8079510544
O  O8  1  0.66920000  0.05420000  0.46110000  1.0 -0.8079510544
O  O9  1  0.41350000  0.41580000  0.09650000  1.0 -0.5274986937
O  O10  1  0.58650000  0.91580000  0.90350000  1.0 -0.5274986937
O  O11  1  0.60460000  0.57080000  0.61320000  1.0 -0.5486481786
O  O12  1  0.39540000  0.07080000  0.38680000  1.0 -0.5486481786
O  O13  1  0.35230000  0.44380000  0.62490000  1.0 -0.5274986937
O  O14  1  0.64770000  0.94380000  0.37510000  1.0 -0.5274986937
O  O15  1  0.18450000  0.44060000  0.49210000  1.0 -0.4624750529
O  O16  1  0.81550000  0.94060000  0.50790000  1.0 -0.4624750529
O  O17  1  0.30790000  0.31920000  0.15330000  1.0 -0.4683890854
O  O18  1  0.69210000  0.81920000  0.84670000  1.0 -0.4683890854
O  O19  1  0.16260000  0.47580000  0.06060000  1.0 -0.5094986672
O  O20  1  0.83740000  0.97580000  0.93940000  1.0 -0.5094986672
O  O21  1  0.16940000  0.47130000  0.95520000  1.0 -0.5486481786
O  O22  1  0.83060000  0.97130000  0.04480000  1.0 -0.5486481786
O  O23  1  0.39970000  0.47880000  0.43290000  1.0 -0.5200884257
O  O24  1  0.60030000  0.97880000  0.56710000  1.0 -0.5200884257
O  O25  1  0.43320000  0.41650000  0.99250000  1.0 -0.5594353233
O  O26  1  0.56680000  0.91650000  0.00750000  1.0 -0.5594353233
O  O27  1  0.07180000  0.35500000  0.88080000  1.0 -0.4683890854
O  O28  1  0.92820000  0.85500000  0.11920000  1.0 -0.4683890854
O  O29  1  0.96120000  0.29120000  0.93310000  1.0 -0.5094986672
O  O30  1  0.03880000  0.79120000  0.06690000  1.0 -0.5094986672
O  O31  1  0.95500000  0.30020000  0.06670000  1.0 -0.5594353233
O  O32  1  0.04500000  0.80020000  0.93330000  1.0 -0.5594353233
O  O33  1  0.45700000  0.67240000  0.56270000  1.0 -0.5200884257
O  O34  1  0.54300000  0.17240000  0.43730000  1.0 -0.5200884257
O  O35  1  0.19600000  0.24010000  0.10370000  1.0 -0.5486481786
O  O36  1  0.80400000  0.74010000  0.89630000  1.0 -0.5486481786
O  O37  1  0.34600000  0.29730000  0.93630000  1.0 -0.4778143828
O  O38  1  0.65400000  0.79730000  0.06370000  1.0 -0.4778143828
O  O39  1  0.40640000  0.53270000  0.67540000  1.0 -0.5200884257
O  O40  1  0.59360000  0.03270000  0.32460000  1.0 -0.5200884257
O  O41  1  0.25950000  0.55660000  0.39560000  1.0 -0.5486481786
O  O42  1  0.74050000  0.05660000  0.60440000  1.0 -0.5594353233
O  O43  1  0.21720000  0.23030000  0.97090000  1.0 -0.4948239689
O  O44  1  0.78280000  0.73030000  0.02910000  1.0 -0.4948239689
O  O45  1  0.31590000  0.67300000  0.46600000  1.0 -0.5893222009
O  O46  1  0.68410000  0.17300000  0.53400000  1.0 -0.5893222009
O  O47  1  0.06540000  0.52530000  0.46660000  1.0 -0.5200884257
O  O48  1  0.93460000  0.02530000  0.53340000  1.0 -0.5200884257
O  O49  1  0.25950000  0.64600000  0.62490000  1.0 -0.1396503975
O  O50  1  0.74050000  0.14600000  0.37510000  1.0 -0.1396503975
O  O51  1  0.11200000  0.64640000  0.53330000  1.0 -0.1665127863
O  O52  1  0.88800000  0.14640000  0.46670000  1.0 -0.1665127863
O  O53  1  0.25400000  0.62610000  0.63860000  1.0 -0.1591365252
O  O54  1  0.74600000  0.12610000  0.36140000  1.0 -0.1591365252
O  O55  1  0.10400000  0.62950000  0.54670000  1.0 -0.0992204956
O  O56  1  0.89600000  0.12950000  0.45330000  1.0 -0.0992204956
