# DDEC6 charges by PACMAN v1.1 (https://github.com/mtap-research/PACMAN-charge/)
data_LIHKIA_ASR_pacman
_symmetry_space_group_name_H-M   'P 1'
_cell_length_a   10.42880000
_cell_length_b   21.59630000
_cell_length_c   20.90830000
_cell_angle_alpha   90.00000000
_cell_angle_beta   101.90900000
_cell_angle_gamma   90.00000000
_symmetry_Int_Tables_number   1
_chemical_formula_structural   Fe6H68C99N17O30
_chemical_formula_sum   'Fe12 H136 C198 N34 O60'
_cell_volume   4607.68572628
_cell_formula_units_Z   2
loop_
 _symmetry_equiv_pos_site_id
 _symmetry_equiv_pos_as_xyz
  1  'x, y, z'
loop_
 _atom_site_type_symbol
 _atom_site_label
 _atom_site_symmetry_multiplicity
 _atom_site_fract_x
 _atom_site_fract_y
 _atom_site_fract_z
 _atom_site_occupancy
 _atom_site_charge
Fe  Fe1  1  0.23130000  0.39590000  0.10102000  1.0 1.1244018681
Fe  Fe2  1  0.76870000  0.89590000  0.89898000  1.0 1.1270706064
Fe  Fe3  1  0.24760000  0.38300000  0.94718000  1.0 0.9168674952
Fe  Fe4  1  0.75240000  0.88300000  0.05282000  1.0 0.9168674952
Fe  Fe5  1  0.42600000  0.59589000  0.61146000  1.0 0.9522308118
Fe  Fe6  1  0.57400000  0.09589000  0.38854000  1.0 0.9522308118
Fe  Fe7  1  0.37340000  0.46677000  0.53263000  1.0 1.0084245808
Fe  Fe8  1  0.62660000  0.96677000  0.46737000  1.0 1.0084245808
Fe  Fe9  1  0.08850000  0.27730000  0.01817000  1.0 0.9992375977
Fe  Fe10  1  0.91150000  0.77730000  0.98183000  1.0 0.9992375977
Fe  Fe11  1  0.19750000  0.59318000  0.47657000  1.0 0.9644339091
Fe  Fe12  1  0.80250000  0.09318000  0.52343000  1.0 0.9658321745
H  H1  1  0.10932000  0.49387000  0.18238000  1.0 0.1093462543
H  H2  1  0.89068000  0.99387000  0.81762000  1.0 0.1093462543
H  H3  1  0.13718000  0.52964000  0.29001000  1.0 0.1282897035
H  H4  1  0.86282000  0.02964000  0.70999000  1.0 0.1282897035
H  H5  1  0.48015000  0.43577000  0.33779000  1.0 0.1093462543
H  H6  1  0.51985000  0.93577000  0.66221000  1.0 0.1093462543
H  H7  1  0.45229000  0.39999000  0.23016000  1.0 0.1000281466
H  H8  1  0.54771000  0.89999000  0.76984000  1.0 0.1000281466
H  H9  1  0.35986000  0.76786000  0.40102000  1.0 0.1282897035
H  H10  1  0.64014000  0.26786000  0.59898000  1.0 0.1282897035
H  H11  1  0.09800000  0.57596000  0.90150000  1.0 0.1282897035
H  H12  1  0.90200000  0.07596000  0.09850000  1.0 0.1282897035
H  H13  1  0.09537000  0.57654000  0.09518000  1.0 0.1282897035
H  H14  1  0.90463000  0.07654000  0.90482000  1.0 0.1282897035
H  H15  1  0.39588000  0.53542000  0.78571000  1.0 0.1202379869
H  H16  1  0.60412000  0.03542000  0.21429000  1.0 0.1202379869
H  H17  1  0.44795000  0.29077000  0.25303000  1.0 0.1282897035
H  H18  1  0.55205000  0.79077000  0.74697000  1.0 0.1282897035
H  H19  1  0.29146000  0.36929000  0.70954000  1.0 0.1202379869
H  H20  1  0.70854000  0.86929000  0.29046000  1.0 0.1202379869
H  H21  1  0.57979000  0.76455000  0.58325000  1.0 0.1093462543
H  H22  1  0.42021000  0.26455000  0.41675000  1.0 0.1093462543
H  H23  1  0.02059000  0.67342000  0.89599000  1.0 0.1093462543
H  H24  1  0.97941000  0.17342000  0.10401000  1.0 0.1093462543
H  H25  1  0.24946000  0.33824000  0.80734000  1.0 0.1000281466
H  H26  1  0.75054000  0.83824000  0.19266000  1.0 0.1000281466
H  H27  1  0.25826000  0.14395000  0.16926000  1.0 0.1202379869
H  H28  1  0.74174000  0.64395000  0.83074000  1.0 0.1202379869
H  H29  1  0.73425000  0.29418000  0.09020000  1.0 0.1282897035
H  H30  1  0.26575000  0.79418000  0.90980000  1.0 0.1282897035
H  H31  1  0.36600000  0.08479000  0.25771000  1.0 0.1093462543
H  H32  1  0.63400000  0.58479000  0.74229000  1.0 0.1093462543
H  H33  1  0.56855000  0.23058000  0.33796000  1.0 0.1000281466
H  H34  1  0.43145000  0.73058000  0.66204000  1.0 0.0901678571
H  H35  1  0.45824000  0.85877000  0.38554000  1.0 0.1000281466
H  H36  1  0.54176000  0.35877000  0.61446000  1.0 0.1000281466
H  H37  1  0.35595000  0.50156000  0.88672000  1.0 0.1093462543
H  H38  1  0.64405000  0.00156000  0.11328000  1.0 0.1093462543
H  H39  1  0.66845000  0.86004000  0.56577000  1.0 0.1000281466
H  H40  1  0.33155000  0.36004000  0.43423000  1.0 0.1000281466
H  H41  1  0.01177000  0.67791000  0.08479000  1.0 0.1093462543
H  H42  1  0.98823000  0.17791000  0.91521000  1.0 0.1093462543
H  H43  1  0.96703000  0.39211000  0.23506000  1.0 0.1202379869
H  H44  1  0.03297000  0.89211000  0.76494000  1.0 0.1202379869
H  H45  1  0.56543000  0.29849000  0.15489000  1.0 0.1093462543
H  H46  1  0.43457000  0.79849000  0.84511000  1.0 0.1093462543
H  H47  1  0.79171000  0.53405000  0.19270000  1.0 0.1000281466
H  H48  1  0.20829000  0.03405000  0.80730000  1.0 0.1000281466
H  H49  1  0.87936000  0.48160000  0.02058000  1.0 0.1093462543
H  H50  1  0.12064000  0.98160000  0.97942000  1.0 0.1093462543
H  H51  1  0.67180000  0.43657000  0.98921000  1.0 0.1282897035
H  H52  1  0.32820000  0.93657000  0.01079000  1.0 0.1282897035
H  H53  1  0.58415000  0.48902000  0.16133000  1.0 0.1282897035
H  H54  1  0.41585000  0.98902000  0.83867000  1.0 0.1282897035
H  H55  1  0.78700000  0.39465000  0.29012000  1.0 0.0901678571
H  H56  1  0.21300000  0.89465000  0.70988000  1.0 0.0901678571
H  H57  1  0.92465000  0.43069000  0.81557000  1.0 0.1093462543
H  H58  1  0.07535000  0.93069000  0.18443000  1.0 0.1093462543
H  H59  1  0.73519000  0.27392000  0.84904000  1.0 0.1000281466
H  H60  1  0.26481000  0.77392000  0.15096000  1.0 0.1000281466
H  H61  1  0.55117000  0.30504000  0.77156000  1.0 0.1000281466
H  H62  1  0.44883000  0.80504000  0.22844000  1.0 0.1000281466
H  H63  1  0.74062000  0.46181000  0.73810000  1.0 0.0901678571
H  H64  1  0.25938000  0.96181000  0.26190000  1.0 0.0901678571
H  H65  1  0.83845000  0.51160000  0.44388000  1.0 0.080576999
H  H66  1  0.16155000  0.01160000  0.55612000  1.0 0.080576999
H  H67  1  0.02901000  0.34725000  0.46846000  1.0 0.1000281466
H  H68  1  0.97099000  0.84725000  0.53154000  1.0 0.1000281466
H  H69  1  0.63794000  0.45751000  0.42461000  1.0 0.1000281466
H  H70  1  0.36206000  0.95751000  0.57539000  1.0 0.1000281466
H  H71  1  0.82815000  0.29196000  0.44094000  1.0 0.1000281466
H  H72  1  0.17185000  0.79196000  0.55906000  1.0 0.1000281466
H  H73  1  0.29442000  0.13140000  0.99730000  1.0 0.1093462543
H  H74  1  0.70558000  0.63140000  0.00270000  1.0 0.1093462543
H  H75  1  0.45478000  0.05774000  0.03851000  1.0 0.1202379869
H  H76  1  0.54522000  0.55774000  0.96149000  1.0 0.1202379869
H  H77  1  0.73629000  0.17400000  0.00207000  1.0 0.1000281466
H  H78  1  0.26371000  0.67400000  0.99793000  1.0 0.1093462543
H  H79  1  0.57593000  0.24766000  0.96085000  1.0 0.1093462543
H  H80  1  0.42407000  0.74766000  0.03915000  1.0 0.1093462543
H  H81  1  0.83039000  0.58503000  0.67291000  1.0 0.080576999
H  H82  1  0.16961000  0.08503000  0.32709000  1.0 0.080576999
H  H83  1  0.05204000  0.56407000  0.71454000  1.0 0.0598479448
H  H84  1  0.94796000  0.06407000  0.28546000  1.0 0.0598479448
H  H85  1  0.01561000  0.40012000  0.61814000  1.0 0.1000281466
H  H86  1  0.98439000  0.90012000  0.38186000  1.0 0.1000281466
H  H87  1  0.79396000  0.42108000  0.57652000  1.0 0.0901678571
H  H88  1  0.20604000  0.92108000  0.42348000  1.0 0.0901678571
H  H89  1  0.92782000  0.70184000  0.57178000  1.0 0.1093462543
H  H90  1  0.07218000  0.20184000  0.42822000  1.0 0.1093462543
H  H91  1  0.80071000  0.75648000  0.63280000  1.0 0.1282897035
H  H92  1  0.19929000  0.25648000  0.36720000  1.0 0.1282897035
H  H93  1  0.06666000  0.71850000  0.79871000  1.0 0.0901678571
H  H94  1  0.93334000  0.21850000  0.20129000  1.0 0.0901678571
H  H95  1  0.19377000  0.66386000  0.73769000  1.0 0.0901678571
H  H96  1  0.80623000  0.16386000  0.26231000  1.0 0.0901678571
H  H97  1  0.75251000  0.39932000  0.59500000  1.0 0.080576999
H  H98  1  0.24749000  0.89932000  0.40500000  1.0 0.080576999
H  H99  1  0.35374000  0.14087000  0.01184000  1.0 0.1093462543
H  H100  1  0.64626000  0.64087000  0.98816000  1.0 0.1093462543
H  H101  1  0.50634000  0.06240000  0.00731000  1.0 0.1093462543
H  H102  1  0.49366000  0.56240000  0.99269000  1.0 0.1093462543
H  H103  1  0.66467000  0.16555000  0.88128000  1.0 0.1093462543
H  H104  1  0.33533000  0.66555000  0.11872000  1.0 0.1093462543
H  H105  1  0.51206000  0.24402000  0.88581000  1.0 0.080576999
H  H106  1  0.48794000  0.74402000  0.11419000  1.0 0.080576999
H  H107  1  0.07473000  0.55134000  0.66453000  1.0 0.080576999
H  H108  1  0.92527000  0.05134000  0.33547000  1.0 0.080576999
H  H109  1  0.97408000  0.37115000  0.64007000  1.0 0.0598479448
H  H110  1  0.02592000  0.87115000  0.35993000  1.0 0.0598479448
H  H111  1  0.85071000  0.57803000  0.64272000  1.0 0.0901678571
H  H112  1  0.14929000  0.07803000  0.35728000  1.0 0.0901678571
H  H113  1  0.53250000  0.30662000  0.81077000  1.0 0.1000281466
H  H114  1  0.46750000  0.80662000  0.18923000  1.0 0.1000281466
H  H115  1  0.71485000  0.31046000  0.89728000  1.0 0.1093462543
H  H116  1  0.28515000  0.81046000  0.10272000  1.0 0.1093462543
H  H117  1  0.93015000  0.38660000  0.77679000  1.0 0.0901678571
H  H118  1  0.06985000  0.88660000  0.22321000  1.0 0.1000281466
H  H119  1  0.74779000  0.38276000  0.69027000  1.0 0.080576999
H  H120  1  0.25221000  0.88276000  0.30973000  1.0 0.080576999
H  H121  1  0.65415000  0.41854000  0.41854000  1.0 0.1202379869
H  H122  1  0.34585000  0.91854000  0.58146000  1.0 0.1202379869
H  H123  1  0.83681000  0.48403000  0.43874000  1.0 0.0901678571
H  H124  1  0.16319000  0.98403000  0.56126000  1.0 0.0901678571
H  H125  1  0.07128000  0.33725000  0.50154000  1.0 0.1000281466
H  H126  1  0.92872000  0.83725000  0.49846000  1.0 0.1000281466
H  H127  1  0.88862000  0.27175000  0.48133000  1.0 0.0598479448
H  H128  1  0.11138000  0.77175000  0.51867000  1.0 0.0598479448
H  H129  1  0.91007000  0.66260000  0.54026000  1.0 0.0901678571
H  H130  1  0.08993000  0.16260000  0.45974000  1.0 0.0901678571
H  H131  1  0.72780000  0.69810000  0.57865000  1.0 0.1093462543
H  H132  1  0.27220000  0.19810000  0.42135000  1.0 0.1093462543
H  H133  1  0.95965000  0.73249000  0.75585000  1.0 0.1385146088
H  H134  1  0.04035000  0.23249000  0.24415000  1.0 0.1385146088
H  H135  1  0.14192000  0.69699000  0.71745000  1.0 0.1000281466
H  H136  1  0.85808000  0.19699000  0.28255000  1.0 0.1000281466
C  C1  1  0.18460000  0.48210000  0.21390000  1.0 0.0701056427
C  C2  1  0.81540000  0.98210000  0.78610000  1.0 0.0701056427
C  C3  1  0.20110000  0.50330000  0.27790000  1.0 -0.1640353494
C  C4  1  0.79890000  0.00330000  0.72210000  1.0 -0.1640353494
C  C5  1  0.31130000  0.48610000  0.32400000  1.0 0.0180361103
C  C6  1  0.68870000  0.98610000  0.67600000  1.0 0.0180361103
C  C7  1  0.40490000  0.44760000  0.30620000  1.0 -0.1883047664
C  C8  1  0.59510000  0.94760000  0.69380000  1.0 -0.1883047664
C  C9  1  0.38830000  0.42630000  0.24230000  1.0 0.0701056427
C  C10  1  0.61170000  0.92630000  0.75770000  1.0 0.0701056427
C  C11  1  0.34550000  0.22480000  0.20350000  1.0 0.030076806
C  C12  1  0.65450000  0.72480000  0.79650000  1.0 0.030076806
C  C13  1  0.42600000  0.78490000  0.43440000  1.0 -0.1883047664
C  C14  1  0.57400000  0.28490000  0.56560000  1.0 -0.1883047664
C  C15  1  0.64270000  0.51280000  0.59560000  1.0 0.4294124848
C  C16  1  0.35730000  0.01280000  0.40440000  1.0 0.4294124848
C  C17  1  0.34890000  0.45210000  0.73840000  1.0 0.0098631775
C  C18  1  0.65110000  0.95210000  0.26160000  1.0 0.0098631775
C  C19  1  0.10280000  0.56670000  0.99970000  1.0 0.0180361103
C  C20  1  0.89720000  0.06670000  0.00030000  1.0 0.0180361103
C  C21  1  0.27120000  0.26500000  0.14890000  1.0 0.5700393326
C  C22  1  0.72880000  0.76500000  0.85110000  1.0 0.5700393326
C  C23  1  0.08060000  0.59590000  0.93930000  1.0 -0.1781918251
C  C24  1  0.91940000  0.09590000  0.06070000  1.0 -0.1781918251
C  C25  1  0.15740000  0.50050000  0.00750000  1.0 0.5814439661
C  C26  1  0.84260000  0.00050000  0.99250000  1.0 0.5814439661
C  C27  1  0.07840000  0.59660000  0.05380000  1.0 -0.1422427774
C  C28  1  0.92160000  0.09660000  0.94620000  1.0 -0.1422427774
C  C29  1  0.47100000  0.75470000  0.49280000  1.0 0.0500333213
C  C30  1  0.52900000  0.25470000  0.50720000  1.0 0.0500333213
C  C31  1  0.36730000  0.49430000  0.79080000  1.0 -0.2572743588
C  C32  1  0.63270000  0.99430000  0.20920000  1.0 -0.2572743588
C  C33  1  0.43230000  0.24740000  0.25270000  1.0 -0.1498885744
C  C34  1  0.56770000  0.74740000  0.74730000  1.0 -0.1498885744
C  C35  1  0.97290000  0.34370000  0.11630000  1.0 0.5700393326
C  C36  1  0.02710000  0.84370000  0.88370000  1.0 0.5700393326
C  C37  1  0.30600000  0.39720000  0.74540000  1.0 -0.1781918251
C  C38  1  0.69400000  0.89720000  0.25460000  1.0 -0.1781918251
C  C39  1  0.55540000  0.78390000  0.54170000  1.0 -0.2047175535
C  C40  1  0.44460000  0.28390000  0.45830000  1.0 -0.2047175535
C  C41  1  0.03380000  0.65310000  0.93710000  1.0 0.0500333213
C  C42  1  0.96620000  0.15310000  0.06290000  1.0 0.0500333213
C  C43  1  0.40600000  0.69270000  0.50740000  1.0 0.5700393326
C  C44  1  0.59400000  0.19270000  0.49260000  1.0 0.5700393326
C  C45  1  0.31800000  0.50490000  0.39390000  1.0 0.5873965628
C  C46  1  0.68200000  0.00490000  0.60610000  1.0 0.5873965628
C  C47  1  0.47180000  0.42890000  0.05250000  1.0 0.5565642721
C  C48  1  0.52820000  0.92890000  0.94750000  1.0 0.5565642721
C  C49  1  0.37700000  0.47640000  0.67620000  1.0 0.5488798029
C  C50  1  0.62300000  0.97640000  0.32380000  1.0 0.5488798029
C  C51  1  0.28120000  0.37910000  0.80390000  1.0 -0.0089207146
C  C52  1  0.71880000  0.87910000  0.19610000  1.0 -0.0089207146
C  C53  1  0.31950000  0.16270000  0.20380000  1.0 -0.2287948646
C  C54  1  0.68050000  0.66270000  0.79620000  1.0 -0.2287948646
C  C55  1  0.74800000  0.31560000  0.13070000  1.0 -0.1498885744
C  C56  1  0.25200000  0.81560000  0.86930000  1.0 -0.1498885744
C  C57  1  0.38630000  0.12760000  0.25680000  1.0 0.0701056427
C  C58  1  0.61370000  0.62760000  0.74320000  1.0 0.0701056427
C  C59  1  0.97200000  0.33390000  0.89280000  1.0 0.4612446136
C  C60  1  0.02800000  0.83390000  0.10720000  1.0 0.4612446136
C  C61  1  0.50360000  0.21230000  0.30480000  1.0 -0.0288829387
C  C62  1  0.49640000  0.71230000  0.69520000  1.0 -0.0288829387
C  C63  1  0.48200000  0.83940000  0.42710000  1.0 -0.0198671391
C  C64  1  0.51800000  0.33940000  0.57290000  1.0 -0.0198671391
C  C65  1  0.34230000  0.47410000  0.85050000  1.0 0.030076806
C  C66  1  0.65770000  0.97410000  0.14950000  1.0 0.030076806
C  C67  1  0.60660000  0.84110000  0.53160000  1.0 0.0598479448
C  C68  1  0.39340000  0.34110000  0.46840000  1.0 0.0598479448
C  C69  1  0.85920000  0.34550000  0.15450000  1.0 0.0180361103
C  C70  1  0.14080000  0.84550000  0.84550000  1.0 0.0180361103
C  C71  1  0.02850000  0.65660000  0.04760000  1.0 0.030076806
C  C72  1  0.97150000  0.15660000  0.95240000  1.0 0.030076806
C  C73  1  0.08800000  0.46410000  0.48290000  1.0 0.3921851522
C  C74  1  0.91200000  0.96410000  0.51710000  1.0 0.3921851522
C  C75  1  0.88490000  0.37390000  0.21650000  1.0 -0.2130854049
C  C76  1  0.11510000  0.87390000  0.78350000  1.0 -0.2130854049
C  C77  1  0.64780000  0.31770000  0.17070000  1.0 0.0098631775
C  C78  1  0.35220000  0.81770000  0.82930000  1.0 0.0098631775
C  C79  1  0.76740000  0.51430000  0.15140000  1.0 0.0424196423
C  C80  1  0.23260000  0.01430000  0.84860000  1.0 0.0424196423
C  C81  1  0.81940000  0.48310000  0.04910000  1.0 0.0424196423
C  C82  1  0.18060000  0.98310000  0.95090000  1.0 0.0424196423
C  C83  1  0.69610000  0.45640000  0.03050000  1.0 -0.2130854049
C  C84  1  0.30390000  0.95640000  0.96950000  1.0 -0.2130854049
C  C85  1  0.60850000  0.45860000  0.07230000  1.0 0.0034066287
C  C86  1  0.39150000  0.95860000  0.92770000  1.0 0.0034066287
C  C87  1  0.64410000  0.48750000  0.13280000  1.0 -0.1677614533
C  C88  1  0.35590000  0.98750000  0.86720000  1.0 -0.1677614533
C  C89  1  0.77560000  0.37300000  0.24980000  1.0 0.0500333213
C  C90  1  0.22440000  0.87300000  0.75020000  1.0 0.0500333213
C  C91  1  0.84900000  0.40520000  0.80660000  1.0 -0.0416397013
C  C92  1  0.15100000  0.90520000  0.19340000  1.0 -0.0416397013
C  C93  1  0.84700000  0.34940000  0.83960000  1.0 -0.0089207146
C  C94  1  0.15300000  0.84940000  0.16040000  1.0 -0.0089207146
C  C95  1  0.73600000  0.31210000  0.82650000  1.0 -0.0288829387
C  C96  1  0.26400000  0.81210000  0.17350000  1.0 -0.0288829387
C  C97  1  0.62700000  0.33050000  0.78050000  1.0 0.0701056427
C  C98  1  0.37300000  0.83050000  0.21950000  1.0 0.0701056427
C  C99  1  0.74000000  0.42370000  0.76060000  1.0 -0.0592246891
C  C100  1  0.26000000  0.92370000  0.23940000  1.0 -0.0592246891
C  C101  1  0.95200000  0.43240000  0.46200000  1.0 0.0180361103
C  C102  1  0.04800000  0.93240000  0.53800000  1.0 0.0180361103
C  C103  1  0.83600000  0.46770000  0.44600000  1.0 -0.0198671391
C  C104  1  0.16400000  0.96770000  0.55400000  1.0 -0.0198671391
C  C105  1  0.94900000  0.36940000  0.45900000  1.0 -0.0416397013
C  C106  1  0.05100000  0.86940000  0.54100000  1.0 -0.0416397013
C  C107  1  0.71800000  0.43500000  0.43300000  1.0 -0.0824339383
C  C108  1  0.28200000  0.93500000  0.56700000  1.0 -0.0824339383
C  C109  1  0.83100000  0.33590000  0.44400000  1.0 0.0424196423
C  C110  1  0.16900000  0.83590000  0.55600000  1.0 0.0424196423
C  C111  1  0.42000000  0.19650000  0.97520000  1.0 0.0500333213
C  C112  1  0.58000000  0.69650000  0.02480000  1.0 0.0500333213
C  C113  1  0.38400000  0.14010000  0.99830000  1.0 -0.0496808269
C  C114  1  0.61600000  0.64010000  0.00170000  1.0 -0.0496808269
C  C115  1  0.47900000  0.09630000  0.02270000  1.0 -0.069945141
C  C116  1  0.52100000  0.59630000  0.97730000  1.0 -0.069945141
C  C117  1  0.64660000  0.16540000  0.00110000  1.0 -0.0496808269
C  C118  1  0.35340000  0.66540000  0.99890000  1.0 -0.0496808269
C  C119  1  0.55100000  0.20910000  0.97660000  1.0 -0.0912869789
C  C120  1  0.44900000  0.70910000  0.02340000  1.0 -0.0912869789
C  C121  1  0.79130000  0.50500000  0.62080000  1.0 0.0098631775
C  C122  1  0.20870000  0.00500000  0.37920000  1.0 0.0098631775
C  C123  1  0.86800000  0.54750000  0.66180000  1.0 -0.0416397013
C  C124  1  0.13200000  0.04750000  0.33820000  1.0 -0.0416397013
C  C125  1  0.00000000  0.53500000  0.68650000  1.0 -0.0824339383
C  C126  1  0.00000000  0.03500000  0.31350000  1.0 -0.0824339383
C  C127  1  0.97800000  0.43770000  0.62930000  1.0 0.0598479448
C  C128  1  0.02200000  0.93770000  0.37070000  1.0 0.0598479448
C  C129  1  0.84600000  0.45010000  0.60450000  1.0 -0.0496808269
C  C130  1  0.15400000  0.95010000  0.39550000  1.0 -0.0496808269
C  C131  1  0.16600000  0.64600000  0.61000000  1.0 0.2939668901
C  C132  1  0.83400000  0.14600000  0.39000000  1.0 0.3007106589
C  C133  1  0.07300000  0.67770000  0.64900000  1.0 0.030076806
C  C134  1  0.92700000  0.17770000  0.35100000  1.0 0.030076806
C  C135  1  0.95600000  0.70520000  0.61780000  1.0 -0.0089207146
C  C136  1  0.04400000  0.20520000  0.38220000  1.0 -0.0089207146
C  C137  1  0.88000000  0.73770000  0.65410000  1.0 0.030076806
C  C138  1  0.12000000  0.23770000  0.34590000  1.0 0.030076806
C  C139  1  0.03800000  0.71510000  0.75260000  1.0 -0.0824339383
C  C140  1  0.96200000  0.21510000  0.24740000  1.0 -0.0824339383
C  C141  1  0.11400000  0.68270000  0.71640000  1.0 -0.1086637659
C  C142  1  0.88600000  0.18270000  0.28360000  1.0 -0.1086637659
C  C143  1  0.30900000  0.24500000  0.95400000  1.0 0.4669968046
C  C144  1  0.69100000  0.74500000  0.04600000  1.0 0.4669968046
C  C145  1  0.78600000  0.49260000  0.61000000  1.0 -0.0023821609
C  C146  1  0.21400000  0.99260000  0.39000000  1.0 -0.0023821609
C  C147  1  0.31700000  0.25010000  0.95820000  1.0 0.4669968046
C  C148  1  0.68300000  0.75010000  0.04180000  1.0 0.4669968046
C  C149  1  0.81700000  0.42980000  0.61000000  1.0 -0.0496808269
C  C150  1  0.18300000  0.92980000  0.39000000  1.0 -0.0496808269
C  C151  1  0.41900000  0.19980000  0.94930000  1.0 0.0500333213
C  C152  1  0.58100000  0.69980000  0.05070000  1.0 0.0500333213
C  C153  1  0.41700000  0.14590000  0.98530000  1.0 -0.0496808269
C  C154  1  0.58300000  0.64590000  0.01470000  1.0 -0.0496808269
C  C155  1  0.50800000  0.09930000  0.98260000  1.0 0.080576999
C  C156  1  0.49200000  0.59930000  0.01740000  1.0 0.080576999
C  C157  1  0.60200000  0.16050000  0.90800000  1.0 -0.1086637659
C  C158  1  0.39800000  0.66050000  0.09200000  1.0 -0.1086637659
C  C159  1  0.51100000  0.20720000  0.91050000  1.0 -0.1677614533
C  C160  1  0.48900000  0.70720000  0.08950000  1.0 -0.1677614533
C  C161  1  0.00900000  0.52000000  0.65300000  1.0 0.0500333213
C  C162  1  0.99100000  0.02000000  0.34700000  1.0 0.0500333213
C  C163  1  0.95000000  0.41400000  0.63500000  1.0 -0.0592246891
C  C164  1  0.05000000  0.91400000  0.36500000  1.0 -0.069945141
C  C165  1  0.87700000  0.53700000  0.63600000  1.0 -0.0288829387
C  C166  1  0.12300000  0.03700000  0.36400000  1.0 -0.0288829387
C  C167  1  0.61300000  0.32290000  0.80390000  1.0 -0.069945141
C  C168  1  0.38700000  0.82290000  0.19610000  1.0 -0.069945141
C  C169  1  0.72200000  0.32500000  0.85530000  1.0 -0.0288829387
C  C170  1  0.27800000  0.82500000  0.14470000  1.0 -0.0288829387
C  C171  1  0.84000000  0.34890000  0.84520000  1.0 -0.0198671391
C  C172  1  0.16000000  0.84890000  0.15480000  1.0 -0.0198671391
C  C173  1  0.84900000  0.37000000  0.78370000  1.0 -0.0089207146
C  C174  1  0.15100000  0.87000000  0.21630000  1.0 -0.0089207146
C  C175  1  0.74100000  0.36800000  0.73230000  1.0 0.0098631775
C  C176  1  0.25900000  0.86800000  0.26770000  1.0 0.0098631775
C  C177  1  0.73900000  0.40200000  0.43500000  1.0 0.0701056427
C  C178  1  0.26100000  0.90200000  0.56500000  1.0 0.0701056427
C  C179  1  0.84700000  0.44090000  0.44700000  1.0 -0.0416397013
C  C180  1  0.15300000  0.94090000  0.55300000  1.0 -0.0416397013
C  C181  1  0.97100000  0.41680000  0.47200000  1.0 0.030076806
C  C182  1  0.02900000  0.91680000  0.52800000  1.0 0.0180361103
C  C183  1  0.98700000  0.35370000  0.48500000  1.0 -0.1038883247
C  C184  1  0.01300000  0.85370000  0.51500000  1.0 -0.1038883247
C  C185  1  0.87800000  0.31480000  0.47300000  1.0 -0.0912869789
C  C186  1  0.12200000  0.81480000  0.52700000  1.0 -0.0912869789
C  C187  1  0.16200000  0.65500000  0.59900000  1.0 0.3007106589
C  C188  1  0.83800000  0.15500000  0.40100000  1.0 0.3007106589
C  C189  1  0.04300000  0.67600000  0.62500000  1.0 0.0180361103
C  C190  1  0.95700000  0.17600000  0.37500000  1.0 0.0180361103
C  C191  1  0.92000000  0.67680000  0.58400000  1.0 -0.1498885744
C  C192  1  0.08000000  0.17680000  0.41600000  1.0 -0.1498885744
C  C193  1  0.81200000  0.69800000  0.60700000  1.0 -0.069945141
C  C194  1  0.18800000  0.19800000  0.39300000  1.0 -0.069945141
C  C195  1  0.95000000  0.71800000  0.71210000  1.0 0.0598479448
C  C196  1  0.05000000  0.21800000  0.28790000  1.0 0.0598479448
C  C197  1  0.05800000  0.69700000  0.68930000  1.0 -0.0198671391
C  C198  1  0.94200000  0.19700000  0.31070000  1.0 -0.0198671391
N  N1  1  0.00310000  0.68540000  0.98670000  1.0 -0.2867008441
N  N2  1  0.99690000  0.18540000  0.01330000  1.0 -0.2867008441
N  N3  1  0.47460000  0.14980000  0.30530000  1.0 -0.2719991498
N  N4  1  0.52540000  0.64980000  0.69470000  1.0 -0.2719991498
N  N5  1  0.27820000  0.44360000  0.19620000  1.0 -0.2539563868
N  N6  1  0.72180000  0.94360000  0.80380000  1.0 -0.2539563868
N  N7  1  0.29870000  0.41550000  0.85750000  1.0 -0.3021116846
N  N8  1  0.70130000  0.91550000  0.14250000  1.0 -0.3021116846
N  N9  1  0.57010000  0.87010000  0.47480000  1.0 -0.2769604716
N  N10  1  0.42990000  0.37010000  0.52520000  1.0 -0.2719991498
N  N11  1  0.67000000  0.34690000  0.23080000  1.0 -0.2287948646
N  N12  1  0.33000000  0.84690000  0.76920000  1.0 -0.2287948646
N  N13  1  0.85500000  0.51210000  0.10960000  1.0 -0.2769604716
N  N14  1  0.14500000  0.01210000  0.89040000  1.0 -0.2769604716
N  N15  1  0.71700000  0.37230000  0.43300000  1.0 -0.0912869789
N  N16  1  0.28300000  0.87230000  0.56700000  1.0 -0.0912869789
N  N17  1  0.62900000  0.38600000  0.74750000  1.0 -0.1086637659
N  N18  1  0.37100000  0.88600000  0.25250000  1.0 -0.1086637659
N  N19  1  0.61100000  0.10890000  0.02420000  1.0 -0.0023821609
N  N20  1  0.38900000  0.60890000  0.97580000  1.0 -0.0023821609
N  N21  1  0.05470000  0.48010000  0.67030000  1.0 -0.0416397013
N  N22  1  0.94530000  0.98010000  0.32970000  1.0 -0.0416397013
N  N23  1  0.92200000  0.74260000  0.72150000  1.0 -0.1345663958
N  N24  1  0.07800000  0.24260000  0.27850000  1.0 -0.1345663958
N  N25  1  0.04500000  0.45800000  0.65200000  1.0 -0.0592246891
N  N26  1  0.95500000  0.95800000  0.34800000  1.0 -0.0592246891
N  N27  1  0.60000000  0.10660000  0.94400000  1.0 -0.1677614533
N  N28  1  0.40000000  0.60660000  0.05600000  1.0 -0.1781918251
N  N29  1  0.62300000  0.34400000  0.74240000  1.0 -0.069945141
N  N30  1  0.37700000  0.84400000  0.25760000  1.0 -0.069945141
N  N31  1  0.75400000  0.33900000  0.44800000  1.0 -0.1187690609
N  N32  1  0.24600000  0.83900000  0.55200000  1.0 -0.1187690609
N  N33  1  0.82700000  0.71900000  0.67100000  1.0 -0.1422427774
N  N34  1  0.17300000  0.21900000  0.32900000  1.0 -0.1422427774
O  O1  1  0.05940000  0.38010000  0.13080000  1.0 -0.482928037
O  O2  1  0.94060000  0.88010000  0.86920000  1.0 -0.482928037
O  O3  1  0.56850000  0.47590000  0.56390000  1.0 -0.4441702658
O  O4  1  0.43150000  0.97590000  0.43610000  1.0 -0.4441702658
O  O5  1  0.18570000  0.35250000  0.02400000  1.0 -0.8138443523
O  O6  1  0.81430000  0.85250000  0.97600000  1.0 -0.8138443523
O  O7  1  0.33170000  0.55020000  0.54070000  1.0 -0.8278149956
O  O8  1  0.66830000  0.05020000  0.45930000  1.0 -0.8278149956
O  O9  1  0.41580000  0.41990000  0.09800000  1.0 -0.5094646954
O  O10  1  0.58420000  0.91990000  0.90200000  1.0 -0.5094646954
O  O11  1  0.61120000  0.56940000  0.60940000  1.0 -0.5401338067
O  O12  1  0.38880000  0.06940000  0.39060000  1.0 -0.5401338067
O  O13  1  0.35390000  0.44370000  0.62580000  1.0 -0.5094646954
O  O14  1  0.64610000  0.94370000  0.37420000  1.0 -0.5094646954
O  O15  1  0.18930000  0.43770000  0.49810000  1.0 -0.4202721112
O  O16  1  0.81070000  0.93770000  0.50190000  1.0 -0.4202721112
O  O17  1  0.30750000  0.32080000  0.15570000  1.0 -0.5320650213
O  O18  1  0.69250000  0.82080000  0.84430000  1.0 -0.5320650213
O  O19  1  0.16570000  0.47840000  0.06380000  1.0 -0.5401338067
O  O20  1  0.83430000  0.97840000  0.93620000  1.0 -0.5401338067
O  O21  1  0.18030000  0.47400000  0.95730000  1.0 -0.5401338067
O  O22  1  0.81970000  0.97400000  0.04270000  1.0 -0.5401338067
O  O23  1  0.39940000  0.47540000  0.43780000  1.0 -0.5491798364
O  O24  1  0.60060000  0.97540000  0.56220000  1.0 -0.5491798364
O  O25  1  0.43210000  0.41550000  0.99350000  1.0 -0.5491798364
O  O26  1  0.56790000  0.91550000  0.00650000  1.0 -0.5491798364
O  O27  1  0.06680000  0.36290000  0.88680000  1.0 -0.4587744319
O  O28  1  0.93320000  0.86290000  0.11320000  1.0 -0.4587744319
O  O29  1  0.95700000  0.29820000  0.93670000  1.0 -0.4897790097
O  O30  1  0.04300000  0.79820000  0.06330000  1.0 -0.4897790097
O  O31  1  0.95440000  0.30440000  0.06990000  1.0 -0.5401338067
O  O32  1  0.04560000  0.80440000  0.93010000  1.0 -0.5401338067
O  O33  1  0.45310000  0.67120000  0.56300000  1.0 -0.5401338067
O  O34  1  0.54690000  0.17120000  0.43700000  1.0 -0.5320650213
O  O35  1  0.18960000  0.24180000  0.10540000  1.0 -0.5028572672
O  O36  1  0.81040000  0.74180000  0.89460000  1.0 -0.5028572672
O  O37  1  0.42030000  0.52950000  0.67570000  1.0 -0.4897790097
O  O38  1  0.57970000  0.02950000  0.32430000  1.0 -0.4897790097
O  O39  1  0.25510000  0.55300000  0.40230000  1.0 -0.5320650213
O  O40  1  0.74490000  0.05300000  0.59770000  1.0 -0.5320650213
O  O41  1  0.31240000  0.67070000  0.46620000  1.0 -0.5592790538
O  O42  1  0.68760000  0.17070000  0.53380000  1.0 -0.5592790538
O  O43  1  0.06750000  0.52420000  0.47860000  1.0 -0.5592790538
O  O44  1  0.93250000  0.02420000  0.52140000  1.0 -0.5592790538
O  O45  1  0.26590000  0.62630000  0.64240000  1.0 -0.1086637659
O  O46  1  0.73410000  0.12630000  0.35760000  1.0 -0.1187690609
O  O47  1  0.12100000  0.63510000  0.55130000  1.0 -0.1187690609
O  O48  1  0.87900000  0.13510000  0.44870000  1.0 -0.1187690609
O  O49  1  0.32400000  0.29600000  0.92650000  1.0 -0.2130854049
O  O50  1  0.67600000  0.79600000  0.07350000  1.0 -0.2130854049
O  O51  1  0.19700000  0.23740000  0.96620000  1.0 -0.4008926445
O  O52  1  0.80300000  0.73740000  0.03380000  1.0 -0.4008926445
O  O53  1  0.35800000  0.30210000  0.94320000  1.0 -0.2539563868
O  O54  1  0.64200000  0.80210000  0.05680000  1.0 -0.2572743588
O  O55  1  0.22100000  0.22840000  0.97850000  1.0 -0.3774433129
O  O56  1  0.77900000  0.72840000  0.02150000  1.0 -0.3774433129
O  O57  1  0.27100000  0.64700000  0.62570000  1.0 -0.0288829387
O  O58  1  0.72900000  0.14700000  0.37430000  1.0 -0.0288829387
O  O59  1  0.12500000  0.65180000  0.53800000  1.0 -0.2287948646
O  O60  1  0.87500000  0.15180000  0.46200000  1.0 -0.2287948646
