# DDEC6 charges by PACMAN v1.1 (https://github.com/mtap-research/PACMAN-charge/)
data_LIJQIH_FSR_pacman
_symmetry_space_group_name_H-M   'P 1'
_cell_length_a   26.52600000
_cell_length_b   26.52600000
_cell_length_c   21.17500000
_cell_angle_alpha   90.00000000
_cell_angle_beta   90.00000000
_cell_angle_gamma   120.00000000
_symmetry_Int_Tables_number   1
_chemical_formula_structural   Cd3H40C64(N4O5)3
_chemical_formula_sum   'Cd18 H240 C384 N72 O90'
_cell_volume   12903.20452713
_cell_formula_units_Z   6
loop_
 _symmetry_equiv_pos_site_id
 _symmetry_equiv_pos_as_xyz
  1  'x, y, z'
loop_
 _atom_site_type_symbol
 _atom_site_label
 _atom_site_symmetry_multiplicity
 _atom_site_fract_x
 _atom_site_fract_y
 _atom_site_fract_z
 _atom_site_occupancy
 _atom_site_charge
Cd  Cd1  1  0.75992000  0.09306000  0.92150000  1.0 0.8508405529
Cd  Cd2  1  0.90694000  0.66686000  0.92150000  1.0 0.8508405529
Cd  Cd3  1  0.33314000  0.24008000  0.92150000  1.0 0.8508405529
Cd  Cd4  1  0.33314000  0.09306000  0.42150000  1.0 0.8508405529
Cd  Cd5  1  0.75992000  0.66686000  0.42150000  1.0 0.8508405529
Cd  Cd6  1  0.90694000  0.24008000  0.42150000  1.0 0.8508405529
Cd  Cd7  1  0.66686000  0.90694000  0.57850000  1.0 0.8508405529
Cd  Cd8  1  0.24008000  0.33314000  0.57850000  1.0 0.8508405529
Cd  Cd9  1  0.09306000  0.75992000  0.57850000  1.0 0.8508405529
Cd  Cd10  1  0.24008000  0.90694000  0.07850000  1.0 0.8508405529
Cd  Cd11  1  0.09306000  0.33314000  0.07850000  1.0 0.8508405529
Cd  Cd12  1  0.66686000  0.75992000  0.07850000  1.0 0.8508405529
Cd  Cd13  1  0.57390000  0.00000000  0.75000000  1.0 0.8414731764
Cd  Cd14  1  0.42610000  0.42610000  0.75000000  1.0 0.8414731764
Cd  Cd15  1  0.00000000  0.57390000  0.75000000  1.0 0.8414731764
Cd  Cd16  1  0.42610000  0.00000000  0.25000000  1.0 0.8414731764
Cd  Cd17  1  0.57390000  0.57390000  0.25000000  1.0 0.8414731764
Cd  Cd18  1  0.00000000  0.42610000  0.25000000  1.0 0.8414731764
H  H1  1  0.64000000  0.10550000  0.92280000  1.0 0.107531789
H  H2  1  0.61210000  0.17550000  0.92550000  1.0 0.1350462131
H  H3  1  0.78270000  0.29890000  0.91320000  1.0 0.1327021184
H  H4  1  0.80490000  0.22460000  0.91190000  1.0 0.1198308345
H  H5  1  0.77240000  0.97390000  0.92020000  1.0 0.107531789
H  H6  1  0.84260000  0.94650000  0.91870000  1.0 0.1327021184
H  H7  1  0.96620000  0.11670000  0.92510000  1.0 0.1327021184
H  H8  1  0.89250000  0.13930000  0.92790000  1.0 0.1198308345
H  H9  1  0.89180000  0.22610000  0.08760000  1.0 0.1327021184
H  H10  1  0.92210000  0.25300000  0.19170000  1.0 0.1327021184
H  H11  1  0.76650000  0.12120000  0.25350000  1.0 0.0793915572
H  H12  1  0.73650000  0.09520000  0.14900000  1.0 0.0793915572
H  H13  1  0.79510000  0.09990000  0.25230000  1.0 0.0793915572
H  H14  1  0.76800000  0.07350000  0.14620000  1.0 0.0732847967
H  H15  1  0.89450000  0.53450000  0.92280000  1.0 0.107531789
H  H16  1  0.82450000  0.43660000  0.92550000  1.0 0.1350462131
H  H17  1  0.70110000  0.48380000  0.91320000  1.0 0.1327021184
H  H18  1  0.77540000  0.58030000  0.91190000  1.0 0.1198308345
H  H19  1  0.02610000  0.79850000  0.92020000  1.0 0.107531789
H  H20  1  0.05350000  0.89610000  0.91870000  1.0 0.1327021184
H  H21  1  0.88330000  0.84950000  0.92510000  1.0 0.1327021184
H  H22  1  0.86070000  0.75320000  0.92790000  1.0 0.1198308345
H  H23  1  0.77390000  0.66570000  0.08760000  1.0 0.1327021184
H  H24  1  0.74700000  0.66910000  0.19170000  1.0 0.1327021184
H  H25  1  0.87880000  0.64530000  0.25350000  1.0 0.0793915572
H  H26  1  0.90480000  0.64130000  0.14900000  1.0 0.0793915572
H  H27  1  0.90010000  0.69520000  0.25230000  1.0 0.0793915572
H  H28  1  0.92650000  0.69450000  0.14620000  1.0 0.0732847967
H  H29  1  0.46550000  0.36000000  0.92280000  1.0 0.107531789
H  H30  1  0.56340000  0.38790000  0.92550000  1.0 0.1350462131
H  H31  1  0.51620000  0.21730000  0.91320000  1.0 0.1327021184
H  H32  1  0.41970000  0.19510000  0.91190000  1.0 0.1198308345
H  H33  1  0.20150000  0.22760000  0.92020000  1.0 0.107531789
H  H34  1  0.10390000  0.15740000  0.91870000  1.0 0.1327021184
H  H35  1  0.15050000  0.03380000  0.92510000  1.0 0.1327021184
H  H36  1  0.24680000  0.10750000  0.92790000  1.0 0.1198308345
H  H37  1  0.33430000  0.10820000  0.08760000  1.0 0.1327021184
H  H38  1  0.33090000  0.07790000  0.19170000  1.0 0.1350462131
H  H39  1  0.35470000  0.23350000  0.25350000  1.0 0.0793915572
H  H40  1  0.35870000  0.26350000  0.14900000  1.0 0.0793915572
H  H41  1  0.30480000  0.20490000  0.25230000  1.0 0.0793915572
H  H42  1  0.30550000  0.23200000  0.14620000  1.0 0.0732847967
H  H43  1  0.46550000  0.10550000  0.42280000  1.0 0.107531789
H  H44  1  0.56340000  0.17550000  0.42550000  1.0 0.1350462131
H  H45  1  0.51620000  0.29890000  0.41320000  1.0 0.1327021184
H  H46  1  0.41970000  0.22460000  0.41190000  1.0 0.1198308345
H  H47  1  0.20150000  0.97390000  0.42020000  1.0 0.107531789
H  H48  1  0.10390000  0.94650000  0.41870000  1.0 0.1327021184
H  H49  1  0.15050000  0.11670000  0.42510000  1.0 0.1327021184
H  H50  1  0.24680000  0.13930000  0.42790000  1.0 0.1198308345
H  H51  1  0.33430000  0.22610000  0.58760000  1.0 0.1327021184
H  H52  1  0.33090000  0.25300000  0.69170000  1.0 0.1327021184
H  H53  1  0.35470000  0.12120000  0.75350000  1.0 0.0793915572
H  H54  1  0.35870000  0.09520000  0.64900000  1.0 0.0793915572
H  H55  1  0.30480000  0.09990000  0.75230000  1.0 0.0793915572
H  H56  1  0.30550000  0.07350000  0.64620000  1.0 0.0732847967
H  H57  1  0.64000000  0.53450000  0.42280000  1.0 0.107531789
H  H58  1  0.61210000  0.43660000  0.42550000  1.0 0.1350462131
H  H59  1  0.78270000  0.48380000  0.41320000  1.0 0.1327021184
H  H60  1  0.80490000  0.58030000  0.41190000  1.0 0.1198308345
H  H61  1  0.77240000  0.79850000  0.42020000  1.0 0.107531789
H  H62  1  0.84260000  0.89610000  0.41870000  1.0 0.1327021184
H  H63  1  0.96620000  0.84950000  0.42510000  1.0 0.1327021184
H  H64  1  0.89250000  0.75320000  0.42790000  1.0 0.1198308345
H  H65  1  0.89180000  0.66570000  0.58760000  1.0 0.1327021184
H  H66  1  0.92210000  0.66910000  0.69170000  1.0 0.1327021184
H  H67  1  0.76650000  0.64530000  0.75350000  1.0 0.0793915572
H  H68  1  0.73650000  0.64130000  0.64900000  1.0 0.0793915572
H  H69  1  0.79510000  0.69520000  0.75230000  1.0 0.0793915572
H  H70  1  0.76800000  0.69450000  0.64620000  1.0 0.0732847967
H  H71  1  0.89450000  0.36000000  0.42280000  1.0 0.107531789
H  H72  1  0.82450000  0.38790000  0.42550000  1.0 0.1350462131
H  H73  1  0.70110000  0.21730000  0.41320000  1.0 0.1327021184
H  H74  1  0.77540000  0.19510000  0.41190000  1.0 0.1198308345
H  H75  1  0.02610000  0.22760000  0.42020000  1.0 0.107531789
H  H76  1  0.05350000  0.15740000  0.41870000  1.0 0.1327021184
H  H77  1  0.88330000  0.03380000  0.42510000  1.0 0.1327021184
H  H78  1  0.86070000  0.10750000  0.42790000  1.0 0.1198308345
H  H79  1  0.77390000  0.10820000  0.58760000  1.0 0.1327021184
H  H80  1  0.74700000  0.07790000  0.69170000  1.0 0.1327021184
H  H81  1  0.87880000  0.23350000  0.75350000  1.0 0.0793915572
H  H82  1  0.90480000  0.26350000  0.64900000  1.0 0.0793915572
H  H83  1  0.90010000  0.20490000  0.75230000  1.0 0.0793915572
H  H84  1  0.92650000  0.23200000  0.64620000  1.0 0.0732847967
H  H85  1  0.53450000  0.89450000  0.57720000  1.0 0.107531789
H  H86  1  0.43660000  0.82450000  0.57450000  1.0 0.1350462131
H  H87  1  0.48380000  0.70110000  0.58680000  1.0 0.1327021184
H  H88  1  0.58030000  0.77540000  0.58810000  1.0 0.1198308345
H  H89  1  0.79850000  0.02610000  0.57980000  1.0 0.107531789
H  H90  1  0.89610000  0.05350000  0.58130000  1.0 0.1327021184
H  H91  1  0.84950000  0.88330000  0.57490000  1.0 0.1327021184
H  H92  1  0.75320000  0.86070000  0.57210000  1.0 0.1198308345
H  H93  1  0.66570000  0.77390000  0.41240000  1.0 0.1327021184
H  H94  1  0.66910000  0.74700000  0.30830000  1.0 0.1327021184
H  H95  1  0.64530000  0.87880000  0.24650000  1.0 0.0793915572
H  H96  1  0.64130000  0.90480000  0.35100000  1.0 0.0793915572
H  H97  1  0.69520000  0.90010000  0.24770000  1.0 0.0793915572
H  H98  1  0.69450000  0.92650000  0.35380000  1.0 0.0732847967
H  H99  1  0.36000000  0.46550000  0.57720000  1.0 0.107531789
H  H100  1  0.38790000  0.56340000  0.57450000  1.0 0.1350462131
H  H101  1  0.21730000  0.51620000  0.58680000  1.0 0.1327021184
H  H102  1  0.19510000  0.41970000  0.58810000  1.0 0.1198308345
H  H103  1  0.22760000  0.20150000  0.57980000  1.0 0.107531789
H  H104  1  0.15740000  0.10390000  0.58130000  1.0 0.1327021184
H  H105  1  0.03380000  0.15050000  0.57490000  1.0 0.1327021184
H  H106  1  0.10750000  0.24680000  0.57210000  1.0 0.1198308345
H  H107  1  0.10820000  0.33430000  0.41240000  1.0 0.1327021184
H  H108  1  0.07790000  0.33090000  0.30830000  1.0 0.1350462131
H  H109  1  0.23350000  0.35470000  0.24650000  1.0 0.0793915572
H  H110  1  0.26350000  0.35870000  0.35100000  1.0 0.0793915572
H  H111  1  0.20490000  0.30480000  0.24770000  1.0 0.0793915572
H  H112  1  0.23200000  0.30550000  0.35380000  1.0 0.0732847967
H  H113  1  0.10550000  0.64000000  0.57720000  1.0 0.107531789
H  H114  1  0.17550000  0.61210000  0.57450000  1.0 0.1350462131
H  H115  1  0.29890000  0.78270000  0.58680000  1.0 0.1327021184
H  H116  1  0.22460000  0.80490000  0.58810000  1.0 0.1198308345
H  H117  1  0.97390000  0.77240000  0.57980000  1.0 0.107531789
H  H118  1  0.94650000  0.84260000  0.58130000  1.0 0.1327021184
H  H119  1  0.11670000  0.96620000  0.57490000  1.0 0.1327021184
H  H120  1  0.13930000  0.89250000  0.57210000  1.0 0.1198308345
H  H121  1  0.22610000  0.89180000  0.41240000  1.0 0.1327021184
H  H122  1  0.25300000  0.92210000  0.30830000  1.0 0.1350462131
H  H123  1  0.12120000  0.76650000  0.24650000  1.0 0.0793915572
H  H124  1  0.09520000  0.73650000  0.35100000  1.0 0.0793915572
H  H125  1  0.09990000  0.79510000  0.24770000  1.0 0.0793915572
H  H126  1  0.07350000  0.76800000  0.35380000  1.0 0.0732847967
H  H127  1  0.36000000  0.89450000  0.07720000  1.0 0.107531789
H  H128  1  0.38790000  0.82450000  0.07450000  1.0 0.1350462131
H  H129  1  0.21730000  0.70110000  0.08680000  1.0 0.1327021184
H  H130  1  0.19510000  0.77540000  0.08810000  1.0 0.1198308345
H  H131  1  0.22760000  0.02610000  0.07980000  1.0 0.107531789
H  H132  1  0.15740000  0.05350000  0.08130000  1.0 0.1327021184
H  H133  1  0.03380000  0.88330000  0.07490000  1.0 0.1327021184
H  H134  1  0.10750000  0.86070000  0.07210000  1.0 0.1198308345
H  H135  1  0.10820000  0.77390000  0.91240000  1.0 0.1327021184
H  H136  1  0.07790000  0.74700000  0.80830000  1.0 0.1350462131
H  H137  1  0.23350000  0.87880000  0.74650000  1.0 0.0793915572
H  H138  1  0.26350000  0.90480000  0.85100000  1.0 0.0793915572
H  H139  1  0.20490000  0.90010000  0.74770000  1.0 0.0793915572
H  H140  1  0.23200000  0.92650000  0.85380000  1.0 0.0732847967
H  H141  1  0.10550000  0.46550000  0.07720000  1.0 0.107531789
H  H142  1  0.17550000  0.56340000  0.07450000  1.0 0.1350462131
H  H143  1  0.29890000  0.51620000  0.08680000  1.0 0.1327021184
H  H144  1  0.22460000  0.41970000  0.08810000  1.0 0.1198308345
H  H145  1  0.97390000  0.20150000  0.07980000  1.0 0.107531789
H  H146  1  0.94650000  0.10390000  0.08130000  1.0 0.1327021184
H  H147  1  0.11670000  0.15050000  0.07490000  1.0 0.1327021184
H  H148  1  0.13930000  0.24680000  0.07210000  1.0 0.1198308345
H  H149  1  0.22610000  0.33430000  0.91240000  1.0 0.1327021184
H  H150  1  0.25300000  0.33090000  0.80830000  1.0 0.1350462131
H  H151  1  0.12120000  0.35470000  0.74650000  1.0 0.0793915572
H  H152  1  0.09520000  0.35870000  0.85100000  1.0 0.0793915572
H  H153  1  0.09990000  0.30480000  0.74770000  1.0 0.0793915572
H  H154  1  0.07350000  0.30550000  0.85380000  1.0 0.0732847967
H  H155  1  0.53450000  0.64000000  0.07720000  1.0 0.107531789
H  H156  1  0.43660000  0.61210000  0.07450000  1.0 0.1350462131
H  H157  1  0.48380000  0.78270000  0.08680000  1.0 0.1327021184
H  H158  1  0.58030000  0.80490000  0.08810000  1.0 0.1198308345
H  H159  1  0.79850000  0.77240000  0.07980000  1.0 0.107531789
H  H160  1  0.89610000  0.84260000  0.08130000  1.0 0.1327021184
H  H161  1  0.84950000  0.96620000  0.07490000  1.0 0.1327021184
H  H162  1  0.75320000  0.89250000  0.07210000  1.0 0.1198308345
H  H163  1  0.66570000  0.89180000  0.91240000  1.0 0.1327021184
H  H164  1  0.66910000  0.92210000  0.80830000  1.0 0.1327021184
H  H165  1  0.64530000  0.76650000  0.74650000  1.0 0.0793915572
H  H166  1  0.64130000  0.73650000  0.85100000  1.0 0.0793915572
H  H167  1  0.69520000  0.79510000  0.74770000  1.0 0.0793915572
H  H168  1  0.69450000  0.76800000  0.85380000  1.0 0.0732847967
H  H169  1  0.44230000  0.91380000  0.73870000  1.0 0.1198308345
H  H170  1  0.36820000  0.81720000  0.73900000  1.0 0.1327021184
H  H171  1  0.49080000  0.76970000  0.75250000  1.0 0.1327021184
H  H172  1  0.56150000  0.86740000  0.75100000  1.0 0.1033384644
H  H173  1  0.45110000  0.00860000  0.91370000  1.0 0.1198308345
H  H174  1  0.58020000  0.98820000  0.98400000  1.0 0.1198308345
H  H175  1  0.47150000  0.55770000  0.73870000  1.0 0.1198308345
H  H176  1  0.44900000  0.63180000  0.73900000  1.0 0.1327021184
H  H177  1  0.27890000  0.50920000  0.75250000  1.0 0.1327021184
H  H178  1  0.30590000  0.43850000  0.75100000  1.0 0.1033384644
H  H179  1  0.55750000  0.54890000  0.91370000  1.0 0.1198308345
H  H180  1  0.40800000  0.41980000  0.98400000  1.0 0.1198308345
H  H181  1  0.08620000  0.52850000  0.73870000  1.0 0.1198308345
H  H182  1  0.18280000  0.55100000  0.73900000  1.0 0.1327021184
H  H183  1  0.23030000  0.72110000  0.75250000  1.0 0.1327021184
H  H184  1  0.13260000  0.69410000  0.75100000  1.0 0.1033384644
H  H185  1  0.99140000  0.44250000  0.91370000  1.0 0.1198308345
H  H186  1  0.01180000  0.59200000  0.98400000  1.0 0.1198308345
H  H187  1  0.52850000  0.08620000  0.76130000  1.0 0.1198308345
H  H188  1  0.55100000  0.18280000  0.76100000  1.0 0.1327021184
H  H189  1  0.72110000  0.23030000  0.74750000  1.0 0.1327021184
H  H190  1  0.69410000  0.13260000  0.74900000  1.0 0.1033384644
H  H191  1  0.44250000  0.99140000  0.58630000  1.0 0.1198308345
H  H192  1  0.59200000  0.01180000  0.51600000  1.0 0.1198308345
H  H193  1  0.91380000  0.44230000  0.76130000  1.0 0.1198308345
H  H194  1  0.81720000  0.36820000  0.76100000  1.0 0.1327021184
H  H195  1  0.76970000  0.49080000  0.74750000  1.0 0.1327021184
H  H196  1  0.86740000  0.56150000  0.74900000  1.0 0.1033384644
H  H197  1  0.00860000  0.45110000  0.58630000  1.0 0.1198308345
H  H198  1  0.98820000  0.58020000  0.51600000  1.0 0.1198308345
H  H199  1  0.55770000  0.47150000  0.76130000  1.0 0.1198308345
H  H200  1  0.63180000  0.44900000  0.76100000  1.0 0.1327021184
H  H201  1  0.50920000  0.27890000  0.74750000  1.0 0.1327021184
H  H202  1  0.43850000  0.30590000  0.74900000  1.0 0.1033384644
H  H203  1  0.54890000  0.55750000  0.58630000  1.0 0.1198308345
H  H204  1  0.41980000  0.40800000  0.51600000  1.0 0.1198308345
H  H205  1  0.55770000  0.08620000  0.26130000  1.0 0.1198308345
H  H206  1  0.63180000  0.18280000  0.26100000  1.0 0.1327021184
H  H207  1  0.50920000  0.23030000  0.24750000  1.0 0.1327021184
H  H208  1  0.43850000  0.13260000  0.24900000  1.0 0.1033384644
H  H209  1  0.54890000  0.99140000  0.08630000  1.0 0.1198308345
H  H210  1  0.41980000  0.01180000  0.01600000  1.0 0.1198308345
H  H211  1  0.52850000  0.44230000  0.26130000  1.0 0.1198308345
H  H212  1  0.55100000  0.36820000  0.26100000  1.0 0.1327021184
H  H213  1  0.72110000  0.49080000  0.24750000  1.0 0.1327021184
H  H214  1  0.69410000  0.56150000  0.24900000  1.0 0.1033384644
H  H215  1  0.44250000  0.45110000  0.08630000  1.0 0.1198308345
H  H216  1  0.59200000  0.58020000  0.01600000  1.0 0.1198308345
H  H217  1  0.91380000  0.47150000  0.26130000  1.0 0.1198308345
H  H218  1  0.81720000  0.44900000  0.26100000  1.0 0.1327021184
H  H219  1  0.76970000  0.27890000  0.24750000  1.0 0.1327021184
H  H220  1  0.86740000  0.30590000  0.24900000  1.0 0.1033384644
H  H221  1  0.00860000  0.55750000  0.08630000  1.0 0.1198308345
H  H222  1  0.98820000  0.40800000  0.01600000  1.0 0.1198308345
H  H223  1  0.47150000  0.91380000  0.23870000  1.0 0.1198308345
H  H224  1  0.44900000  0.81720000  0.23900000  1.0 0.1327021184
H  H225  1  0.27890000  0.76970000  0.25250000  1.0 0.1327021184
H  H226  1  0.30590000  0.86740000  0.25100000  1.0 0.1033384644
H  H227  1  0.55750000  0.00860000  0.41370000  1.0 0.1198308345
H  H228  1  0.40800000  0.98820000  0.48400000  1.0 0.1198308345
H  H229  1  0.08620000  0.55770000  0.23870000  1.0 0.1198308345
H  H230  1  0.18280000  0.63180000  0.23900000  1.0 0.1327021184
H  H231  1  0.23030000  0.50920000  0.25250000  1.0 0.1327021184
H  H232  1  0.13260000  0.43850000  0.25100000  1.0 0.1033384644
H  H233  1  0.99140000  0.54890000  0.41370000  1.0 0.1198308345
H  H234  1  0.01180000  0.41980000  0.48400000  1.0 0.1198308345
H  H235  1  0.44230000  0.52850000  0.23870000  1.0 0.1198308345
H  H236  1  0.36820000  0.55100000  0.23900000  1.0 0.1327021184
H  H237  1  0.49080000  0.72110000  0.25250000  1.0 0.1327021184
H  H238  1  0.56150000  0.69410000  0.25100000  1.0 0.1033384644
H  H239  1  0.45110000  0.44250000  0.41370000  1.0 0.1198308345
H  H240  1  0.58020000  0.59200000  0.48400000  1.0 0.1198308345
C  C1  1  0.66920000  0.14530000  0.92100000  1.0 0.0889636311
C  C2  1  0.65210000  0.18680000  0.92240000  1.0 -0.1607020864
C  C3  1  0.69470000  0.24520000  0.91940000  1.0 0.0520869859
C  C4  1  0.75250000  0.25940000  0.91540000  1.0 -0.1693537988
C  C5  1  0.76530000  0.21480000  0.91450000  1.0 0.0889636311
C  C6  1  0.67960000  0.29210000  0.92050000  1.0 0.3598999349
C  C7  1  0.81230000  0.00320000  0.92120000  1.0 0.0793915572
C  C8  1  0.85390000  0.98660000  0.92000000  1.0 -0.1693537988
C  C9  1  0.91220000  0.02870000  0.92060000  1.0 0.0615467174
C  C10  1  0.92670000  0.08660000  0.92390000  1.0 -0.1693537988
C  C11  1  0.88250000  0.09960000  0.92550000  1.0 0.0793915572
C  C12  1  0.95910000  0.01330000  0.91910000  1.0 0.3598999349
C  C13  1  0.79750000  0.13550000  0.04100000  1.0 0.5219361924
C  C14  1  0.81650000  0.15360000  0.10810000  1.0 -0.0069857868
C  C15  1  0.86790000  0.20260000  0.12130000  1.0 -0.1540510624
C  C16  1  0.88600000  0.21900000  0.18330000  1.0 -0.1607020864
C  C17  1  0.85110000  0.18540000  0.23270000  1.0 -0.0027551374
C  C18  1  0.86990000  0.20240000  0.29980000  1.0 0.5023393773
C  C19  1  0.79290000  0.14030000  0.21980000  1.0 -0.0215325941
C  C20  1  0.77530000  0.12470000  0.15820000  1.0 -0.0271515051
C  C21  1  0.81110000  0.12810000  0.21960000  1.0 -0.0215325941
C  C22  1  0.79480000  0.11300000  0.15630000  1.0 -0.0271515051
C  C23  1  0.85470000  0.52390000  0.92100000  1.0 0.0889636311
C  C24  1  0.81320000  0.46530000  0.92240000  1.0 -0.1607020864
C  C25  1  0.75480000  0.44950000  0.91940000  1.0 0.0520869859
C  C26  1  0.74060000  0.49310000  0.91540000  1.0 -0.1693537988
C  C27  1  0.78520000  0.55050000  0.91450000  1.0 0.0889636311
C  C28  1  0.70790000  0.38750000  0.92050000  1.0 0.3598999349
C  C29  1  0.99680000  0.80910000  0.92120000  1.0 0.0793915572
C  C30  1  0.01340000  0.86730000  0.92000000  1.0 -0.1693537988
C  C31  1  0.97130000  0.88350000  0.92060000  1.0 0.0615467174
C  C32  1  0.91340000  0.84010000  0.92390000  1.0 -0.1693537988
C  C33  1  0.90040000  0.78290000  0.92550000  1.0 0.0793915572
C  C34  1  0.98670000  0.94580000  0.91910000  1.0 0.3598999349
C  C35  1  0.86450000  0.66200000  0.04100000  1.0 0.5219361924
C  C36  1  0.84640000  0.66290000  0.10810000  1.0 -0.0069857868
C  C37  1  0.79740000  0.66530000  0.12130000  1.0 -0.1540510624
C  C38  1  0.78100000  0.66700000  0.18330000  1.0 -0.1607020864
C  C39  1  0.81460000  0.66570000  0.23270000  1.0 -0.0027551374
C  C40  1  0.79760000  0.66750000  0.29980000  1.0 0.5023393773
C  C41  1  0.85970000  0.65260000  0.21980000  1.0 -0.0215325941
C  C42  1  0.87530000  0.65060000  0.15820000  1.0 -0.0215325941
C  C43  1  0.87190000  0.68300000  0.21960000  1.0 -0.0215325941
C  C44  1  0.88700000  0.68180000  0.15630000  1.0 -0.0271515051
C  C45  1  0.47610000  0.33080000  0.92100000  1.0 0.0889636311
C  C46  1  0.53470000  0.34790000  0.92240000  1.0 -0.1607020864
C  C47  1  0.55050000  0.30530000  0.91940000  1.0 0.0520869859
C  C48  1  0.50690000  0.24750000  0.91540000  1.0 -0.1693537988
C  C49  1  0.44950000  0.23470000  0.91450000  1.0 0.0889636311
C  C50  1  0.61250000  0.32040000  0.92050000  1.0 0.3598999349
C  C51  1  0.19090000  0.18770000  0.92120000  1.0 0.0793915572
C  C52  1  0.13270000  0.14610000  0.92000000  1.0 -0.1693537988
C  C53  1  0.11650000  0.08780000  0.92060000  1.0 0.0615467174
C  C54  1  0.15990000  0.07330000  0.92390000  1.0 -0.1693537988
C  C55  1  0.21710000  0.11750000  0.92550000  1.0 0.0793915572
C  C56  1  0.05420000  0.04090000  0.91910000  1.0 0.3598999349
C  C57  1  0.33800000  0.20250000  0.04100000  1.0 0.5219361924
C  C58  1  0.33710000  0.18350000  0.10810000  1.0 -0.0069857868
C  C59  1  0.33470000  0.13210000  0.12130000  1.0 -0.1540510624
C  C60  1  0.33300000  0.11400000  0.18330000  1.0 -0.1607020864
C  C61  1  0.33430000  0.14890000  0.23270000  1.0 -0.0027551374
C  C62  1  0.33250000  0.13010000  0.29980000  1.0 0.5023393773
C  C63  1  0.34740000  0.20710000  0.21980000  1.0 -0.0215325941
C  C64  1  0.34940000  0.22470000  0.15820000  1.0 -0.0271515051
C  C65  1  0.31700000  0.18890000  0.21960000  1.0 -0.0215325941
C  C66  1  0.31820000  0.20520000  0.15630000  1.0 -0.0271515051
C  C67  1  0.47610000  0.14530000  0.42100000  1.0 0.0889636311
C  C68  1  0.53470000  0.18680000  0.42240000  1.0 -0.1607020864
C  C69  1  0.55050000  0.24520000  0.41940000  1.0 0.0520869859
C  C70  1  0.50690000  0.25940000  0.41540000  1.0 -0.1693537988
C  C71  1  0.44950000  0.21480000  0.41450000  1.0 0.0889636311
C  C72  1  0.61250000  0.29210000  0.42050000  1.0 0.3598999349
C  C73  1  0.19090000  0.00320000  0.42120000  1.0 0.0793915572
C  C74  1  0.13270000  0.98660000  0.42000000  1.0 -0.1693537988
C  C75  1  0.11650000  0.02870000  0.42060000  1.0 0.0615467174
C  C76  1  0.15990000  0.08660000  0.42390000  1.0 -0.1693537988
C  C77  1  0.21710000  0.09960000  0.42550000  1.0 0.0793915572
C  C78  1  0.05420000  0.01330000  0.41910000  1.0 0.3598999349
C  C79  1  0.33800000  0.13550000  0.54100000  1.0 0.5219361924
C  C80  1  0.33710000  0.15360000  0.60810000  1.0 -0.0069857868
C  C81  1  0.33470000  0.20260000  0.62130000  1.0 -0.1540510624
C  C82  1  0.33300000  0.21900000  0.68330000  1.0 -0.1607020864
C  C83  1  0.33430000  0.18540000  0.73270000  1.0 -0.0027551374
C  C84  1  0.33250000  0.20240000  0.79980000  1.0 0.5023393773
C  C85  1  0.34740000  0.14030000  0.71980000  1.0 -0.0215325941
C  C86  1  0.34940000  0.12470000  0.65820000  1.0 -0.0271515051
C  C87  1  0.31700000  0.12810000  0.71960000  1.0 -0.0215325941
C  C88  1  0.31820000  0.11300000  0.65630000  1.0 -0.0271515051
C  C89  1  0.66920000  0.52390000  0.42100000  1.0 0.0889636311
C  C90  1  0.65210000  0.46530000  0.42240000  1.0 -0.1607020864
C  C91  1  0.69470000  0.44950000  0.41940000  1.0 0.0520869859
C  C92  1  0.75250000  0.49310000  0.41540000  1.0 -0.1693537988
C  C93  1  0.76530000  0.55050000  0.41450000  1.0 0.0889636311
C  C94  1  0.67960000  0.38750000  0.42050000  1.0 0.3598999349
C  C95  1  0.81230000  0.80910000  0.42120000  1.0 0.0793915572
C  C96  1  0.85390000  0.86730000  0.42000000  1.0 -0.1693537988
C  C97  1  0.91220000  0.88350000  0.42060000  1.0 0.0615467174
C  C98  1  0.92670000  0.84010000  0.42390000  1.0 -0.1693537988
C  C99  1  0.88250000  0.78290000  0.42550000  1.0 0.0793915572
C  C100  1  0.95910000  0.94580000  0.41910000  1.0 0.3598999349
C  C101  1  0.79750000  0.66200000  0.54100000  1.0 0.5219361924
C  C102  1  0.81650000  0.66290000  0.60810000  1.0 -0.0069857868
C  C103  1  0.86790000  0.66530000  0.62130000  1.0 -0.1540510624
C  C104  1  0.88600000  0.66700000  0.68330000  1.0 -0.1607020864
C  C105  1  0.85110000  0.66570000  0.73270000  1.0 -0.0027551374
C  C106  1  0.86990000  0.66750000  0.79980000  1.0 0.5023393773
C  C107  1  0.79290000  0.65260000  0.71980000  1.0 -0.0215325941
C  C108  1  0.77530000  0.65060000  0.65820000  1.0 -0.0271515051
C  C109  1  0.81110000  0.68300000  0.71960000  1.0 -0.0215325941
C  C110  1  0.79480000  0.68180000  0.65630000  1.0 -0.0271515051
C  C111  1  0.85470000  0.33080000  0.42100000  1.0 0.0889636311
C  C112  1  0.81320000  0.34790000  0.42240000  1.0 -0.1607020864
C  C113  1  0.75480000  0.30530000  0.41940000  1.0 0.0520869859
C  C114  1  0.74060000  0.24750000  0.41540000  1.0 -0.1693537988
C  C115  1  0.78520000  0.23470000  0.41450000  1.0 0.0889636311
C  C116  1  0.70790000  0.32040000  0.42050000  1.0 0.3598999349
C  C117  1  0.99680000  0.18770000  0.42120000  1.0 0.0793915572
C  C118  1  0.01340000  0.14610000  0.42000000  1.0 -0.1693537988
C  C119  1  0.97130000  0.08780000  0.42060000  1.0 0.0615467174
C  C120  1  0.91340000  0.07330000  0.42390000  1.0 -0.1693537988
C  C121  1  0.90040000  0.11750000  0.42550000  1.0 0.0793915572
C  C122  1  0.98670000  0.04090000  0.41910000  1.0 0.3598999349
C  C123  1  0.86450000  0.20250000  0.54100000  1.0 0.5219361924
C  C124  1  0.84640000  0.18350000  0.60810000  1.0 -0.0069857868
C  C125  1  0.79740000  0.13210000  0.62130000  1.0 -0.1540510624
C  C126  1  0.78100000  0.11400000  0.68330000  1.0 -0.1607020864
C  C127  1  0.81460000  0.14890000  0.73270000  1.0 -0.0027551374
C  C128  1  0.79760000  0.13010000  0.79980000  1.0 0.5023393773
C  C129  1  0.85970000  0.20710000  0.71980000  1.0 -0.0215325941
C  C130  1  0.87530000  0.22470000  0.65820000  1.0 -0.0271515051
C  C131  1  0.87190000  0.18890000  0.71960000  1.0 -0.0215325941
C  C132  1  0.88700000  0.20520000  0.65630000  1.0 -0.0271515051
C  C133  1  0.52390000  0.85470000  0.57900000  1.0 0.0889636311
C  C134  1  0.46530000  0.81320000  0.57760000  1.0 -0.1607020864
C  C135  1  0.44950000  0.75480000  0.58060000  1.0 0.0520869859
C  C136  1  0.49310000  0.74060000  0.58460000  1.0 -0.1693537988
C  C137  1  0.55050000  0.78520000  0.58550000  1.0 0.0889636311
C  C138  1  0.38750000  0.70790000  0.57950000  1.0 0.3598999349
C  C139  1  0.80910000  0.99680000  0.57880000  1.0 0.0793915572
C  C140  1  0.86730000  0.01340000  0.58000000  1.0 -0.1693537988
C  C141  1  0.88350000  0.97130000  0.57940000  1.0 0.0615467174
C  C142  1  0.84010000  0.91340000  0.57610000  1.0 -0.1693537988
C  C143  1  0.78290000  0.90040000  0.57450000  1.0 0.0793915572
C  C144  1  0.94580000  0.98670000  0.58090000  1.0 0.3598999349
C  C145  1  0.66200000  0.86450000  0.45900000  1.0 0.5219361924
C  C146  1  0.66290000  0.84640000  0.39190000  1.0 -0.0069857868
C  C147  1  0.66530000  0.79740000  0.37870000  1.0 -0.1540510624
C  C148  1  0.66700000  0.78100000  0.31670000  1.0 -0.1607020864
C  C149  1  0.66570000  0.81460000  0.26730000  1.0 -0.0027551374
C  C150  1  0.66750000  0.79760000  0.20020000  1.0 0.5023393773
C  C151  1  0.65260000  0.85970000  0.28020000  1.0 -0.0215325941
C  C152  1  0.65060000  0.87530000  0.34180000  1.0 -0.0271515051
C  C153  1  0.68300000  0.87190000  0.28040000  1.0 -0.0215325941
C  C154  1  0.68180000  0.88700000  0.34370000  1.0 -0.0271515051
C  C155  1  0.33080000  0.47610000  0.57900000  1.0 0.0889636311
C  C156  1  0.34790000  0.53470000  0.57760000  1.0 -0.1607020864
C  C157  1  0.30530000  0.55050000  0.58060000  1.0 0.0520869859
C  C158  1  0.24750000  0.50690000  0.58460000  1.0 -0.1693537988
C  C159  1  0.23470000  0.44950000  0.58550000  1.0 0.0889636311
C  C160  1  0.32040000  0.61250000  0.57950000  1.0 0.3598999349
C  C161  1  0.18770000  0.19090000  0.57880000  1.0 0.0793915572
C  C162  1  0.14610000  0.13270000  0.58000000  1.0 -0.1693537988
C  C163  1  0.08780000  0.11650000  0.57940000  1.0 0.0615467174
C  C164  1  0.07330000  0.15990000  0.57610000  1.0 -0.1693537988
C  C165  1  0.11750000  0.21710000  0.57450000  1.0 0.0793915572
C  C166  1  0.04090000  0.05420000  0.58090000  1.0 0.3598999349
C  C167  1  0.20250000  0.33800000  0.45900000  1.0 0.5219361924
C  C168  1  0.18350000  0.33710000  0.39190000  1.0 -0.0069857868
C  C169  1  0.13210000  0.33470000  0.37870000  1.0 -0.1540510624
C  C170  1  0.11400000  0.33300000  0.31670000  1.0 -0.1607020864
C  C171  1  0.14890000  0.33430000  0.26730000  1.0 -0.0027551374
C  C172  1  0.13010000  0.33250000  0.20020000  1.0 0.5023393773
C  C173  1  0.20710000  0.34740000  0.28020000  1.0 -0.0215325941
C  C174  1  0.22470000  0.34940000  0.34180000  1.0 -0.0271515051
C  C175  1  0.18890000  0.31700000  0.28040000  1.0 -0.0215325941
C  C176  1  0.20520000  0.31820000  0.34370000  1.0 -0.0271515051
C  C177  1  0.14530000  0.66920000  0.57900000  1.0 0.0889636311
C  C178  1  0.18680000  0.65210000  0.57760000  1.0 -0.1607020864
C  C179  1  0.24520000  0.69470000  0.58060000  1.0 0.0520869859
C  C180  1  0.25940000  0.75250000  0.58460000  1.0 -0.1693537988
C  C181  1  0.21480000  0.76530000  0.58550000  1.0 0.0889636311
C  C182  1  0.29210000  0.67960000  0.57950000  1.0 0.3598999349
C  C183  1  0.00320000  0.81230000  0.57880000  1.0 0.0793915572
C  C184  1  0.98660000  0.85390000  0.58000000  1.0 -0.1693537988
C  C185  1  0.02870000  0.91220000  0.57940000  1.0 0.0615467174
C  C186  1  0.08660000  0.92670000  0.57610000  1.0 -0.1693537988
C  C187  1  0.09960000  0.88250000  0.57450000  1.0 0.0793915572
C  C188  1  0.01330000  0.95910000  0.58090000  1.0 0.3598999349
C  C189  1  0.13550000  0.79750000  0.45900000  1.0 0.5219361924
C  C190  1  0.15360000  0.81650000  0.39190000  1.0 -0.0069857868
C  C191  1  0.20260000  0.86790000  0.37870000  1.0 -0.1540510624
C  C192  1  0.21900000  0.88600000  0.31670000  1.0 -0.1607020864
C  C193  1  0.18540000  0.85110000  0.26730000  1.0 -0.0027551374
C  C194  1  0.20240000  0.86990000  0.20020000  1.0 0.5023393773
C  C195  1  0.14030000  0.79290000  0.28020000  1.0 -0.0215325941
C  C196  1  0.12470000  0.77530000  0.34180000  1.0 -0.0271515051
C  C197  1  0.12810000  0.81110000  0.28040000  1.0 -0.0215325941
C  C198  1  0.11300000  0.79480000  0.34370000  1.0 -0.0271515051
C  C199  1  0.33080000  0.85470000  0.07900000  1.0 0.0889636311
C  C200  1  0.34790000  0.81320000  0.07760000  1.0 -0.1607020864
C  C201  1  0.30530000  0.75480000  0.08060000  1.0 0.0520869859
C  C202  1  0.24750000  0.74060000  0.08460000  1.0 -0.1693537988
C  C203  1  0.23470000  0.78520000  0.08550000  1.0 0.0889636311
C  C204  1  0.32040000  0.70790000  0.07950000  1.0 0.3598999349
C  C205  1  0.18770000  0.99680000  0.07880000  1.0 0.0793915572
C  C206  1  0.14610000  0.01340000  0.08000000  1.0 -0.1693537988
C  C207  1  0.08780000  0.97130000  0.07940000  1.0 0.0615467174
C  C208  1  0.07330000  0.91340000  0.07610000  1.0 -0.1693537988
C  C209  1  0.11750000  0.90040000  0.07450000  1.0 0.0793915572
C  C210  1  0.04090000  0.98670000  0.08090000  1.0 0.3598999349
C  C211  1  0.20250000  0.86450000  0.95900000  1.0 0.5219361924
C  C212  1  0.18350000  0.84640000  0.89190000  1.0 -0.0069857868
C  C213  1  0.13210000  0.79740000  0.87870000  1.0 -0.1540510624
C  C214  1  0.11400000  0.78100000  0.81670000  1.0 -0.1607020864
C  C215  1  0.14890000  0.81460000  0.76730000  1.0 -0.0027551374
C  C216  1  0.13010000  0.79760000  0.70020000  1.0 0.5023393773
C  C217  1  0.20710000  0.85970000  0.78020000  1.0 -0.0215325941
C  C218  1  0.22470000  0.87530000  0.84180000  1.0 -0.0271515051
C  C219  1  0.18890000  0.87190000  0.78040000  1.0 -0.0215325941
C  C220  1  0.20520000  0.88700000  0.84370000  1.0 -0.0271515051
C  C221  1  0.14530000  0.47610000  0.07900000  1.0 0.0889636311
C  C222  1  0.18680000  0.53470000  0.07760000  1.0 -0.1607020864
C  C223  1  0.24520000  0.55050000  0.08060000  1.0 0.0520869859
C  C224  1  0.25940000  0.50690000  0.08460000  1.0 -0.1693537988
C  C225  1  0.21480000  0.44950000  0.08550000  1.0 0.0889636311
C  C226  1  0.29210000  0.61250000  0.07950000  1.0 0.3598999349
C  C227  1  0.00320000  0.19090000  0.07880000  1.0 0.0793915572
C  C228  1  0.98660000  0.13270000  0.08000000  1.0 -0.1693537988
C  C229  1  0.02870000  0.11650000  0.07940000  1.0 0.0615467174
C  C230  1  0.08660000  0.15990000  0.07610000  1.0 -0.1693537988
C  C231  1  0.09960000  0.21710000  0.07450000  1.0 0.0793915572
C  C232  1  0.01330000  0.05420000  0.08090000  1.0 0.3598999349
C  C233  1  0.13550000  0.33800000  0.95900000  1.0 0.5219361924
C  C234  1  0.15360000  0.33710000  0.89190000  1.0 -0.0069857868
C  C235  1  0.20260000  0.33470000  0.87870000  1.0 -0.1540510624
C  C236  1  0.21900000  0.33300000  0.81670000  1.0 -0.1607020864
C  C237  1  0.18540000  0.33430000  0.76730000  1.0 -0.0027551374
C  C238  1  0.20240000  0.33250000  0.70020000  1.0 0.5023393773
C  C239  1  0.14030000  0.34740000  0.78020000  1.0 -0.0215325941
C  C240  1  0.12470000  0.34940000  0.84180000  1.0 -0.0271515051
C  C241  1  0.12810000  0.31700000  0.78040000  1.0 -0.0215325941
C  C242  1  0.11300000  0.31820000  0.84370000  1.0 -0.0271515051
C  C243  1  0.52390000  0.66920000  0.07900000  1.0 0.0889636311
C  C244  1  0.46530000  0.65210000  0.07760000  1.0 -0.1607020864
C  C245  1  0.44950000  0.69470000  0.08060000  1.0 0.0520869859
C  C246  1  0.49310000  0.75250000  0.08460000  1.0 -0.1693537988
C  C247  1  0.55050000  0.76530000  0.08550000  1.0 0.0889636311
C  C248  1  0.38750000  0.67960000  0.07950000  1.0 0.3598999349
C  C249  1  0.80910000  0.81230000  0.07880000  1.0 0.0793915572
C  C250  1  0.86730000  0.85390000  0.08000000  1.0 -0.1693537988
C  C251  1  0.88350000  0.91220000  0.07940000  1.0 0.0615467174
C  C252  1  0.84010000  0.92670000  0.07610000  1.0 -0.1693537988
C  C253  1  0.78290000  0.88250000  0.07450000  1.0 0.0793915572
C  C254  1  0.94580000  0.95910000  0.08090000  1.0 0.3598999349
C  C255  1  0.66200000  0.79750000  0.95900000  1.0 0.5219361924
C  C256  1  0.66290000  0.81650000  0.89190000  1.0 -0.0069857868
C  C257  1  0.66530000  0.86790000  0.87870000  1.0 -0.1540510624
C  C258  1  0.66700000  0.88600000  0.81670000  1.0 -0.1607020864
C  C259  1  0.66570000  0.85110000  0.76730000  1.0 -0.0027551374
C  C260  1  0.66750000  0.86990000  0.70020000  1.0 0.5023393773
C  C261  1  0.65260000  0.79290000  0.78020000  1.0 -0.0215325941
C  C262  1  0.65060000  0.77530000  0.84180000  1.0 -0.0271515051
C  C263  1  0.68300000  0.81110000  0.78040000  1.0 -0.0215325941
C  C264  1  0.68180000  0.79480000  0.84370000  1.0 -0.0271515051
C  C265  1  0.45220000  0.88410000  0.74140000  1.0 0.0889636311
C  C266  1  0.40770000  0.82650000  0.74170000  1.0 -0.1693537988
C  C267  1  0.42130000  0.78290000  0.74580000  1.0 0.0615467174
C  C268  1  0.47980000  0.79860000  0.74950000  1.0 -0.1693537988
C  C269  1  0.52170000  0.85700000  0.74870000  1.0 0.0793915572
C  C270  1  0.37430000  0.72060000  0.74650000  1.0 0.3598999349
C  C271  1  0.53750000  0.99660000  0.87240000  1.0 0.5311158441
C  C272  1  0.51840000  0.99830000  0.93890000  1.0 -0.0215325941
C  C273  1  0.47140000  0.00510000  0.94890000  1.0 -0.1021006065
C  C274  1  0.54740000  0.99300000  0.99020000  1.0 -0.1053737217
C  C275  1  0.43190000  0.54780000  0.74140000  1.0 0.0889636311
C  C276  1  0.41880000  0.59230000  0.74170000  1.0 -0.1693537988
C  C277  1  0.36160000  0.57870000  0.74580000  1.0 0.0615467174
C  C278  1  0.31880000  0.52020000  0.74950000  1.0 -0.1693537988
C  C279  1  0.33530000  0.47830000  0.74870000  1.0 0.0793915572
C  C280  1  0.34630000  0.62570000  0.74650000  1.0 0.3598999349
C  C281  1  0.45910000  0.46250000  0.87240000  1.0 0.5311158441
C  C282  1  0.47990000  0.48160000  0.93890000  1.0 -0.0215325941
C  C283  1  0.53370000  0.52860000  0.94890000  1.0 -0.1021006065
C  C284  1  0.44560000  0.45260000  0.99020000  1.0 -0.1053737217
C  C285  1  0.11590000  0.56810000  0.74140000  1.0 0.0889636311
C  C286  1  0.17350000  0.58120000  0.74170000  1.0 -0.1693537988
C  C287  1  0.21710000  0.63840000  0.74580000  1.0 0.0615467174
C  C288  1  0.20140000  0.68120000  0.74950000  1.0 -0.1693537988
C  C289  1  0.14300000  0.66470000  0.74870000  1.0 0.0793915572
C  C290  1  0.27940000  0.65370000  0.74650000  1.0 0.3598999349
C  C291  1  0.00340000  0.54090000  0.87240000  1.0 0.5311158441
C  C292  1  0.00170000  0.52010000  0.93890000  1.0 -0.0215325941
C  C293  1  0.99490000  0.46630000  0.94890000  1.0 -0.1021006065
C  C294  1  0.00700000  0.55440000  0.99020000  1.0 -0.1053737217
C  C295  1  0.56810000  0.11590000  0.75860000  1.0 0.0889636311
C  C296  1  0.58120000  0.17350000  0.75830000  1.0 -0.1693537988
C  C297  1  0.63840000  0.21710000  0.75420000  1.0 0.0615467174
C  C298  1  0.68120000  0.20140000  0.75050000  1.0 -0.1693537988
C  C299  1  0.66470000  0.14300000  0.75130000  1.0 0.0793915572
C  C300  1  0.65370000  0.27940000  0.75350000  1.0 0.3598999349
C  C301  1  0.54090000  0.00340000  0.62760000  1.0 0.5311158441
C  C302  1  0.52010000  0.00170000  0.56110000  1.0 -0.0215325941
C  C303  1  0.46630000  0.99490000  0.55110000  1.0 -0.1021006065
C  C304  1  0.55440000  0.00700000  0.50980000  1.0 -0.1053737217
C  C305  1  0.88410000  0.45220000  0.75860000  1.0 0.0889636311
C  C306  1  0.82650000  0.40770000  0.75830000  1.0 -0.1693537988
C  C307  1  0.78290000  0.42130000  0.75420000  1.0 0.0615467174
C  C308  1  0.79860000  0.47980000  0.75050000  1.0 -0.1693537988
C  C309  1  0.85700000  0.52170000  0.75130000  1.0 0.0793915572
C  C310  1  0.72060000  0.37430000  0.75350000  1.0 0.3598999349
C  C311  1  0.99660000  0.53750000  0.62760000  1.0 0.5311158441
C  C312  1  0.99830000  0.51840000  0.56110000  1.0 -0.0215325941
C  C313  1  0.00510000  0.47140000  0.55110000  1.0 -0.1021006065
C  C314  1  0.99300000  0.54740000  0.50980000  1.0 -0.1053737217
C  C315  1  0.54780000  0.43190000  0.75860000  1.0 0.0889636311
C  C316  1  0.59230000  0.41880000  0.75830000  1.0 -0.1693537988
C  C317  1  0.57870000  0.36160000  0.75420000  1.0 0.0615467174
C  C318  1  0.52020000  0.31880000  0.75050000  1.0 -0.1693537988
C  C319  1  0.47830000  0.33530000  0.75130000  1.0 0.0793915572
C  C320  1  0.62570000  0.34630000  0.75350000  1.0 0.3598999349
C  C321  1  0.46250000  0.45910000  0.62760000  1.0 0.5311158441
C  C322  1  0.48160000  0.47990000  0.56110000  1.0 -0.0215325941
C  C323  1  0.52860000  0.53370000  0.55110000  1.0 -0.1021006065
C  C324  1  0.45260000  0.44560000  0.50980000  1.0 -0.1053737217
C  C325  1  0.54780000  0.11590000  0.25860000  1.0 0.0889636311
C  C326  1  0.59230000  0.17350000  0.25830000  1.0 -0.1693537988
C  C327  1  0.57870000  0.21710000  0.25420000  1.0 0.0615467174
C  C328  1  0.52020000  0.20140000  0.25050000  1.0 -0.1693537988
C  C329  1  0.47830000  0.14300000  0.25130000  1.0 0.0793915572
C  C330  1  0.62570000  0.27940000  0.25350000  1.0 0.3598999349
C  C331  1  0.46250000  0.00340000  0.12760000  1.0 0.5311158441
C  C332  1  0.48160000  0.00170000  0.06110000  1.0 -0.0215325941
C  C333  1  0.52860000  0.99490000  0.05110000  1.0 -0.1021006065
C  C334  1  0.45260000  0.00700000  0.00980000  1.0 -0.1053737217
C  C335  1  0.56810000  0.45220000  0.25860000  1.0 0.0889636311
C  C336  1  0.58120000  0.40770000  0.25830000  1.0 -0.1693537988
C  C337  1  0.63840000  0.42130000  0.25420000  1.0 0.0615467174
C  C338  1  0.68120000  0.47980000  0.25050000  1.0 -0.1693537988
C  C339  1  0.66470000  0.52170000  0.25130000  1.0 0.0793915572
C  C340  1  0.65370000  0.37430000  0.25350000  1.0 0.3598999349
C  C341  1  0.54090000  0.53750000  0.12760000  1.0 0.5311158441
C  C342  1  0.52010000  0.51840000  0.06110000  1.0 -0.0215325941
C  C343  1  0.46630000  0.47140000  0.05110000  1.0 -0.1021006065
C  C344  1  0.55440000  0.54740000  0.00980000  1.0 -0.1053737217
C  C345  1  0.88410000  0.43190000  0.25860000  1.0 0.0889636311
C  C346  1  0.82650000  0.41880000  0.25830000  1.0 -0.1693537988
C  C347  1  0.78290000  0.36160000  0.25420000  1.0 0.0615467174
C  C348  1  0.79860000  0.31880000  0.25050000  1.0 -0.1693537988
C  C349  1  0.85700000  0.33530000  0.25130000  1.0 0.0793915572
C  C350  1  0.72060000  0.34630000  0.25350000  1.0 0.3598999349
C  C351  1  0.99660000  0.45910000  0.12760000  1.0 0.5311158441
C  C352  1  0.99830000  0.47990000  0.06110000  1.0 -0.0215325941
C  C353  1  0.00510000  0.53370000  0.05110000  1.0 -0.1021006065
C  C354  1  0.99300000  0.44560000  0.00980000  1.0 -0.1053737217
C  C355  1  0.43190000  0.88410000  0.24140000  1.0 0.0889636311
C  C356  1  0.41880000  0.82650000  0.24170000  1.0 -0.1693537988
C  C357  1  0.36160000  0.78290000  0.24580000  1.0 0.0615467174
C  C358  1  0.31880000  0.79860000  0.24950000  1.0 -0.1693537988
C  C359  1  0.33530000  0.85700000  0.24870000  1.0 0.0793915572
C  C360  1  0.34630000  0.72060000  0.24650000  1.0 0.3598999349
C  C361  1  0.45910000  0.99660000  0.37240000  1.0 0.5311158441
C  C362  1  0.47990000  0.99830000  0.43890000  1.0 -0.0215325941
C  C363  1  0.53370000  0.00510000  0.44890000  1.0 -0.1021006065
C  C364  1  0.44560000  0.99300000  0.49020000  1.0 -0.1053737217
C  C365  1  0.11590000  0.54780000  0.24140000  1.0 0.0889636311
C  C366  1  0.17350000  0.59230000  0.24170000  1.0 -0.1693537988
C  C367  1  0.21710000  0.57870000  0.24580000  1.0 0.0615467174
C  C368  1  0.20140000  0.52020000  0.24950000  1.0 -0.1693537988
C  C369  1  0.14300000  0.47830000  0.24870000  1.0 0.0793915572
C  C370  1  0.27940000  0.62570000  0.24650000  1.0 0.3598999349
C  C371  1  0.00340000  0.46250000  0.37240000  1.0 0.5311158441
C  C372  1  0.00170000  0.48160000  0.43890000  1.0 -0.0215325941
C  C373  1  0.99490000  0.52860000  0.44890000  1.0 -0.1021006065
C  C374  1  0.00700000  0.45260000  0.49020000  1.0 -0.1053737217
C  C375  1  0.45220000  0.56810000  0.24140000  1.0 0.0889636311
C  C376  1  0.40770000  0.58120000  0.24170000  1.0 -0.1693537988
C  C377  1  0.42130000  0.63840000  0.24580000  1.0 0.0615467174
C  C378  1  0.47980000  0.68120000  0.24950000  1.0 -0.1693537988
C  C379  1  0.52170000  0.66470000  0.24870000  1.0 0.0793915572
C  C380  1  0.37430000  0.65370000  0.24650000  1.0 0.3598999349
C  C381  1  0.53750000  0.54090000  0.37240000  1.0 0.5311158441
C  C382  1  0.51840000  0.52010000  0.43890000  1.0 -0.0215325941
C  C383  1  0.47140000  0.46630000  0.44890000  1.0 -0.1021006065
C  C384  1  0.54740000  0.55440000  0.49020000  1.0 -0.1053737217
N  N1  1  0.72450000  0.15840000  0.91720000  1.0 -0.2196213051
N  N2  1  0.72360000  0.34690000  0.92030000  1.0 -0.3978857604
N  N3  1  0.82570000  0.05860000  0.92380000  1.0 -0.2196213051
N  N4  1  0.94280000  0.95690000  0.91930000  1.0 -0.3978857604
N  N5  1  0.84160000  0.56610000  0.91720000  1.0 -0.2196213051
N  N6  1  0.65310000  0.37670000  0.92030000  1.0 -0.3978857604
N  N7  1  0.94140000  0.76710000  0.92380000  1.0 -0.2196213051
N  N8  1  0.04310000  0.98590000  0.91930000  1.0 -0.3978857604
N  N9  1  0.43390000  0.27550000  0.91720000  1.0 -0.2196213051
N  N10  1  0.62330000  0.27640000  0.92030000  1.0 -0.3978857604
N  N11  1  0.23290000  0.17430000  0.92380000  1.0 -0.2196213051
N  N12  1  0.01410000  0.05720000  0.91930000  1.0 -0.3978857604
N  N13  1  0.43390000  0.15840000  0.41720000  1.0 -0.2196213051
N  N14  1  0.62330000  0.34690000  0.42030000  1.0 -0.3978857604
N  N15  1  0.23290000  0.05860000  0.42380000  1.0 -0.2196213051
N  N16  1  0.01410000  0.95690000  0.41930000  1.0 -0.3978857604
N  N17  1  0.72450000  0.56610000  0.41720000  1.0 -0.2196213051
N  N18  1  0.72360000  0.37670000  0.42030000  1.0 -0.3978857604
N  N19  1  0.82570000  0.76710000  0.42380000  1.0 -0.2196213051
N  N20  1  0.94280000  0.98590000  0.41930000  1.0 -0.3978857604
N  N21  1  0.84160000  0.27550000  0.41720000  1.0 -0.2196213051
N  N22  1  0.65310000  0.27640000  0.42030000  1.0 -0.3978857604
N  N23  1  0.94140000  0.17430000  0.42380000  1.0 -0.2196213051
N  N24  1  0.04310000  0.05720000  0.41930000  1.0 -0.3978857604
N  N25  1  0.56610000  0.84160000  0.58280000  1.0 -0.2196213051
N  N26  1  0.37670000  0.65310000  0.57970000  1.0 -0.3978857604
N  N27  1  0.76710000  0.94140000  0.57620000  1.0 -0.2196213051
N  N28  1  0.98590000  0.04310000  0.58070000  1.0 -0.3978857604
N  N29  1  0.27550000  0.43390000  0.58280000  1.0 -0.2196213051
N  N30  1  0.27640000  0.62330000  0.57970000  1.0 -0.3978857604
N  N31  1  0.17430000  0.23290000  0.57620000  1.0 -0.2196213051
N  N32  1  0.05720000  0.01410000  0.58070000  1.0 -0.3978857604
N  N33  1  0.15840000  0.72450000  0.58280000  1.0 -0.2196213051
N  N34  1  0.34690000  0.72360000  0.57970000  1.0 -0.3978857604
N  N35  1  0.05860000  0.82570000  0.57620000  1.0 -0.2196213051
N  N36  1  0.95690000  0.94280000  0.58070000  1.0 -0.3978857604
N  N37  1  0.27550000  0.84160000  0.08280000  1.0 -0.2196213051
N  N38  1  0.27640000  0.65310000  0.07970000  1.0 -0.3978857604
N  N39  1  0.17430000  0.94140000  0.07620000  1.0 -0.2196213051
N  N40  1  0.05720000  0.04310000  0.08070000  1.0 -0.3978857604
N  N41  1  0.15840000  0.43390000  0.08280000  1.0 -0.2196213051
N  N42  1  0.34690000  0.62330000  0.07970000  1.0 -0.3978857604
N  N43  1  0.05860000  0.23290000  0.07620000  1.0 -0.2196213051
N  N44  1  0.95690000  0.01410000  0.08070000  1.0 -0.3978857604
N  N45  1  0.56610000  0.72450000  0.08280000  1.0 -0.2196213051
N  N46  1  0.37670000  0.72360000  0.07970000  1.0 -0.3978857604
N  N47  1  0.76710000  0.82570000  0.07620000  1.0 -0.2196213051
N  N48  1  0.98590000  0.94280000  0.08070000  1.0 -0.3978857604
N  N49  1  0.50870000  0.89950000  0.74480000  1.0 -0.2314584212
N  N50  1  0.31950000  0.71000000  0.74640000  1.0 -0.386088526
N  N51  1  0.39080000  0.49130000  0.74480000  1.0 -0.2314584212
N  N52  1  0.39050000  0.68050000  0.74640000  1.0 -0.386088526
N  N53  1  0.10050000  0.60920000  0.74480000  1.0 -0.2314584212
N  N54  1  0.29000000  0.60950000  0.74640000  1.0 -0.386088526
N  N55  1  0.60920000  0.10050000  0.75520000  1.0 -0.2314584212
N  N56  1  0.60950000  0.29000000  0.75360000  1.0 -0.386088526
N  N57  1  0.89950000  0.50870000  0.75520000  1.0 -0.2314584212
N  N58  1  0.71000000  0.31950000  0.75360000  1.0 -0.386088526
N  N59  1  0.49130000  0.39080000  0.75520000  1.0 -0.2314584212
N  N60  1  0.68050000  0.39050000  0.75360000  1.0 -0.386088526
N  N61  1  0.49130000  0.10050000  0.25520000  1.0 -0.2314584212
N  N62  1  0.68050000  0.29000000  0.25360000  1.0 -0.386088526
N  N63  1  0.60920000  0.50870000  0.25520000  1.0 -0.2314584212
N  N64  1  0.60950000  0.31950000  0.25360000  1.0 -0.386088526
N  N65  1  0.89950000  0.39080000  0.25520000  1.0 -0.2314584212
N  N66  1  0.71000000  0.39050000  0.25360000  1.0 -0.386088526
N  N67  1  0.39080000  0.89950000  0.24480000  1.0 -0.2314584212
N  N68  1  0.39050000  0.71000000  0.24640000  1.0 -0.386088526
N  N69  1  0.10050000  0.49130000  0.24480000  1.0 -0.2314584212
N  N70  1  0.29000000  0.68050000  0.24640000  1.0 -0.386088526
N  N71  1  0.50870000  0.60920000  0.24480000  1.0 -0.2314584212
N  N72  1  0.31950000  0.60950000  0.24640000  1.0 -0.386088526
O  O1  1  0.83010000  0.16650000  0.99661000  1.0 -0.5471209668
O  O2  1  0.75050000  0.08900000  0.03110000  1.0 -0.487749088
O  O3  1  0.91653000  0.24943000  0.31131000  1.0 -0.4532061872
O  O4  1  0.83830000  0.16970000  0.34357000  1.0 -0.5240913388
O  O5  1  0.67875000  0.00207000  0.92104000  1.0 -0.2610356765
O  O6  1  0.83350000  0.66360000  0.99661000  1.0 -0.5471209668
O  O7  1  0.91100000  0.66150000  0.03110000  1.0 -0.487749088
O  O8  1  0.75057000  0.66710000  0.31131000  1.0 -0.4532061872
O  O9  1  0.83030000  0.66860000  0.34357000  1.0 -0.5240913388
O  O10  1  0.99793000  0.67668000  0.92104000  1.0 -0.2610356765
O  O11  1  0.33640000  0.16990000  0.99661000  1.0 -0.5471209668
O  O12  1  0.33850000  0.24950000  0.03110000  1.0 -0.487749088
O  O13  1  0.33290000  0.08347000  0.31131000  1.0 -0.4532061872
O  O14  1  0.33140000  0.16170000  0.34357000  1.0 -0.5240913388
O  O15  1  0.32332000  0.32125000  0.92104000  1.0 -0.2610356765
O  O16  1  0.33640000  0.16650000  0.49661000  1.0 -0.5471209668
O  O17  1  0.33850000  0.08900000  0.53110000  1.0 -0.487749088
O  O18  1  0.33290000  0.24943000  0.81131000  1.0 -0.4532061872
O  O19  1  0.33140000  0.16970000  0.84357000  1.0 -0.5240913388
O  O20  1  0.32332000  0.00207000  0.42104000  1.0 -0.2610356765
O  O21  1  0.83010000  0.66360000  0.49661000  1.0 -0.5471209668
O  O22  1  0.75050000  0.66150000  0.53110000  1.0 -0.487749088
O  O23  1  0.91653000  0.66710000  0.81131000  1.0 -0.4532061872
O  O24  1  0.83830000  0.66860000  0.84357000  1.0 -0.5240913388
O  O25  1  0.67875000  0.67668000  0.42104000  1.0 -0.2610356765
O  O26  1  0.83350000  0.16990000  0.49661000  1.0 -0.5471209668
O  O27  1  0.91100000  0.24950000  0.53110000  1.0 -0.487749088
O  O28  1  0.75057000  0.08347000  0.81131000  1.0 -0.4532061872
O  O29  1  0.83030000  0.16170000  0.84357000  1.0 -0.5240913388
O  O30  1  0.99793000  0.32125000  0.42104000  1.0 -0.2610356765
O  O31  1  0.66360000  0.83350000  0.50339000  1.0 -0.5471209668
O  O32  1  0.66150000  0.91100000  0.46890000  1.0 -0.487749088
O  O33  1  0.66710000  0.75057000  0.18869000  1.0 -0.4532061872
O  O34  1  0.66860000  0.83030000  0.15643000  1.0 -0.5240913388
O  O35  1  0.67668000  0.99793000  0.57896000  1.0 -0.2610356765
O  O36  1  0.16990000  0.33640000  0.50339000  1.0 -0.5471209668
O  O37  1  0.24950000  0.33850000  0.46890000  1.0 -0.487749088
O  O38  1  0.08347000  0.33290000  0.18869000  1.0 -0.4532061872
O  O39  1  0.16170000  0.33140000  0.15643000  1.0 -0.5240913388
O  O40  1  0.32125000  0.32332000  0.57896000  1.0 -0.2610356765
O  O41  1  0.16650000  0.83010000  0.50339000  1.0 -0.5471209668
O  O42  1  0.08900000  0.75050000  0.46890000  1.0 -0.487749088
O  O43  1  0.24943000  0.91653000  0.18869000  1.0 -0.4532061872
O  O44  1  0.16970000  0.83830000  0.15643000  1.0 -0.5240913388
O  O45  1  0.00207000  0.67875000  0.57896000  1.0 -0.2610356765
O  O46  1  0.16990000  0.83350000  0.00339000  1.0 -0.5471209668
O  O47  1  0.24950000  0.91100000  0.96890000  1.0 -0.487749088
O  O48  1  0.08347000  0.75057000  0.68869000  1.0 -0.4532061872
O  O49  1  0.16170000  0.83030000  0.65643000  1.0 -0.5240913388
O  O50  1  0.32125000  0.99793000  0.07896000  1.0 -0.2610356765
O  O51  1  0.16650000  0.33640000  0.00339000  1.0 -0.5471209668
O  O52  1  0.08900000  0.33850000  0.96890000  1.0 -0.487749088
O  O53  1  0.24943000  0.33290000  0.68869000  1.0 -0.4532061872
O  O54  1  0.16970000  0.33140000  0.65643000  1.0 -0.5240913388
O  O55  1  0.00207000  0.32332000  0.07896000  1.0 -0.2610356765
O  O56  1  0.66360000  0.83010000  0.00339000  1.0 -0.5471209668
O  O57  1  0.66150000  0.75050000  0.96890000  1.0 -0.487749088
O  O58  1  0.66710000  0.91653000  0.68869000  1.0 -0.4532061872
O  O59  1  0.66860000  0.83830000  0.65643000  1.0 -0.5240913388
O  O60  1  0.67668000  0.67875000  0.07896000  1.0 -0.2610356765
O  O61  1  0.50618000  0.99579000  0.82782000  1.0 -0.5471209668
O  O62  1  0.58480000  0.99720000  0.86320000  1.0 -0.487749088
O  O63  1  0.48961000  0.49382000  0.82782000  1.0 -0.5471209668
O  O64  1  0.41240000  0.41520000  0.86320000  1.0 -0.487749088
O  O65  1  0.00421000  0.51039000  0.82782000  1.0 -0.5471209668
O  O66  1  0.00280000  0.58760000  0.86320000  1.0 -0.487749088
O  O67  1  0.51039000  0.00421000  0.67218000  1.0 -0.5471209668
O  O68  1  0.58760000  0.00280000  0.63680000  1.0 -0.487749088
O  O69  1  0.99579000  0.50618000  0.67218000  1.0 -0.5471209668
O  O70  1  0.99720000  0.58480000  0.63680000  1.0 -0.487749088
O  O71  1  0.49382000  0.48961000  0.67218000  1.0 -0.5471209668
O  O72  1  0.41520000  0.41240000  0.63680000  1.0 -0.487749088
O  O73  1  0.49382000  0.00421000  0.17218000  1.0 -0.5471209668
O  O74  1  0.41520000  0.00280000  0.13680000  1.0 -0.487749088
O  O75  1  0.51039000  0.50618000  0.17218000  1.0 -0.5471209668
O  O76  1  0.58760000  0.58480000  0.13680000  1.0 -0.487749088
O  O77  1  0.99579000  0.48961000  0.17218000  1.0 -0.5471209668
O  O78  1  0.99720000  0.41240000  0.13680000  1.0 -0.487749088
O  O79  1  0.48961000  0.99579000  0.32782000  1.0 -0.5471209668
O  O80  1  0.41240000  0.99720000  0.36320000  1.0 -0.487749088
O  O81  1  0.00421000  0.49382000  0.32782000  1.0 -0.5471209668
O  O82  1  0.00280000  0.41520000  0.36320000  1.0 -0.487749088
O  O83  1  0.50618000  0.51039000  0.32782000  1.0 -0.5471209668
O  O84  1  0.58480000  0.58760000  0.36320000  1.0 -0.487749088
O  O85  1  0.65850000  0.00000000  0.75000000  1.0 -0.1232024463
O  O86  1  0.34150000  0.34150000  0.75000000  1.0 -0.1262429736
O  O87  1  0.00000000  0.65850000  0.75000000  1.0 -0.1262429736
O  O88  1  0.34150000  0.00000000  0.25000000  1.0 -0.1232024463
O  O89  1  0.65850000  0.65850000  0.25000000  1.0 -0.1232024463
O  O90  1  0.00000000  0.34150000  0.25000000  1.0 -0.1262429736
