# DDEC6 charges by PACMAN v1.1 (https://github.com/mtap-research/PACMAN-charge/)
data_LIJQON_FSR_pacman
_symmetry_space_group_name_H-M   'P 1'
_cell_length_a   26.57800000
_cell_length_b   26.57800000
_cell_length_c   21.31400000
_cell_angle_alpha   90.00000000
_cell_angle_beta   90.00000000
_cell_angle_gamma   120.00000000
_symmetry_Int_Tables_number   1
_chemical_formula_structural   CdH12C20N4O5
_chemical_formula_sum   'Cd18 H216 C360 N72 O90'
_cell_volume   13038.87696416
_cell_formula_units_Z   18
loop_
 _symmetry_equiv_pos_site_id
 _symmetry_equiv_pos_as_xyz
  1  'x, y, z'
loop_
 _atom_site_type_symbol
 _atom_site_label
 _atom_site_symmetry_multiplicity
 _atom_site_fract_x
 _atom_site_fract_y
 _atom_site_fract_z
 _atom_site_occupancy
 _atom_site_charge
Cd  Cd1  1  0.57154000  0.00000000  0.75000000  1.0 0.8354351352
Cd  Cd2  1  0.42845000  0.42845000  0.75000000  1.0 0.8272842517
Cd  Cd3  1  0.00000000  0.57154000  0.75000000  1.0 0.8272842517
Cd  Cd4  1  0.42845000  0.00000000  0.25000000  1.0 0.8354351352
Cd  Cd5  1  0.57154000  0.57154000  0.25000000  1.0 0.8272842517
Cd  Cd6  1  0.00000000  0.42845000  0.25000000  1.0 0.8272842517
Cd  Cd7  1  0.66666667  0.90357000  0.58159000  1.0 0.8272842517
Cd  Cd8  1  0.09643000  0.76310000  0.58159000  1.0 0.8272842517
Cd  Cd9  1  0.23690000  0.33333333  0.58159000  1.0 0.8272842517
Cd  Cd10  1  0.23690000  0.90357000  0.08159000  1.0 0.8272842517
Cd  Cd11  1  0.66666667  0.76310000  0.08159000  1.0 0.8272842517
Cd  Cd12  1  0.09643000  0.33333333  0.08159000  1.0 0.8272842517
Cd  Cd13  1  0.76310000  0.09643000  0.91841000  1.0 0.8272842517
Cd  Cd14  1  0.33333333  0.23690000  0.91841000  1.0 0.8239478897
Cd  Cd15  1  0.90357000  0.66666667  0.91841000  1.0 0.8272842517
Cd  Cd16  1  0.33333333  0.09643000  0.41841000  1.0 0.8272842517
Cd  Cd17  1  0.90357000  0.23690000  0.41841000  1.0 0.8272842517
Cd  Cd18  1  0.76310000  0.66666667  0.41841000  1.0 0.8272842517
H  H1  1  0.43691000  0.90930000  0.74280000  1.0 0.1206847844
H  H2  1  0.36761000  0.81490000  0.73310000  1.0 0.1388597774
H  H3  1  0.48951000  0.77080000  0.75150000  1.0 0.1388597774
H  H4  1  0.55801000  0.86740000  0.74750000  1.0 0.104426772
H  H5  1  0.45951000  0.02060000  0.91660000  1.0 0.1206847844
H  H6  1  0.56941000  0.97320000  0.98060000  1.0 0.1206847844
H  H7  1  0.47240000  0.56309000  0.74280000  1.0 0.1206847844
H  H8  1  0.44730000  0.63239000  0.73310000  1.0 0.1388597774
H  H9  1  0.28130000  0.51049000  0.75150000  1.0 0.1388597774
H  H10  1  0.30940000  0.44199000  0.74750000  1.0 0.104426772
H  H11  1  0.56110000  0.54049000  0.91660000  1.0 0.1206847844
H  H12  1  0.40380000  0.43059000  0.98060000  1.0 0.1206847844
H  H13  1  0.09070000  0.52760000  0.74280000  1.0 0.1206847844
H  H14  1  0.18510000  0.55270000  0.73310000  1.0 0.1388597774
H  H15  1  0.22920000  0.71870000  0.75150000  1.0 0.1388597774
H  H16  1  0.13260000  0.69060000  0.74750000  1.0 0.104426772
H  H17  1  0.97940000  0.43890000  0.91660000  1.0 0.1206847844
H  H18  1  0.02680000  0.59620000  0.98060000  1.0 0.1206847844
H  H19  1  0.52760000  0.09070000  0.75720000  1.0 0.1206847844
H  H20  1  0.55270000  0.18510000  0.76690000  1.0 0.1388597774
H  H21  1  0.71870000  0.22920000  0.74850000  1.0 0.1388597774
H  H22  1  0.69060000  0.13260000  0.75250000  1.0 0.104426772
H  H23  1  0.43890000  0.97940000  0.58340000  1.0 0.1206847844
H  H24  1  0.59620000  0.02680000  0.51940000  1.0 0.1206847844
H  H25  1  0.90930000  0.43691000  0.75720000  1.0 0.1206847844
H  H26  1  0.81490000  0.36761000  0.76690000  1.0 0.1388597774
H  H27  1  0.77080000  0.48951000  0.74850000  1.0 0.1388597774
H  H28  1  0.86740000  0.55801000  0.75250000  1.0 0.104426772
H  H29  1  0.02060000  0.45951000  0.58340000  1.0 0.1206847844
H  H30  1  0.97320000  0.56941000  0.51940000  1.0 0.1206847844
H  H31  1  0.56309000  0.47240000  0.75720000  1.0 0.1206847844
H  H32  1  0.63239000  0.44730000  0.76690000  1.0 0.1388597774
H  H33  1  0.51049000  0.28130000  0.74850000  1.0 0.1388597774
H  H34  1  0.44199000  0.30940000  0.75250000  1.0 0.104426772
H  H35  1  0.54049000  0.56110000  0.58340000  1.0 0.1206847844
H  H36  1  0.43059000  0.40380000  0.51940000  1.0 0.1206847844
H  H37  1  0.56309000  0.09070000  0.25720000  1.0 0.1206847844
H  H38  1  0.63239000  0.18510000  0.26690000  1.0 0.1388597774
H  H39  1  0.51049000  0.22920000  0.24850000  1.0 0.1388597774
H  H40  1  0.44199000  0.13260000  0.25250000  1.0 0.104426772
H  H41  1  0.54049000  0.97940000  0.08340000  1.0 0.1206847844
H  H42  1  0.43059000  0.02680000  0.01940000  1.0 0.1206847844
H  H43  1  0.52760000  0.43691000  0.25720000  1.0 0.1206847844
H  H44  1  0.55270000  0.36761000  0.26690000  1.0 0.1388597774
H  H45  1  0.71870000  0.48951000  0.24850000  1.0 0.1388597774
H  H46  1  0.69060000  0.55801000  0.25250000  1.0 0.104426772
H  H47  1  0.43890000  0.45951000  0.08340000  1.0 0.1206847844
H  H48  1  0.59620000  0.56941000  0.01940000  1.0 0.1206847844
H  H49  1  0.90930000  0.47240000  0.25720000  1.0 0.1206847844
H  H50  1  0.81490000  0.44730000  0.26690000  1.0 0.1388597774
H  H51  1  0.77080000  0.28130000  0.24850000  1.0 0.1388597774
H  H52  1  0.86740000  0.30940000  0.25250000  1.0 0.104426772
H  H53  1  0.02060000  0.56110000  0.08340000  1.0 0.1206847844
H  H54  1  0.97320000  0.40380000  0.01940000  1.0 0.1206847844
H  H55  1  0.47240000  0.90930000  0.24280000  1.0 0.1206847844
H  H56  1  0.44730000  0.81490000  0.23310000  1.0 0.1388597774
H  H57  1  0.28130000  0.77080000  0.25150000  1.0 0.1388597774
H  H58  1  0.30940000  0.86740000  0.24750000  1.0 0.104426772
H  H59  1  0.56110000  0.02060000  0.41660000  1.0 0.1206847844
H  H60  1  0.40380000  0.97320000  0.48060000  1.0 0.1206847844
H  H61  1  0.09070000  0.56309000  0.24280000  1.0 0.1206847844
H  H62  1  0.18510000  0.63239000  0.23310000  1.0 0.1388597774
H  H63  1  0.22920000  0.51049000  0.25150000  1.0 0.1388597774
H  H64  1  0.13260000  0.44199000  0.24750000  1.0 0.104426772
H  H65  1  0.97940000  0.54049000  0.41660000  1.0 0.1206847844
H  H66  1  0.02680000  0.43059000  0.48060000  1.0 0.1206847844
H  H67  1  0.43691000  0.52760000  0.24280000  1.0 0.1206847844
H  H68  1  0.36761000  0.55270000  0.23310000  1.0 0.1388597774
H  H69  1  0.48951000  0.71870000  0.25150000  1.0 0.1388597774
H  H70  1  0.55801000  0.69060000  0.24750000  1.0 0.104426772
H  H71  1  0.45951000  0.43890000  0.41660000  1.0 0.1206847844
H  H72  1  0.56941000  0.59620000  0.48060000  1.0 0.1206847844
H  H73  1  0.53570000  0.89250000  0.57430000  1.0 0.1075854788
H  H74  1  0.43870000  0.82300000  0.57530000  1.0 0.1388597774
H  H75  1  0.48640000  0.70230000  0.58900000  1.0 0.1388597774
H  H76  1  0.58060000  0.77600000  0.59280000  1.0 0.1206847844
H  H77  1  0.79830000  0.02280000  0.57440000  1.0 0.1075854788
H  H78  1  0.89410000  0.05030000  0.57710000  1.0 0.1388597774
H  H79  1  0.84870000  0.88110000  0.58830000  1.0 0.1388597774
H  H80  1  0.75350000  0.86180000  0.58440000  1.0 0.1206847844
H  H81  1  0.66666667  0.91956000  0.81140000  1.0 0.1206847844
H  H82  1  0.66590000  0.89420000  0.91130000  1.0 0.1206847844
H  H83  1  0.68080000  0.76090000  0.85910000  1.0 0.1388597774
H  H84  1  0.67820000  0.78390000  0.75220000  1.0 0.1276057641
H  H85  1  0.10750000  0.64321000  0.57430000  1.0 0.1075854788
H  H86  1  0.17700000  0.61571000  0.57530000  1.0 0.1388597774
H  H87  1  0.29770000  0.78411000  0.58900000  1.0 0.1388597774
H  H88  1  0.22400000  0.80461000  0.59280000  1.0 0.1206847844
H  H89  1  0.97720000  0.77551000  0.57440000  1.0 0.1075854788
H  H90  1  0.94970000  0.84381000  0.57710000  1.0 0.1388597774
H  H91  1  0.11890000  0.96761000  0.58830000  1.0 0.1388597774
H  H92  1  0.13820000  0.89171000  0.58440000  1.0 0.1206847844
H  H93  1  0.08044000  0.74711000  0.81140000  1.0 0.1206847844
H  H94  1  0.10580000  0.77171000  0.91130000  1.0 0.1206847844
H  H95  1  0.23910000  0.91991000  0.85910000  1.0 0.1388597774
H  H96  1  0.21610000  0.89431000  0.75220000  1.0 0.1276057641
H  H97  1  0.35679000  0.46430000  0.57430000  1.0 0.1075854788
H  H98  1  0.38429000  0.56130000  0.57530000  1.0 0.1388597774
H  H99  1  0.21589000  0.51360000  0.58900000  1.0 0.1388597774
H  H100  1  0.19539000  0.41940000  0.59280000  1.0 0.1206847844
H  H101  1  0.22449000  0.20170000  0.57440000  1.0 0.1075854788
H  H102  1  0.15619000  0.10590000  0.57710000  1.0 0.1388597774
H  H103  1  0.03239000  0.15130000  0.58830000  1.0 0.1388597774
H  H104  1  0.10829000  0.24650000  0.58440000  1.0 0.1206847844
H  H105  1  0.25289000  0.33333333  0.81140000  1.0 0.1206847844
H  H106  1  0.22829000  0.33410000  0.91130000  1.0 0.1206847844
H  H107  1  0.08009000  0.31920000  0.85910000  1.0 0.1388597774
H  H108  1  0.10569000  0.32180000  0.75220000  1.0 0.1276057641
H  H109  1  0.35679000  0.89250000  0.07430000  1.0 0.1075854788
H  H110  1  0.38429000  0.82300000  0.07530000  1.0 0.1388597774
H  H111  1  0.21589000  0.70230000  0.08900000  1.0 0.1388597774
H  H112  1  0.19539000  0.77600000  0.09280000  1.0 0.1206847844
H  H113  1  0.22449000  0.02280000  0.07440000  1.0 0.1075854788
H  H114  1  0.15619000  0.05030000  0.07710000  1.0 0.1388597774
H  H115  1  0.03239000  0.88110000  0.08830000  1.0 0.1388597774
H  H116  1  0.10829000  0.86180000  0.08440000  1.0 0.1206847844
H  H117  1  0.25289000  0.91956000  0.31140000  1.0 0.1206847844
H  H118  1  0.22829000  0.89420000  0.41130000  1.0 0.1206847844
H  H119  1  0.08009000  0.76090000  0.35910000  1.0 0.1388597774
H  H120  1  0.10569000  0.78390000  0.25220000  1.0 0.1276057641
H  H121  1  0.53570000  0.64321000  0.07430000  1.0 0.1075854788
H  H122  1  0.43870000  0.61571000  0.07530000  1.0 0.1388597774
H  H123  1  0.48640000  0.78411000  0.08900000  1.0 0.1388597774
H  H124  1  0.58060000  0.80461000  0.09280000  1.0 0.1206847844
H  H125  1  0.79830000  0.77551000  0.07440000  1.0 0.1075854788
H  H126  1  0.89410000  0.84381000  0.07710000  1.0 0.1388597774
H  H127  1  0.84870000  0.96761000  0.08830000  1.0 0.1388597774
H  H128  1  0.75350000  0.89171000  0.08440000  1.0 0.1206847844
H  H129  1  0.66666667  0.74711000  0.31140000  1.0 0.1206847844
H  H130  1  0.66590000  0.77171000  0.41130000  1.0 0.1206847844
H  H131  1  0.68080000  0.91991000  0.35910000  1.0 0.1388597774
H  H132  1  0.67820000  0.89431000  0.25220000  1.0 0.1276057641
H  H133  1  0.10750000  0.46430000  0.07430000  1.0 0.1075854788
H  H134  1  0.17700000  0.56130000  0.07530000  1.0 0.1388597774
H  H135  1  0.29770000  0.51360000  0.08900000  1.0 0.1388597774
H  H136  1  0.22400000  0.41940000  0.09280000  1.0 0.1206847844
H  H137  1  0.97720000  0.20170000  0.07440000  1.0 0.1075854788
H  H138  1  0.94970000  0.10590000  0.07710000  1.0 0.1388597774
H  H139  1  0.11890000  0.15130000  0.08830000  1.0 0.1388597774
H  H140  1  0.13820000  0.24650000  0.08440000  1.0 0.1206847844
H  H141  1  0.08044000  0.33333333  0.31140000  1.0 0.1206847844
H  H142  1  0.10580000  0.33410000  0.41130000  1.0 0.1206847844
H  H143  1  0.23910000  0.31920000  0.35910000  1.0 0.1388597774
H  H144  1  0.21610000  0.32180000  0.25220000  1.0 0.1276057641
H  H145  1  0.64321000  0.10750000  0.92570000  1.0 0.1075854788
H  H146  1  0.61571000  0.17700000  0.92470000  1.0 0.1388597774
H  H147  1  0.78411000  0.29770000  0.91100000  1.0 0.1388597774
H  H148  1  0.80461000  0.22400000  0.90720000  1.0 0.1206847844
H  H149  1  0.77551000  0.97720000  0.92560000  1.0 0.1075854788
H  H150  1  0.84381000  0.94970000  0.92290000  1.0 0.1388597774
H  H151  1  0.96761000  0.11890000  0.91170000  1.0 0.1388597774
H  H152  1  0.89171000  0.13820000  0.91560000  1.0 0.1206847844
H  H153  1  0.74711000  0.08044000  0.68860000  1.0 0.1206847844
H  H154  1  0.77171000  0.10580000  0.58870000  1.0 0.1206847844
H  H155  1  0.91991000  0.23910000  0.64090000  1.0 0.1388597774
H  H156  1  0.89431000  0.21610000  0.74780000  1.0 0.1276057641
H  H157  1  0.46430000  0.35679000  0.92570000  1.0 0.1075854788
H  H158  1  0.56130000  0.38429000  0.92470000  1.0 0.1388597774
H  H159  1  0.51360000  0.21589000  0.91100000  1.0 0.1388597774
H  H160  1  0.41940000  0.19539000  0.90720000  1.0 0.1206847844
H  H161  1  0.20170000  0.22449000  0.92560000  1.0 0.1075854788
H  H162  1  0.10590000  0.15619000  0.92290000  1.0 0.1388597774
H  H163  1  0.15130000  0.03239000  0.91170000  1.0 0.1388597774
H  H164  1  0.24650000  0.10829000  0.91560000  1.0 0.1206847844
H  H165  1  0.33333333  0.25289000  0.68860000  1.0 0.1206847844
H  H166  1  0.33410000  0.22829000  0.58870000  1.0 0.1206847844
H  H167  1  0.31920000  0.08009000  0.64090000  1.0 0.1388597774
H  H168  1  0.32180000  0.10569000  0.74780000  1.0 0.1276057641
H  H169  1  0.89250000  0.53570000  0.92570000  1.0 0.1075854788
H  H170  1  0.82300000  0.43870000  0.92470000  1.0 0.1388597774
H  H171  1  0.70230000  0.48640000  0.91100000  1.0 0.1388597774
H  H172  1  0.77600000  0.58060000  0.90720000  1.0 0.1206847844
H  H173  1  0.02280000  0.79830000  0.92560000  1.0 0.1075854788
H  H174  1  0.05030000  0.89410000  0.92290000  1.0 0.1388597774
H  H175  1  0.88110000  0.84870000  0.91170000  1.0 0.1388597774
H  H176  1  0.86180000  0.75350000  0.91560000  1.0 0.1206847844
H  H177  1  0.91956000  0.66666667  0.68860000  1.0 0.1206847844
H  H178  1  0.89420000  0.66590000  0.58870000  1.0 0.1206847844
H  H179  1  0.76090000  0.68080000  0.64090000  1.0 0.1388597774
H  H180  1  0.78390000  0.67820000  0.74780000  1.0 0.1276057641
H  H181  1  0.46430000  0.10750000  0.42570000  1.0 0.1075854788
H  H182  1  0.56130000  0.17700000  0.42470000  1.0 0.1388597774
H  H183  1  0.51360000  0.29770000  0.41100000  1.0 0.1388597774
H  H184  1  0.41940000  0.22400000  0.40720000  1.0 0.1206847844
H  H185  1  0.20170000  0.97720000  0.42560000  1.0 0.1075854788
H  H186  1  0.10590000  0.94970000  0.42290000  1.0 0.1388597774
H  H187  1  0.15130000  0.11890000  0.41170000  1.0 0.1388597774
H  H188  1  0.24650000  0.13820000  0.41560000  1.0 0.1206847844
H  H189  1  0.33333333  0.08044000  0.18860000  1.0 0.1206847844
H  H190  1  0.33410000  0.10580000  0.08870000  1.0 0.1206847844
H  H191  1  0.31920000  0.23910000  0.14090000  1.0 0.1388597774
H  H192  1  0.32180000  0.21610000  0.24780000  1.0 0.1276057641
H  H193  1  0.89250000  0.35679000  0.42570000  1.0 0.1075854788
H  H194  1  0.82300000  0.38429000  0.42470000  1.0 0.1388597774
H  H195  1  0.70230000  0.21589000  0.41100000  1.0 0.1388597774
H  H196  1  0.77600000  0.19539000  0.40720000  1.0 0.1206847844
H  H197  1  0.02280000  0.22449000  0.42560000  1.0 0.1075854788
H  H198  1  0.05030000  0.15619000  0.42290000  1.0 0.1388597774
H  H199  1  0.88110000  0.03239000  0.41170000  1.0 0.1388597774
H  H200  1  0.86180000  0.10829000  0.41560000  1.0 0.1206847844
H  H201  1  0.91956000  0.25289000  0.18860000  1.0 0.1206847844
H  H202  1  0.89420000  0.22829000  0.08870000  1.0 0.1206847844
H  H203  1  0.76090000  0.08009000  0.14090000  1.0 0.1388597774
H  H204  1  0.78390000  0.10569000  0.24780000  1.0 0.1276057641
H  H205  1  0.64321000  0.53570000  0.42570000  1.0 0.1075854788
H  H206  1  0.61571000  0.43870000  0.42470000  1.0 0.1388597774
H  H207  1  0.78411000  0.48640000  0.41100000  1.0 0.1388597774
H  H208  1  0.80461000  0.58060000  0.40720000  1.0 0.1206847844
H  H209  1  0.77551000  0.79830000  0.42560000  1.0 0.1075854788
H  H210  1  0.84381000  0.89410000  0.42290000  1.0 0.1388597774
H  H211  1  0.96761000  0.84870000  0.41170000  1.0 0.1388597774
H  H212  1  0.89171000  0.75350000  0.41560000  1.0 0.1206847844
H  H213  1  0.74711000  0.66666667  0.18860000  1.0 0.1206847844
H  H214  1  0.77171000  0.66590000  0.08870000  1.0 0.1206847844
H  H215  1  0.91991000  0.68080000  0.14090000  1.0 0.1388597774
H  H216  1  0.89431000  0.67820000  0.24780000  1.0 0.1276057641
C  C1  1  0.44811000  0.88130000  0.74260000  1.0 0.0598692386
C  C2  1  0.40611000  0.82490000  0.73940000  1.0 -0.1588563429
C  C3  1  0.42071000  0.78330000  0.74560000  1.0 0.0598692386
C  C4  1  0.47831000  0.79870000  0.74860000  1.0 -0.1706342733
C  C5  1  0.51901000  0.85710000  0.74720000  1.0 0.0801963741
C  C6  1  0.37141000  0.72170000  0.74380000  1.0 0.3605294729
C  C7  1  0.53671000  0.99750000  0.87280000  1.0 0.5271400194
C  C8  1  0.51751000  0.99930000  0.93910000  1.0 -0.0240417204
C  C9  1  0.47671000  0.01270000  0.95030000  1.0 -0.1011449517
C  C10  1  0.54191000  0.98450000  0.98790000  1.0 -0.1011449517
C  C11  1  0.43320000  0.55189000  0.74260000  1.0 0.0598692386
C  C12  1  0.41880000  0.59389000  0.73940000  1.0 -0.1588563429
C  C13  1  0.36260000  0.57929000  0.74560000  1.0 0.0598692386
C  C14  1  0.32040000  0.52169000  0.74860000  1.0 -0.1706342733
C  C15  1  0.33810000  0.48099000  0.74720000  1.0 0.0851242448
C  C16  1  0.35030000  0.62859000  0.74380000  1.0 0.3605294729
C  C17  1  0.46080000  0.46329000  0.87280000  1.0 0.5271400194
C  C18  1  0.48180000  0.48249000  0.93910000  1.0 -0.0240417204
C  C19  1  0.53600000  0.52329000  0.95030000  1.0 -0.1011449517
C  C20  1  0.44260000  0.45809000  0.98790000  1.0 -0.1011449517
C  C21  1  0.11870000  0.56680000  0.74260000  1.0 0.0598692386
C  C22  1  0.17510000  0.58120000  0.73940000  1.0 -0.1588563429
C  C23  1  0.21670000  0.63740000  0.74560000  1.0 0.0598692386
C  C24  1  0.20130000  0.67960000  0.74860000  1.0 -0.1706342733
C  C25  1  0.14290000  0.66190000  0.74720000  1.0 0.0851242448
C  C26  1  0.27830000  0.64970000  0.74380000  1.0 0.3605294729
C  C27  1  0.00250000  0.53920000  0.87280000  1.0 0.5271400194
C  C28  1  0.00070000  0.51820000  0.93910000  1.0 -0.0240417204
C  C29  1  0.98730000  0.46400000  0.95030000  1.0 -0.1011449517
C  C30  1  0.01550000  0.55740000  0.98790000  1.0 -0.1011449517
C  C31  1  0.56680000  0.11870000  0.75740000  1.0 0.0598692386
C  C32  1  0.58120000  0.17510000  0.76060000  1.0 -0.1588563429
C  C33  1  0.63740000  0.21670000  0.75440000  1.0 0.0598692386
C  C34  1  0.67960000  0.20130000  0.75140000  1.0 -0.1706342733
C  C35  1  0.66190000  0.14290000  0.75280000  1.0 0.0851242448
C  C36  1  0.64970000  0.27830000  0.75620000  1.0 0.3605294729
C  C37  1  0.53920000  0.00250000  0.62720000  1.0 0.5271400194
C  C38  1  0.51820000  0.00070000  0.56090000  1.0 -0.0240417204
C  C39  1  0.46400000  0.98730000  0.54970000  1.0 -0.1011449517
C  C40  1  0.55740000  0.01550000  0.51210000  1.0 -0.1011449517
C  C41  1  0.88130000  0.44811000  0.75740000  1.0 0.0598692386
C  C42  1  0.82490000  0.40611000  0.76060000  1.0 -0.1588563429
C  C43  1  0.78330000  0.42071000  0.75440000  1.0 0.0598692386
C  C44  1  0.79870000  0.47831000  0.75140000  1.0 -0.1706342733
C  C45  1  0.85710000  0.51901000  0.75280000  1.0 0.0851242448
C  C46  1  0.72170000  0.37141000  0.75620000  1.0 0.3605294729
C  C47  1  0.99750000  0.53671000  0.62720000  1.0 0.5271400194
C  C48  1  0.99930000  0.51751000  0.56090000  1.0 -0.0240417204
C  C49  1  0.01270000  0.47671000  0.54970000  1.0 -0.1011449517
C  C50  1  0.98450000  0.54191000  0.51210000  1.0 -0.1011449517
C  C51  1  0.55189000  0.43320000  0.75740000  1.0 0.0598692386
C  C52  1  0.59389000  0.41880000  0.76060000  1.0 -0.1588563429
C  C53  1  0.57929000  0.36260000  0.75440000  1.0 0.0598692386
C  C54  1  0.52169000  0.32040000  0.75140000  1.0 -0.1706342733
C  C55  1  0.48099000  0.33810000  0.75280000  1.0 0.0851242448
C  C56  1  0.62859000  0.35030000  0.75620000  1.0 0.3605294729
C  C57  1  0.46329000  0.46080000  0.62720000  1.0 0.5271400194
C  C58  1  0.48249000  0.48180000  0.56090000  1.0 -0.0240417204
C  C59  1  0.52329000  0.53600000  0.54970000  1.0 -0.1011449517
C  C60  1  0.45809000  0.44260000  0.51210000  1.0 -0.1011449517
C  C61  1  0.55189000  0.11870000  0.25740000  1.0 0.0598692386
C  C62  1  0.59389000  0.17510000  0.26060000  1.0 -0.1588563429
C  C63  1  0.57929000  0.21670000  0.25440000  1.0 0.0598692386
C  C64  1  0.52169000  0.20130000  0.25140000  1.0 -0.1706342733
C  C65  1  0.48099000  0.14290000  0.25280000  1.0 0.0851242448
C  C66  1  0.62859000  0.27830000  0.25620000  1.0 0.3605294729
C  C67  1  0.46329000  0.00250000  0.12720000  1.0 0.5271400194
C  C68  1  0.48249000  0.00070000  0.06090000  1.0 -0.0240417204
C  C69  1  0.52329000  0.98730000  0.04970000  1.0 -0.1011449517
C  C70  1  0.45809000  0.01550000  0.01210000  1.0 -0.1011449517
C  C71  1  0.56680000  0.44811000  0.25740000  1.0 0.0598692386
C  C72  1  0.58120000  0.40611000  0.26060000  1.0 -0.1588563429
C  C73  1  0.63740000  0.42071000  0.25440000  1.0 0.0598692386
C  C74  1  0.67960000  0.47831000  0.25140000  1.0 -0.1706342733
C  C75  1  0.66190000  0.51901000  0.25280000  1.0 0.0851242448
C  C76  1  0.64970000  0.37141000  0.25620000  1.0 0.3605294729
C  C77  1  0.53920000  0.53671000  0.12720000  1.0 0.5271400194
C  C78  1  0.51820000  0.51751000  0.06090000  1.0 -0.0240417204
C  C79  1  0.46400000  0.47671000  0.04970000  1.0 -0.1011449517
C  C80  1  0.55740000  0.54191000  0.01210000  1.0 -0.1011449517
C  C81  1  0.88130000  0.43320000  0.25740000  1.0 0.0598692386
C  C82  1  0.82490000  0.41880000  0.26060000  1.0 -0.1588563429
C  C83  1  0.78330000  0.36260000  0.25440000  1.0 0.0598692386
C  C84  1  0.79870000  0.32040000  0.25140000  1.0 -0.1706342733
C  C85  1  0.85710000  0.33810000  0.25280000  1.0 0.0851242448
C  C86  1  0.72170000  0.35030000  0.25620000  1.0 0.3605294729
C  C87  1  0.99750000  0.46080000  0.12720000  1.0 0.5271400194
C  C88  1  0.99930000  0.48180000  0.06090000  1.0 -0.0240417204
C  C89  1  0.01270000  0.53600000  0.04970000  1.0 -0.1011449517
C  C90  1  0.98450000  0.44260000  0.01210000  1.0 -0.1011449517
C  C91  1  0.43320000  0.88130000  0.24260000  1.0 0.0598692386
C  C92  1  0.41880000  0.82490000  0.23940000  1.0 -0.1588563429
C  C93  1  0.36260000  0.78330000  0.24560000  1.0 0.0598692386
C  C94  1  0.32040000  0.79870000  0.24860000  1.0 -0.1706342733
C  C95  1  0.33810000  0.85710000  0.24720000  1.0 0.0801963741
C  C96  1  0.35030000  0.72170000  0.24380000  1.0 0.3605294729
C  C97  1  0.46080000  0.99750000  0.37280000  1.0 0.5271400194
C  C98  1  0.48180000  0.99930000  0.43910000  1.0 -0.0240417204
C  C99  1  0.53600000  0.01270000  0.45030000  1.0 -0.1011449517
C  C100  1  0.44260000  0.98450000  0.48790000  1.0 -0.1011449517
C  C101  1  0.11870000  0.55189000  0.24260000  1.0 0.0598692386
C  C102  1  0.17510000  0.59389000  0.23940000  1.0 -0.1588563429
C  C103  1  0.21670000  0.57929000  0.24560000  1.0 0.0598692386
C  C104  1  0.20130000  0.52169000  0.24860000  1.0 -0.1706342733
C  C105  1  0.14290000  0.48099000  0.24720000  1.0 0.0851242448
C  C106  1  0.27830000  0.62859000  0.24380000  1.0 0.3605294729
C  C107  1  0.00250000  0.46329000  0.37280000  1.0 0.5271400194
C  C108  1  0.00070000  0.48249000  0.43910000  1.0 -0.0240417204
C  C109  1  0.98730000  0.52329000  0.45030000  1.0 -0.1011449517
C  C110  1  0.01550000  0.45809000  0.48790000  1.0 -0.1011449517
C  C111  1  0.44811000  0.56680000  0.24260000  1.0 0.0598692386
C  C112  1  0.40611000  0.58120000  0.23940000  1.0 -0.1588563429
C  C113  1  0.42071000  0.63740000  0.24560000  1.0 0.0598692386
C  C114  1  0.47831000  0.67960000  0.24860000  1.0 -0.1706342733
C  C115  1  0.51901000  0.66190000  0.24720000  1.0 0.0851242448
C  C116  1  0.37141000  0.64970000  0.24380000  1.0 0.3605294729
C  C117  1  0.53671000  0.53920000  0.37280000  1.0 0.5271400194
C  C118  1  0.51751000  0.51820000  0.43910000  1.0 -0.0240417204
C  C119  1  0.47671000  0.46400000  0.45030000  1.0 -0.1011449517
C  C120  1  0.54191000  0.55740000  0.48790000  1.0 -0.1011449517
C  C121  1  0.52490000  0.85350000  0.57830000  1.0 0.0801963741
C  C122  1  0.46660000  0.81170000  0.57800000  1.0 -0.1706342733
C  C123  1  0.44900000  0.75260000  0.58160000  1.0 0.0456166575
C  C124  1  0.49460000  0.74060000  0.58670000  1.0 -0.1825294538
C  C125  1  0.55130000  0.78520000  0.58840000  1.0 0.104426772
C  C126  1  0.38670000  0.70950000  0.58030000  1.0 0.3478650208
C  C127  1  0.80880000  0.99440000  0.57730000  1.0 0.0801963741
C  C128  1  0.86640000  0.01110000  0.57770000  1.0 -0.1706342733
C  C129  1  0.88410000  0.96970000  0.57890000  1.0 0.0598692386
C  C130  1  0.84020000  0.91090000  0.58430000  1.0 -0.1825294538
C  C131  1  0.78310000  0.90050000  0.58320000  1.0 0.104426772
C  C132  1  0.94630000  0.98590000  0.58010000  1.0 0.3478650208
C  C133  1  0.66830000  0.86990000  0.70300000  1.0 0.5217101902
C  C134  1  0.66970000  0.85470000  0.76980000  1.0 -0.0300610649
C  C135  1  0.66770000  0.88570000  0.81960000  1.0 -0.1105629965
C  C136  1  0.66730000  0.87060000  0.87980000  1.0 -0.1011449517
C  C137  1  0.66870000  0.82260000  0.89610000  1.0 -0.0300610649
C  C138  1  0.67560000  0.79210000  0.84890000  1.0 -0.1162593767
C  C139  1  0.67510000  0.80630000  0.78390000  1.0 -0.1011449517
C  C140  1  0.66680000  0.80320000  0.96220000  1.0 0.5401090563
C  C141  1  0.14650000  0.67141000  0.57830000  1.0 0.0801963741
C  C142  1  0.18830000  0.65491000  0.57800000  1.0 -0.1706342733
C  C143  1  0.24740000  0.69641000  0.58160000  1.0 0.0456166575
C  C144  1  0.25940000  0.75401000  0.58670000  1.0 -0.1825294538
C  C145  1  0.21480000  0.76611000  0.58840000  1.0 0.104426772
C  C146  1  0.29050000  0.67721000  0.58030000  1.0 0.3478650208
C  C147  1  0.00560000  0.81441000  0.57730000  1.0 0.0801963741
C  C148  1  0.98890000  0.85531000  0.57770000  1.0 -0.1706342733
C  C149  1  0.03030000  0.91441000  0.57890000  1.0 0.0598692386
C  C150  1  0.08910000  0.92931000  0.58430000  1.0 -0.1825294538
C  C151  1  0.09950000  0.88261000  0.58320000  1.0 0.104426772
C  C152  1  0.01410000  0.96041000  0.58010000  1.0 0.3478650208
C  C153  1  0.13010000  0.79841000  0.70300000  1.0 0.5217101902
C  C154  1  0.14530000  0.81501000  0.76980000  1.0 -0.0300610649
C  C155  1  0.11430000  0.78201000  0.81960000  1.0 -0.1105629965
C  C156  1  0.12940000  0.79671000  0.87980000  1.0 -0.1011449517
C  C157  1  0.17740000  0.84611000  0.89610000  1.0 -0.0300610649
C  C158  1  0.20790000  0.88351000  0.84890000  1.0 -0.1162593767
C  C159  1  0.19370000  0.86881000  0.78390000  1.0 -0.1011449517
C  C160  1  0.19680000  0.86361000  0.96220000  1.0 0.5401090563
C  C161  1  0.32859000  0.47510000  0.57830000  1.0 0.0801963741
C  C162  1  0.34509000  0.53340000  0.57800000  1.0 -0.1706342733
C  C163  1  0.30359000  0.55100000  0.58160000  1.0 0.0456166575
C  C164  1  0.24599000  0.50540000  0.58670000  1.0 -0.1825294538
C  C165  1  0.23389000  0.44870000  0.58840000  1.0 0.104426772
C  C166  1  0.32279000  0.61330000  0.58030000  1.0 0.3478650208
C  C167  1  0.18559000  0.19120000  0.57730000  1.0 0.0801963741
C  C168  1  0.14469000  0.13360000  0.57770000  1.0 -0.1706342733
C  C169  1  0.08559000  0.11590000  0.57890000  1.0 0.0598692386
C  C170  1  0.07069000  0.15980000  0.58430000  1.0 -0.1825294538
C  C171  1  0.11739000  0.21690000  0.58320000  1.0 0.104426772
C  C172  1  0.03959000  0.05370000  0.58010000  1.0 0.3478650208
C  C173  1  0.20159000  0.33170000  0.70300000  1.0 0.5217101902
C  C174  1  0.18499000  0.33030000  0.76980000  1.0 -0.0300610649
C  C175  1  0.21799000  0.33230000  0.81960000  1.0 -0.1105629965
C  C176  1  0.20329000  0.33270000  0.87980000  1.0 -0.1011449517
C  C177  1  0.15389000  0.33130000  0.89610000  1.0 -0.0300610649
C  C178  1  0.11649000  0.32440000  0.84890000  1.0 -0.1162593767
C  C179  1  0.13119000  0.32490000  0.78390000  1.0 -0.1011449517
C  C180  1  0.13639000  0.33320000  0.96220000  1.0 0.5401090563
C  C181  1  0.32859000  0.85350000  0.07830000  1.0 0.0801963741
C  C182  1  0.34509000  0.81170000  0.07800000  1.0 -0.1706342733
C  C183  1  0.30359000  0.75260000  0.08160000  1.0 0.0456166575
C  C184  1  0.24599000  0.74060000  0.08670000  1.0 -0.1825294538
C  C185  1  0.23389000  0.78520000  0.08840000  1.0 0.104426772
C  C186  1  0.32279000  0.70950000  0.08030000  1.0 0.3478650208
C  C187  1  0.18559000  0.99440000  0.07730000  1.0 0.0801963741
C  C188  1  0.14469000  0.01110000  0.07770000  1.0 -0.1706342733
C  C189  1  0.08559000  0.96970000  0.07890000  1.0 0.0598692386
C  C190  1  0.07069000  0.91090000  0.08430000  1.0 -0.1825294538
C  C191  1  0.11739000  0.90050000  0.08320000  1.0 0.104426772
C  C192  1  0.03959000  0.98590000  0.08010000  1.0 0.3478650208
C  C193  1  0.20159000  0.86990000  0.20300000  1.0 0.5217101902
C  C194  1  0.18499000  0.85470000  0.26980000  1.0 -0.0300610649
C  C195  1  0.21799000  0.88570000  0.31960000  1.0 -0.1105629965
C  C196  1  0.20329000  0.87060000  0.37980000  1.0 -0.1011449517
C  C197  1  0.15389000  0.82260000  0.39610000  1.0 -0.0300610649
C  C198  1  0.11649000  0.79210000  0.34890000  1.0 -0.1162593767
C  C199  1  0.13119000  0.80630000  0.28390000  1.0 -0.1011449517
C  C200  1  0.13639000  0.80320000  0.46220000  1.0 0.5401090563
C  C201  1  0.52490000  0.67141000  0.07830000  1.0 0.0801963741
C  C202  1  0.46660000  0.65491000  0.07800000  1.0 -0.1706342733
C  C203  1  0.44900000  0.69641000  0.08160000  1.0 0.0456166575
C  C204  1  0.49460000  0.75401000  0.08670000  1.0 -0.1825294538
C  C205  1  0.55130000  0.76611000  0.08840000  1.0 0.104426772
C  C206  1  0.38670000  0.67721000  0.08030000  1.0 0.3478650208
C  C207  1  0.80880000  0.81441000  0.07730000  1.0 0.0801963741
C  C208  1  0.86640000  0.85531000  0.07770000  1.0 -0.1706342733
C  C209  1  0.88410000  0.91441000  0.07890000  1.0 0.0598692386
C  C210  1  0.84020000  0.92931000  0.08430000  1.0 -0.1825294538
C  C211  1  0.78310000  0.88261000  0.08320000  1.0 0.104426772
C  C212  1  0.94630000  0.96041000  0.08010000  1.0 0.3478650208
C  C213  1  0.66830000  0.79841000  0.20300000  1.0 0.5217101902
C  C214  1  0.66970000  0.81501000  0.26980000  1.0 -0.0300610649
C  C215  1  0.66770000  0.78201000  0.31960000  1.0 -0.1105629965
C  C216  1  0.66730000  0.79671000  0.37980000  1.0 -0.1011449517
C  C217  1  0.66870000  0.84611000  0.39610000  1.0 -0.0300610649
C  C218  1  0.67560000  0.88351000  0.34890000  1.0 -0.1162593767
C  C219  1  0.67510000  0.86881000  0.28390000  1.0 -0.1011449517
C  C220  1  0.66680000  0.86361000  0.46220000  1.0 0.5401090563
C  C221  1  0.14650000  0.47510000  0.07830000  1.0 0.0801963741
C  C222  1  0.18830000  0.53340000  0.07800000  1.0 -0.1706342733
C  C223  1  0.24740000  0.55100000  0.08160000  1.0 0.0456166575
C  C224  1  0.25940000  0.50540000  0.08670000  1.0 -0.1825294538
C  C225  1  0.21480000  0.44870000  0.08840000  1.0 0.104426772
C  C226  1  0.29050000  0.61330000  0.08030000  1.0 0.3478650208
C  C227  1  0.00560000  0.19120000  0.07730000  1.0 0.0801963741
C  C228  1  0.98890000  0.13360000  0.07770000  1.0 -0.1706342733
C  C229  1  0.03030000  0.11590000  0.07890000  1.0 0.0598692386
C  C230  1  0.08910000  0.15980000  0.08430000  1.0 -0.1825294538
C  C231  1  0.09950000  0.21690000  0.08320000  1.0 0.104426772
C  C232  1  0.01410000  0.05370000  0.08010000  1.0 0.3478650208
C  C233  1  0.13010000  0.33170000  0.20300000  1.0 0.5217101902
C  C234  1  0.14530000  0.33030000  0.26980000  1.0 -0.0300610649
C  C235  1  0.11430000  0.33230000  0.31960000  1.0 -0.1105629965
C  C236  1  0.12940000  0.33270000  0.37980000  1.0 -0.1011449517
C  C237  1  0.17740000  0.33130000  0.39610000  1.0 -0.0300610649
C  C238  1  0.20790000  0.32440000  0.34890000  1.0 -0.1162593767
C  C239  1  0.19370000  0.32490000  0.28390000  1.0 -0.1011449517
C  C240  1  0.19680000  0.33320000  0.46220000  1.0 0.5401090563
C  C241  1  0.67141000  0.14650000  0.92170000  1.0 0.0801963741
C  C242  1  0.65491000  0.18830000  0.92200000  1.0 -0.1706342733
C  C243  1  0.69641000  0.24740000  0.91840000  1.0 0.0456166575
C  C244  1  0.75401000  0.25940000  0.91330000  1.0 -0.1825294538
C  C245  1  0.76611000  0.21480000  0.91160000  1.0 0.104426772
C  C246  1  0.67721000  0.29050000  0.91970000  1.0 0.3478650208
C  C247  1  0.81441000  0.00560000  0.92270000  1.0 0.0801963741
C  C248  1  0.85531000  0.98890000  0.92230000  1.0 -0.1706342733
C  C249  1  0.91441000  0.03030000  0.92110000  1.0 0.0598692386
C  C250  1  0.92931000  0.08910000  0.91570000  1.0 -0.1825294538
C  C251  1  0.88261000  0.09950000  0.91680000  1.0 0.104426772
C  C252  1  0.96041000  0.01410000  0.91990000  1.0 0.3478650208
C  C253  1  0.79841000  0.13010000  0.79700000  1.0 0.5217101902
C  C254  1  0.81501000  0.14530000  0.73020000  1.0 -0.0300610649
C  C255  1  0.78201000  0.11430000  0.68040000  1.0 -0.1105629965
C  C256  1  0.79671000  0.12940000  0.62020000  1.0 -0.1011449517
C  C257  1  0.84611000  0.17740000  0.60390000  1.0 -0.0300610649
C  C258  1  0.88351000  0.20790000  0.65110000  1.0 -0.1162593767
C  C259  1  0.86881000  0.19370000  0.71610000  1.0 -0.1011449517
C  C260  1  0.86361000  0.19680000  0.53780000  1.0 0.5401090563
C  C261  1  0.47510000  0.32859000  0.92170000  1.0 0.0801963741
C  C262  1  0.53340000  0.34509000  0.92200000  1.0 -0.1706342733
C  C263  1  0.55100000  0.30359000  0.91840000  1.0 0.0456166575
C  C264  1  0.50540000  0.24599000  0.91330000  1.0 -0.1825294538
C  C265  1  0.44870000  0.23389000  0.91160000  1.0 0.104426772
C  C266  1  0.61330000  0.32279000  0.91970000  1.0 0.3478650208
C  C267  1  0.19120000  0.18559000  0.92270000  1.0 0.0801963741
C  C268  1  0.13360000  0.14469000  0.92230000  1.0 -0.1706342733
C  C269  1  0.11590000  0.08559000  0.92110000  1.0 0.0598692386
C  C270  1  0.15980000  0.07069000  0.91570000  1.0 -0.1825294538
C  C271  1  0.21690000  0.11739000  0.91680000  1.0 0.104426772
C  C272  1  0.05370000  0.03959000  0.91990000  1.0 0.3478650208
C  C273  1  0.33170000  0.20159000  0.79700000  1.0 0.5217101902
C  C274  1  0.33030000  0.18499000  0.73020000  1.0 -0.0300610649
C  C275  1  0.33230000  0.21799000  0.68040000  1.0 -0.1105629965
C  C276  1  0.33270000  0.20329000  0.62020000  1.0 -0.1011449517
C  C277  1  0.33130000  0.15389000  0.60390000  1.0 -0.0300610649
C  C278  1  0.32440000  0.11649000  0.65110000  1.0 -0.1162593767
C  C279  1  0.32490000  0.13119000  0.71610000  1.0 -0.1011449517
C  C280  1  0.33320000  0.13639000  0.53780000  1.0 0.5401090563
C  C281  1  0.85350000  0.52490000  0.92170000  1.0 0.0801963741
C  C282  1  0.81170000  0.46660000  0.92200000  1.0 -0.1706342733
C  C283  1  0.75260000  0.44900000  0.91840000  1.0 0.0456166575
C  C284  1  0.74060000  0.49460000  0.91330000  1.0 -0.1825294538
C  C285  1  0.78520000  0.55130000  0.91160000  1.0 0.104426772
C  C286  1  0.70950000  0.38670000  0.91970000  1.0 0.3478650208
C  C287  1  0.99440000  0.80880000  0.92270000  1.0 0.0801963741
C  C288  1  0.01110000  0.86640000  0.92230000  1.0 -0.1825294538
C  C289  1  0.96970000  0.88410000  0.92110000  1.0 0.0598692386
C  C290  1  0.91090000  0.84020000  0.91570000  1.0 -0.1825294538
C  C291  1  0.90050000  0.78310000  0.91680000  1.0 0.104426772
C  C292  1  0.98590000  0.94630000  0.91990000  1.0 0.3478650208
C  C293  1  0.86990000  0.66830000  0.79700000  1.0 0.5217101902
C  C294  1  0.85470000  0.66970000  0.73020000  1.0 -0.0300610649
C  C295  1  0.88570000  0.66770000  0.68040000  1.0 -0.1105629965
C  C296  1  0.87060000  0.66730000  0.62020000  1.0 -0.1011449517
C  C297  1  0.82260000  0.66870000  0.60390000  1.0 -0.0300610649
C  C298  1  0.79210000  0.67560000  0.65110000  1.0 -0.1162593767
C  C299  1  0.80630000  0.67510000  0.71610000  1.0 -0.1011449517
C  C300  1  0.80320000  0.66680000  0.53780000  1.0 0.5401090563
C  C301  1  0.47510000  0.14650000  0.42170000  1.0 0.0801963741
C  C302  1  0.53340000  0.18830000  0.42200000  1.0 -0.1706342733
C  C303  1  0.55100000  0.24740000  0.41840000  1.0 0.0456166575
C  C304  1  0.50540000  0.25940000  0.41330000  1.0 -0.1825294538
C  C305  1  0.44870000  0.21480000  0.41160000  1.0 0.104426772
C  C306  1  0.61330000  0.29050000  0.41970000  1.0 0.3478650208
C  C307  1  0.19120000  0.00560000  0.42270000  1.0 0.0801963741
C  C308  1  0.13360000  0.98890000  0.42230000  1.0 -0.1706342733
C  C309  1  0.11590000  0.03030000  0.42110000  1.0 0.0598692386
C  C310  1  0.15980000  0.08910000  0.41570000  1.0 -0.1825294538
C  C311  1  0.21690000  0.09950000  0.41680000  1.0 0.104426772
C  C312  1  0.05370000  0.01410000  0.41990000  1.0 0.3478650208
C  C313  1  0.33170000  0.13010000  0.29700000  1.0 0.5217101902
C  C314  1  0.33030000  0.14530000  0.23020000  1.0 -0.0300610649
C  C315  1  0.33230000  0.11430000  0.18040000  1.0 -0.1105629965
C  C316  1  0.33270000  0.12940000  0.12020000  1.0 -0.1011449517
C  C317  1  0.33130000  0.17740000  0.10390000  1.0 -0.0300610649
C  C318  1  0.32440000  0.20790000  0.15110000  1.0 -0.1162593767
C  C319  1  0.32490000  0.19370000  0.21610000  1.0 -0.1011449517
C  C320  1  0.33320000  0.19680000  0.03780000  1.0 0.5401090563
C  C321  1  0.85350000  0.32859000  0.42170000  1.0 0.0801963741
C  C322  1  0.81170000  0.34509000  0.42200000  1.0 -0.1706342733
C  C323  1  0.75260000  0.30359000  0.41840000  1.0 0.0456166575
C  C324  1  0.74060000  0.24599000  0.41330000  1.0 -0.1825294538
C  C325  1  0.78520000  0.23389000  0.41160000  1.0 0.104426772
C  C326  1  0.70950000  0.32279000  0.41970000  1.0 0.3478650208
C  C327  1  0.99440000  0.18559000  0.42270000  1.0 0.0801963741
C  C328  1  0.01110000  0.14469000  0.42230000  1.0 -0.1706342733
C  C329  1  0.96970000  0.08559000  0.42110000  1.0 0.0598692386
C  C330  1  0.91090000  0.07069000  0.41570000  1.0 -0.1825294538
C  C331  1  0.90050000  0.11739000  0.41680000  1.0 0.104426772
C  C332  1  0.98590000  0.03959000  0.41990000  1.0 0.3478650208
C  C333  1  0.86990000  0.20159000  0.29700000  1.0 0.5217101902
C  C334  1  0.85470000  0.18499000  0.23020000  1.0 -0.0300610649
C  C335  1  0.88570000  0.21799000  0.18040000  1.0 -0.1105629965
C  C336  1  0.87060000  0.20329000  0.12020000  1.0 -0.1011449517
C  C337  1  0.82260000  0.15389000  0.10390000  1.0 -0.0300610649
C  C338  1  0.79210000  0.11649000  0.15110000  1.0 -0.1162593767
C  C339  1  0.80630000  0.13119000  0.21610000  1.0 -0.1011449517
C  C340  1  0.80320000  0.13639000  0.03780000  1.0 0.5401090563
C  C341  1  0.67141000  0.52490000  0.42170000  1.0 0.0801963741
C  C342  1  0.65491000  0.46660000  0.42200000  1.0 -0.1706342733
C  C343  1  0.69641000  0.44900000  0.41840000  1.0 0.0456166575
C  C344  1  0.75401000  0.49460000  0.41330000  1.0 -0.1825294538
C  C345  1  0.76611000  0.55130000  0.41160000  1.0 0.104426772
C  C346  1  0.67721000  0.38670000  0.41970000  1.0 0.3478650208
C  C347  1  0.81441000  0.80880000  0.42270000  1.0 0.0801963741
C  C348  1  0.85531000  0.86640000  0.42230000  1.0 -0.1706342733
C  C349  1  0.91441000  0.88410000  0.42110000  1.0 0.0598692386
C  C350  1  0.92931000  0.84020000  0.41570000  1.0 -0.1825294538
C  C351  1  0.88261000  0.78310000  0.41680000  1.0 0.104426772
C  C352  1  0.96041000  0.94630000  0.41990000  1.0 0.3478650208
C  C353  1  0.79841000  0.66830000  0.29700000  1.0 0.5217101902
C  C354  1  0.81501000  0.66970000  0.23020000  1.0 -0.0300610649
C  C355  1  0.78201000  0.66770000  0.18040000  1.0 -0.1105629965
C  C356  1  0.79671000  0.66730000  0.12020000  1.0 -0.1011449517
C  C357  1  0.84611000  0.66870000  0.10390000  1.0 -0.0300610649
C  C358  1  0.88351000  0.67560000  0.15110000  1.0 -0.1162593767
C  C359  1  0.86881000  0.67510000  0.21610000  1.0 -0.1011449517
C  C360  1  0.86361000  0.66680000  0.03780000  1.0 0.5401090563
N  N1  1  0.50651000  0.89970000  0.74550000  1.0 -0.2398430576
N  N2  1  0.31631000  0.70830000  0.74420000  1.0 -0.3915252692
N  N3  1  0.39320000  0.49349000  0.74550000  1.0 -0.2398430576
N  N4  1  0.39200000  0.68369000  0.74420000  1.0 -0.3915252692
N  N5  1  0.10030000  0.60680000  0.74550000  1.0 -0.2398430576
N  N6  1  0.29170000  0.60800000  0.74420000  1.0 -0.3915252692
N  N7  1  0.60680000  0.10030000  0.75450000  1.0 -0.2398430576
N  N8  1  0.60800000  0.29170000  0.75580000  1.0 -0.3915252692
N  N9  1  0.89970000  0.50651000  0.75450000  1.0 -0.2398430576
N  N10  1  0.70830000  0.31631000  0.75580000  1.0 -0.3915252692
N  N11  1  0.49349000  0.39320000  0.75450000  1.0 -0.2398430576
N  N12  1  0.68369000  0.39200000  0.75580000  1.0 -0.3915252692
N  N13  1  0.49349000  0.10030000  0.25450000  1.0 -0.2398430576
N  N14  1  0.68369000  0.29170000  0.25580000  1.0 -0.3915252692
N  N15  1  0.60680000  0.50651000  0.25450000  1.0 -0.2398430576
N  N16  1  0.60800000  0.31631000  0.25580000  1.0 -0.3915252692
N  N17  1  0.89970000  0.39320000  0.25450000  1.0 -0.2398430576
N  N18  1  0.70830000  0.39200000  0.25580000  1.0 -0.3915252692
N  N19  1  0.39320000  0.89970000  0.24550000  1.0 -0.2398430576
N  N20  1  0.39200000  0.70830000  0.24420000  1.0 -0.3915252692
N  N21  1  0.10030000  0.49349000  0.24550000  1.0 -0.2398430576
N  N22  1  0.29170000  0.68369000  0.24420000  1.0 -0.3915252692
N  N23  1  0.50651000  0.60680000  0.24550000  1.0 -0.2398430576
N  N24  1  0.31631000  0.60800000  0.24420000  1.0 -0.3915252692
N  N25  1  0.56600000  0.83900000  0.58420000  1.0 -0.2320984932
N  N26  1  0.34400000  0.72210000  0.58070000  1.0 -0.3915252692
N  N27  1  0.76740000  0.93940000  0.58080000  1.0 -0.2398430576
N  N28  1  0.95890000  0.94360000  0.58080000  1.0 -0.3766827951
N  N29  1  0.16100000  0.72701000  0.58420000  1.0 -0.2320984932
N  N30  1  0.27790000  0.62191000  0.58070000  1.0 -0.3915252692
N  N31  1  0.06060000  0.82801000  0.58080000  1.0 -0.2398430576
N  N32  1  0.05640000  0.01531000  0.58080000  1.0 -0.3766827951
N  N33  1  0.27299000  0.43400000  0.58420000  1.0 -0.2320984932
N  N34  1  0.37809000  0.65600000  0.58070000  1.0 -0.3915252692
N  N35  1  0.17199000  0.23260000  0.58080000  1.0 -0.2398430576
N  N36  1  0.98469000  0.04110000  0.58080000  1.0 -0.3766827951
N  N37  1  0.27299000  0.83900000  0.08420000  1.0 -0.2320984932
N  N38  1  0.37809000  0.72210000  0.08070000  1.0 -0.3915252692
N  N39  1  0.17199000  0.93940000  0.08080000  1.0 -0.2398430576
N  N40  1  0.98469000  0.94360000  0.08080000  1.0 -0.3766827951
N  N41  1  0.56600000  0.72701000  0.08420000  1.0 -0.2320984932
N  N42  1  0.34400000  0.62191000  0.08070000  1.0 -0.3915252692
N  N43  1  0.76740000  0.82801000  0.08080000  1.0 -0.2398430576
N  N44  1  0.95890000  0.01531000  0.08080000  1.0 -0.3766827951
N  N45  1  0.16100000  0.43400000  0.08420000  1.0 -0.2320984932
N  N46  1  0.27790000  0.65600000  0.08070000  1.0 -0.3915252692
N  N47  1  0.06060000  0.23260000  0.08080000  1.0 -0.2398430576
N  N48  1  0.05640000  0.04110000  0.08080000  1.0 -0.3766827951
N  N49  1  0.72701000  0.16100000  0.91580000  1.0 -0.2320984932
N  N50  1  0.62191000  0.27790000  0.91930000  1.0 -0.3915252692
N  N51  1  0.82801000  0.06060000  0.91920000  1.0 -0.2398430576
N  N52  1  0.01531000  0.05640000  0.91920000  1.0 -0.3766827951
N  N53  1  0.43400000  0.27299000  0.91580000  1.0 -0.2320984932
N  N54  1  0.65600000  0.37809000  0.91930000  1.0 -0.3915252692
N  N55  1  0.23260000  0.17199000  0.91920000  1.0 -0.2398430576
N  N56  1  0.04110000  0.98469000  0.91920000  1.0 -0.3766827951
N  N57  1  0.83900000  0.56600000  0.91580000  1.0 -0.2320984932
N  N58  1  0.72210000  0.34400000  0.91930000  1.0 -0.3915252692
N  N59  1  0.93940000  0.76740000  0.91920000  1.0 -0.2398430576
N  N60  1  0.94360000  0.95890000  0.91920000  1.0 -0.3766827951
N  N61  1  0.43400000  0.16100000  0.41580000  1.0 -0.2320984932
N  N62  1  0.65600000  0.27790000  0.41930000  1.0 -0.3915252692
N  N63  1  0.23260000  0.06060000  0.41920000  1.0 -0.2398430576
N  N64  1  0.04110000  0.05640000  0.41920000  1.0 -0.3766827951
N  N65  1  0.83900000  0.27299000  0.41580000  1.0 -0.2320984932
N  N66  1  0.72210000  0.37809000  0.41930000  1.0 -0.3915252692
N  N67  1  0.93940000  0.17199000  0.41920000  1.0 -0.2398430576
N  N68  1  0.94360000  0.98469000  0.41920000  1.0 -0.3766827951
N  N69  1  0.72701000  0.56600000  0.41580000  1.0 -0.2320984932
N  N70  1  0.62191000  0.34400000  0.41930000  1.0 -0.3915252692
N  N71  1  0.82801000  0.76740000  0.41920000  1.0 -0.2398430576
N  N72  1  0.01531000  0.95890000  0.41920000  1.0 -0.3766827951
O  O1  1  0.50521000  0.99720000  0.82930000  1.0 -0.5372826477
O  O2  1  0.58291000  0.99770000  0.86230000  1.0 -0.4824808508
O  O3  1  0.49200000  0.49479000  0.82930000  1.0 -0.5372826477
O  O4  1  0.41480000  0.41709000  0.86230000  1.0 -0.4824808508
O  O5  1  0.00280000  0.50800000  0.82930000  1.0 -0.5372826477
O  O6  1  0.00230000  0.58520000  0.86230000  1.0 -0.4824808508
O  O7  1  0.50800000  0.00280000  0.67070000  1.0 -0.5372826477
O  O8  1  0.58520000  0.00230000  0.63770000  1.0 -0.4824808508
O  O9  1  0.99720000  0.50521000  0.67070000  1.0 -0.5372826477
O  O10  1  0.99770000  0.58291000  0.63770000  1.0 -0.4824808508
O  O11  1  0.49479000  0.49200000  0.67070000  1.0 -0.5372826477
O  O12  1  0.41709000  0.41480000  0.63770000  1.0 -0.4824808508
O  O13  1  0.49479000  0.00280000  0.17070000  1.0 -0.5372826477
O  O14  1  0.41709000  0.00230000  0.13770000  1.0 -0.4824808508
O  O15  1  0.50800000  0.50521000  0.17070000  1.0 -0.5372826477
O  O16  1  0.58520000  0.58291000  0.13770000  1.0 -0.4824808508
O  O17  1  0.99720000  0.49200000  0.17070000  1.0 -0.5372826477
O  O18  1  0.99770000  0.41480000  0.13770000  1.0 -0.4824808508
O  O19  1  0.49200000  0.99720000  0.32930000  1.0 -0.5372826477
O  O20  1  0.41480000  0.99770000  0.36230000  1.0 -0.4824808508
O  O21  1  0.00280000  0.49479000  0.32930000  1.0 -0.5372826477
O  O22  1  0.00230000  0.41709000  0.36230000  1.0 -0.4824808508
O  O23  1  0.50521000  0.50800000  0.32930000  1.0 -0.5372826477
O  O24  1  0.58291000  0.58520000  0.36230000  1.0 -0.4824808508
O  O25  1  0.65690000  0.00000000  0.75000000  1.0 0.0456166575
O  O26  1  0.34309000  0.34309000  0.75000000  1.0 0.0403694445
O  O27  1  0.00000000  0.65690000  0.75000000  1.0 0.0403694445
O  O28  1  0.34309000  0.00000000  0.25000000  1.0 0.0456166575
O  O29  1  0.65690000  0.65690000  0.25000000  1.0 0.0403694445
O  O30  1  0.00000000  0.34309000  0.25000000  1.0 0.0403694445
O  O31  1  0.66630000  0.91510000  0.69110000  1.0 -0.4874034444
O  O32  1  0.67040000  0.83840000  0.66060000  1.0 -0.5470062464
O  O33  1  0.66700000  0.83440000  0.00510000  1.0 -0.5372826477
O  O34  1  0.66790000  0.75730000  0.97250000  1.0 -0.5204147666
O  O35  1  0.67260000  0.99280000  0.57990000  1.0 -0.1162593767
O  O36  1  0.08490000  0.75121000  0.69110000  1.0 -0.4874034444
O  O37  1  0.16160000  0.83201000  0.66060000  1.0 -0.5470062464
O  O38  1  0.16560000  0.83261000  0.00510000  1.0 -0.5372826477
O  O39  1  0.24270000  0.91061000  0.97250000  1.0 -0.5204147666
O  O40  1  0.00720000  0.67981000  0.57990000  1.0 -0.1162593767
O  O41  1  0.24879000  0.33370000  0.69110000  1.0 -0.4874034444
O  O42  1  0.16799000  0.32960000  0.66060000  1.0 -0.5470062464
O  O43  1  0.16739000  0.33300000  0.00510000  1.0 -0.5372826477
O  O44  1  0.08939000  0.33210000  0.97250000  1.0 -0.5204147666
O  O45  1  0.32019000  0.32740000  0.57990000  1.0 -0.1162593767
O  O46  1  0.24879000  0.91510000  0.19110000  1.0 -0.4874034444
O  O47  1  0.16799000  0.83840000  0.16060000  1.0 -0.5470062464
O  O48  1  0.16739000  0.83440000  0.50510000  1.0 -0.5372826477
O  O49  1  0.08939000  0.75730000  0.47250000  1.0 -0.5204147666
O  O50  1  0.32019000  0.99280000  0.07990000  1.0 -0.1162593767
O  O51  1  0.66630000  0.75121000  0.19110000  1.0 -0.4874034444
O  O52  1  0.67040000  0.83201000  0.16060000  1.0 -0.5470062464
O  O53  1  0.66700000  0.83261000  0.50510000  1.0 -0.5372826477
O  O54  1  0.66790000  0.91061000  0.47250000  1.0 -0.5204147666
O  O55  1  0.67260000  0.67981000  0.07990000  1.0 -0.1162593767
O  O56  1  0.08490000  0.33370000  0.19110000  1.0 -0.4874034444
O  O57  1  0.16160000  0.32960000  0.16060000  1.0 -0.5470062464
O  O58  1  0.16560000  0.33300000  0.50510000  1.0 -0.5372826477
O  O59  1  0.24270000  0.33210000  0.47250000  1.0 -0.5204147666
O  O60  1  0.00720000  0.32740000  0.07990000  1.0 -0.1162593767
O  O61  1  0.75121000  0.08490000  0.80890000  1.0 -0.4874034444
O  O62  1  0.83201000  0.16160000  0.83940000  1.0 -0.5470062464
O  O63  1  0.83261000  0.16560000  0.49490000  1.0 -0.5372826477
O  O64  1  0.91061000  0.24270000  0.52750000  1.0 -0.5204147666
O  O65  1  0.67981000  0.00720000  0.92010000  1.0 -0.1105629965
O  O66  1  0.33370000  0.24879000  0.80890000  1.0 -0.4874034444
O  O67  1  0.32960000  0.16799000  0.83940000  1.0 -0.5470062464
O  O68  1  0.33300000  0.16739000  0.49490000  1.0 -0.5372826477
O  O69  1  0.33210000  0.08939000  0.52750000  1.0 -0.5204147666
O  O70  1  0.32740000  0.32019000  0.92010000  1.0 -0.1105629965
O  O71  1  0.91510000  0.66630000  0.80890000  1.0 -0.4874034444
O  O72  1  0.83840000  0.67040000  0.83940000  1.0 -0.5470062464
O  O73  1  0.83440000  0.66700000  0.49490000  1.0 -0.5372826477
O  O74  1  0.75730000  0.66790000  0.52750000  1.0 -0.5204147666
O  O75  1  0.99280000  0.67260000  0.92010000  1.0 -0.1162593767
O  O76  1  0.33370000  0.08490000  0.30890000  1.0 -0.4874034444
O  O77  1  0.32960000  0.16160000  0.33940000  1.0 -0.5470062464
O  O78  1  0.33300000  0.16560000  0.99490000  1.0 -0.5372826477
O  O79  1  0.33210000  0.24270000  0.02750000  1.0 -0.5204147666
O  O80  1  0.32740000  0.00720000  0.42010000  1.0 -0.1162593767
O  O81  1  0.91510000  0.24879000  0.30890000  1.0 -0.4874034444
O  O82  1  0.83840000  0.16799000  0.33940000  1.0 -0.5470062464
O  O83  1  0.83440000  0.16739000  0.99490000  1.0 -0.5372826477
O  O84  1  0.75730000  0.08939000  0.02750000  1.0 -0.5204147666
O  O85  1  0.99280000  0.32019000  0.42010000  1.0 -0.1162593767
O  O86  1  0.75121000  0.66630000  0.30890000  1.0 -0.4874034444
O  O87  1  0.83201000  0.67040000  0.33940000  1.0 -0.5470062464
O  O88  1  0.83261000  0.66700000  0.99490000  1.0 -0.5372826477
O  O89  1  0.91061000  0.66790000  0.02750000  1.0 -0.5204147666
O  O90  1  0.67981000  0.67260000  0.42010000  1.0 -0.1162593767
