# DDEC6 charges by PACMAN v1.1 (https://github.com/mtap-research/PACMAN-charge/)
data_LIKDIW_FSR_pacman
_symmetry_space_group_name_H-M   'P 1'
_cell_length_a   12.54170000
_cell_length_b   12.54170000
_cell_length_c   13.17700000
_cell_angle_alpha   90.00000000
_cell_angle_beta   90.00000000
_cell_angle_gamma   145.94800000
_symmetry_Int_Tables_number   1
_chemical_formula_structural   ScH15C17O5
_chemical_formula_sum   'Sc2 H30 C34 O10'
_cell_volume   1160.57924092
_cell_formula_units_Z   2
loop_
 _symmetry_equiv_pos_site_id
 _symmetry_equiv_pos_as_xyz
  1  'x, y, z'
loop_
 _atom_site_type_symbol
 _atom_site_label
 _atom_site_symmetry_multiplicity
 _atom_site_fract_x
 _atom_site_fract_y
 _atom_site_fract_z
 _atom_site_occupancy
 _atom_site_charge
Sc  Sc1  1  0.00000000  0.50000000  0.50000000  1.0 1.4914534792
Sc  Sc2  1  0.50000000  0.00000000  0.50000000  1.0 1.4914534792
H  H1  1  0.39764000  0.14846000  0.73490000  1.0 0.1399610445
H  H2  1  0.10236000  0.35154000  0.73490000  1.0 0.1399610445
H  H3  1  0.35154000  0.10236000  0.26510000  1.0 0.1399610445
H  H4  1  0.14846000  0.39764000  0.26510000  1.0 0.1399610445
H  H5  1  0.60236000  0.85154000  0.26510000  1.0 0.1399610445
H  H6  1  0.89764000  0.64846000  0.26510000  1.0 0.1399610445
H  H7  1  0.64846000  0.89764000  0.73490000  1.0 0.1399610445
H  H8  1  0.85154000  0.60236000  0.73490000  1.0 0.1399610445
H  H9  1  0.33503000  0.21085000  0.86699000  1.0 0.1235174045
H  H10  1  0.16497000  0.28915000  0.86699000  1.0 0.1235174045
H  H11  1  0.28915000  0.16497000  0.13301000  1.0 0.1235174045
H  H12  1  0.21085000  0.33503000  0.13301000  1.0 0.1235174045
H  H13  1  0.66497000  0.78915000  0.13301000  1.0 0.1235174045
H  H14  1  0.83503000  0.71085000  0.13301000  1.0 0.1235174045
H  H15  1  0.71085000  0.83503000  0.86699000  1.0 0.1235174045
H  H16  1  0.78915000  0.66497000  0.86699000  1.0 0.1235174045
H  H17  1  0.25000000  0.75000000  0.35870000  1.0 0.0292420864
H  H18  1  0.75000000  0.25000000  0.64130000  1.0 0.0292420864
H  H19  1  0.12677000  0.62677000  0.29470000  1.0 0.0369800806
H  H20  1  0.37323000  0.87323000  0.29470000  1.0 0.0369800806
H  H21  1  0.87323000  0.37323000  0.70530000  1.0 0.0369800806
H  H22  1  0.62677000  0.12677000  0.70530000  1.0 0.0369800806
H  H23  1  0.27894000  0.84430000  0.29470000  1.0 0.0455102615
H  H24  1  0.22106000  0.65570000  0.29470000  1.0 0.0455102615
H  H25  1  0.65570000  0.22106000  0.70530000  1.0 0.0455102615
H  H26  1  0.84430000  0.27894000  0.70530000  1.0 0.0455102615
H  H27  1  0.72106000  0.15570000  0.70530000  1.0 0.0455102615
H  H28  1  0.77894000  0.34430000  0.70530000  1.0 0.0455102615
H  H29  1  0.34430000  0.77894000  0.29470000  1.0 0.0455102615
H  H30  1  0.15570000  0.72106000  0.29470000  1.0 0.0455102615
C  C1  1  0.13130000  0.86870000  0.72060000  1.0 0.0075701034
C  C2  1  0.36870000  0.63130000  0.72060000  1.0 0.0075701034
C  C3  1  0.63130000  0.36870000  0.27940000  1.0 0.0075701034
C  C4  1  0.86870000  0.13130000  0.27940000  1.0 0.0075701034
C  C5  1  0.01620000  0.98380000  0.96470000  1.0 -0.0900341522
C  C6  1  0.48380000  0.51620000  0.96470000  1.0 -0.0900341522
C  C7  1  0.51620000  0.48380000  0.03530000  1.0 -0.0900341522
C  C8  1  0.98380000  0.01620000  0.03530000  1.0 -0.0900341522
C  C9  1  0.17220000  0.82780000  0.63460000  1.0 0.5308001742
C  C10  1  0.32780000  0.67220000  0.63460000  1.0 0.5308001742
C  C11  1  0.67220000  0.32780000  0.36540000  1.0 0.5308001742
C  C12  1  0.82780000  0.17220000  0.36540000  1.0 0.5308001742
C  C13  1  0.05540000  0.94460000  0.88150000  1.0 0.1520667926
C  C14  1  0.44460000  0.55540000  0.88150000  1.0 0.1520667926
C  C15  1  0.55540000  0.44460000  0.11850000  1.0 0.1520667926
C  C16  1  0.94460000  0.05540000  0.11850000  1.0 0.1520667926
C  C17  1  0.27510000  0.05090000  0.76140000  1.0 -0.0846285902
C  C18  1  0.22490000  0.44910000  0.76140000  1.0 -0.0846285902
C  C19  1  0.44910000  0.22490000  0.23860000  1.0 -0.0846285902
C  C20  1  0.05090000  0.27510000  0.23860000  1.0 -0.0846285902
C  C21  1  0.72490000  0.94910000  0.23860000  1.0 -0.0846285902
C  C22  1  0.77510000  0.55090000  0.23860000  1.0 -0.0846285902
C  C23  1  0.55090000  0.77510000  0.76140000  1.0 -0.0846285902
C  C24  1  0.94910000  0.72490000  0.76140000  1.0 -0.0846285902
C  C25  1  0.23750000  0.08830000  0.84060000  1.0 -0.1496087656
C  C26  1  0.26250000  0.41170000  0.84060000  1.0 -0.1496087656
C  C27  1  0.41170000  0.26250000  0.15940000  1.0 -0.1496087656
C  C28  1  0.08830000  0.23750000  0.15940000  1.0 -0.1496087656
C  C29  1  0.76250000  0.91170000  0.15940000  1.0 -0.1496087656
C  C30  1  0.73750000  0.58830000  0.15940000  1.0 -0.1496087656
C  C31  1  0.58830000  0.73750000  0.84060000  1.0 -0.1496087656
C  C32  1  0.91170000  0.76250000  0.84060000  1.0 -0.1496087656
C  C33  1  0.25000000  0.75000000  0.31900000  1.0 -0.1765250161
C  C34  1  0.75000000  0.25000000  0.68100000  1.0 -0.1765250161
O  O1  1  0.25000000  0.75000000  0.42510000  1.0 -0.5389785066
O  O2  1  0.75000000  0.25000000  0.57490000  1.0 -0.5389785066
O  O3  1  0.03770000  0.66170000  0.60100000  1.0 -0.5951444999
O  O4  1  0.46230000  0.83830000  0.60100000  1.0 -0.5951444999
O  O5  1  0.83830000  0.46230000  0.39900000  1.0 -0.5944986835
O  O6  1  0.66170000  0.03770000  0.39900000  1.0 -0.5944986835
O  O7  1  0.96230000  0.33830000  0.39900000  1.0 -0.5944986835
O  O8  1  0.53770000  0.16170000  0.39900000  1.0 -0.5944986835
O  O9  1  0.16170000  0.53770000  0.60100000  1.0 -0.5944986835
O  O10  1  0.33830000  0.96230000  0.60100000  1.0 -0.5951444999
