# DDEC6 charges by PACMAN v1.1 (https://github.com/mtap-research/PACMAN-charge/)
data_LIKXIP_FSR_pacman
_symmetry_space_group_name_H-M   'P 1'
_cell_length_a   17.93060000
_cell_length_b   17.93060000
_cell_length_c   12.80010000
_cell_angle_alpha   90.00000000
_cell_angle_beta   90.00000000
_cell_angle_gamma   120.00000000
_symmetry_Int_Tables_number   1
_chemical_formula_structural   SrCe3Cu6H6C24N6(ClO11)3
_chemical_formula_sum   'Sr2 Ce6 Cu12 H12 C48 N12 Cl6 O66'
_cell_volume   3563.96671108
_cell_formula_units_Z   2
loop_
 _symmetry_equiv_pos_site_id
 _symmetry_equiv_pos_as_xyz
  1  'x, y, z'
loop_
 _atom_site_type_symbol
 _atom_site_label
 _atom_site_symmetry_multiplicity
 _atom_site_fract_x
 _atom_site_fract_y
 _atom_site_fract_z
 _atom_site_occupancy
 _atom_site_charge
Sr  Sr1  1  0.33333333  0.66666667  0.12097000  1.0 1.4835528989
Sr  Sr2  1  0.66666667  0.33333333  0.62097000  1.0 1.4835528989
Ce  Ce1  1  0.32640000  0.99030000  0.62490000  1.0 1.4973358173
Ce  Ce2  1  0.66390000  0.67360000  0.62490000  1.0 1.4973358173
Ce  Ce3  1  0.00970000  0.33610000  0.62490000  1.0 1.4973358173
Ce  Ce4  1  0.67360000  0.00970000  0.12490000  1.0 1.4973358173
Ce  Ce5  1  0.33610000  0.32640000  0.12490000  1.0 1.4973358173
Ce  Ce6  1  0.99030000  0.66390000  0.12490000  1.0 1.4973358173
Cu  Cu1  1  0.44100000  0.86367000  0.25158000  1.0 0.8570997575
Cu  Cu2  1  0.44768000  0.86306000  0.98840000  1.0 0.8691754896
Cu  Cu3  1  0.42267000  0.55900000  0.25158000  1.0 0.8570997575
Cu  Cu4  1  0.41538000  0.55232000  0.98840000  1.0 0.8691754896
Cu  Cu5  1  0.13633000  0.57733000  0.25158000  1.0 0.8570997575
Cu  Cu6  1  0.13694000  0.58462000  0.98840000  1.0 0.8691754896
Cu  Cu7  1  0.55900000  0.13633000  0.75158000  1.0 0.8570997575
Cu  Cu8  1  0.55232000  0.13694000  0.48840000  1.0 0.8691754896
Cu  Cu9  1  0.57733000  0.44100000  0.75158000  1.0 0.8570997575
Cu  Cu10  1  0.58462000  0.44768000  0.48840000  1.0 0.8691754896
Cu  Cu11  1  0.86367000  0.42267000  0.75158000  1.0 0.8570997575
Cu  Cu12  1  0.86306000  0.41538000  0.48840000  1.0 0.8691754896
H  H1  1  0.68820000  0.16800000  0.97680000  1.0 0.1660886963
H  H2  1  0.29130000  0.87710000  0.82950000  1.0 0.1392354552
H  H3  1  0.47980000  0.31180000  0.97680000  1.0 0.1660886963
H  H4  1  0.58580000  0.70870000  0.82950000  1.0 0.1392354552
H  H5  1  0.83200000  0.52020000  0.97680000  1.0 0.1660886963
H  H6  1  0.12290000  0.41420000  0.82950000  1.0 0.1392354552
H  H7  1  0.31180000  0.83200000  0.47680000  1.0 0.1660886963
H  H8  1  0.70870000  0.12290000  0.32950000  1.0 0.1392354552
H  H9  1  0.52020000  0.68820000  0.47680000  1.0 0.1660886963
H  H10  1  0.41420000  0.29130000  0.32950000  1.0 0.1392354552
H  H11  1  0.16800000  0.47980000  0.47680000  1.0 0.1660886963
H  H12  1  0.87710000  0.58580000  0.32950000  1.0 0.1392354552
C  C1  1  0.72530000  0.23700000  0.83430000  1.0 0.6318417549
C  C2  1  0.68990000  0.15370000  0.90160000  1.0 -0.1112158823
C  C3  1  0.28050000  0.76910000  0.90730000  1.0 0.6363919038
C  C4  1  0.32360000  0.84500000  0.83110000  1.0 -0.1169399858
C  C5  1  0.46290000  0.97810000  0.83760000  1.0 0.4239614416
C  C6  1  0.54720000  0.02040000  0.89970000  1.0 0.4337452669
C  C7  1  0.74830000  0.11490000  0.88900000  1.0 0.5168341259
C  C8  1  0.32610000  0.81130000  0.72040000  1.0 0.5370732406
C  C9  1  0.51170000  0.27470000  0.83430000  1.0 0.6318417549
C  C10  1  0.46380000  0.31010000  0.90160000  1.0 -0.1112158823
C  C11  1  0.48860000  0.71950000  0.90730000  1.0 0.6363919038
C  C12  1  0.52140000  0.67640000  0.83110000  1.0 -0.1169399858
C  C13  1  0.51520000  0.53710000  0.83760000  1.0 0.4239614416
C  C14  1  0.47320000  0.45280000  0.89970000  1.0 0.4337452669
C  C15  1  0.36660000  0.25170000  0.88900000  1.0 0.5168341259
C  C16  1  0.48520000  0.67390000  0.72040000  1.0 0.5370732406
C  C17  1  0.76300000  0.48830000  0.83430000  1.0 0.6318417549
C  C18  1  0.84630000  0.53620000  0.90160000  1.0 -0.1112158823
C  C19  1  0.23090000  0.51140000  0.90730000  1.0 0.6363919038
C  C20  1  0.15500000  0.47860000  0.83110000  1.0 -0.1169399858
C  C21  1  0.02190000  0.48480000  0.83760000  1.0 0.4239614416
C  C22  1  0.97960000  0.52680000  0.89970000  1.0 0.436430033
C  C23  1  0.88510000  0.63340000  0.88900000  1.0 0.5168341259
C  C24  1  0.18870000  0.51480000  0.72040000  1.0 0.5370732406
C  C25  1  0.27470000  0.76300000  0.33430000  1.0 0.6318417549
C  C26  1  0.31010000  0.84630000  0.40160000  1.0 -0.1112158823
C  C27  1  0.71950000  0.23090000  0.40730000  1.0 0.6363919038
C  C28  1  0.67640000  0.15500000  0.33110000  1.0 -0.1169399858
C  C29  1  0.53710000  0.02190000  0.33760000  1.0 0.4239614416
C  C30  1  0.45280000  0.97960000  0.39970000  1.0 0.4337452669
C  C31  1  0.25170000  0.88510000  0.38900000  1.0 0.5168341259
C  C32  1  0.67390000  0.18870000  0.22040000  1.0 0.5370732406
C  C33  1  0.48830000  0.72530000  0.33430000  1.0 0.6318417549
C  C34  1  0.53620000  0.68990000  0.40160000  1.0 -0.1112158823
C  C35  1  0.51140000  0.28050000  0.40730000  1.0 0.6363919038
C  C36  1  0.47860000  0.32360000  0.33110000  1.0 -0.1169399858
C  C37  1  0.48480000  0.46290000  0.33760000  1.0 0.4239614416
C  C38  1  0.52680000  0.54720000  0.39970000  1.0 0.4337452669
C  C39  1  0.63340000  0.74830000  0.38900000  1.0 0.5168341259
C  C40  1  0.51480000  0.32610000  0.22040000  1.0 0.5370732406
C  C41  1  0.23700000  0.51170000  0.33430000  1.0 0.6318417549
C  C42  1  0.15370000  0.46380000  0.40160000  1.0 -0.1112158823
C  C43  1  0.76910000  0.48860000  0.40730000  1.0 0.6363919038
C  C44  1  0.84500000  0.52140000  0.33110000  1.0 -0.1169399858
C  C45  1  0.97810000  0.51520000  0.33760000  1.0 0.4239614416
C  C46  1  0.02040000  0.47320000  0.39970000  1.0 0.4337452669
C  C47  1  0.11490000  0.36660000  0.38900000  1.0 0.5168341259
C  C48  1  0.81130000  0.48520000  0.22040000  1.0 0.5370732406
N  N1  1  0.60030000  0.09560000  0.86340000  1.0 -0.3508431257
N  N2  1  0.40940000  0.89970000  0.86990000  1.0 -0.365837727
N  N3  1  0.49530000  0.39970000  0.86340000  1.0 -0.3508431257
N  N4  1  0.49030000  0.59060000  0.86990000  1.0 -0.3646781783
N  N5  1  0.90440000  0.50470000  0.86340000  1.0 -0.3508431257
N  N6  1  0.10030000  0.50970000  0.86990000  1.0 -0.365837727
N  N7  1  0.39970000  0.90440000  0.36340000  1.0 -0.3508431257
N  N8  1  0.59060000  0.10030000  0.36990000  1.0 -0.365837727
N  N9  1  0.50470000  0.60030000  0.36340000  1.0 -0.3508431257
N  N10  1  0.50970000  0.40940000  0.36990000  1.0 -0.365837727
N  N11  1  0.09560000  0.49530000  0.36340000  1.0 -0.3508431257
N  N12  1  0.89970000  0.49030000  0.36990000  1.0 -0.365837727
Cl  Cl1  1  0.37060000  0.17150000  0.61800000  1.0 -0.5213867548
Cl  Cl2  1  0.80090000  0.62940000  0.61800000  1.0 -0.5213867548
Cl  Cl3  1  0.82850000  0.19910000  0.61800000  1.0 -0.5213867548
Cl  Cl4  1  0.62940000  0.82850000  0.11800000  1.0 -0.5213867548
Cl  Cl5  1  0.19910000  0.37060000  0.11800000  1.0 -0.5213867548
Cl  Cl6  1  0.17150000  0.80090000  0.11800000  1.0 -0.5213867548
O  O1  1  0.46583000  0.82624000  0.12140000  1.0 -0.8037076335
O  O2  1  0.32600000  0.76540000  0.98220000  1.0 -0.5287611227
O  O3  1  0.79830000  0.29670000  0.85590000  1.0 -0.4928447049
O  O4  1  0.67810000  0.23780000  0.76040000  1.0 -0.5287611227
O  O5  1  0.20340000  0.71200000  0.89170000  1.0 -0.5038841705
O  O6  1  0.45310000  0.02050000  0.76280000  1.0 -0.541878595
O  O7  1  0.55580000  0.97950000  0.97580000  1.0 -0.5287611227
O  O8  1  0.74790000  0.07540000  0.85500000  1.0 -0.1940974276
O  O9  1  0.36900000  0.76770000  0.71040000  1.0 -0.2815545937
O  O10  1  0.36900000  0.86400000  0.63900000  1.0 -0.4683854918
O  O11  1  0.16600000  0.84800000  0.63100000  1.0 -0.8709201058
O  O12  1  0.36041000  0.53417000  0.12140000  1.0 -0.8037076335
O  O13  1  0.43940000  0.67400000  0.98220000  1.0 -0.5287611227
O  O14  1  0.49840000  0.20170000  0.85590000  1.0 -0.4928447049
O  O15  1  0.55970000  0.32190000  0.76040000  1.0 -0.5213867548
O  O16  1  0.50860000  0.79660000  0.89170000  1.0 -0.5038841705
O  O17  1  0.56740000  0.54690000  0.76280000  1.0 -0.541878595
O  O18  1  0.42370000  0.44420000  0.97580000  1.0 -0.5287611227
O  O19  1  0.32750000  0.25210000  0.85500000  1.0 -0.1940974276
O  O20  1  0.39870000  0.63100000  0.71040000  1.0 -0.2815545937
O  O21  1  0.49500000  0.63100000  0.63900000  1.0 -0.4683854918
O  O22  1  0.68200000  0.83400000  0.63100000  1.0 -0.8709201058
O  O23  1  0.17376000  0.63959000  0.12140000  1.0 -0.8037076335
O  O24  1  0.23460000  0.56060000  0.98220000  1.0 -0.5287611227
O  O25  1  0.70330000  0.50160000  0.85590000  1.0 -0.4928447049
O  O26  1  0.76220000  0.44030000  0.76040000  1.0 -0.5213867548
O  O27  1  0.28800000  0.49140000  0.89170000  1.0 -0.5038841705
O  O28  1  0.97950000  0.43260000  0.76280000  1.0 -0.541878595
O  O29  1  0.02050000  0.57630000  0.97580000  1.0 -0.5287611227
O  O30  1  0.92460000  0.67250000  0.85500000  1.0 -0.1940974276
O  O31  1  0.23230000  0.60130000  0.71040000  1.0 -0.2815545937
O  O32  1  0.13600000  0.50500000  0.63900000  1.0 -0.4683854918
O  O33  1  0.15200000  0.31800000  0.63100000  1.0 -0.8709201058
O  O34  1  0.53417000  0.17376000  0.62140000  1.0 -0.8037076335
O  O35  1  0.67400000  0.23460000  0.48220000  1.0 -0.5287611227
O  O36  1  0.20170000  0.70330000  0.35590000  1.0 -0.4928447049
O  O37  1  0.32190000  0.76220000  0.26040000  1.0 -0.5213867548
O  O38  1  0.79660000  0.28800000  0.39170000  1.0 -0.5038841705
O  O39  1  0.54690000  0.97950000  0.26280000  1.0 -0.541878595
O  O40  1  0.44420000  0.02050000  0.47580000  1.0 -0.5287611227
O  O41  1  0.25210000  0.92460000  0.35500000  1.0 -0.1940974276
O  O42  1  0.63100000  0.23230000  0.21040000  1.0 -0.2815545937
O  O43  1  0.63100000  0.13600000  0.13900000  1.0 -0.4683854918
O  O44  1  0.83400000  0.15200000  0.13100000  1.0 -0.8709201058
O  O45  1  0.63959000  0.46583000  0.62140000  1.0 -0.8037076335
O  O46  1  0.56060000  0.32600000  0.48220000  1.0 -0.5287611227
O  O47  1  0.50160000  0.79830000  0.35590000  1.0 -0.4928447049
O  O48  1  0.44030000  0.67810000  0.26040000  1.0 -0.5213867548
O  O49  1  0.49140000  0.20340000  0.39170000  1.0 -0.5038841705
O  O50  1  0.43260000  0.45310000  0.26280000  1.0 -0.541878595
O  O51  1  0.57630000  0.55580000  0.47580000  1.0 -0.5287611227
O  O52  1  0.67250000  0.74790000  0.35500000  1.0 -0.1940974276
O  O53  1  0.60130000  0.36900000  0.21040000  1.0 -0.2815545937
O  O54  1  0.50500000  0.36900000  0.13900000  1.0 -0.4683854918
O  O55  1  0.31800000  0.16600000  0.13100000  1.0 -0.8709201058
O  O56  1  0.82624000  0.36041000  0.62140000  1.0 -0.8037076335
O  O57  1  0.76540000  0.43940000  0.48220000  1.0 -0.5287611227
O  O58  1  0.29670000  0.49840000  0.35590000  1.0 -0.4928447049
O  O59  1  0.23780000  0.55970000  0.26040000  1.0 -0.5213867548
O  O60  1  0.71200000  0.50860000  0.39170000  1.0 -0.5038841705
O  O61  1  0.02050000  0.56740000  0.26280000  1.0 -0.541878595
O  O62  1  0.97950000  0.42370000  0.47580000  1.0 -0.5287611227
O  O63  1  0.07540000  0.32750000  0.35500000  1.0 -0.195939679
O  O64  1  0.76770000  0.39870000  0.21040000  1.0 -0.2815545937
O  O65  1  0.86400000  0.49500000  0.13900000  1.0 -0.4683854918
O  O66  1  0.84800000  0.68200000  0.13100000  1.0 -0.8709201058
