# DDEC6 charges by PACMAN v1.1 (https://github.com/mtap-research/PACMAN-charge/)
data_LILVIO_ASR_pacman
_symmetry_space_group_name_H-M   'P 1'
_cell_length_a   13.83000000
_cell_length_b   13.83000000
_cell_length_c   22.29100000
_cell_angle_alpha   90.00000000
_cell_angle_beta   90.00000000
_cell_angle_gamma   120.00000000
_symmetry_Int_Tables_number   1
_chemical_formula_structural   Tb2B9H18(CN)18
_chemical_formula_sum   'Tb4 B18 H36 C36 N36'
_cell_volume   3692.36430415
_cell_formula_units_Z   2
loop_
 _symmetry_equiv_pos_site_id
 _symmetry_equiv_pos_as_xyz
  1  'x, y, z'
loop_
 _atom_site_type_symbol
 _atom_site_label
 _atom_site_symmetry_multiplicity
 _atom_site_fract_x
 _atom_site_fract_y
 _atom_site_fract_z
 _atom_site_occupancy
 _atom_site_charge
Tb  Tb1  1  0.66666667  0.33333333  0.57158000  1.0 1.826092229
Tb  Tb2  1  0.33333333  0.66666667  0.07158000  1.0 1.826092229
Tb  Tb3  1  0.33333333  0.66666667  0.42842000  1.0 1.826092229
Tb  Tb4  1  0.66666667  0.33333333  0.92842000  1.0 1.826092229
B  B1  1  0.35220000  0.05680000  0.42900000  1.0 -0.2327023999
B  B2  1  0.70460000  0.64780000  0.42900000  1.0 -0.2375133776
B  B3  1  0.94320000  0.29540000  0.42900000  1.0 -0.2375133776
B  B4  1  0.64780000  0.94320000  0.92900000  1.0 -0.2327023999
B  B5  1  0.29540000  0.35220000  0.92900000  1.0 -0.2375133776
B  B6  1  0.05680000  0.70460000  0.92900000  1.0 -0.2375133776
B  B7  1  0.64780000  0.94320000  0.57100000  1.0 -0.2327023999
B  B8  1  0.29540000  0.35220000  0.57100000  1.0 -0.2375133776
B  B9  1  0.05680000  0.70460000  0.57100000  1.0 -0.2375133776
B  B10  1  0.35220000  0.05680000  0.07100000  1.0 -0.2327023999
B  B11  1  0.70460000  0.64780000  0.07100000  1.0 -0.2375133776
B  B12  1  0.94320000  0.29540000  0.07100000  1.0 -0.2375133776
B  B13  1  0.42230000  0.09080000  0.75000000  1.0 -0.2112591608
B  B14  1  0.66850000  0.57770000  0.75000000  1.0 -0.2193411632
B  B15  1  0.90920000  0.33150000  0.75000000  1.0 -0.2193411632
B  B16  1  0.57770000  0.90920000  0.25000000  1.0 -0.2193411632
B  B17  1  0.33150000  0.42230000  0.25000000  1.0 -0.2112591608
B  B18  1  0.09080000  0.66850000  0.25000000  1.0 -0.2112591608
H  H1  1  0.35780000  0.08500000  0.38760000  1.0 0.0882754994
H  H2  1  0.28350000  0.04870000  0.44750000  1.0 0.0882754994
H  H3  1  0.72720000  0.64220000  0.38760000  1.0 0.0882754994
H  H4  1  0.76520000  0.71650000  0.44750000  1.0 0.0882754994
H  H5  1  0.91500000  0.27280000  0.38760000  1.0 0.0882754994
H  H6  1  0.95130000  0.23480000  0.44750000  1.0 0.0882754994
H  H7  1  0.64220000  0.91500000  0.88760000  1.0 0.0882754994
H  H8  1  0.71650000  0.95130000  0.94750000  1.0 0.0882754994
H  H9  1  0.27280000  0.35780000  0.88760000  1.0 0.0882754994
H  H10  1  0.23480000  0.28350000  0.94750000  1.0 0.0882754994
H  H11  1  0.08500000  0.72720000  0.88760000  1.0 0.0882754994
H  H12  1  0.04870000  0.76520000  0.94750000  1.0 0.0882754994
H  H13  1  0.64220000  0.91500000  0.61240000  1.0 0.0882754994
H  H14  1  0.71650000  0.95130000  0.55250000  1.0 0.0882754994
H  H15  1  0.27280000  0.35780000  0.61240000  1.0 0.0882754994
H  H16  1  0.23480000  0.28350000  0.55250000  1.0 0.0882754994
H  H17  1  0.08500000  0.72720000  0.61240000  1.0 0.0882754994
H  H18  1  0.04870000  0.76520000  0.55250000  1.0 0.0882754994
H  H19  1  0.35780000  0.08500000  0.11240000  1.0 0.0882754994
H  H20  1  0.28350000  0.04870000  0.05250000  1.0 0.0882754994
H  H21  1  0.72720000  0.64220000  0.11240000  1.0 0.0882754994
H  H22  1  0.76520000  0.71650000  0.05250000  1.0 0.0882754994
H  H23  1  0.91500000  0.27280000  0.11240000  1.0 0.0882754994
H  H24  1  0.95130000  0.23480000  0.05250000  1.0 0.0882754994
H  H25  1  0.34560000  0.07910000  0.75000000  1.0 0.070952729
H  H26  1  0.41760000  0.01700000  0.75000000  1.0 0.070952729
H  H27  1  0.73350000  0.65440000  0.75000000  1.0 0.0783772375
H  H28  1  0.59940000  0.58240000  0.75000000  1.0 0.0783772375
H  H29  1  0.92090000  0.26650000  0.75000000  1.0 0.070952729
H  H30  1  0.98300000  0.40060000  0.75000000  1.0 0.0783772375
H  H31  1  0.65440000  0.92090000  0.25000000  1.0 0.0783772375
H  H32  1  0.58240000  0.98300000  0.25000000  1.0 0.0783772375
H  H33  1  0.26650000  0.34560000  0.25000000  1.0 0.0783772375
H  H34  1  0.40060000  0.41760000  0.25000000  1.0 0.070952729
H  H35  1  0.07910000  0.73350000  0.25000000  1.0 0.070952729
H  H36  1  0.01700000  0.59940000  0.25000000  1.0 0.070952729
C  C1  1  0.48870000  0.16050000  0.69299000  1.0 0.2104436377
C  C2  1  0.45800000  0.14220000  0.46674000  1.0 0.2239480485
C  C3  1  0.34660000  0.93940000  0.42760000  1.0 0.2104436377
C  C4  1  0.67180000  0.51130000  0.69299000  1.0 0.2104436377
C  C5  1  0.68420000  0.54200000  0.46674000  1.0 0.2239480485
C  C6  1  0.59280000  0.65340000  0.42760000  1.0 0.2104436377
C  C7  1  0.83950000  0.32820000  0.69299000  1.0 0.2104436377
C  C8  1  0.85780000  0.31580000  0.46674000  1.0 0.2239480485
C  C9  1  0.06060000  0.40720000  0.42760000  1.0 0.2104436377
C  C10  1  0.51130000  0.83950000  0.19299000  1.0 0.2104436377
C  C11  1  0.54200000  0.85780000  0.96674000  1.0 0.2239480485
C  C12  1  0.65340000  0.06060000  0.92760000  1.0 0.2104436377
C  C13  1  0.32820000  0.48870000  0.19299000  1.0 0.2104436377
C  C14  1  0.31580000  0.45800000  0.96674000  1.0 0.2239480485
C  C15  1  0.40720000  0.34660000  0.92760000  1.0 0.2104436377
C  C16  1  0.16050000  0.67180000  0.19299000  1.0 0.2104436377
C  C17  1  0.14220000  0.68420000  0.96674000  1.0 0.2239480485
C  C18  1  0.93940000  0.59280000  0.92760000  1.0 0.2104436377
C  C19  1  0.51130000  0.83950000  0.30701000  1.0 0.2104436377
C  C20  1  0.54200000  0.85780000  0.53326000  1.0 0.2239480485
C  C21  1  0.65340000  0.06060000  0.57240000  1.0 0.2104436377
C  C22  1  0.32820000  0.48870000  0.30701000  1.0 0.2104436377
C  C23  1  0.31580000  0.45800000  0.53326000  1.0 0.2239480485
C  C24  1  0.40720000  0.34660000  0.57240000  1.0 0.2104436377
C  C25  1  0.16050000  0.67180000  0.30701000  1.0 0.2104436377
C  C26  1  0.14220000  0.68420000  0.53326000  1.0 0.2239480485
C  C27  1  0.93940000  0.59280000  0.57240000  1.0 0.2104436377
C  C28  1  0.48870000  0.16050000  0.80701000  1.0 0.2104436377
C  C29  1  0.45800000  0.14220000  0.03326000  1.0 0.2239480485
C  C30  1  0.34660000  0.93940000  0.07240000  1.0 0.2104436377
C  C31  1  0.67180000  0.51130000  0.80701000  1.0 0.2104436377
C  C32  1  0.68420000  0.54200000  0.03326000  1.0 0.2239480485
C  C33  1  0.59280000  0.65340000  0.07240000  1.0 0.2104436377
C  C34  1  0.83950000  0.32820000  0.80701000  1.0 0.2104436377
C  C35  1  0.85780000  0.31580000  0.03326000  1.0 0.2239480485
C  C36  1  0.06060000  0.40720000  0.07240000  1.0 0.2104436377
N  N1  1  0.53810000  0.21100000  0.65193000  1.0 -0.379029102
N  N2  1  0.53230000  0.20570000  0.49464000  1.0 -0.4026935184
N  N3  1  0.34240000  0.85450000  0.42706000  1.0 -0.379029102
N  N4  1  0.67290000  0.46190000  0.65193000  1.0 -0.379029102
N  N5  1  0.67340000  0.46770000  0.49464000  1.0 -0.4026935184
N  N6  1  0.51210000  0.65760000  0.42706000  1.0 -0.379029102
N  N7  1  0.78900000  0.32710000  0.65193000  1.0 -0.379029102
N  N8  1  0.79430000  0.32660000  0.49464000  1.0 -0.4026935184
N  N9  1  0.14550000  0.48790000  0.42706000  1.0 -0.379029102
N  N10  1  0.46190000  0.78900000  0.15193000  1.0 -0.379029102
N  N11  1  0.46770000  0.79430000  0.99464000  1.0 -0.4026935184
N  N12  1  0.65760000  0.14550000  0.92706000  1.0 -0.379029102
N  N13  1  0.32710000  0.53810000  0.15193000  1.0 -0.379029102
N  N14  1  0.32660000  0.53230000  0.99464000  1.0 -0.4026935184
N  N15  1  0.48790000  0.34240000  0.92706000  1.0 -0.379029102
N  N16  1  0.21100000  0.67290000  0.15193000  1.0 -0.379029102
N  N17  1  0.20570000  0.67340000  0.99464000  1.0 -0.40531668
N  N18  1  0.85450000  0.51210000  0.92706000  1.0 -0.379029102
N  N19  1  0.46190000  0.78900000  0.34807000  1.0 -0.379029102
N  N20  1  0.46770000  0.79430000  0.50536000  1.0 -0.4026935184
N  N21  1  0.65760000  0.14550000  0.57294000  1.0 -0.379029102
N  N22  1  0.32710000  0.53810000  0.34807000  1.0 -0.379029102
N  N23  1  0.32660000  0.53230000  0.50536000  1.0 -0.4026935184
N  N24  1  0.48790000  0.34240000  0.57294000  1.0 -0.379029102
N  N25  1  0.21100000  0.67290000  0.34807000  1.0 -0.379029102
N  N26  1  0.20570000  0.67340000  0.50536000  1.0 -0.40531668
N  N27  1  0.85450000  0.51210000  0.57294000  1.0 -0.379029102
N  N28  1  0.53810000  0.21100000  0.84807000  1.0 -0.379029102
N  N29  1  0.53230000  0.20570000  0.00536000  1.0 -0.4026935184
N  N30  1  0.34240000  0.85450000  0.07294000  1.0 -0.379029102
N  N31  1  0.67290000  0.46190000  0.84807000  1.0 -0.379029102
N  N32  1  0.67340000  0.46770000  0.00536000  1.0 -0.4026935184
N  N33  1  0.51210000  0.65760000  0.07294000  1.0 -0.379029102
N  N34  1  0.78900000  0.32710000  0.84807000  1.0 -0.379029102
N  N35  1  0.79430000  0.32660000  0.00536000  1.0 -0.4026935184
N  N36  1  0.14550000  0.48790000  0.07294000  1.0 -0.379029102
