# DDEC6 charges by PACMAN v1.1 (https://github.com/mtap-research/PACMAN-charge/)
data_LINTOV05_ASR_pacman
_symmetry_space_group_name_H-M   'P 1'
_cell_length_a   22.88500000
_cell_length_b   17.00940000
_cell_length_c   33.14000000
_cell_angle_alpha   90.00000000
_cell_angle_beta   123.72900000
_cell_angle_gamma   90.00000000
_symmetry_Int_Tables_number   1
_chemical_formula_structural   UH68C75(N17O11)2
_chemical_formula_sum   'U4 H272 C300 N136 O88'
_cell_volume   10728.65088779
_cell_formula_units_Z   4
loop_
 _symmetry_equiv_pos_site_id
 _symmetry_equiv_pos_as_xyz
  1  'x, y, z'
loop_
 _atom_site_type_symbol
 _atom_site_label
 _atom_site_symmetry_multiplicity
 _atom_site_fract_x
 _atom_site_fract_y
 _atom_site_fract_z
 _atom_site_occupancy
 _atom_site_charge
U  U1  1  0.64241000  0.94162000  0.51321000  1.0 1.7224658196
U  U2  1  0.35759000  0.44162000  0.98679000  1.0 1.7301200494
U  U3  1  0.35759000  0.05838000  0.48679000  1.0 1.7301200494
U  U4  1  0.64241000  0.55838000  0.01321000  1.0 1.7301200494
H  H1  1  0.79715000  0.52552000  0.95340000  1.0 0.1296578915
H  H2  1  0.20285000  0.02552000  0.54660000  1.0 0.1296578915
H  H3  1  0.20285000  0.47448000  0.04660000  1.0 0.1296578915
H  H4  1  0.79715000  0.97448000  0.45340000  1.0 0.1296578915
H  H5  1  0.61471000  0.68191000  0.55703000  1.0 0.1397033416
H  H6  1  0.38529000  0.18191000  0.94297000  1.0 0.1397033416
H  H7  1  0.38529000  0.31809000  0.44297000  1.0 0.1397033416
H  H8  1  0.61471000  0.81809000  0.05703000  1.0 0.1397033416
H  H9  1  0.86028000  0.45619000  0.92957000  1.0 0.1397033416
H  H10  1  0.13972000  0.95619000  0.57043000  1.0 0.1397033416
H  H11  1  0.13972000  0.54381000  0.07043000  1.0 0.1397033416
H  H12  1  0.86028000  0.04381000  0.42957000  1.0 0.1397033416
H  H13  1  0.87697000  0.41698000  0.73423000  1.0 0.1397033416
H  H14  1  0.12303000  0.91698000  0.76577000  1.0 0.1397033416
H  H15  1  0.12303000  0.58302000  0.26577000  1.0 0.1397033416
H  H16  1  0.87697000  0.08302000  0.23423000  1.0 0.1397033416
H  H17  1  0.62377000  0.54678000  0.56450000  1.0 0.1397033416
H  H18  1  0.37623000  0.04678000  0.93550000  1.0 0.1397033416
H  H19  1  0.37623000  0.45322000  0.43550000  1.0 0.1397033416
H  H20  1  0.62377000  0.95322000  0.06450000  1.0 0.1397033416
H  H21  1  0.89437000  0.42551000  0.80454000  1.0 0.1461395816
H  H22  1  0.10563000  0.92551000  0.69546000  1.0 0.1461395816
H  H23  1  0.10563000  0.57449000  0.19546000  1.0 0.1461395816
H  H24  1  0.89437000  0.07449000  0.30454000  1.0 0.1461395816
H  H25  1  0.64695000  0.40296000  0.60733000  1.0 0.1182666183
H  H26  1  0.35305000  0.90296000  0.89267000  1.0 0.1182666183
H  H27  1  0.35305000  0.59704000  0.39267000  1.0 0.1182666183
H  H28  1  0.64695000  0.09704000  0.10733000  1.0 0.1182666183
H  H29  1  0.67613000  0.36795000  0.68299000  1.0 0.1461395816
H  H30  1  0.32387000  0.86795000  0.81701000  1.0 0.1461395816
H  H31  1  0.32387000  0.63205000  0.31701000  1.0 0.1461395816
H  H32  1  0.67613000  0.13205000  0.18299000  1.0 0.1461395816
H  H33  1  0.92422000  0.39202000  0.88082000  1.0 0.1182666183
H  H34  1  0.07578000  0.89202000  0.61918000  1.0 0.1182666183
H  H35  1  0.07578000  0.60798000  0.11918000  1.0 0.1182666183
H  H36  1  0.92422000  0.10798000  0.38082000  1.0 0.1182666183
H  H37  1  0.71424000  0.30580000  0.74843000  1.0 0.1397033416
H  H38  1  0.28576000  0.80580000  0.75157000  1.0 0.1397033416
H  H39  1  0.28576000  0.69420000  0.25157000  1.0 0.1397033416
H  H40  1  0.71424000  0.19420000  0.24843000  1.0 0.1397033416
H  H41  1  0.70073000  0.32517000  0.94931000  1.0 0.1296578915
H  H42  1  0.29927000  0.82517000  0.55069000  1.0 0.1296578915
H  H43  1  0.29927000  0.67483000  0.05069000  1.0 0.1296578915
H  H44  1  0.70073000  0.17483000  0.44931000  1.0 0.1296578915
H  H45  1  0.76374000  0.25729000  0.92429000  1.0 0.1296578915
H  H46  1  0.23626000  0.75729000  0.57571000  1.0 0.1296578915
H  H47  1  0.23626000  0.74271000  0.07571000  1.0 0.1296578915
H  H48  1  0.76374000  0.24271000  0.42429000  1.0 0.1296578915
H  H49  1  0.74875000  0.27244000  0.82599000  1.0 0.1296578915
H  H50  1  0.25125000  0.77244000  0.67401000  1.0 0.1296578915
H  H51  1  0.25125000  0.72756000  0.17401000  1.0 0.1296578915
H  H52  1  0.74875000  0.22756000  0.32599000  1.0 0.1296578915
H  H53  1  0.85164000  0.24839000  0.90936000  1.0 0.1397033416
H  H54  1  0.14836000  0.74839000  0.59064000  1.0 0.1397033416
H  H55  1  0.14836000  0.75161000  0.09064000  1.0 0.1397033416
H  H56  1  0.85164000  0.25161000  0.40936000  1.0 0.1397033416
H  H57  1  0.91008000  0.31487000  0.93225000  1.0 0.1397033416
H  H58  1  0.08992000  0.81487000  0.56775000  1.0 0.1397033416
H  H59  1  0.08992000  0.68513000  0.06775000  1.0 0.1397033416
H  H60  1  0.91008000  0.18513000  0.43225000  1.0 0.1397033416
H  H61  1  0.84330000  0.44799000  0.65659000  1.0 0.1296578915
H  H62  1  0.15670000  0.94799000  0.84341000  1.0 0.1296578915
H  H63  1  0.15670000  0.55201000  0.34341000  1.0 0.1296578915
H  H64  1  0.84330000  0.05201000  0.15659000  1.0 0.1296578915
H  H65  1  0.79041000  0.69024000  0.55696000  1.0 0.1182666183
H  H66  1  0.20959000  0.19024000  0.94304000  1.0 0.1182666183
H  H67  1  0.20959000  0.30976000  0.44304000  1.0 0.1182666183
H  H68  1  0.79041000  0.80976000  0.05696000  1.0 0.1182666183
H  H69  1  0.75665000  0.42955000  0.57017000  1.0 0.1296578915
H  H70  1  0.24335000  0.92955000  0.92983000  1.0 0.1296578915
H  H71  1  0.24335000  0.57045000  0.42983000  1.0 0.1296578915
H  H72  1  0.75665000  0.07045000  0.07017000  1.0 0.1296578915
H  H73  1  0.67634000  0.42398000  0.55185000  1.0 0.1397033416
H  H74  1  0.32366000  0.92398000  0.94815000  1.0 0.1397033416
H  H75  1  0.32366000  0.57602000  0.44815000  1.0 0.1397033416
H  H76  1  0.67634000  0.07602000  0.05185000  1.0 0.1397033416
H  H77  1  0.80432000  0.55527000  0.57084000  1.0 0.1182666183
H  H78  1  0.19568000  0.05527000  0.92916000  1.0 0.1182666183
H  H79  1  0.19568000  0.44473000  0.42916000  1.0 0.1182666183
H  H80  1  0.80432000  0.94473000  0.07084000  1.0 0.1182666183
H  H81  1  0.54574000  0.38236000  0.09526000  1.0 0.0813384199
H  H82  1  0.40918000  0.23522000  0.05552000  1.0 0.0813384199
H  H83  1  0.15142000  0.16722000  0.39594000  1.0 0.0913595412
H  H84  1  0.16385000  0.02986000  0.37998000  1.0 0.0988583075
H  H85  1  0.10775000  0.99843000  0.32714000  1.0 0.0988583075
H  H86  1  0.84210000  0.43514000  0.21630000  1.0 0.0813384199
H  H87  1  0.16156000  0.96490000  0.44914000  1.0 0.0813384199
H  H88  1  0.75789000  0.40877000  0.12870000  1.0 0.0813384199
H  H89  1  0.76173000  0.32575000  0.10867000  1.0 0.1095820158
H  H90  1  0.09275000  0.27017000  0.34475000  1.0 0.0913595412
H  H91  1  0.95286000  0.38592000  0.26297000  1.0 0.0988583075
H  H92  1  0.97869000  0.20440000  0.22650000  1.0 0.1095820158
H  H93  1  0.01848000  0.28085000  0.25663000  1.0 0.1095820158
H  H94  1  0.36441000  0.11262000  0.04981000  1.0 0.0813384199
H  H95  1  0.11237000  0.85397000  0.45684000  1.0 0.0813384199
H  H96  1  0.09254000  0.12585000  0.47307000  1.0 0.1182666183
H  H97  1  0.15476000  0.10416000  0.46728000  1.0 0.1095820158
H  H98  1  0.53322000  0.21659000  0.02595000  1.0 0.1182666183
H  H99  1  0.48518000  0.28042000  0.02867000  1.0 0.0988583075
H  H100  1  0.65711000  0.43281000  0.13763000  1.0 0.0813384199
H  H101  1  0.01844000  0.37757000  0.35078000  1.0 0.0988583075
H  H102  1  0.97878000  0.35351000  0.37568000  1.0 0.1095820158
H  H103  1  0.47122000  0.33788000  0.12228000  1.0 0.0988583075
H  H104  1  0.50928000  0.30779000  0.17645000  1.0 0.1095820158
H  H105  1  0.97475000  0.89859000  0.47163000  1.0 0.1182666183
H  H106  1  0.02516000  0.82844000  0.47881000  1.0 0.0913595412
H  H107  1  0.86348000  0.66166000  0.38226000  1.0 0.0813384199
H  H108  1  0.02547000  0.75202000  0.34520000  1.0 0.1095820158
H  H109  1  0.05660000  0.73775000  0.40083000  1.0 0.0988583075
H  H110  1  0.37716000  0.90410000  0.09505000  1.0 0.0813384199
H  H111  1  0.97382000  0.71471000  0.42462000  1.0 0.0813384199
H  H112  1  0.73686000  0.40239000  0.26151000  1.0 0.1095820158
H  H113  1  0.74212000  0.45546000  0.22439000  1.0 0.0913595412
H  H114  1  0.39228000  0.06941000  0.16359000  1.0 0.1095820158
H  H115  1  0.34802000  0.03809000  0.10952000  1.0 0.0988583075
H  H116  1  0.68001000  0.64863000  0.29661000  1.0 0.0813384199
H  H117  1  0.57072000  0.68608000  0.23661000  1.0 0.0988583075
H  H118  1  0.48895000  0.78025000  0.23330000  1.0 0.1095820158
H  H119  1  0.51884000  0.85429000  0.26806000  1.0 0.1182666183
H  H120  1  0.75386000  0.78251000  0.39441000  1.0 0.1182666183
H  H121  1  0.76227000  0.69485000  0.38248000  1.0 0.0913595412
H  H122  1  0.56904000  0.74003000  0.13332000  1.0 0.1182666183
H  H123  1  0.51934000  0.70849000  0.14894000  1.0 0.0988583075
H  H124  1  0.38808000  0.97528000  0.03392000  1.0 0.0813384199
H  H125  1  0.45910000  0.96314000  0.03703000  1.0 0.1182666183
H  H126  1  0.43448000  0.80047000  0.14628000  1.0 0.0813384199
H  H127  1  0.79051000  0.65533000  0.25676000  1.0 0.1182666183
H  H128  1  0.78221000  0.61705000  0.29686000  1.0 0.0913595412
H  H129  1  0.45426000  0.88236000  0.40474000  1.0 0.0813384199
H  H130  1  0.59082000  0.73522000  0.44448000  1.0 0.0813384199
H  H131  1  0.84858000  0.66722000  0.10406000  1.0 0.0913595412
H  H132  1  0.83615000  0.52986000  0.12002000  1.0 0.0988583075
H  H133  1  0.89225000  0.49843000  0.17286000  1.0 0.0988583075
H  H134  1  0.15790000  0.93514000  0.28370000  1.0 0.0813384199
H  H135  1  0.83844000  0.46490000  0.05086000  1.0 0.0813384199
H  H136  1  0.24211000  0.90877000  0.37130000  1.0 0.0813384199
H  H137  1  0.23827000  0.82575000  0.39133000  1.0 0.1095820158
H  H138  1  0.90725000  0.77017000  0.15525000  1.0 0.0913595412
H  H139  1  0.04714000  0.88592000  0.23703000  1.0 0.0988583075
H  H140  1  0.02131000  0.70440000  0.27350000  1.0 0.1095820158
H  H141  1  0.98152000  0.78085000  0.24337000  1.0 0.1095820158
H  H142  1  0.63559000  0.61262000  0.45019000  1.0 0.0813384199
H  H143  1  0.88763000  0.35397000  0.04316000  1.0 0.0813384199
H  H144  1  0.90746000  0.62585000  0.02693000  1.0 0.1182666183
H  H145  1  0.84524000  0.60416000  0.03272000  1.0 0.1095820158
H  H146  1  0.46678000  0.71659000  0.47405000  1.0 0.1182666183
H  H147  1  0.51482000  0.78042000  0.47133000  1.0 0.0988583075
H  H148  1  0.34289000  0.93281000  0.36237000  1.0 0.0813384199
H  H149  1  0.98156000  0.87757000  0.14922000  1.0 0.0988583075
H  H150  1  0.02122000  0.85351000  0.12432000  1.0 0.1095820158
H  H151  1  0.52878000  0.83788000  0.37772000  1.0 0.0988583075
H  H152  1  0.49072000  0.80779000  0.32355000  1.0 0.1095820158
H  H153  1  0.02525000  0.39859000  0.02837000  1.0 0.1182666183
H  H154  1  0.97484000  0.32844000  0.02119000  1.0 0.0913595412
H  H155  1  0.13652000  0.16166000  0.11774000  1.0 0.0813384199
H  H156  1  0.97453000  0.25202000  0.15480000  1.0 0.1095820158
H  H157  1  0.94340000  0.23775000  0.09917000  1.0 0.0988583075
H  H158  1  0.62284000  0.40410000  0.40495000  1.0 0.0813384199
H  H159  1  0.02618000  0.21471000  0.07538000  1.0 0.0813384199
H  H160  1  0.26314000  0.90239000  0.23849000  1.0 0.1095820158
H  H161  1  0.25788000  0.95546000  0.27561000  1.0 0.0913595412
H  H162  1  0.60772000  0.56941000  0.33641000  1.0 0.1095820158
H  H163  1  0.65198000  0.53809000  0.39048000  1.0 0.0988583075
H  H164  1  0.31999000  0.14863000  0.20339000  1.0 0.0813384199
H  H165  1  0.42928000  0.18608000  0.26339000  1.0 0.0988583075
H  H166  1  0.51105000  0.28025000  0.26670000  1.0 0.1095820158
H  H167  1  0.48116000  0.35429000  0.23194000  1.0 0.1182666183
H  H168  1  0.24614000  0.28251000  0.10559000  1.0 0.1182666183
H  H169  1  0.23773000  0.19485000  0.11752000  1.0 0.0913595412
H  H170  1  0.43096000  0.24003000  0.36668000  1.0 0.1182666183
H  H171  1  0.48066000  0.20849000  0.35106000  1.0 0.0988583075
H  H172  1  0.61192000  0.47528000  0.46608000  1.0 0.0813384199
H  H173  1  0.54090000  0.46314000  0.46297000  1.0 0.1182666183
H  H174  1  0.56552000  0.30047000  0.35372000  1.0 0.0813384199
H  H175  1  0.20949000  0.15533000  0.24324000  1.0 0.1182666183
H  H176  1  0.21779000  0.11705000  0.20314000  1.0 0.0913595412
H  H177  1  0.45426000  0.61764000  0.90474000  1.0 0.0813384199
H  H178  1  0.59082000  0.76478000  0.94448000  1.0 0.0813384199
H  H179  1  0.84858000  0.83278000  0.60406000  1.0 0.0913595412
H  H180  1  0.83615000  0.97014000  0.62002000  1.0 0.0988583075
H  H181  1  0.89225000  0.00157000  0.67286000  1.0 0.0988583075
H  H182  1  0.15790000  0.56486000  0.78370000  1.0 0.0813384199
H  H183  1  0.83844000  0.03510000  0.55086000  1.0 0.0813384199
H  H184  1  0.24211000  0.59123000  0.87130000  1.0 0.0813384199
H  H185  1  0.23827000  0.67425000  0.89133000  1.0 0.1095820158
H  H186  1  0.90725000  0.72983000  0.65525000  1.0 0.0913595412
H  H187  1  0.04714000  0.61408000  0.73703000  1.0 0.0988583075
H  H188  1  0.02131000  0.79560000  0.77350000  1.0 0.1095820158
H  H189  1  0.98152000  0.71915000  0.74337000  1.0 0.1095820158
H  H190  1  0.63559000  0.88738000  0.95019000  1.0 0.0813384199
H  H191  1  0.88763000  0.14603000  0.54316000  1.0 0.0813384199
H  H192  1  0.90746000  0.87415000  0.52693000  1.0 0.1182666183
H  H193  1  0.84524000  0.89584000  0.53272000  1.0 0.1095820158
H  H194  1  0.46678000  0.78341000  0.97405000  1.0 0.1182666183
H  H195  1  0.51482000  0.71958000  0.97133000  1.0 0.0988583075
H  H196  1  0.34289000  0.56719000  0.86237000  1.0 0.0813384199
H  H197  1  0.98156000  0.62243000  0.64922000  1.0 0.0988583075
H  H198  1  0.02122000  0.64649000  0.62432000  1.0 0.1095820158
H  H199  1  0.52878000  0.66212000  0.87772000  1.0 0.0988583075
H  H200  1  0.49072000  0.69221000  0.82355000  1.0 0.1095820158
H  H201  1  0.02525000  0.10141000  0.52837000  1.0 0.1182666183
H  H202  1  0.97484000  0.17156000  0.52119000  1.0 0.0913595412
H  H203  1  0.13652000  0.33834000  0.61774000  1.0 0.0813384199
H  H204  1  0.97453000  0.24798000  0.65480000  1.0 0.1095820158
H  H205  1  0.94340000  0.26225000  0.59917000  1.0 0.0988583075
H  H206  1  0.62284000  0.09590000  0.90495000  1.0 0.0813384199
H  H207  1  0.02618000  0.28529000  0.57538000  1.0 0.0813384199
H  H208  1  0.26314000  0.59761000  0.73849000  1.0 0.1095820158
H  H209  1  0.25788000  0.54454000  0.77561000  1.0 0.0913595412
H  H210  1  0.60772000  0.93059000  0.83641000  1.0 0.1095820158
H  H211  1  0.65198000  0.96191000  0.89048000  1.0 0.0988583075
H  H212  1  0.31999000  0.35137000  0.70339000  1.0 0.0813384199
H  H213  1  0.42928000  0.31392000  0.76339000  1.0 0.0988583075
H  H214  1  0.51105000  0.21975000  0.76670000  1.0 0.1095820158
H  H215  1  0.48116000  0.14571000  0.73194000  1.0 0.1182666183
H  H216  1  0.24614000  0.21749000  0.60559000  1.0 0.1182666183
H  H217  1  0.23773000  0.30515000  0.61752000  1.0 0.0913595412
H  H218  1  0.43096000  0.25997000  0.86668000  1.0 0.1182666183
H  H219  1  0.48066000  0.29151000  0.85106000  1.0 0.0988583075
H  H220  1  0.61192000  0.02472000  0.96608000  1.0 0.0813384199
H  H221  1  0.54090000  0.03686000  0.96297000  1.0 0.1182666183
H  H222  1  0.56552000  0.19953000  0.85372000  1.0 0.0813384199
H  H223  1  0.20949000  0.34467000  0.74324000  1.0 0.1182666183
H  H224  1  0.21779000  0.38295000  0.70314000  1.0 0.0913595412
H  H225  1  0.54574000  0.11764000  0.59526000  1.0 0.0813384199
H  H226  1  0.40918000  0.26478000  0.55552000  1.0 0.0813384199
H  H227  1  0.15142000  0.33278000  0.89594000  1.0 0.0913595412
H  H228  1  0.16385000  0.47014000  0.87998000  1.0 0.0988583075
H  H229  1  0.10775000  0.50157000  0.82714000  1.0 0.0988583075
H  H230  1  0.84210000  0.06486000  0.71630000  1.0 0.0813384199
H  H231  1  0.16156000  0.53510000  0.94914000  1.0 0.0813384199
H  H232  1  0.75789000  0.09123000  0.62870000  1.0 0.0813384199
H  H233  1  0.76173000  0.17425000  0.60867000  1.0 0.1095820158
H  H234  1  0.09275000  0.22983000  0.84475000  1.0 0.0913595412
H  H235  1  0.95286000  0.11408000  0.76297000  1.0 0.0988583075
H  H236  1  0.97869000  0.29560000  0.72650000  1.0 0.1095820158
H  H237  1  0.01848000  0.21915000  0.75663000  1.0 0.1095820158
H  H238  1  0.36441000  0.38738000  0.54981000  1.0 0.0813384199
H  H239  1  0.11237000  0.64603000  0.95684000  1.0 0.0813384199
H  H240  1  0.09254000  0.37415000  0.97307000  1.0 0.1182666183
H  H241  1  0.15476000  0.39584000  0.96728000  1.0 0.1095820158
H  H242  1  0.53322000  0.28341000  0.52595000  1.0 0.1182666183
H  H243  1  0.48518000  0.21958000  0.52867000  1.0 0.0988583075
H  H244  1  0.65711000  0.06719000  0.63763000  1.0 0.0813384199
H  H245  1  0.01844000  0.12243000  0.85078000  1.0 0.0988583075
H  H246  1  0.97878000  0.14649000  0.87568000  1.0 0.1095820158
H  H247  1  0.47122000  0.16212000  0.62228000  1.0 0.0988583075
H  H248  1  0.50928000  0.19221000  0.67645000  1.0 0.1095820158
H  H249  1  0.97475000  0.60141000  0.97163000  1.0 0.1182666183
H  H250  1  0.02516000  0.67156000  0.97881000  1.0 0.0913595412
H  H251  1  0.86348000  0.83834000  0.88226000  1.0 0.0813384199
H  H252  1  0.02547000  0.74798000  0.84520000  1.0 0.1095820158
H  H253  1  0.05660000  0.76225000  0.90083000  1.0 0.0988583075
H  H254  1  0.37716000  0.59590000  0.59505000  1.0 0.0813384199
H  H255  1  0.97382000  0.78529000  0.92462000  1.0 0.0813384199
H  H256  1  0.73686000  0.09761000  0.76151000  1.0 0.1095820158
H  H257  1  0.74212000  0.04454000  0.72439000  1.0 0.0913595412
H  H258  1  0.39228000  0.43059000  0.66359000  1.0 0.1095820158
H  H259  1  0.34802000  0.46191000  0.60952000  1.0 0.0913595412
H  H260  1  0.68001000  0.85137000  0.79661000  1.0 0.0813384199
H  H261  1  0.57072000  0.81392000  0.73661000  1.0 0.0988583075
H  H262  1  0.48895000  0.71975000  0.73330000  1.0 0.1095820158
H  H263  1  0.51884000  0.64571000  0.76806000  1.0 0.1182666183
H  H264  1  0.75386000  0.71749000  0.89441000  1.0 0.1182666183
H  H265  1  0.76227000  0.80515000  0.88248000  1.0 0.0913595412
H  H266  1  0.56904000  0.75997000  0.63332000  1.0 0.1182666183
H  H267  1  0.51934000  0.79151000  0.64894000  1.0 0.0988583075
H  H268  1  0.38808000  0.52472000  0.53392000  1.0 0.0813384199
H  H269  1  0.45910000  0.53686000  0.53703000  1.0 0.1182666183
H  H270  1  0.43448000  0.69953000  0.64628000  1.0 0.0813384199
H  H271  1  0.79051000  0.84467000  0.75676000  1.0 0.1182666183
H  H272  1  0.78221000  0.88295000  0.79686000  1.0 0.0913595412
C  C1  1  0.79033000  0.47110000  0.94775000  1.0 -0.0720660958
C  C2  1  0.20967000  0.97110000  0.55225000  1.0 -0.0720660958
C  C3  1  0.20967000  0.52890000  0.05225000  1.0 -0.0720660958
C  C4  1  0.79033000  0.02890000  0.44775000  1.0 -0.0720660958
C  C5  1  0.69180000  0.78580000  0.54824000  1.0 0.5290629808
C  C6  1  0.30820000  0.28580000  0.95176000  1.0 0.5290629808
C  C7  1  0.30820000  0.21420000  0.45176000  1.0 0.5290629808
C  C8  1  0.69180000  0.71420000  0.04824000  1.0 0.5290629808
C  C9  1  0.78070000  0.38880000  0.71779000  1.0 0.1095820158
C  C10  1  0.21930000  0.88880000  0.78221000  1.0 0.1095820158
C  C11  1  0.21930000  0.61120000  0.28221000  1.0 0.1095820158
C  C12  1  0.78070000  0.11120000  0.21779000  1.0 0.1095820158
C  C13  1  0.70632000  0.47500000  0.97238000  1.0 0.5353838418
C  C14  1  0.29368000  0.97500000  0.52762000  1.0 0.5353838418
C  C15  1  0.29368000  0.52500000  0.02762000  1.0 0.5353838418
C  C16  1  0.70632000  0.02500000  0.47238000  1.0 0.5353838418
C  C17  1  0.74289000  0.43160000  0.95379000  1.0 -0.0396405345
C  C18  1  0.25711000  0.93160000  0.54621000  1.0 -0.0396405345
C  C19  1  0.25711000  0.56840000  0.04621000  1.0 -0.0396405345
C  C20  1  0.74289000  0.06840000  0.45379000  1.0 -0.0396405345
C  C21  1  0.80060000  0.36780000  0.76724000  1.0 0.1095820158
C  C22  1  0.19940000  0.86780000  0.73276000  1.0 0.1095820158
C  C23  1  0.19940000  0.63220000  0.23276000  1.0 0.1095820158
C  C24  1  0.80060000  0.13220000  0.26724000  1.0 0.1095820158
C  C25  1  0.70140000  0.69920000  0.55588000  1.0 -0.0344332765
C  C26  1  0.29860000  0.19920000  0.94412000  1.0 -0.0396405345
C  C27  1  0.29860000  0.30080000  0.44412000  1.0 -0.0396405345
C  C28  1  0.70140000  0.80080000  0.05588000  1.0 -0.0344332765
C  C29  1  0.65230000  0.65610000  0.55872000  1.0 -0.0720660958
C  C30  1  0.34770000  0.15610000  0.94128000  1.0 -0.0720660958
C  C31  1  0.34770000  0.34390000  0.44128000  1.0 -0.0720660958
C  C32  1  0.65230000  0.84390000  0.05872000  1.0 -0.0720660958
C  C33  1  0.82760000  0.42950000  0.93331000  1.0 -0.1425241876
C  C34  1  0.17240000  0.92950000  0.56669000  1.0 -0.1425241876
C  C35  1  0.17240000  0.57050000  0.06669000  1.0 -0.1425241876
C  C36  1  0.82760000  0.07050000  0.43331000  1.0 -0.1425241876
C  C37  1  0.82940000  0.41320000  0.70860000  1.0 -0.1721513655
C  C38  1  0.17060000  0.91320000  0.79140000  1.0 -0.1721513655
C  C39  1  0.17060000  0.58680000  0.29140000  1.0 -0.1721513655
C  C40  1  0.82940000  0.08680000  0.20860000  1.0 -0.1721513655
C  C41  1  0.65840000  0.57570000  0.56398000  1.0 -0.1338130172
C  C42  1  0.34160000  0.07570000  0.93602000  1.0 -0.1338130172
C  C43  1  0.34160000  0.42430000  0.43602000  1.0 -0.1338130172
C  C44  1  0.65840000  0.92430000  0.06398000  1.0 -0.1338130172
C  C45  1  0.86390000  0.39400000  0.80825000  1.0 -0.1800923738
C  C46  1  0.13610000  0.89400000  0.69175000  1.0 -0.1800923738
C  C47  1  0.13610000  0.60600000  0.19175000  1.0 -0.1800923738
C  C48  1  0.86390000  0.10600000  0.30825000  1.0 -0.1800923738
C  C49  1  0.81800000  0.35010000  0.92429000  1.0 0.0988583075
C  C50  1  0.18200000  0.85010000  0.57571000  1.0 0.0988583075
C  C51  1  0.18200000  0.64990000  0.07571000  1.0 0.0988583075
C  C52  1  0.81800000  0.14990000  0.42429000  1.0 0.0988583075
C  C53  1  0.69420000  0.40510000  0.63357000  1.0 0.035401812
C  C54  1  0.30580000  0.90510000  0.86643000  1.0 0.035401812
C  C55  1  0.30580000  0.59490000  0.36643000  1.0 0.035401812
C  C56  1  0.69420000  0.09490000  0.13357000  1.0 0.035401812
C  C57  1  0.71130000  0.38480000  0.67850000  1.0 -0.1891104664
C  C58  1  0.28870000  0.88480000  0.82150000  1.0 -0.1891104664
C  C59  1  0.28870000  0.61520000  0.32150000  1.0 -0.1891104664
C  C60  1  0.71130000  0.11520000  0.17850000  1.0 -0.1891104664
C  C61  1  0.88170000  0.37390000  0.85351000  1.0 0.0298677111
C  C62  1  0.11830000  0.87390000  0.64649000  1.0 0.0298677111
C  C63  1  0.11830000  0.62610000  0.14649000  1.0 0.0298677111
C  C64  1  0.88170000  0.12610000  0.35351000  1.0 0.0298677111
C  C65  1  0.75790000  0.32320000  0.77500000  1.0 -0.1800923738
C  C66  1  0.24210000  0.82320000  0.72500000  1.0 -0.1800923738
C  C67  1  0.24210000  0.67680000  0.22500000  1.0 -0.1800923738
C  C68  1  0.75790000  0.17680000  0.27500000  1.0 -0.1800923738
C  C69  1  0.71430000  0.53730000  0.56848000  1.0 0.0988583075
C  C70  1  0.28570000  0.03730000  0.93152000  1.0 0.0988583075
C  C71  1  0.28570000  0.46270000  0.43152000  1.0 0.0988583075
C  C72  1  0.71430000  0.96270000  0.06848000  1.0 0.0988583075
C  C73  1  0.73290000  0.35210000  0.94520000  1.0 -0.0977812848
C  C74  1  0.26710000  0.85210000  0.55480000  1.0 -0.0977812848
C  C75  1  0.26710000  0.64790000  0.05480000  1.0 -0.0977812848
C  C76  1  0.73290000  0.14790000  0.44520000  1.0 -0.0977812848
C  C77  1  0.77070000  0.31160000  0.93030000  1.0 -0.1800923738
C  C78  1  0.22930000  0.81160000  0.56970000  1.0 -0.1800923738
C  C79  1  0.22930000  0.68840000  0.06970000  1.0 -0.1800923738
C  C80  1  0.77070000  0.18840000  0.43030000  1.0 -0.1800923738
C  C81  1  0.50280000  0.03790000  0.48920000  1.0 0.4726552878
C  C82  1  0.49720000  0.53790000  0.01080000  1.0 0.4726552878
C  C83  1  0.49720000  0.96210000  0.51080000  1.0 0.4726552878
C  C84  1  0.50280000  0.46210000  0.98920000  1.0 0.4726552878
C  C85  1  0.77830000  0.30380000  0.82128000  1.0 0.0555246201
C  C86  1  0.22170000  0.80380000  0.67872000  1.0 0.0555246201
C  C87  1  0.22170000  0.69620000  0.17872000  1.0 0.0555246201
C  C88  1  0.77830000  0.19620000  0.32128000  1.0 0.0555246201
C  C89  1  0.85980000  0.30490000  0.90904000  1.0 -0.1800923738
C  C90  1  0.14020000  0.80490000  0.59096000  1.0 -0.1800923738
C  C91  1  0.14020000  0.69510000  0.09096000  1.0 -0.1800923738
C  C92  1  0.85980000  0.19510000  0.40904000  1.0 -0.1800923738
C  C93  1  0.80930000  0.43200000  0.66241000  1.0 0.0475356419
C  C94  1  0.19070000  0.93200000  0.83759000  1.0 0.0475356419
C  C95  1  0.19070000  0.56800000  0.33759000  1.0 0.0475356419
C  C96  1  0.80930000  0.06800000  0.16241000  1.0 0.0475356419
C  C97  1  0.75750000  0.66150000  0.55949000  1.0 -0.1115361369
C  C98  1  0.24250000  0.16150000  0.94051000  1.0 -0.1115361369
C  C99  1  0.24250000  0.33850000  0.44051000  1.0 -0.1115361369
C  C100  1  0.75750000  0.83850000  0.05949000  1.0 -0.1115361369
C  C101  1  0.72130000  0.44910000  0.57561000  1.0 -0.1891104664
C  C102  1  0.27870000  0.94910000  0.92439000  1.0 -0.1891104664
C  C103  1  0.27870000  0.55090000  0.42439000  1.0 -0.1891104664
C  C104  1  0.72130000  0.05090000  0.07561000  1.0 -0.1891104664
C  C105  1  0.76500000  0.58090000  0.56688000  1.0 -0.1800923738
C  C106  1  0.23500000  0.08090000  0.93312000  1.0 -0.1800923738
C  C107  1  0.23500000  0.41910000  0.43312000  1.0 -0.1800923738
C  C108  1  0.76500000  0.91910000  0.06688000  1.0 -0.1800923738
C  C109  1  0.58110000  0.34180000  0.11570000  1.0 0.1095820158
C  C110  1  0.02710000  0.99640000  0.44387000  1.0 0.5290629808
C  C111  1  0.44610000  0.19760000  0.07807000  1.0 0.0988583075
C  C112  1  0.09986000  0.16000000  0.37752000  1.0 0.0988583075
C  C113  1  0.03014000  0.11730000  0.29699000  1.0 0.5106947663
C  C114  1  0.11360000  0.02050000  0.35647000  1.0 0.0208249905
C  C115  1  0.03289000  0.21980000  0.40250000  1.0 0.5106947663
C  C116  1  0.84240000  0.37860000  0.22342000  1.0 0.1095820158
C  C117  1  0.10980000  0.96460000  0.42616000  1.0 0.1095820158
C  C118  1  0.75740000  0.35190000  0.13323000  1.0 0.0208249905
C  C119  1  0.85820000  0.35040000  0.29794000  1.0 0.5106947663
C  C120  1  0.06010000  0.23130000  0.34414000  1.0 0.0988583075
C  C121  1  0.64680000  0.27780000  0.09088000  1.0 0.5190795495
C  C122  1  0.91720000  0.34810000  0.25912000  1.0 0.1095820158
C  C123  1  0.98540000  0.23970000  0.25215000  1.0 0.035401812
C  C124  1  0.41490000  0.11580000  0.07609000  1.0 0.1095820158
C  C125  1  0.86380000  0.27390000  0.18842000  1.0 0.5190795495
C  C126  1  0.49960000  0.10250000  0.05786000  1.0 0.5290629808
C  C127  1  0.07690000  0.88820000  0.43025000  1.0 0.0988583075
C  C128  1  0.10350000  0.10520000  0.45040000  1.0 0.0298677111
C  C129  1  0.05440000  0.89680000  0.35219000  1.0 0.5290629808
C  C130  1  0.52190000  0.24110000  0.04756000  1.0 0.0298677111
C  C131  1  0.65700000  0.37590000  0.14390000  1.0 0.1095820158
C  C132  1  0.98740000  0.33800000  0.35094000  1.0 0.0208249905
C  C133  1  0.46210000  0.17190000  0.15284000  1.0 0.5290629808
C  C134  1  0.50530000  0.29970000  0.14572000  1.0 0.035401812
C  C135  1  0.99070000  0.86610000  0.45512000  1.0 0.0298677111
C  C136  1  0.86400000  0.71450000  0.36988000  1.0 0.0913595412
C  C137  1  0.63060000  0.33020000  0.19865000  1.0 0.5032022287
C  C138  1  0.02370000  0.77000000  0.37262000  1.0 0.0298677111
C  C139  1  0.47190000  0.95010000  0.20010000  1.0 0.5106947663
C  C140  1  0.42720000  0.91620000  0.11955000  1.0 0.0988583075
C  C141  1  0.90020000  0.73180000  0.31716000  1.0 0.5106947663
C  C142  1  0.93950000  0.74980000  0.39804000  1.0 0.0988583075
C  C143  1  0.64480000  0.80910000  0.31150000  1.0 0.5190795495
C  C144  1  0.86610000  0.82920000  0.40813000  1.0 0.5106947663
C  C145  1  0.74180000  0.40100000  0.23400000  1.0 0.0298677111
C  C146  1  0.39580000  0.04910000  0.13730000  1.0 0.0208249905
C  C147  1  0.67970000  0.70310000  0.28592000  1.0 0.0913595412
C  C148  1  0.60550000  0.72820000  0.24490000  1.0 0.0988583075
C  C149  1  0.51460000  0.87400000  0.10833000  1.0 0.5106947663
C  C150  1  0.52070000  0.82540000  0.24320000  1.0 0.0208249905
C  C151  1  0.75950000  0.74970000  0.37248000  1.0 0.0208249905
C  C152  1  0.55290000  0.75000000  0.15480000  1.0 0.0116705314
C  C153  1  0.43920000  0.98090000  0.05515000  1.0 0.0208249905
C  C154  1  0.46690000  0.84480000  0.15330000  1.0 0.0913595412
C  C155  1  0.67880000  0.73030000  0.21630000  1.0 0.5032022287
C  C156  1  0.78480000  0.66720000  0.28330000  1.0 0.0116705314
C  C157  1  0.41890000  0.84180000  0.38430000  1.0 0.1095820158
C  C158  1  0.97290000  0.49640000  0.05613000  1.0 0.5290629808
C  C159  1  0.55390000  0.69760000  0.42193000  1.0 0.1095820158
C  C160  1  0.90014000  0.66000000  0.12248000  1.0 0.0988583075
C  C161  1  0.96986000  0.61730000  0.20301000  1.0 0.5106947663
C  C162  1  0.88640000  0.52050000  0.14353000  1.0 0.0208249905
C  C163  1  0.96711000  0.71980000  0.09750000  1.0 0.5106947663
C  C164  1  0.15760000  0.87860000  0.27658000  1.0 0.1095820158
C  C165  1  0.89020000  0.46460000  0.07384000  1.0 0.1095820158
C  C166  1  0.24260000  0.85190000  0.36677000  1.0 0.0208249905
C  C167  1  0.14180000  0.85040000  0.20206000  1.0 0.5106947663
C  C168  1  0.93990000  0.73130000  0.15586000  1.0 0.0988583075
C  C169  1  0.35320000  0.77780000  0.40912000  1.0 0.5190795495
C  C170  1  0.08280000  0.84810000  0.24088000  1.0 0.1095820158
C  C171  1  0.01460000  0.73970000  0.24785000  1.0 0.035401812
C  C172  1  0.58510000  0.61580000  0.42391000  1.0 0.1095820158
C  C173  1  0.13620000  0.77390000  0.31158000  1.0 0.5190795495
C  C174  1  0.50040000  0.60250000  0.44214000  1.0 0.5290629808
C  C175  1  0.92310000  0.38820000  0.06975000  1.0 0.0988583075
C  C176  1  0.89650000  0.60520000  0.04960000  1.0 0.0298677111
C  C177  1  0.94560000  0.39680000  0.14781000  1.0 0.5290629808
C  C178  1  0.47810000  0.74110000  0.45244000  1.0 0.0298677111
C  C179  1  0.34300000  0.87590000  0.35610000  1.0 0.1095820158
C  C180  1  0.01260000  0.83800000  0.14906000  1.0 0.0208249905
C  C181  1  0.53790000  0.67190000  0.34716000  1.0 0.5290629808
C  C182  1  0.49470000  0.79970000  0.35428000  1.0 0.035401812
C  C183  1  0.00930000  0.36610000  0.04488000  1.0 0.0298677111
C  C184  1  0.13600000  0.21450000  0.13012000  1.0 0.0913595412
C  C185  1  0.36940000  0.83020000  0.30135000  1.0 0.5032022287
C  C186  1  0.97630000  0.27000000  0.12738000  1.0 0.0298677111
C  C187  1  0.52810000  0.45010000  0.29990000  1.0 0.5106947663
C  C188  1  0.57280000  0.41620000  0.38045000  1.0 0.0988583075
C  C189  1  0.09980000  0.23180000  0.18284000  1.0 0.5106947663
C  C190  1  0.06050000  0.24980000  0.10196000  1.0 0.0988583075
C  C191  1  0.35520000  0.30910000  0.18850000  1.0 0.5190795495
C  C192  1  0.13390000  0.32920000  0.09187000  1.0 0.5106947663
C  C193  1  0.25820000  0.90100000  0.26600000  1.0 0.0298677111
C  C194  1  0.60420000  0.54910000  0.36270000  1.0 0.0208249905
C  C195  1  0.32030000  0.20310000  0.21408000  1.0 0.0913595412
C  C196  1  0.39450000  0.22820000  0.25510000  1.0 0.0988583075
C  C197  1  0.48540000  0.37400000  0.39167000  1.0 0.5106947663
C  C198  1  0.47930000  0.32540000  0.25680000  1.0 0.0208249905
C  C199  1  0.24050000  0.24970000  0.12752000  1.0 0.0208249905
C  C200  1  0.44710000  0.25000000  0.34520000  1.0 0.0116705314
C  C201  1  0.56080000  0.48090000  0.44485000  1.0 0.0208249905
C  C202  1  0.53310000  0.34480000  0.34670000  1.0 0.0913595412
C  C203  1  0.32120000  0.23030000  0.28370000  1.0 0.5032022287
C  C204  1  0.21520000  0.16720000  0.21670000  1.0 0.0116705314
C  C205  1  0.41890000  0.65820000  0.88430000  1.0 0.1095820158
C  C206  1  0.97290000  0.00360000  0.55613000  1.0 0.5290629808
C  C207  1  0.55390000  0.80240000  0.92193000  1.0 0.0988583075
C  C208  1  0.90014000  0.84000000  0.62248000  1.0 0.0988583075
C  C209  1  0.96986000  0.88270000  0.70301000  1.0 0.5106947663
C  C210  1  0.88640000  0.97950000  0.64353000  1.0 0.0208249905
C  C211  1  0.96711000  0.78020000  0.59750000  1.0 0.5106947663
C  C212  1  0.15760000  0.62140000  0.77658000  1.0 0.1095820158
C  C213  1  0.89020000  0.03540000  0.57384000  1.0 0.1095820158
C  C214  1  0.24260000  0.64810000  0.86677000  1.0 0.0208249905
C  C215  1  0.14180000  0.64960000  0.70206000  1.0 0.5106947663
C  C216  1  0.93990000  0.76870000  0.65586000  1.0 0.0988583075
C  C217  1  0.35320000  0.72220000  0.90912000  1.0 0.5190795495
C  C218  1  0.08280000  0.65190000  0.74088000  1.0 0.1095820158
C  C219  1  0.01460000  0.76030000  0.74785000  1.0 0.035401812
C  C220  1  0.58510000  0.88420000  0.92391000  1.0 0.1095820158
C  C221  1  0.13620000  0.72610000  0.81158000  1.0 0.5190795495
C  C222  1  0.50040000  0.89750000  0.94214000  1.0 0.5290629808
C  C223  1  0.92310000  0.11180000  0.56975000  1.0 0.0988583075
C  C224  1  0.89650000  0.89480000  0.54960000  1.0 0.0298677111
C  C225  1  0.94560000  0.10320000  0.64781000  1.0 0.5290629808
C  C226  1  0.47810000  0.75890000  0.95244000  1.0 0.0298677111
C  C227  1  0.34300000  0.62410000  0.85610000  1.0 0.1095820158
C  C228  1  0.01260000  0.66200000  0.64906000  1.0 0.0208249905
C  C229  1  0.53790000  0.82810000  0.84716000  1.0 0.5290629808
C  C230  1  0.49470000  0.70030000  0.85428000  1.0 0.035401812
C  C231  1  0.00930000  0.13390000  0.54488000  1.0 0.0298677111
C  C232  1  0.13600000  0.28550000  0.63012000  1.0 0.0913595412
C  C233  1  0.36940000  0.66980000  0.80135000  1.0 0.5032022287
C  C234  1  0.97630000  0.23000000  0.62738000  1.0 0.0298677111
C  C235  1  0.52810000  0.04990000  0.79990000  1.0 0.5106947663
C  C236  1  0.57280000  0.08380000  0.88045000  1.0 0.0988583075
C  C237  1  0.09980000  0.26820000  0.68284000  1.0 0.5106947663
C  C238  1  0.06050000  0.25020000  0.60196000  1.0 0.0988583075
C  C239  1  0.35520000  0.19090000  0.68850000  1.0 0.5190795495
C  C240  1  0.13390000  0.17080000  0.59187000  1.0 0.5106947663
C  C241  1  0.25820000  0.59900000  0.76600000  1.0 0.0298677111
C  C242  1  0.60420000  0.95090000  0.86270000  1.0 0.0208249905
C  C243  1  0.32030000  0.29690000  0.71408000  1.0 0.0913595412
C  C244  1  0.39450000  0.27180000  0.75510000  1.0 0.0988583075
C  C245  1  0.48540000  0.12600000  0.89167000  1.0 0.5190795495
C  C246  1  0.47930000  0.17460000  0.75680000  1.0 0.0208249905
C  C247  1  0.24050000  0.25030000  0.62752000  1.0 0.0208249905
C  C248  1  0.44710000  0.25000000  0.84520000  1.0 0.0116705314
C  C249  1  0.56080000  0.01910000  0.94485000  1.0 0.0208249905
C  C250  1  0.53310000  0.15520000  0.84670000  1.0 0.0913595412
C  C251  1  0.32120000  0.26970000  0.78370000  1.0 0.5032022287
C  C252  1  0.21520000  0.33280000  0.71670000  1.0 0.0116705314
C  C253  1  0.58110000  0.15820000  0.61570000  1.0 0.1095820158
C  C254  1  0.02710000  0.50360000  0.94387000  1.0 0.5290629808
C  C255  1  0.44610000  0.30240000  0.57807000  1.0 0.0988583075
C  C256  1  0.09986000  0.34000000  0.87752000  1.0 0.0988583075
C  C257  1  0.03014000  0.38270000  0.79699000  1.0 0.5106947663
C  C258  1  0.11360000  0.47950000  0.85647000  1.0 0.0208249905
C  C259  1  0.03289000  0.28020000  0.90250000  1.0 0.5106947663
C  C260  1  0.84240000  0.12140000  0.72342000  1.0 0.1095820158
C  C261  1  0.10980000  0.53540000  0.92616000  1.0 0.1095820158
C  C262  1  0.75740000  0.14810000  0.63323000  1.0 0.0208249905
C  C263  1  0.85820000  0.14960000  0.79794000  1.0 0.5106947663
C  C264  1  0.06010000  0.26870000  0.84414000  1.0 0.0988583075
C  C265  1  0.64680000  0.22220000  0.59088000  1.0 0.5190795495
C  C266  1  0.91720000  0.15190000  0.75912000  1.0 0.1095820158
C  C267  1  0.98540000  0.26030000  0.75215000  1.0 0.035401812
C  C268  1  0.41490000  0.38420000  0.57609000  1.0 0.1095820158
C  C269  1  0.86380000  0.22610000  0.68842000  1.0 0.5190795495
C  C270  1  0.49960000  0.39750000  0.55786000  1.0 0.5290629808
C  C271  1  0.07690000  0.61180000  0.93025000  1.0 0.0988583075
C  C272  1  0.10350000  0.39480000  0.95040000  1.0 0.0298677111
C  C273  1  0.05440000  0.60320000  0.85219000  1.0 0.5290629808
C  C274  1  0.52190000  0.25890000  0.54756000  1.0 0.0298677111
C  C275  1  0.65700000  0.12410000  0.64390000  1.0 0.1095820158
C  C276  1  0.98740000  0.16200000  0.85094000  1.0 0.0208249905
C  C277  1  0.46210000  0.32810000  0.65284000  1.0 0.5290629808
C  C278  1  0.50530000  0.20030000  0.64572000  1.0 0.035401812
C  C279  1  0.99070000  0.63390000  0.95512000  1.0 0.0298677111
C  C280  1  0.86400000  0.78550000  0.86988000  1.0 0.0913595412
C  C281  1  0.63060000  0.16980000  0.69865000  1.0 0.5032022287
C  C282  1  0.02370000  0.73000000  0.87262000  1.0 0.0298677111
C  C283  1  0.47190000  0.54990000  0.70010000  1.0 0.5106947663
C  C284  1  0.42720000  0.58380000  0.61955000  1.0 0.0988583075
C  C285  1  0.90020000  0.76820000  0.81716000  1.0 0.5106947663
C  C286  1  0.93950000  0.75020000  0.89804000  1.0 0.0988583075
C  C287  1  0.64480000  0.69090000  0.81150000  1.0 0.5190795495
C  C288  1  0.86610000  0.67080000  0.90813000  1.0 0.5106947663
C  C289  1  0.74180000  0.09900000  0.73400000  1.0 0.0298677111
C  C290  1  0.39580000  0.45090000  0.63730000  1.0 0.0208249905
C  C291  1  0.67970000  0.79690000  0.78592000  1.0 0.0913595412
C  C292  1  0.60550000  0.77180000  0.74490000  1.0 0.0988583075
C  C293  1  0.51460000  0.62600000  0.60833000  1.0 0.5106947663
C  C294  1  0.52070000  0.67460000  0.74320000  1.0 0.0208249905
C  C295  1  0.75950000  0.75030000  0.87248000  1.0 0.0208249905
C  C296  1  0.55290000  0.75000000  0.65480000  1.0 0.0116705314
C  C297  1  0.43920000  0.51910000  0.55515000  1.0 0.0208249905
C  C298  1  0.46690000  0.65520000  0.65330000  1.0 0.0913595412
C  C299  1  0.67880000  0.76970000  0.71630000  1.0 0.5032022287
C  C300  1  0.78480000  0.83280000  0.78330000  1.0 0.0116705314
N  N1  1  0.83923000  0.32870000  0.85956000  1.0 0.1182666183
N  N2  1  0.16077000  0.82870000  0.64044000  1.0 0.1182666183
N  N3  1  0.16077000  0.67130000  0.14044000  1.0 0.1182666183
N  N4  1  0.83923000  0.17130000  0.35956000  1.0 0.1182666183
N  N5  1  0.74230000  0.42776000  0.62572000  1.0 0.1182666183
N  N6  1  0.25770000  0.92776000  0.87428000  1.0 0.1182666183
N  N7  1  0.25770000  0.57224000  0.37428000  1.0 0.1182666183
N  N8  1  0.74230000  0.07224000  0.12572000  1.0 0.1182666183
N  N9  1  0.07706000  0.09472000  0.34443000  1.0 -0.2404420553
N  N10  1  0.07487000  0.15784000  0.40945000  1.0 -0.2580303753
N  N11  1  0.81731000  0.33100000  0.18105000  1.0 -0.2504067191
N  N12  1  0.01563000  0.19555000  0.29679000  1.0 -0.2580303753
N  N13  1  0.69117000  0.33040000  0.12582000  1.0 -0.2703052769
N  N14  1  0.58363000  0.28020000  0.08641000  1.0 -0.2703052769
N  N15  1  0.91873000  0.27558000  0.23677000  1.0 -0.2703052769
N  N16  1  0.57253000  0.31430000  0.15310000  1.0 -0.2580303753
N  N17  1  0.02271000  0.26322000  0.36416000  1.0 -0.2580303753
N  N18  1  0.92109000  0.33810000  0.30387000  1.0 -0.2404420553
N  N19  1  0.08945000  0.96371000  0.37648000  1.0 -0.2404420553
N  N20  1  0.49460000  0.18134000  0.06419000  1.0 -0.2580303753
N  N21  1  0.42660000  0.10910000  0.12367000  1.0 -0.2580303753
N  N22  1  0.07711000  0.02514000  0.43744000  1.0 -0.2504067191
N  N23  1  0.80877000  0.36420000  0.24945000  1.0 -0.280815729
N  N24  1  0.04657000  0.85181000  0.38304000  1.0 -0.2404420553
N  N25  1  0.93159000  0.82342000  0.41643000  1.0 -0.2404420553
N  N26  1  0.95441000  0.75840000  0.36132000  1.0 -0.2290651183
N  N27  1  0.02438000  0.91565000  0.43874000  1.0 -0.2703052769
N  N28  1  0.45670000  0.06340000  0.06778000  1.0 -0.2504067191
N  N29  1  0.47920000  0.22140000  0.12832000  1.0 -0.2580303753
N  N30  1  0.43520000  0.97630000  0.15313000  1.0 -0.2404420553
N  N31  1  0.46570000  0.93090000  0.09755000  1.0 -0.2404420553
N  N32  1  0.68221000  0.36060000  0.19406000  1.0 -0.2504067191
N  N33  1  0.59190000  0.79700000  0.26419000  1.0 -0.2290651183
N  N34  1  0.61280000  0.74490000  0.20483000  1.0 -0.2222390349
N  N35  1  0.82440000  0.77020000  0.37807000  1.0 -0.2077629241
N  N36  1  0.84630000  0.71070000  0.32093000  1.0 -0.2222390349
N  N37  1  0.69810000  0.75880000  0.32389000  1.0 -0.2404420553
N  N38  1  0.49600000  0.87620000  0.20163000  1.0 -0.2404420553
N  N39  1  0.71980000  0.70910000  0.26407000  1.0 -0.2222390349
N  N40  1  0.51720000  0.82480000  0.14210000  1.0 -0.2222390349
N  N41  1  0.92294000  0.59472000  0.15557000  1.0 -0.2404420553
N  N42  1  0.92513000  0.65784000  0.09055000  1.0 -0.2580303753
N  N43  1  0.18269000  0.83100000  0.31895000  1.0 -0.2504067191
N  N44  1  0.98437000  0.69555000  0.20321000  1.0 -0.2580303753
N  N45  1  0.30883000  0.83040000  0.37418000  1.0 -0.2703052769
N  N46  1  0.41637000  0.78020000  0.41359000  1.0 -0.2703052769
N  N47  1  0.08127000  0.77558000  0.26323000  1.0 -0.280815729
N  N48  1  0.42747000  0.81430000  0.34690000  1.0 -0.2580303753
N  N49  1  0.97729000  0.76322000  0.13584000  1.0 -0.2580303753
N  N50  1  0.07891000  0.83810000  0.19613000  1.0 -0.2404420553
N  N51  1  0.91055000  0.46371000  0.12352000  1.0 -0.2404420553
N  N52  1  0.50540000  0.68134000  0.43581000  1.0 -0.2580303753
N  N53  1  0.57340000  0.60910000  0.37633000  1.0 -0.2580303753
N  N54  1  0.92289000  0.52514000  0.06256000  1.0 -0.2504067191
N  N55  1  0.19123000  0.86420000  0.25055000  1.0 -0.280815729
N  N56  1  0.95343000  0.35181000  0.11696000  1.0 -0.2290651183
N  N57  1  0.06841000  0.32342000  0.08357000  1.0 -0.2404420553
N  N58  1  0.04559000  0.25840000  0.13868000  1.0 -0.2290651183
N  N59  1  0.97562000  0.41565000  0.06126000  1.0 -0.2580303753
N  N60  1  0.54330000  0.56340000  0.43222000  1.0 -0.2504067191
N  N61  1  0.52080000  0.72140000  0.37168000  1.0 -0.2580303753
N  N62  1  0.56480000  0.47630000  0.34687000  1.0 -0.2404420553
N  N63  1  0.53430000  0.43090000  0.40245000  1.0 -0.2404420553
N  N64  1  0.31779000  0.86060000  0.30594000  1.0 -0.2504067191
N  N65  1  0.40810000  0.29700000  0.23581000  1.0 -0.2290651183
N  N66  1  0.38720000  0.24490000  0.29517000  1.0 -0.2222390349
N  N67  1  0.17560000  0.27020000  0.12193000  1.0 -0.2077629241
N  N68  1  0.15370000  0.21070000  0.17907000  1.0 -0.2290651183
N  N69  1  0.30190000  0.25880000  0.17611000  1.0 -0.2404420553
N  N70  1  0.50400000  0.37620000  0.29837000  1.0 -0.2404420553
N  N71  1  0.28020000  0.20910000  0.23593000  1.0 -0.2222390349
N  N72  1  0.48280000  0.32480000  0.35790000  1.0 -0.2222390349
N  N73  1  0.92294000  0.90528000  0.65557000  1.0 -0.2404420553
N  N74  1  0.92513000  0.84216000  0.59055000  1.0 -0.2580303753
N  N75  1  0.18269000  0.66900000  0.81895000  1.0 -0.2504067191
N  N76  1  0.98437000  0.80445000  0.70321000  1.0 -0.2580303753
N  N77  1  0.30883000  0.66960000  0.87418000  1.0 -0.2703052769
N  N78  1  0.41637000  0.71980000  0.91359000  1.0 -0.2703052769
N  N79  1  0.08127000  0.72442000  0.76323000  1.0 -0.2703052769
N  N80  1  0.42747000  0.68570000  0.84690000  1.0 -0.2580303753
N  N81  1  0.97729000  0.73678000  0.63584000  1.0 -0.2580303753
N  N82  1  0.07891000  0.66190000  0.69613000  1.0 -0.2404420553
N  N83  1  0.91055000  0.03629000  0.62352000  1.0 -0.2504067191
N  N84  1  0.50540000  0.81866000  0.93581000  1.0 -0.2580303753
N  N85  1  0.57340000  0.89090000  0.87633000  1.0 -0.2504067191
N  N86  1  0.92289000  0.97486000  0.56256000  1.0 -0.2504067191
N  N87  1  0.19123000  0.63580000  0.75055000  1.0 -0.280815729
N  N88  1  0.95343000  0.14819000  0.61696000  1.0 -0.2404420553
N  N89  1  0.06841000  0.17658000  0.58357000  1.0 -0.2404420553
N  N90  1  0.04559000  0.24160000  0.63868000  1.0 -0.2290651183
N  N91  1  0.97562000  0.08435000  0.56126000  1.0 -0.2580303753
N  N92  1  0.54330000  0.93660000  0.93222000  1.0 -0.2504067191
N  N93  1  0.52080000  0.77860000  0.87168000  1.0 -0.2580303753
N  N94  1  0.56480000  0.02370000  0.84687000  1.0 -0.2404420553
N  N95  1  0.53430000  0.06910000  0.90245000  1.0 -0.2404420553
N  N96  1  0.31779000  0.63940000  0.80594000  1.0 -0.2504067191
N  N97  1  0.40810000  0.20300000  0.73581000  1.0 -0.2290651183
N  N98  1  0.38720000  0.25510000  0.79517000  1.0 -0.2222390349
N  N99  1  0.17560000  0.22980000  0.62193000  1.0 -0.2077629241
N  N100  1  0.15370000  0.28930000  0.67907000  1.0 -0.2222390349
N  N101  1  0.30190000  0.24120000  0.67611000  1.0 -0.2404420553
N  N102  1  0.50400000  0.12380000  0.79837000  1.0 -0.2404420553
N  N103  1  0.28020000  0.29090000  0.73593000  1.0 -0.2222390349
N  N104  1  0.48280000  0.17520000  0.85790000  1.0 -0.2222390349
N  N105  1  0.07706000  0.40528000  0.84443000  1.0 -0.2404420553
N  N106  1  0.07487000  0.34216000  0.90945000  1.0 -0.2580303753
N  N107  1  0.81731000  0.16900000  0.68105000  1.0 -0.2504067191
N  N108  1  0.01563000  0.30445000  0.79679000  1.0 -0.2580303753
N  N109  1  0.69117000  0.16960000  0.62582000  1.0 -0.2703052769
N  N110  1  0.58363000  0.21980000  0.58641000  1.0 -0.2703052769
N  N111  1  0.91873000  0.22442000  0.73677000  1.0 -0.280815729
N  N112  1  0.57253000  0.18570000  0.65310000  1.0 -0.2580303753
N  N113  1  0.02271000  0.23678000  0.86416000  1.0 -0.2580303753
N  N114  1  0.92109000  0.16190000  0.80387000  1.0 -0.2404420553
N  N115  1  0.08945000  0.53629000  0.87648000  1.0 -0.2404420553
N  N116  1  0.49460000  0.31866000  0.56419000  1.0 -0.2580303753
N  N117  1  0.42660000  0.39090000  0.62367000  1.0 -0.2504067191
N  N118  1  0.07711000  0.47486000  0.93744000  1.0 -0.2580303753
N  N119  1  0.80877000  0.13580000  0.74945000  1.0 -0.280815729
N  N120  1  0.04657000  0.64819000  0.88304000  1.0 -0.2404420553
N  N121  1  0.93159000  0.67658000  0.91643000  1.0 -0.2404420553
N  N122  1  0.95441000  0.74160000  0.86132000  1.0 -0.2290651183
N  N123  1  0.02438000  0.58435000  0.93874000  1.0 -0.2703052769
N  N124  1  0.45670000  0.43660000  0.56778000  1.0 -0.2504067191
N  N125  1  0.47920000  0.27860000  0.62832000  1.0 -0.2580303753
N  N126  1  0.43520000  0.52370000  0.65313000  1.0 -0.2404420553
N  N127  1  0.46570000  0.56910000  0.59755000  1.0 -0.2404420553
N  N128  1  0.68221000  0.13940000  0.69406000  1.0 -0.2504067191
N  N129  1  0.59190000  0.70300000  0.76419000  1.0 -0.2290651183
N  N130  1  0.61280000  0.75510000  0.70483000  1.0 -0.2222390349
N  N131  1  0.82440000  0.72980000  0.87807000  1.0 -0.2077629241
N  N132  1  0.84630000  0.78930000  0.82093000  1.0 -0.2222390349
N  N133  1  0.69810000  0.74120000  0.82389000  1.0 -0.2404420553
N  N134  1  0.49600000  0.62380000  0.70163000  1.0 -0.2404420553
N  N135  1  0.71980000  0.79090000  0.76407000  1.0 -0.2222390349
N  N136  1  0.51720000  0.67520000  0.64210000  1.0 -0.2222390349
O  O1  1  0.72619000  0.54370000  0.98973000  1.0 -0.5877191786
O  O2  1  0.27381000  0.04370000  0.51027000  1.0 -0.5877191786
O  O3  1  0.27381000  0.45630000  0.01027000  1.0 -0.5877191786
O  O4  1  0.72619000  0.95630000  0.48973000  1.0 -0.5877191786
O  O5  1  0.72545000  0.82685000  0.53588000  1.0 -0.5845352943
O  O6  1  0.27455000  0.32685000  0.96412000  1.0 -0.5877191786
O  O7  1  0.27455000  0.17315000  0.46412000  1.0 -0.5877191786
O  O8  1  0.72545000  0.67315000  0.03588000  1.0 -0.5877191786
O  O9  1  0.65636000  0.44399000  0.97264000  1.0 -0.5587651814
O  O10  1  0.34364000  0.94399000  0.52736000  1.0 -0.5587651814
O  O11  1  0.34364000  0.55601000  0.02736000  1.0 -0.5587651814
O  O12  1  0.65636000  0.05601000  0.47264000  1.0 -0.5587651814
O  O13  1  0.64466000  0.81886000  0.55124000  1.0 -0.5587651814
O  O14  1  0.35534000  0.31886000  0.94876000  1.0 -0.5587651814
O  O15  1  0.35534000  0.18114000  0.44876000  1.0 -0.5587651814
O  O16  1  0.64466000  0.68114000  0.05124000  1.0 -0.5587651814
O  O17  1  0.55630000  0.04821000  0.48849000  1.0 -0.5514677103
O  O18  1  0.44370000  0.54821000  0.01151000  1.0 -0.5514677103
O  O19  1  0.44370000  0.95179000  0.51151000  1.0 -0.5514677103
O  O20  1  0.55630000  0.45179000  0.98849000  1.0 -0.5514677103
O  O21  1  0.45110000  0.08300000  0.47185000  1.0 -0.5587651814
O  O22  1  0.54890000  0.58300000  0.02815000  1.0 -0.5587651814
O  O23  1  0.54890000  0.91700000  0.52815000  1.0 -0.5587651814
O  O24  1  0.45110000  0.41700000  0.97185000  1.0 -0.5587651814
O  O25  1  0.99088000  0.03584000  0.45287000  1.0 -0.5108795312
O  O26  1  0.00827000  0.23470000  0.42628000  1.0 -0.5297520216
O  O27  1  0.85801000  0.22866000  0.15795000  1.0 -0.5203944318
O  O28  1  0.84746000  0.34800000  0.33037000  1.0 -0.5297520216
O  O29  1  0.00540000  0.07449000  0.26165000  1.0 -0.5297520216
O  O30  1  0.66114000  0.23537000  0.06780000  1.0 -0.5297520216
O  O31  1  0.03423000  0.87993000  0.31071000  1.0 -0.5108795312
O  O32  1  0.53548000  0.07347000  0.04525000  1.0 -0.5108795312
O  O33  1  0.63554000  0.31800000  0.23671000  1.0 -0.5297520216
O  O34  1  0.90070000  0.72810000  0.28048000  1.0 -0.5203944318
O  O35  1  0.84730000  0.88090000  0.42471000  1.0 -0.5203944318
O  O36  1  0.47570000  0.18200000  0.19376000  1.0 -0.5203944318
O  O37  1  0.48110000  0.98740000  0.23466000  1.0 -0.5108795312
O  O38  1  0.64380000  0.85770000  0.33845000  1.0 -0.5203944318
O  O39  1  0.54930000  0.86770000  0.09101000  1.0 -0.4985279899
O  O40  1  0.69740000  0.73460000  0.18811000  1.0 -0.4985279899
O  O41  1  0.00912000  0.53584000  0.04713000  1.0 -0.5108795312
O  O42  1  0.99173000  0.73470000  0.07372000  1.0 -0.5297520216
O  O43  1  0.14199000  0.72866000  0.34205000  1.0 -0.5203944318
O  O44  1  0.15254000  0.84800000  0.16963000  1.0 -0.5297520216
O  O45  1  0.99460000  0.57449000  0.23835000  1.0 -0.5297520216
O  O46  1  0.33886000  0.73537000  0.43220000  1.0 -0.5297520216
O  O47  1  0.96577000  0.37993000  0.18929000  1.0 -0.5108795312
O  O48  1  0.46452000  0.57347000  0.45475000  1.0 -0.5108795312
O  O49  1  0.36446000  0.81800000  0.26329000  1.0 -0.5297520216
O  O50  1  0.09930000  0.22810000  0.21952000  1.0 -0.5203944318
O  O51  1  0.15270000  0.38090000  0.07529000  1.0 -0.5203944318
O  O52  1  0.52430000  0.68200000  0.30624000  1.0 -0.5108795312
O  O53  1  0.51890000  0.48740000  0.26534000  1.0 -0.5108795312
O  O54  1  0.35620000  0.35770000  0.16155000  1.0 -0.5203944318
O  O55  1  0.45070000  0.36770000  0.40899000  1.0 -0.4985279899
O  O56  1  0.30260000  0.23460000  0.31189000  1.0 -0.4985279899
O  O57  1  0.00912000  0.96416000  0.54713000  1.0 -0.5108795312
O  O58  1  0.99173000  0.76530000  0.57372000  1.0 -0.5297520216
O  O59  1  0.14199000  0.77134000  0.84205000  1.0 -0.5203944318
O  O60  1  0.15254000  0.65200000  0.66963000  1.0 -0.5297520216
O  O61  1  0.99460000  0.92551000  0.73835000  1.0 -0.5297520216
O  O62  1  0.33886000  0.76463000  0.93220000  1.0 -0.5297520216
O  O63  1  0.96577000  0.12007000  0.68929000  1.0 -0.5108795312
O  O64  1  0.46452000  0.92653000  0.95475000  1.0 -0.5108795312
O  O65  1  0.36446000  0.68200000  0.76329000  1.0 -0.5297520216
O  O66  1  0.09930000  0.27190000  0.71952000  1.0 -0.5203944318
O  O67  1  0.15270000  0.11910000  0.57529000  1.0 -0.5203944318
O  O68  1  0.52430000  0.81800000  0.80624000  1.0 -0.5203944318
O  O69  1  0.51890000  0.01260000  0.76534000  1.0 -0.5108795312
O  O70  1  0.35620000  0.14230000  0.66155000  1.0 -0.5203944318
O  O71  1  0.45070000  0.13230000  0.90899000  1.0 -0.4985279899
O  O72  1  0.30260000  0.26540000  0.81189000  1.0 -0.4985279899
O  O73  1  0.99088000  0.46416000  0.95287000  1.0 -0.5108795312
O  O74  1  0.00827000  0.26530000  0.92628000  1.0 -0.5297520216
O  O75  1  0.85801000  0.27134000  0.65795000  1.0 -0.5203944318
O  O76  1  0.84746000  0.15200000  0.83037000  1.0 -0.5297520216
O  O77  1  0.00540000  0.42551000  0.76165000  1.0 -0.5297520216
O  O78  1  0.66114000  0.26463000  0.56780000  1.0 -0.5297520216
O  O79  1  0.03423000  0.62007000  0.81071000  1.0 -0.5108795312
O  O80  1  0.53548000  0.42653000  0.54525000  1.0 -0.5108795312
O  O81  1  0.63554000  0.18200000  0.73671000  1.0 -0.5297520216
O  O82  1  0.90070000  0.77190000  0.78048000  1.0 -0.5203944318
O  O83  1  0.84730000  0.61910000  0.92471000  1.0 -0.5203944318
O  O84  1  0.47570000  0.31800000  0.69376000  1.0 -0.5203944318
O  O85  1  0.48110000  0.51260000  0.73466000  1.0 -0.5108795312
O  O86  1  0.64380000  0.64230000  0.83845000  1.0 -0.5203944318
O  O87  1  0.54930000  0.63230000  0.59101000  1.0 -0.4985279899
O  O88  1  0.69740000  0.76540000  0.68811000  1.0 -0.4985279899
