# DDEC6 charges by PACMAN v1.1 (https://github.com/mtap-research/PACMAN-charge/)
data_LINTOV02_ASR_pacman
_symmetry_space_group_name_H-M   'P 1'
_cell_length_a   22.90300000
_cell_length_b   16.96970000
_cell_length_c   33.11340000
_cell_angle_alpha   90.00000000
_cell_angle_beta   123.69500000
_cell_angle_gamma   90.00000000
_symmetry_Int_Tables_number   1
_chemical_formula_structural   UH68C75(N17O11)2
_chemical_formula_sum   'U4 H272 C300 N136 O88'
_cell_volume   10707.66965774
_cell_formula_units_Z   4
loop_
 _symmetry_equiv_pos_site_id
 _symmetry_equiv_pos_as_xyz
  1  'x, y, z'
loop_
 _atom_site_type_symbol
 _atom_site_label
 _atom_site_symmetry_multiplicity
 _atom_site_fract_x
 _atom_site_fract_y
 _atom_site_fract_z
 _atom_site_occupancy
 _atom_site_charge
U  U1  1  0.64225000  0.94109000  0.51312000  1.0 1.7266516029
U  U2  1  0.35775000  0.44109000  0.98688000  1.0 1.7216532169
U  U3  1  0.35775000  0.05891000  0.48688000  1.0 1.7266516029
U  U4  1  0.64225000  0.55891000  0.01312000  1.0 1.7216532169
H  H1  1  0.79678000  0.52729000  0.95267000  1.0 0.1307282025
H  H2  1  0.20322000  0.02729000  0.54733000  1.0 0.1307282025
H  H3  1  0.20322000  0.47271000  0.04733000  1.0 0.1307282025
H  H4  1  0.79678000  0.97271000  0.45267000  1.0 0.1307282025
H  H5  1  0.89545000  0.42344000  0.80407000  1.0 0.1406059602
H  H6  1  0.10455000  0.92344000  0.69593000  1.0 0.1406059602
H  H7  1  0.10455000  0.57656000  0.19593000  1.0 0.1406059602
H  H8  1  0.89545000  0.07656000  0.30407000  1.0 0.1406059602
H  H9  1  0.86204000  0.45809000  0.93043000  1.0 0.1406059602
H  H10  1  0.13796000  0.95809000  0.56957000  1.0 0.1406059602
H  H11  1  0.13796000  0.54191000  0.06957000  1.0 0.1406059602
H  H12  1  0.86204000  0.04191000  0.43043000  1.0 0.1406059602
H  H13  1  0.92662000  0.39122000  0.88120000  1.0 0.1190317264
H  H14  1  0.07338000  0.89122000  0.61880000  1.0 0.1190317264
H  H15  1  0.07338000  0.60878000  0.11880000  1.0 0.1190317264
H  H16  1  0.92662000  0.10878000  0.38120000  1.0 0.1190317264
H  H17  1  0.87633000  0.41329000  0.73317000  1.0 0.1406059602
H  H18  1  0.12367000  0.91329000  0.76683000  1.0 0.1406059602
H  H19  1  0.12367000  0.58671000  0.26683000  1.0 0.1406059602
H  H20  1  0.87633000  0.08671000  0.23317000  1.0 0.1406059602
H  H21  1  0.61273000  0.68165000  0.55570000  1.0 0.1307282025
H  H22  1  0.38727000  0.18165000  0.94430000  1.0 0.1307282025
H  H23  1  0.38727000  0.31835000  0.44430000  1.0 0.1307282025
H  H24  1  0.61273000  0.81835000  0.05570000  1.0 0.1307282025
H  H25  1  0.62116000  0.54560000  0.56347000  1.0 0.1406059602
H  H26  1  0.37884000  0.04560000  0.93653000  1.0 0.1406059602
H  H27  1  0.37884000  0.45440000  0.43653000  1.0 0.1406059602
H  H28  1  0.62116000  0.95440000  0.06347000  1.0 0.1406059602
H  H29  1  0.71512000  0.30576000  0.75044000  1.0 0.1406059602
H  H30  1  0.28488000  0.80576000  0.74956000  1.0 0.1406059602
H  H31  1  0.28488000  0.69424000  0.24956000  1.0 0.1406059602
H  H32  1  0.71512000  0.19424000  0.25044000  1.0 0.1406059602
H  H33  1  0.85675000  0.25039000  0.91215000  1.0 0.1406059602
H  H34  1  0.14325000  0.75039000  0.58785000  1.0 0.1406059602
H  H35  1  0.14325000  0.74961000  0.08785000  1.0 0.1406059602
H  H36  1  0.85675000  0.24961000  0.41215000  1.0 0.1406059602
H  H37  1  0.91295000  0.31936000  0.93373000  1.0 0.1406059602
H  H38  1  0.08705000  0.81936000  0.56627000  1.0 0.1406059602
H  H39  1  0.08705000  0.68064000  0.06627000  1.0 0.1406059602
H  H40  1  0.91295000  0.18064000  0.43373000  1.0 0.1406059602
H  H41  1  0.84160000  0.44348000  0.65538000  1.0 0.1307282025
H  H42  1  0.15840000  0.94348000  0.84462000  1.0 0.1307282025
H  H43  1  0.15840000  0.55652000  0.34462000  1.0 0.1307282025
H  H44  1  0.84160000  0.05652000  0.15538000  1.0 0.1307282025
H  H45  1  0.64509000  0.40221000  0.60780000  1.0 0.1190317264
H  H46  1  0.35491000  0.90221000  0.89220000  1.0 0.1190317264
H  H47  1  0.35491000  0.59779000  0.39220000  1.0 0.1190317264
H  H48  1  0.64509000  0.09779000  0.10780000  1.0 0.1190317264
H  H49  1  0.67575000  0.36939000  0.68465000  1.0 0.1406059602
H  H50  1  0.32425000  0.86939000  0.81535000  1.0 0.1406059602
H  H51  1  0.32425000  0.63061000  0.31535000  1.0 0.1406059602
H  H52  1  0.67575000  0.13061000  0.18465000  1.0 0.1406059602
H  H53  1  0.75016000  0.27536000  0.82848000  1.0 0.1307282025
H  H54  1  0.24984000  0.77536000  0.67152000  1.0 0.1307282025
H  H55  1  0.24984000  0.72464000  0.17152000  1.0 0.1307282025
H  H56  1  0.75016000  0.22464000  0.32848000  1.0 0.1307282025
H  H57  1  0.70296000  0.32491000  0.95053000  1.0 0.1307282025
H  H58  1  0.29704000  0.82491000  0.54947000  1.0 0.1307282025
H  H59  1  0.29704000  0.67509000  0.04947000  1.0 0.1307282025
H  H60  1  0.70296000  0.17509000  0.45053000  1.0 0.1307282025
H  H61  1  0.78956000  0.68799000  0.55712000  1.0 0.1190317264
H  H62  1  0.21044000  0.18799000  0.94288000  1.0 0.1190317264
H  H63  1  0.21044000  0.31201000  0.44288000  1.0 0.1190317264
H  H64  1  0.78956000  0.81201000  0.05712000  1.0 0.1190317264
H  H65  1  0.76705000  0.25667000  0.92647000  1.0 0.1307282025
H  H66  1  0.23295000  0.75667000  0.57353000  1.0 0.1307282025
H  H67  1  0.23295000  0.74333000  0.07353000  1.0 0.1307282025
H  H68  1  0.76705000  0.24333000  0.42647000  1.0 0.1307282025
H  H69  1  0.80239000  0.55225000  0.57090000  1.0 0.1190317264
H  H70  1  0.19761000  0.05225000  0.92910000  1.0 0.1190317264
H  H71  1  0.19761000  0.44775000  0.42910000  1.0 0.1190317264
H  H72  1  0.80239000  0.94775000  0.07090000  1.0 0.1190317264
H  H73  1  0.75402000  0.42754000  0.56941000  1.0 0.1307282025
H  H74  1  0.24598000  0.92754000  0.93059000  1.0 0.1307282025
H  H75  1  0.24598000  0.57246000  0.43059000  1.0 0.1307282025
H  H76  1  0.75402000  0.07246000  0.06941000  1.0 0.1307282025
H  H77  1  0.67397000  0.42266000  0.55162000  1.0 0.1406059602
H  H78  1  0.32603000  0.92266000  0.94838000  1.0 0.1406059602
H  H79  1  0.32603000  0.57734000  0.44838000  1.0 0.1406059602
H  H80  1  0.67397000  0.07734000  0.05162000  1.0 0.1406059602
H  H81  1  0.54492000  0.38258000  0.09653000  1.0 0.0812330676
H  H82  1  0.15157000  0.16881000  0.39577000  1.0 0.0918691648
H  H83  1  0.16275000  0.96524000  0.44929000  1.0 0.0812330676
H  H84  1  0.09456000  0.12620000  0.47410000  1.0 0.1105165958
H  H85  1  0.15631000  0.10454000  0.46783000  1.0 0.1105165958
H  H86  1  0.95150000  0.38740000  0.26385000  1.0 0.1003069835
H  H87  1  0.40868000  0.23605000  0.05572000  1.0 0.0812330676
H  H88  1  0.10798000  0.99984000  0.32707000  1.0 0.1003069835
H  H89  1  0.16409000  0.03110000  0.37998000  1.0 0.1003069835
H  H90  1  0.97788000  0.35402000  0.37642000  1.0 0.1105165958
H  H91  1  0.01713000  0.37917000  0.35139000  1.0 0.1003069835
H  H92  1  0.09191000  0.27208000  0.34505000  1.0 0.0918691648
H  H93  1  0.11324000  0.85342000  0.45702000  1.0 0.0812330676
H  H94  1  0.75617000  0.41183000  0.13078000  1.0 0.0812330676
H  H95  1  0.76077000  0.33015000  0.10963000  1.0 0.1105165958
H  H96  1  0.53295000  0.21644000  0.02675000  1.0 0.1190317264
H  H97  1  0.48486000  0.28055000  0.02924000  1.0 0.0918691648
H  H98  1  0.97795000  0.20589000  0.22664000  1.0 0.1105165958
H  H99  1  0.01763000  0.28248000  0.25691000  1.0 0.1105165958
H  H100  1  0.65629000  0.43323000  0.13970000  1.0 0.0812330676
H  H101  1  0.97317000  0.71400000  0.42355000  1.0 0.0812330676
H  H102  1  0.36283000  0.11343000  0.04979000  1.0 0.0812330676
H  H103  1  0.84037000  0.43639000  0.21791000  1.0 0.0812330676
H  H104  1  0.97535000  0.89857000  0.47130000  1.0 0.1190317264
H  H105  1  0.02544000  0.82810000  0.47828000  1.0 0.0918691648
H  H106  1  0.50786000  0.30672000  0.17735000  1.0 0.1105165958
H  H107  1  0.47021000  0.33793000  0.12338000  1.0 0.1003069835
H  H108  1  0.02768000  0.75151000  0.34558000  1.0 0.1105165958
H  H109  1  0.05792000  0.73751000  0.40114000  1.0 0.1003069835
H  H110  1  0.86349000  0.66203000  0.38030000  1.0 0.0812330676
H  H111  1  0.37518000  0.90244000  0.09398000  1.0 0.0812330676
H  H112  1  0.39019000  0.06772000  0.16305000  1.0 0.1105165958
H  H113  1  0.34589000  0.03697000  0.10883000  1.0 0.0918691648
H  H114  1  0.73644000  0.39931000  0.26340000  1.0 0.1105165958
H  H115  1  0.74118000  0.45408000  0.22662000  1.0 0.0918691648
H  H116  1  0.76288000  0.69542000  0.38194000  1.0 0.0918691648
H  H117  1  0.75438000  0.78350000  0.39359000  1.0 0.1190317264
H  H118  1  0.68226000  0.64901000  0.29502000  1.0 0.0812330676
H  H119  1  0.57121000  0.68556000  0.23536000  1.0 0.0918691648
H  H120  1  0.56791000  0.73997000  0.13173000  1.0 0.1190317264
H  H121  1  0.51917000  0.70727000  0.14791000  1.0 0.1003069835
H  H122  1  0.51922000  0.85348000  0.26776000  1.0 0.1190317264
H  H123  1  0.48966000  0.77866000  0.23346000  1.0 0.1105165958
H  H124  1  0.43278000  0.79894000  0.14527000  1.0 0.0812330676
H  H125  1  0.45586000  0.96339000  0.03568000  1.0 0.1190317264
H  H126  1  0.38552000  0.97602000  0.03333000  1.0 0.0812330676
H  H127  1  0.79078000  0.66095000  0.25396000  1.0 0.1190317264
H  H128  1  0.78246000  0.61928000  0.29327000  1.0 0.0918691648
H  H129  1  0.45508000  0.88258000  0.40347000  1.0 0.0812330676
H  H130  1  0.84843000  0.66881000  0.10423000  1.0 0.0918691648
H  H131  1  0.83725000  0.46524000  0.05071000  1.0 0.0812330676
H  H132  1  0.90544000  0.62620000  0.02590000  1.0 0.1105165958
H  H133  1  0.84369000  0.60454000  0.03217000  1.0 0.1105165958
H  H134  1  0.04850000  0.88740000  0.23615000  1.0 0.1003069835
H  H135  1  0.59132000  0.73605000  0.44428000  1.0 0.0812330676
H  H136  1  0.89202000  0.49984000  0.17293000  1.0 0.1003069835
H  H137  1  0.83591000  0.53110000  0.12002000  1.0 0.1003069835
H  H138  1  0.02212000  0.85402000  0.12358000  1.0 0.1105165958
H  H139  1  0.98287000  0.87917000  0.14861000  1.0 0.1003069835
H  H140  1  0.90809000  0.77208000  0.15495000  1.0 0.0918691648
H  H141  1  0.88676000  0.35342000  0.04298000  1.0 0.0812330676
H  H142  1  0.24383000  0.91183000  0.36922000  1.0 0.0812330676
H  H143  1  0.23923000  0.83015000  0.39037000  1.0 0.1105165958
H  H144  1  0.46705000  0.71644000  0.47325000  1.0 0.1190317264
H  H145  1  0.51514000  0.78055000  0.47076000  1.0 0.0918691648
H  H146  1  0.02205000  0.70589000  0.27336000  1.0 0.1105165958
H  H147  1  0.98237000  0.78248000  0.24309000  1.0 0.1105165958
H  H148  1  0.34371000  0.93323000  0.36030000  1.0 0.0812330676
H  H149  1  0.02683000  0.21400000  0.07645000  1.0 0.0812330676
H  H150  1  0.63717000  0.61343000  0.45021000  1.0 0.0812330676
H  H151  1  0.15963000  0.93639000  0.28209000  1.0 0.0812330676
H  H152  1  0.02465000  0.39857000  0.02870000  1.0 0.1190317264
H  H153  1  0.97456000  0.32810000  0.02172000  1.0 0.0918691648
H  H154  1  0.49214000  0.80672000  0.32265000  1.0 0.1105165958
H  H155  1  0.52979000  0.83793000  0.37662000  1.0 0.1003069835
H  H156  1  0.97232000  0.25151000  0.15442000  1.0 0.1105165958
H  H157  1  0.94208000  0.23751000  0.09886000  1.0 0.1003069835
H  H158  1  0.13651000  0.16203000  0.11970000  1.0 0.0812330676
H  H159  1  0.62482000  0.40244000  0.40602000  1.0 0.0812330676
H  H160  1  0.60981000  0.56772000  0.33695000  1.0 0.1105165958
H  H161  1  0.65411000  0.53697000  0.39117000  1.0 0.0918691648
H  H162  1  0.26356000  0.89931000  0.23660000  1.0 0.1105165958
H  H163  1  0.25882000  0.95408000  0.27338000  1.0 0.0918691648
H  H164  1  0.23712000  0.19542000  0.11806000  1.0 0.0918691648
H  H165  1  0.24562000  0.28350000  0.10641000  1.0 0.1190317264
H  H166  1  0.31774000  0.14901000  0.20498000  1.0 0.0812330676
H  H167  1  0.42879000  0.18556000  0.26464000  1.0 0.0918691648
H  H168  1  0.43209000  0.23997000  0.36827000  1.0 0.1190317264
H  H169  1  0.48083000  0.20727000  0.35209000  1.0 0.1003069835
H  H170  1  0.48078000  0.35348000  0.23224000  1.0 0.1190317264
H  H171  1  0.51034000  0.27866000  0.26654000  1.0 0.1105165958
H  H172  1  0.56722000  0.29894000  0.35473000  1.0 0.0812330676
H  H173  1  0.54414000  0.46339000  0.46432000  1.0 0.1190317264
H  H174  1  0.61448000  0.47602000  0.46667000  1.0 0.0812330676
H  H175  1  0.20922000  0.16095000  0.24604000  1.0 0.1190317264
H  H176  1  0.21754000  0.11928000  0.20673000  1.0 0.0918691648
H  H177  1  0.45508000  0.61742000  0.90347000  1.0 0.0812330676
H  H178  1  0.84843000  0.83119000  0.60423000  1.0 0.0918691648
H  H179  1  0.83725000  0.03476000  0.55071000  1.0 0.0812330676
H  H180  1  0.90544000  0.87380000  0.52590000  1.0 0.1105165958
H  H181  1  0.84369000  0.89546000  0.53217000  1.0 0.1105165958
H  H182  1  0.04850000  0.61260000  0.73615000  1.0 0.1003069835
H  H183  1  0.59132000  0.76395000  0.94428000  1.0 0.0812330676
H  H184  1  0.89202000  0.00016000  0.67293000  1.0 0.1003069835
H  H185  1  0.83591000  0.96890000  0.62002000  1.0 0.1003069835
H  H186  1  0.02212000  0.64598000  0.62358000  1.0 0.1105165958
H  H187  1  0.98287000  0.62083000  0.64861000  1.0 0.1003069835
H  H188  1  0.90809000  0.72792000  0.65495000  1.0 0.0918691648
H  H189  1  0.88676000  0.14658000  0.54298000  1.0 0.0812330676
H  H190  1  0.24383000  0.58817000  0.86922000  1.0 0.0812330676
H  H191  1  0.23923000  0.66985000  0.89037000  1.0 0.1105165958
H  H192  1  0.46705000  0.78356000  0.97325000  1.0 0.1190317264
H  H193  1  0.51514000  0.71945000  0.97076000  1.0 0.0918691648
H  H194  1  0.02205000  0.79411000  0.77336000  1.0 0.1105165958
H  H195  1  0.98237000  0.71752000  0.74309000  1.0 0.1105165958
H  H196  1  0.34371000  0.56677000  0.86030000  1.0 0.0812330676
H  H197  1  0.02683000  0.28600000  0.57645000  1.0 0.0812330676
H  H198  1  0.63717000  0.88657000  0.95021000  1.0 0.0812330676
H  H199  1  0.15963000  0.56361000  0.78209000  1.0 0.0812330676
H  H200  1  0.02465000  0.10143000  0.52870000  1.0 0.1190317264
H  H201  1  0.97456000  0.17190000  0.52172000  1.0 0.0918691648
H  H202  1  0.49214000  0.69328000  0.82265000  1.0 0.1105165958
H  H203  1  0.52979000  0.66207000  0.87662000  1.0 0.1003069835
H  H204  1  0.97232000  0.24849000  0.65442000  1.0 0.1105165958
H  H205  1  0.94208000  0.26249000  0.59886000  1.0 0.1003069835
H  H206  1  0.13651000  0.33797000  0.61970000  1.0 0.0812330676
H  H207  1  0.62482000  0.09756000  0.90602000  1.0 0.0812330676
H  H208  1  0.60981000  0.93228000  0.83695000  1.0 0.1105165958
H  H209  1  0.65411000  0.96303000  0.89117000  1.0 0.0918691648
H  H210  1  0.26356000  0.60069000  0.73660000  1.0 0.1105165958
H  H211  1  0.25882000  0.54592000  0.77338000  1.0 0.0918691648
H  H212  1  0.23712000  0.30458000  0.61806000  1.0 0.0918691648
H  H213  1  0.24562000  0.21650000  0.60641000  1.0 0.1190317264
H  H214  1  0.31774000  0.35099000  0.70498000  1.0 0.0812330676
H  H215  1  0.42879000  0.31444000  0.76464000  1.0 0.0918691648
H  H216  1  0.43209000  0.26003000  0.86827000  1.0 0.1190317264
H  H217  1  0.48083000  0.29273000  0.85209000  1.0 0.1003069835
H  H218  1  0.48078000  0.14652000  0.73224000  1.0 0.1190317264
H  H219  1  0.51034000  0.22134000  0.76654000  1.0 0.1105165958
H  H220  1  0.56722000  0.20106000  0.85473000  1.0 0.0812330676
H  H221  1  0.54414000  0.03661000  0.96432000  1.0 0.1190317264
H  H222  1  0.61448000  0.02398000  0.96667000  1.0 0.0812330676
H  H223  1  0.20922000  0.33905000  0.74604000  1.0 0.1190317264
H  H224  1  0.21754000  0.38072000  0.70673000  1.0 0.0918691648
H  H225  1  0.54492000  0.11742000  0.59653000  1.0 0.0812330676
H  H226  1  0.15157000  0.33119000  0.89577000  1.0 0.0918691648
H  H227  1  0.16275000  0.53476000  0.94929000  1.0 0.0812330676
H  H228  1  0.09456000  0.37380000  0.97410000  1.0 0.1105165958
H  H229  1  0.15631000  0.39546000  0.96783000  1.0 0.1105165958
H  H230  1  0.95150000  0.11260000  0.76385000  1.0 0.1003069835
H  H231  1  0.40868000  0.26395000  0.55572000  1.0 0.0812330676
H  H232  1  0.10798000  0.50016000  0.82707000  1.0 0.1003069835
H  H233  1  0.16409000  0.46890000  0.87998000  1.0 0.1003069835
H  H234  1  0.97788000  0.14598000  0.87642000  1.0 0.1105165958
H  H235  1  0.01713000  0.12083000  0.85139000  1.0 0.1003069835
H  H236  1  0.09191000  0.22792000  0.84505000  1.0 0.0918691648
H  H237  1  0.11324000  0.64658000  0.95702000  1.0 0.0812330676
H  H238  1  0.75617000  0.08817000  0.63078000  1.0 0.0812330676
H  H239  1  0.76077000  0.16985000  0.60963000  1.0 0.1105165958
H  H240  1  0.53295000  0.28356000  0.52675000  1.0 0.1190317264
H  H241  1  0.48486000  0.21945000  0.52924000  1.0 0.0918691648
H  H242  1  0.97795000  0.29411000  0.72664000  1.0 0.1105165958
H  H243  1  0.01763000  0.21752000  0.75691000  1.0 0.1105165958
H  H244  1  0.65629000  0.06677000  0.63970000  1.0 0.0812330676
H  H245  1  0.97317000  0.78600000  0.92355000  1.0 0.0812330676
H  H246  1  0.36283000  0.38657000  0.54979000  1.0 0.0812330676
H  H247  1  0.84037000  0.06361000  0.71791000  1.0 0.0812330676
H  H248  1  0.97535000  0.60143000  0.97130000  1.0 0.1190317264
H  H249  1  0.02544000  0.67190000  0.97828000  1.0 0.0918691648
H  H250  1  0.50786000  0.19328000  0.67735000  1.0 0.1105165958
H  H251  1  0.47021000  0.16207000  0.62338000  1.0 0.1003069835
H  H252  1  0.02768000  0.74849000  0.84558000  1.0 0.1105165958
H  H253  1  0.05792000  0.76249000  0.90114000  1.0 0.1003069835
H  H254  1  0.86349000  0.83797000  0.88030000  1.0 0.0812330676
H  H255  1  0.37518000  0.59756000  0.59398000  1.0 0.0812330676
H  H256  1  0.39019000  0.43228000  0.66305000  1.0 0.1105165958
H  H257  1  0.34589000  0.46303000  0.60883000  1.0 0.0918691648
H  H258  1  0.73644000  0.10069000  0.76340000  1.0 0.1105165958
H  H259  1  0.74118000  0.04592000  0.72662000  1.0 0.0918691648
H  H260  1  0.76288000  0.80458000  0.88194000  1.0 0.0918691648
H  H261  1  0.75438000  0.71650000  0.89359000  1.0 0.1190317264
H  H262  1  0.68226000  0.85099000  0.79502000  1.0 0.0812330676
H  H263  1  0.57121000  0.81444000  0.73536000  1.0 0.0918691648
H  H264  1  0.56791000  0.76003000  0.63173000  1.0 0.1190317264
H  H265  1  0.51917000  0.79273000  0.64791000  1.0 0.1003069835
H  H266  1  0.51922000  0.64652000  0.76776000  1.0 0.1190317264
H  H267  1  0.48966000  0.72134000  0.73346000  1.0 0.1105165958
H  H268  1  0.43278000  0.70106000  0.64527000  1.0 0.0812330676
H  H269  1  0.45586000  0.53661000  0.53568000  1.0 0.1190317264
H  H270  1  0.38552000  0.52398000  0.53333000  1.0 0.0812330676
H  H271  1  0.79078000  0.83905000  0.75396000  1.0 0.1190317264
H  H272  1  0.78246000  0.88072000  0.79327000  1.0 0.0918691648
C  C1  1  0.79092000  0.47255000  0.94770000  1.0 -0.0701151356
C  C2  1  0.20908000  0.97255000  0.55230000  1.0 -0.0701151356
C  C3  1  0.20908000  0.52745000  0.05230000  1.0 -0.0701151356
C  C4  1  0.79092000  0.02745000  0.44770000  1.0 -0.0701151356
C  C5  1  0.80143000  0.36735000  0.76811000  1.0 0.1105165958
C  C6  1  0.19857000  0.86735000  0.73189000  1.0 0.1105165958
C  C7  1  0.19857000  0.63265000  0.23189000  1.0 0.1105165958
C  C8  1  0.80143000  0.13265000  0.26811000  1.0 0.1105165958
C  C9  1  0.78047000  0.38747000  0.71824000  1.0 0.1105165958
C  C10  1  0.21953000  0.88747000  0.78176000  1.0 0.1105165958
C  C11  1  0.21953000  0.61253000  0.28176000  1.0 0.1105165958
C  C12  1  0.78047000  0.11253000  0.21824000  1.0 0.1105165958
C  C13  1  0.69108000  0.78490000  0.54817000  1.0 0.5283969431
C  C14  1  0.30892000  0.28490000  0.95183000  1.0 0.5283969431
C  C15  1  0.30892000  0.21510000  0.45183000  1.0 0.5283969431
C  C16  1  0.69108000  0.71510000  0.04817000  1.0 0.5283969431
C  C17  1  0.70575000  0.47610000  0.97175000  1.0 0.5361190973
C  C18  1  0.29425000  0.97610000  0.52825000  1.0 0.5361190973
C  C19  1  0.29425000  0.52390000  0.02825000  1.0 0.5361190973
C  C20  1  0.70575000  0.02390000  0.47175000  1.0 0.5361190973
C  C21  1  0.74376000  0.43270000  0.95403000  1.0 -0.0400139527
C  C22  1  0.25624000  0.93270000  0.54597000  1.0 -0.0400139527
C  C23  1  0.25624000  0.56730000  0.04597000  1.0 -0.0400139527
C  C24  1  0.74376000  0.06730000  0.45403000  1.0 -0.0400139527
C  C25  1  0.86510000  0.39280000  0.80833000  1.0 -0.1800624826
C  C26  1  0.13490000  0.89280000  0.69167000  1.0 -0.1800624826
C  C27  1  0.13490000  0.60720000  0.19167000  1.0 -0.1800624826
C  C28  1  0.86510000  0.10720000  0.30833000  1.0 -0.1800624826
C  C29  1  0.82929000  0.43120000  0.93403000  1.0 -0.137598923
C  C30  1  0.17071000  0.93120000  0.56597000  1.0 -0.137598923
C  C31  1  0.17071000  0.56880000  0.06597000  1.0 -0.137598923
C  C32  1  0.82929000  0.06880000  0.43403000  1.0 -0.137598923
C  C33  1  0.70086000  0.69820000  0.55618000  1.0 -0.0339906928
C  C34  1  0.29914000  0.19820000  0.94382000  1.0 -0.0339906928
C  C35  1  0.29914000  0.30180000  0.44382000  1.0 -0.0339906928
C  C36  1  0.70086000  0.80180000  0.05618000  1.0 -0.0339906928
C  C37  1  0.88360000  0.37350000  0.85418000  1.0 0.0287785474
C  C38  1  0.11640000  0.87350000  0.64582000  1.0 0.0287785474
C  C39  1  0.11640000  0.62650000  0.14582000  1.0 0.0287785474
C  C40  1  0.88360000  0.12650000  0.35418000  1.0 0.0287785474
C  C41  1  0.82850000  0.41030000  0.70796000  1.0 -0.1726573506
C  C42  1  0.17150000  0.91030000  0.79204000  1.0 -0.1726573506
C  C43  1  0.17150000  0.58970000  0.29204000  1.0 -0.1726573506
C  C44  1  0.82850000  0.08970000  0.20796000  1.0 -0.1726573506
C  C45  1  0.82030000  0.35120000  0.92558000  1.0 0.1003069835
C  C46  1  0.17970000  0.85120000  0.57442000  1.0 0.1003069835
C  C47  1  0.17970000  0.64880000  0.07442000  1.0 0.1003069835
C  C48  1  0.82030000  0.14880000  0.42558000  1.0 0.1003069835
C  C49  1  0.65060000  0.65540000  0.55805000  1.0 -0.0701151356
C  C50  1  0.34940000  0.15540000  0.94195000  1.0 -0.0701151356
C  C51  1  0.34940000  0.34460000  0.44195000  1.0 -0.0701151356
C  C52  1  0.65060000  0.84460000  0.05805000  1.0 -0.0701151356
C  C53  1  0.65610000  0.57440000  0.56333000  1.0 -0.1336217434
C  C54  1  0.34390000  0.07440000  0.93667000  1.0 -0.1336217434
C  C55  1  0.34390000  0.42560000  0.43667000  1.0 -0.1336217434
C  C56  1  0.65610000  0.92560000  0.06333000  1.0 -0.1336217434
C  C57  1  0.75890000  0.32350000  0.77668000  1.0 -0.1800624826
C  C58  1  0.24110000  0.82350000  0.72332000  1.0 -0.1800624826
C  C59  1  0.24110000  0.67650000  0.22332000  1.0 -0.1800624826
C  C60  1  0.75890000  0.17650000  0.27668000  1.0 -0.1800624826
C  C61  1  0.86310000  0.30720000  0.91086000  1.0 -0.1884926209
C  C62  1  0.13690000  0.80720000  0.58914000  1.0 -0.1884926209
C  C63  1  0.13690000  0.69280000  0.08914000  1.0 -0.1884926209
C  C64  1  0.86310000  0.19280000  0.41086000  1.0 -0.1884926209
C  C65  1  0.80780000  0.42860000  0.66167000  1.0 0.0484894844
C  C66  1  0.19220000  0.92860000  0.83833000  1.0 0.0484894844
C  C67  1  0.19220000  0.57140000  0.33833000  1.0 0.0484894844
C  C68  1  0.80780000  0.07140000  0.16167000  1.0 0.0484894844
C  C69  1  0.69250000  0.40420000  0.63378000  1.0 0.0287785474
C  C70  1  0.30750000  0.90420000  0.86622000  1.0 0.0287785474
C  C71  1  0.30750000  0.59580000  0.36622000  1.0 0.0287785474
C  C72  1  0.69250000  0.09580000  0.13378000  1.0 0.0287785474
C  C73  1  0.71060000  0.38470000  0.67949000  1.0 -0.1884926209
C  C74  1  0.28940000  0.88470000  0.82051000  1.0 -0.1884926209
C  C75  1  0.28940000  0.61530000  0.32051000  1.0 -0.1884926209
C  C76  1  0.71060000  0.11530000  0.17949000  1.0 -0.1884926209
C  C77  1  0.71270000  0.53580000  0.56839000  1.0 0.1003069835
C  C78  1  0.28730000  0.03580000  0.93161000  1.0 0.1003069835
C  C79  1  0.28730000  0.46420000  0.43161000  1.0 0.1003069835
C  C80  1  0.71270000  0.96420000  0.06839000  1.0 0.1003069835
C  C81  1  0.77980000  0.30540000  0.82318000  1.0 0.0578758693
C  C82  1  0.22020000  0.80540000  0.67682000  1.0 0.0578758693
C  C83  1  0.22020000  0.69460000  0.17682000  1.0 0.0578758693
C  C84  1  0.77980000  0.19460000  0.32318000  1.0 0.0578758693
C  C85  1  0.73490000  0.35200000  0.94618000  1.0 -0.099086097
C  C86  1  0.26510000  0.85200000  0.55382000  1.0 -0.099086097
C  C87  1  0.26510000  0.64800000  0.05382000  1.0 -0.099086097
C  C88  1  0.73490000  0.14800000  0.44618000  1.0 -0.099086097
C  C89  1  0.75650000  0.65960000  0.55965000  1.0 -0.1077650548
C  C90  1  0.24350000  0.15960000  0.94035000  1.0 -0.1077650548
C  C91  1  0.24350000  0.34040000  0.44035000  1.0 -0.1077650548
C  C92  1  0.75650000  0.84040000  0.05965000  1.0 -0.1077650548
C  C93  1  0.77320000  0.31130000  0.93187000  1.0 -0.1800624826
C  C94  1  0.22680000  0.81130000  0.56813000  1.0 -0.1800624826
C  C95  1  0.22680000  0.68870000  0.06813000  1.0 -0.1800624826
C  C96  1  0.77320000  0.18870000  0.43187000  1.0 -0.1800624826
C  C97  1  0.76330000  0.57840000  0.56694000  1.0 -0.1800624826
C  C98  1  0.23670000  0.07840000  0.93306000  1.0 -0.1800624826
C  C99  1  0.23670000  0.42160000  0.43306000  1.0 -0.1800624826
C  C100  1  0.76330000  0.92160000  0.06694000  1.0 -0.1800624826
C  C101  1  0.50180000  0.03700000  0.48810000  1.0 0.4720242559
C  C102  1  0.49820000  0.53700000  0.01190000  1.0 0.4720242559
C  C103  1  0.49820000  0.96300000  0.51190000  1.0 0.4720242559
C  C104  1  0.50180000  0.46300000  0.98810000  1.0 0.4720242559
C  C105  1  0.71910000  0.44740000  0.57525000  1.0 -0.1884926209
C  C106  1  0.28090000  0.94740000  0.92475000  1.0 -0.1884926209
C  C107  1  0.28090000  0.55260000  0.42475000  1.0 -0.1884926209
C  C108  1  0.71910000  0.05260000  0.07525000  1.0 -0.1884926209
C  C109  1  0.58025000  0.34180000  0.11678000  1.0 0.1105165958
C  C110  1  0.10014000  0.16125000  0.37776000  1.0 0.1105165958
C  C111  1  0.11105000  0.96499000  0.42647000  1.0 0.1105165958
C  C112  1  0.02955000  0.11820000  0.29717000  1.0 0.5101405942
C  C113  1  0.10515000  0.10569000  0.45118000  1.0 0.0362804697
C  C114  1  0.91618000  0.34910000  0.26008000  1.0 0.1105165958
C  C115  1  0.44523000  0.19800000  0.07821000  1.0 0.1105165958
C  C116  1  0.02867000  0.99648000  0.44431000  1.0 0.5283969431
C  C117  1  0.05565000  0.89750000  0.35247000  1.0 0.5283969431
C  C118  1  0.11388000  0.02170000  0.35651000  1.0 0.0287785474
C  C119  1  0.98663000  0.33900000  0.35165000  1.0 0.0197205076
C  C120  1  0.05967000  0.23276000  0.34466000  1.0 0.1003069835
C  C121  1  0.64649000  0.27850000  0.09204000  1.0 0.518629217
C  C122  1  0.07799000  0.88780000  0.43039000  1.0 0.1003069835
C  C123  1  0.86308000  0.27540000  0.18889000  1.0 0.518629217
C  C124  1  0.75628000  0.35460000  0.13460000  1.0 0.0287785474
C  C125  1  0.03404000  0.22050000  0.40365000  1.0 0.5101405942
C  C126  1  0.52142000  0.24110000  0.04825000  1.0 0.0362804697
C  C127  1  0.98470000  0.24100000  0.25239000  1.0 0.0362804697
C  C128  1  0.65611000  0.37600000  0.14545000  1.0 0.1105165958
C  C129  1  0.49811000  0.10230000  0.05796000  1.0 0.5283969431
C  C130  1  0.85784000  0.34940000  0.29939000  1.0 0.5018354892
C  C131  1  0.93950000  0.74950000  0.39695000  1.0 0.0918691648
C  C132  1  0.41330000  0.11590000  0.07610000  1.0 0.1003069835
C  C133  1  0.84103000  0.37940000  0.22450000  1.0 0.1105165958
C  C134  1  0.99130000  0.86610000  0.45470000  1.0 0.0287785474
C  C135  1  0.50390000  0.29920000  0.14658000  1.0 0.0362804697
C  C136  1  0.02540000  0.76970000  0.37275000  1.0 0.0287785474
C  C137  1  0.90140000  0.73260000  0.31611000  1.0 0.5101405942
C  C138  1  0.86460000  0.71520000  0.36841000  1.0 0.0918691648
C  C139  1  0.45960000  0.17110000  0.15234000  1.0 0.5283969431
C  C140  1  0.86600000  0.83010000  0.40689000  1.0 0.5101405942
C  C141  1  0.42510000  0.91480000  0.11848000  1.0 0.1003069835
C  C142  1  0.64450000  0.80860000  0.31095000  1.0 0.518629217
C  C143  1  0.39360000  0.04780000  0.13667000  1.0 0.0197205076
C  C144  1  0.62950000  0.32840000  0.19979000  1.0 0.5018354892
C  C145  1  0.47050000  0.94900000  0.19913000  1.0 0.5101405942
C  C146  1  0.74110000  0.39910000  0.23572000  1.0 0.0287785474
C  C147  1  0.75990000  0.75030000  0.37171000  1.0 0.0197205076
C  C148  1  0.68090000  0.70400000  0.28455000  1.0 0.0918691648
C  C149  1  0.51260000  0.87330000  0.10706000  1.0 0.5101405942
C  C150  1  0.60540000  0.72830000  0.24337000  1.0 0.1003069835
C  C151  1  0.55210000  0.74940000  0.15340000  1.0 0.0129550327
C  C152  1  0.52080000  0.82430000  0.24286000  1.0 0.0197205076
C  C153  1  0.46490000  0.84350000  0.15202000  1.0 0.0918691648
C  C154  1  0.43670000  0.98110000  0.05424000  1.0 0.0287785474
C  C155  1  0.78520000  0.67060000  0.28080000  1.0 0.0129550327
C  C156  1  0.67800000  0.73280000  0.21420000  1.0 0.5018354892
C  C157  1  0.41975000  0.84180000  0.38322000  1.0 0.1105165958
C  C158  1  0.89986000  0.66125000  0.12224000  1.0 0.1105165958
C  C159  1  0.88895000  0.46499000  0.07353000  1.0 0.1105165958
C  C160  1  0.97045000  0.61820000  0.20283000  1.0 0.5101405942
C  C161  1  0.89485000  0.60569000  0.04882000  1.0 0.0362804697
C  C162  1  0.08382000  0.84910000  0.23992000  1.0 0.1105165958
C  C163  1  0.55477000  0.69800000  0.42179000  1.0 0.1105165958
C  C164  1  0.97133000  0.49648000  0.05569000  1.0 0.5283969431
C  C165  1  0.94435000  0.39750000  0.14753000  1.0 0.5283969431
C  C166  1  0.88612000  0.52170000  0.14349000  1.0 0.0287785474
C  C167  1  0.01337000  0.83900000  0.14835000  1.0 0.0197205076
C  C168  1  0.94033000  0.73276000  0.15534000  1.0 0.1003069835
C  C169  1  0.35351000  0.77850000  0.40796000  1.0 0.518629217
C  C170  1  0.92201000  0.38780000  0.06961000  1.0 0.1003069835
C  C171  1  0.13692000  0.77540000  0.31111000  1.0 0.518629217
C  C172  1  0.24372000  0.85460000  0.36540000  1.0 0.0287785474
C  C173  1  0.96596000  0.72050000  0.09635000  1.0 0.5101405942
C  C174  1  0.47858000  0.74110000  0.45175000  1.0 0.0362804697
C  C175  1  0.01530000  0.74100000  0.24761000  1.0 0.0362804697
C  C176  1  0.34389000  0.87600000  0.35455000  1.0 0.1105165958
C  C177  1  0.50189000  0.60230000  0.44204000  1.0 0.5283969431
C  C178  1  0.14216000  0.84940000  0.20061000  1.0 0.5018354892
C  C179  1  0.06050000  0.24950000  0.10305000  1.0 0.0918691648
C  C180  1  0.58670000  0.61590000  0.42390000  1.0 0.1003069835
C  C181  1  0.15897000  0.87940000  0.27550000  1.0 0.1105165958
C  C182  1  0.00870000  0.36610000  0.04530000  1.0 0.0287785474
C  C183  1  0.49610000  0.79920000  0.35342000  1.0 0.0362804697
C  C184  1  0.97460000  0.26970000  0.12725000  1.0 0.0287785474
C  C185  1  0.09860000  0.23260000  0.18389000  1.0 0.5101405942
C  C186  1  0.13540000  0.21520000  0.13159000  1.0 0.0918691648
C  C187  1  0.54040000  0.67110000  0.34766000  1.0 0.5283969431
C  C188  1  0.13400000  0.33010000  0.09311000  1.0 0.5101405942
C  C189  1  0.57490000  0.41480000  0.38152000  1.0 0.1003069835
C  C190  1  0.35550000  0.30860000  0.18905000  1.0 0.518629217
C  C191  1  0.60640000  0.54780000  0.36333000  1.0 0.0197205076
C  C192  1  0.37050000  0.82840000  0.30021000  1.0 0.5018354892
C  C193  1  0.52950000  0.44900000  0.30087000  1.0 0.5101405942
C  C194  1  0.25890000  0.89910000  0.26428000  1.0 0.0287785474
C  C195  1  0.24010000  0.25030000  0.12829000  1.0 0.0197205076
C  C196  1  0.31910000  0.20400000  0.21545000  1.0 0.0918691648
C  C197  1  0.48740000  0.37330000  0.39294000  1.0 0.5101405942
C  C198  1  0.39460000  0.22830000  0.25663000  1.0 0.1003069835
C  C199  1  0.44790000  0.24940000  0.34660000  1.0 0.0129550327
C  C200  1  0.47920000  0.32430000  0.25714000  1.0 0.0197205076
C  C201  1  0.53510000  0.34350000  0.34798000  1.0 0.0918691648
C  C202  1  0.56330000  0.48110000  0.44576000  1.0 0.0287785474
C  C203  1  0.21480000  0.17060000  0.21920000  1.0 0.0129550327
C  C204  1  0.32200000  0.23280000  0.28580000  1.0 0.5018354892
C  C205  1  0.41975000  0.65820000  0.88322000  1.0 0.1105165958
C  C206  1  0.89986000  0.83875000  0.62224000  1.0 0.1105165958
C  C207  1  0.88895000  0.03501000  0.57353000  1.0 0.1105165958
C  C208  1  0.97045000  0.88180000  0.70283000  1.0 0.5101405942
C  C209  1  0.89485000  0.89431000  0.54882000  1.0 0.0362804697
C  C210  1  0.08382000  0.65090000  0.73992000  1.0 0.1105165958
C  C211  1  0.55477000  0.80200000  0.92179000  1.0 0.1105165958
C  C212  1  0.97133000  0.00352000  0.55569000  1.0 0.5283969431
C  C213  1  0.94435000  0.10250000  0.64753000  1.0 0.5283969431
C  C214  1  0.88612000  0.97830000  0.64349000  1.0 0.0287785474
C  C215  1  0.01337000  0.66100000  0.64835000  1.0 0.0197205076
C  C216  1  0.94033000  0.76724000  0.65534000  1.0 0.1003069835
C  C217  1  0.35351000  0.72150000  0.90796000  1.0 0.518629217
C  C218  1  0.92201000  0.11220000  0.56961000  1.0 0.1003069835
C  C219  1  0.13692000  0.72460000  0.81111000  1.0 0.518629217
C  C220  1  0.24372000  0.64540000  0.86540000  1.0 0.0287785474
C  C221  1  0.96596000  0.77950000  0.59635000  1.0 0.5101405942
C  C222  1  0.47858000  0.75890000  0.95175000  1.0 0.0362804697
C  C223  1  0.01530000  0.75900000  0.74761000  1.0 0.0362804697
C  C224  1  0.34389000  0.62400000  0.85455000  1.0 0.1105165958
C  C225  1  0.50189000  0.89770000  0.94204000  1.0 0.5283969431
C  C226  1  0.14216000  0.65060000  0.70061000  1.0 0.5018354892
C  C227  1  0.06050000  0.25050000  0.60305000  1.0 0.0918691648
C  C228  1  0.58670000  0.88410000  0.92390000  1.0 0.1003069835
C  C229  1  0.15897000  0.62060000  0.77550000  1.0 0.1105165958
C  C230  1  0.00870000  0.13390000  0.54530000  1.0 0.0287785474
C  C231  1  0.49610000  0.70080000  0.85342000  1.0 0.0362804697
C  C232  1  0.97460000  0.23030000  0.62725000  1.0 0.0287785474
C  C233  1  0.09860000  0.26740000  0.68389000  1.0 0.5101405942
C  C234  1  0.13540000  0.28480000  0.63159000  1.0 0.0918691648
C  C235  1  0.54040000  0.82890000  0.84766000  1.0 0.5283969431
C  C236  1  0.13400000  0.16990000  0.59311000  1.0 0.5101405942
C  C237  1  0.57490000  0.08520000  0.88152000  1.0 0.1003069835
C  C238  1  0.35550000  0.19140000  0.68905000  1.0 0.518629217
C  C239  1  0.60640000  0.95220000  0.86333000  1.0 0.0197205076
C  C240  1  0.37050000  0.67160000  0.80021000  1.0 0.5018354892
C  C241  1  0.52950000  0.05100000  0.80087000  1.0 0.5101405942
C  C242  1  0.25890000  0.60090000  0.76428000  1.0 0.0287785474
C  C243  1  0.24010000  0.24970000  0.62829000  1.0 0.0197205076
C  C244  1  0.31910000  0.29600000  0.71545000  1.0 0.0918691648
C  C245  1  0.48740000  0.12670000  0.89294000  1.0 0.5101405942
C  C246  1  0.39460000  0.27170000  0.75663000  1.0 0.1003069835
C  C247  1  0.44790000  0.25060000  0.84660000  1.0 0.0129550327
C  C248  1  0.47920000  0.17570000  0.75714000  1.0 0.0197205076
C  C249  1  0.53510000  0.15650000  0.84798000  1.0 0.0918691648
C  C250  1  0.56330000  0.01890000  0.94576000  1.0 0.0287785474
C  C251  1  0.21480000  0.32940000  0.71920000  1.0 0.0129550327
C  C252  1  0.32200000  0.26720000  0.78580000  1.0 0.5018354892
C  C253  1  0.58025000  0.15820000  0.61678000  1.0 0.1105165958
C  C254  1  0.10014000  0.33875000  0.87776000  1.0 0.1105165958
C  C255  1  0.11105000  0.53501000  0.92647000  1.0 0.1105165958
C  C256  1  0.02955000  0.38180000  0.79717000  1.0 0.5101405942
C  C257  1  0.10515000  0.39431000  0.95118000  1.0 0.0362804697
C  C258  1  0.91618000  0.15090000  0.76008000  1.0 0.1105165958
C  C259  1  0.44523000  0.30200000  0.57821000  1.0 0.1105165958
C  C260  1  0.02867000  0.50352000  0.94431000  1.0 0.5283969431
C  C261  1  0.05565000  0.60250000  0.85247000  1.0 0.5283969431
C  C262  1  0.11388000  0.47830000  0.85651000  1.0 0.0287785474
C  C263  1  0.98663000  0.16100000  0.85165000  1.0 0.0197205076
C  C264  1  0.05967000  0.26724000  0.84466000  1.0 0.1003069835
C  C265  1  0.64649000  0.22150000  0.59204000  1.0 0.518629217
C  C266  1  0.07799000  0.61220000  0.93039000  1.0 0.1003069835
C  C267  1  0.86308000  0.22460000  0.68889000  1.0 0.518629217
C  C268  1  0.75628000  0.14540000  0.63460000  1.0 0.0287785474
C  C269  1  0.03404000  0.27950000  0.90365000  1.0 0.5101405942
C  C270  1  0.52142000  0.25890000  0.54825000  1.0 0.0362804697
C  C271  1  0.98470000  0.25900000  0.75239000  1.0 0.0362804697
C  C272  1  0.65611000  0.12400000  0.64545000  1.0 0.1105165958
C  C273  1  0.49811000  0.39770000  0.55796000  1.0 0.5283969431
C  C274  1  0.85784000  0.15060000  0.79939000  1.0 0.5018354892
C  C275  1  0.93950000  0.75050000  0.89695000  1.0 0.0918691648
C  C276  1  0.41330000  0.38410000  0.57610000  1.0 0.1003069835
C  C277  1  0.84103000  0.12060000  0.72450000  1.0 0.1105165958
C  C278  1  0.99130000  0.63390000  0.95470000  1.0 0.0287785474
C  C279  1  0.50390000  0.20080000  0.64658000  1.0 0.0362804697
C  C280  1  0.02540000  0.73030000  0.87275000  1.0 0.0287785474
C  C281  1  0.90140000  0.76740000  0.81611000  1.0 0.5101405942
C  C282  1  0.86460000  0.78480000  0.86841000  1.0 0.0918691648
C  C283  1  0.45960000  0.32890000  0.65234000  1.0 0.5283969431
C  C284  1  0.86600000  0.66990000  0.90689000  1.0 0.5101405942
C  C285  1  0.42510000  0.58520000  0.61848000  1.0 0.1003069835
C  C286  1  0.64450000  0.69140000  0.81095000  1.0 0.518629217
C  C287  1  0.39360000  0.45220000  0.63667000  1.0 0.0197205076
C  C288  1  0.62950000  0.17160000  0.69979000  1.0 0.5018354892
C  C289  1  0.47050000  0.55100000  0.69913000  1.0 0.5101405942
C  C290  1  0.74110000  0.10090000  0.73572000  1.0 0.0287785474
C  C291  1  0.75990000  0.74970000  0.87171000  1.0 0.0197205076
C  C292  1  0.68090000  0.79600000  0.78455000  1.0 0.0918691648
C  C293  1  0.51260000  0.62670000  0.60706000  1.0 0.5101405942
C  C294  1  0.60540000  0.77170000  0.74337000  1.0 0.1003069835
C  C295  1  0.55210000  0.75060000  0.65340000  1.0 0.0129550327
C  C296  1  0.52080000  0.67570000  0.74286000  1.0 0.0197205076
C  C297  1  0.46490000  0.65650000  0.65202000  1.0 0.0918691648
C  C298  1  0.43670000  0.51890000  0.55424000  1.0 0.0287785474
C  C299  1  0.78520000  0.82940000  0.78080000  1.0 0.0129550327
C  C300  1  0.67800000  0.76720000  0.71420000  1.0 0.5018354892
N  N1  1  0.84131000  0.32966000  0.86084000  1.0 0.1190317264
N  N2  1  0.15869000  0.82966000  0.63916000  1.0 0.1190317264
N  N3  1  0.15869000  0.67034000  0.13916000  1.0 0.1190317264
N  N4  1  0.84131000  0.17034000  0.36084000  1.0 0.1190317264
N  N5  1  0.74064000  0.42576000  0.62547000  1.0 0.1190317264
N  N6  1  0.25936000  0.92576000  0.87453000  1.0 0.1190317264
N  N7  1  0.25936000  0.57424000  0.37453000  1.0 0.1190317264
N  N8  1  0.74064000  0.07424000  0.12547000  1.0 0.1190317264
N  N9  1  0.69038000  0.33121000  0.12679000  1.0 -0.2591030454
N  N10  1  0.91770000  0.27692000  0.23725000  1.0 -0.2775863321
N  N11  1  0.07618000  0.15888000  0.41020000  1.0 -0.2591030454
N  N12  1  0.07719000  0.09610000  0.34470000  1.0 -0.240558676
N  N13  1  0.92079000  0.33826000  0.30493000  1.0 -0.240558676
N  N14  1  0.09002000  0.96453000  0.37644000  1.0 -0.240558676
N  N15  1  0.58305000  0.28037000  0.08721000  1.0 -0.2733439268
N  N16  1  0.01474000  0.19675000  0.29692000  1.0 -0.2591030454
N  N17  1  0.93153000  0.82340000  0.41541000  1.0 -0.240558676
N  N18  1  0.81643000  0.33307000  0.18180000  1.0 -0.2498532426
N  N19  1  0.02283000  0.26430000  0.36498000  1.0 -0.2591030454
N  N20  1  0.49381000  0.18147000  0.06463000  1.0 -0.2591030454
N  N21  1  0.57199000  0.31343000  0.15418000  1.0 -0.2498532426
N  N22  1  0.95538000  0.75811000  0.36086000  1.0 -0.2291285294
N  N23  1  0.42445000  0.10849000  0.12316000  1.0 -0.240558676
N  N24  1  0.04789000  0.85169000  0.38311000  1.0 -0.2291285294
N  N25  1  0.47742000  0.22074000  0.12851000  1.0 -0.2591030454
N  N26  1  0.80801000  0.36288000  0.25060000  1.0 -0.2895298661
N  N27  1  0.02541000  0.91598000  0.43868000  1.0 -0.2591030454
N  N28  1  0.07842000  0.02558000  0.43788000  1.0 -0.2591030454
N  N29  1  0.45460000  0.06295000  0.06703000  1.0 -0.240558676
N  N30  1  0.43285000  0.97470000  0.15212000  1.0 -0.240558676
N  N31  1  0.82494000  0.77107000  0.37668000  1.0 -0.208418841
N  N32  1  0.68131000  0.35930000  0.19550000  1.0 -0.2498532426
N  N33  1  0.59202000  0.79680000  0.26338000  1.0 -0.2291285294
N  N34  1  0.46332000  0.93048000  0.09645000  1.0 -0.2498532426
N  N35  1  0.69865000  0.75910000  0.32301000  1.0 -0.2498532426
N  N36  1  0.72030000  0.71250000  0.26253000  1.0 -0.2225101542
N  N37  1  0.61210000  0.74540000  0.20321000  1.0 -0.2225101542
N  N38  1  0.49510000  0.87490000  0.20066000  1.0 -0.240558676
N  N39  1  0.51550000  0.82380000  0.14076000  1.0 -0.2225101542
N  N40  1  0.84666000  0.71240000  0.31916000  1.0 -0.2225101542
N  N41  1  0.30962000  0.83121000  0.37321000  1.0 -0.2591030454
N  N42  1  0.08230000  0.77692000  0.26275000  1.0 -0.2775863321
N  N43  1  0.92382000  0.65888000  0.08980000  1.0 -0.2591030454
N  N44  1  0.92281000  0.59610000  0.15530000  1.0 -0.240558676
N  N45  1  0.07921000  0.83826000  0.19507000  1.0 -0.240558676
N  N46  1  0.90998000  0.46453000  0.12356000  1.0 -0.240558676
N  N47  1  0.41695000  0.78037000  0.41279000  1.0 -0.2733439268
N  N48  1  0.98526000  0.69675000  0.20308000  1.0 -0.2591030454
N  N49  1  0.06847000  0.32340000  0.08459000  1.0 -0.240558676
N  N50  1  0.18357000  0.83307000  0.31820000  1.0 -0.2498532426
N  N51  1  0.97717000  0.76430000  0.13502000  1.0 -0.2591030454
N  N52  1  0.50619000  0.68147000  0.43537000  1.0 -0.2591030454
N  N53  1  0.42801000  0.81343000  0.34582000  1.0 -0.2498532426
N  N54  1  0.04462000  0.25811000  0.13914000  1.0 -0.2291285294
N  N55  1  0.57555000  0.60849000  0.37684000  1.0 -0.2498532426
N  N56  1  0.95211000  0.35169000  0.11689000  1.0 -0.2291285294
N  N57  1  0.52258000  0.72074000  0.37149000  1.0 -0.2591030454
N  N58  1  0.19199000  0.86288000  0.24940000  1.0 -0.2895298661
N  N59  1  0.97459000  0.41598000  0.06132000  1.0 -0.2498532426
N  N60  1  0.92158000  0.52558000  0.06212000  1.0 -0.2591030454
N  N61  1  0.54540000  0.56295000  0.43297000  1.0 -0.240558676
N  N62  1  0.56715000  0.47470000  0.34788000  1.0 -0.240558676
N  N63  1  0.17506000  0.27107000  0.12332000  1.0 -0.208418841
N  N64  1  0.31869000  0.85930000  0.30450000  1.0 -0.2498532426
N  N65  1  0.40798000  0.29680000  0.23662000  1.0 -0.2291285294
N  N66  1  0.53668000  0.43048000  0.40355000  1.0 -0.2498532426
N  N67  1  0.30135000  0.25910000  0.17699000  1.0 -0.240558676
N  N68  1  0.27970000  0.21250000  0.23747000  1.0 -0.2225101542
N  N69  1  0.38790000  0.24540000  0.29679000  1.0 -0.2225101542
N  N70  1  0.50490000  0.37490000  0.29934000  1.0 -0.240558676
N  N71  1  0.48450000  0.32380000  0.35924000  1.0 -0.2225101542
N  N72  1  0.15334000  0.21240000  0.18084000  1.0 -0.2291285294
N  N73  1  0.30962000  0.66879000  0.87321000  1.0 -0.2591030454
N  N74  1  0.08230000  0.72308000  0.76275000  1.0 -0.2775863321
N  N75  1  0.92382000  0.84112000  0.58980000  1.0 -0.2498532426
N  N76  1  0.92281000  0.90390000  0.65530000  1.0 -0.240558676
N  N77  1  0.07921000  0.66174000  0.69507000  1.0 -0.240558676
N  N78  1  0.90998000  0.03547000  0.62356000  1.0 -0.240558676
N  N79  1  0.41695000  0.71963000  0.91279000  1.0 -0.2733439268
N  N80  1  0.98526000  0.80325000  0.70308000  1.0 -0.2591030454
N  N81  1  0.06847000  0.17660000  0.58459000  1.0 -0.240558676
N  N82  1  0.18357000  0.66693000  0.81820000  1.0 -0.2591030454
N  N83  1  0.97717000  0.73570000  0.63502000  1.0 -0.2591030454
N  N84  1  0.50619000  0.81853000  0.93537000  1.0 -0.2591030454
N  N85  1  0.42801000  0.68657000  0.84582000  1.0 -0.2591030454
N  N86  1  0.04462000  0.24189000  0.63914000  1.0 -0.2291285294
N  N87  1  0.57555000  0.89151000  0.87684000  1.0 -0.2498532426
N  N88  1  0.95211000  0.14831000  0.61689000  1.0 -0.240558676
N  N89  1  0.52258000  0.77926000  0.87149000  1.0 -0.2591030454
N  N90  1  0.19199000  0.63712000  0.74940000  1.0 -0.2895298661
N  N91  1  0.97459000  0.08402000  0.56132000  1.0 -0.2591030454
N  N92  1  0.92158000  0.97442000  0.56212000  1.0 -0.2591030454
N  N93  1  0.54540000  0.93705000  0.93297000  1.0 -0.2498532426
N  N94  1  0.56715000  0.02530000  0.84788000  1.0 -0.240558676
N  N95  1  0.17506000  0.22893000  0.62332000  1.0 -0.208418841
N  N96  1  0.31869000  0.64070000  0.80450000  1.0 -0.2498532426
N  N97  1  0.40798000  0.20320000  0.73662000  1.0 -0.2291285294
N  N98  1  0.53668000  0.06952000  0.90355000  1.0 -0.2498532426
N  N99  1  0.30135000  0.24090000  0.67699000  1.0 -0.2498532426
N  N100  1  0.27970000  0.28750000  0.73747000  1.0 -0.2225101542
N  N101  1  0.38790000  0.25460000  0.79679000  1.0 -0.2225101542
N  N102  1  0.50490000  0.12510000  0.79934000  1.0 -0.240558676
N  N103  1  0.48450000  0.17620000  0.85924000  1.0 -0.2225101542
N  N104  1  0.15334000  0.28760000  0.68084000  1.0 -0.2225101542
N  N105  1  0.69038000  0.16879000  0.62679000  1.0 -0.2591030454
N  N106  1  0.91770000  0.22308000  0.73725000  1.0 -0.2775863321
N  N107  1  0.07618000  0.34112000  0.91020000  1.0 -0.2591030454
N  N108  1  0.07719000  0.40390000  0.84470000  1.0 -0.240558676
N  N109  1  0.92079000  0.16174000  0.80493000  1.0 -0.240558676
N  N110  1  0.09002000  0.53547000  0.87644000  1.0 -0.240558676
N  N111  1  0.58305000  0.21963000  0.58721000  1.0 -0.2733439268
N  N112  1  0.01474000  0.30325000  0.79692000  1.0 -0.2591030454
N  N113  1  0.93153000  0.67660000  0.91541000  1.0 -0.240558676
N  N114  1  0.81643000  0.16693000  0.68180000  1.0 -0.2498532426
N  N115  1  0.02283000  0.23570000  0.86498000  1.0 -0.2591030454
N  N116  1  0.49381000  0.31853000  0.56463000  1.0 -0.2591030454
N  N117  1  0.57199000  0.18657000  0.65418000  1.0 -0.2498532426
N  N118  1  0.95538000  0.74189000  0.86086000  1.0 -0.2291285294
N  N119  1  0.42445000  0.39151000  0.62316000  1.0 -0.2498532426
N  N120  1  0.04789000  0.64831000  0.88311000  1.0 -0.240558676
N  N121  1  0.47742000  0.27926000  0.62851000  1.0 -0.2591030454
N  N122  1  0.80801000  0.13712000  0.75060000  1.0 -0.2895298661
N  N123  1  0.02541000  0.58402000  0.93868000  1.0 -0.2591030454
N  N124  1  0.07842000  0.47442000  0.93788000  1.0 -0.2591030454
N  N125  1  0.45460000  0.43705000  0.56703000  1.0 -0.240558676
N  N126  1  0.43285000  0.52530000  0.65212000  1.0 -0.240558676
N  N127  1  0.82494000  0.72893000  0.87668000  1.0 -0.208418841
N  N128  1  0.68131000  0.14070000  0.69550000  1.0 -0.2498532426
N  N129  1  0.59202000  0.70320000  0.76338000  1.0 -0.2291285294
N  N130  1  0.46332000  0.56952000  0.59645000  1.0 -0.2498532426
N  N131  1  0.69865000  0.74090000  0.82301000  1.0 -0.2498532426
N  N132  1  0.72030000  0.78750000  0.76253000  1.0 -0.2225101542
N  N133  1  0.61210000  0.75460000  0.70321000  1.0 -0.2225101542
N  N134  1  0.49510000  0.62510000  0.70066000  1.0 -0.240558676
N  N135  1  0.51550000  0.67620000  0.64076000  1.0 -0.2225101542
N  N136  1  0.84666000  0.78760000  0.81916000  1.0 -0.2225101542
O  O1  1  0.72546000  0.54533000  0.98898000  1.0 -0.5890293679
O  O2  1  0.27454000  0.04533000  0.51102000  1.0 -0.5890293679
O  O3  1  0.27454000  0.45467000  0.01102000  1.0 -0.5890293679
O  O4  1  0.72546000  0.95467000  0.48898000  1.0 -0.5890293679
O  O5  1  0.72493000  0.82560000  0.53571000  1.0 -0.5890293679
O  O6  1  0.27507000  0.32560000  0.96429000  1.0 -0.5839172365
O  O7  1  0.27507000  0.17440000  0.46429000  1.0 -0.5890293679
O  O8  1  0.72493000  0.67440000  0.03571000  1.0 -0.5839172365
O  O9  1  0.65601000  0.44491000  0.97169000  1.0 -0.5515439621
O  O10  1  0.34399000  0.94491000  0.52831000  1.0 -0.5515439621
O  O11  1  0.34399000  0.55509000  0.02831000  1.0 -0.5515439621
O  O12  1  0.65601000  0.05509000  0.47169000  1.0 -0.5515439621
O  O13  1  0.64498000  0.81855000  0.55180000  1.0 -0.5515439621
O  O14  1  0.35502000  0.31855000  0.94820000  1.0 -0.5515439621
O  O15  1  0.35502000  0.18145000  0.44820000  1.0 -0.5515439621
O  O16  1  0.64498000  0.68145000  0.05180000  1.0 -0.5515439621
O  O17  1  0.55460000  0.04713000  0.48650000  1.0 -0.5515439621
O  O18  1  0.44540000  0.54713000  0.01350000  1.0 -0.5515439621
O  O19  1  0.44540000  0.95287000  0.51350000  1.0 -0.5515439621
O  O20  1  0.55460000  0.45287000  0.98650000  1.0 -0.5515439621
O  O21  1  0.44930000  0.08153000  0.46974000  1.0 -0.5563324155
O  O22  1  0.55070000  0.58153000  0.03026000  1.0 -0.5563324155
O  O23  1  0.55070000  0.91847000  0.53026000  1.0 -0.5563324155
O  O24  1  0.44930000  0.41847000  0.96974000  1.0 -0.5563324155
O  O25  1  0.99229000  0.03611000  0.45340000  1.0 -0.5225871299
O  O26  1  0.00971000  0.23520000  0.42768000  1.0 -0.5286168239
O  O27  1  0.85723000  0.23089000  0.15787000  1.0 -0.5286168239
O  O28  1  0.00459000  0.07545000  0.26198000  1.0 -0.5286168239
O  O29  1  0.84698000  0.34591000  0.33154000  1.0 -0.5286168239
O  O30  1  0.66082000  0.23633000  0.06880000  1.0 -0.5286168239
O  O31  1  0.03538000  0.88093000  0.31071000  1.0 -0.5225871299
O  O32  1  0.53431000  0.07335000  0.04523000  1.0 -0.5115283863
O  O33  1  0.84769000  0.88169000  0.42364000  1.0 -0.5225871299
O  O34  1  0.63424000  0.31658000  0.23773000  1.0 -0.5286168239
O  O35  1  0.90292000  0.72940000  0.27979000  1.0 -0.5225871299
O  O36  1  0.48047000  0.98629000  0.23403000  1.0 -0.5115283863
O  O37  1  0.47292000  0.18098000  0.19349000  1.0 -0.5286168239
O  O38  1  0.54720000  0.86757000  0.08964000  1.0 -0.4967457564
O  O39  1  0.64311000  0.85640000  0.33834000  1.0 -0.5225871299
O  O40  1  0.69620000  0.73760000  0.18618000  1.0 -0.4967457564
O  O41  1  0.00771000  0.53611000  0.04660000  1.0 -0.5225871299
O  O42  1  0.99029000  0.73520000  0.07232000  1.0 -0.5286168239
O  O43  1  0.14277000  0.73089000  0.34213000  1.0 -0.5286168239
O  O44  1  0.99541000  0.57545000  0.23802000  1.0 -0.5286168239
O  O45  1  0.15302000  0.84591000  0.16846000  1.0 -0.5286168239
O  O46  1  0.33918000  0.73633000  0.43120000  1.0 -0.5286168239
O  O47  1  0.96462000  0.38093000  0.18929000  1.0 -0.5225871299
O  O48  1  0.46569000  0.57335000  0.45477000  1.0 -0.5115283863
O  O49  1  0.15231000  0.38169000  0.07636000  1.0 -0.5225871299
O  O50  1  0.36576000  0.81658000  0.26227000  1.0 -0.5286168239
O  O51  1  0.09708000  0.22940000  0.22021000  1.0 -0.5286168239
O  O52  1  0.51953000  0.48629000  0.26597000  1.0 -0.5115283863
O  O53  1  0.52708000  0.68098000  0.30651000  1.0 -0.5286168239
O  O54  1  0.45280000  0.36757000  0.41036000  1.0 -0.4967457564
O  O55  1  0.35689000  0.35640000  0.16166000  1.0 -0.5225871299
O  O56  1  0.30380000  0.23760000  0.31382000  1.0 -0.4967457564
O  O57  1  0.00771000  0.96389000  0.54660000  1.0 -0.5225871299
O  O58  1  0.99029000  0.76480000  0.57232000  1.0 -0.5286168239
O  O59  1  0.14277000  0.76911000  0.84213000  1.0 -0.5286168239
O  O60  1  0.99541000  0.92455000  0.73802000  1.0 -0.5286168239
O  O61  1  0.15302000  0.65409000  0.66846000  1.0 -0.5286168239
O  O62  1  0.33918000  0.76367000  0.93120000  1.0 -0.5286168239
O  O63  1  0.96462000  0.11907000  0.68929000  1.0 -0.5225871299
O  O64  1  0.46569000  0.92665000  0.95477000  1.0 -0.5115283863
O  O65  1  0.15231000  0.11831000  0.57636000  1.0 -0.5225871299
O  O66  1  0.36576000  0.68342000  0.76227000  1.0 -0.5286168239
O  O67  1  0.09708000  0.27060000  0.72021000  1.0 -0.5286168239
O  O68  1  0.51953000  0.01371000  0.76597000  1.0 -0.5115283863
O  O69  1  0.52708000  0.81902000  0.80651000  1.0 -0.5286168239
O  O70  1  0.45280000  0.13243000  0.91036000  1.0 -0.4967457564
O  O71  1  0.35689000  0.14360000  0.66166000  1.0 -0.5225871299
O  O72  1  0.30380000  0.26240000  0.81382000  1.0 -0.4967457564
O  O73  1  0.99229000  0.46389000  0.95340000  1.0 -0.5225871299
O  O74  1  0.00971000  0.26480000  0.92768000  1.0 -0.5286168239
O  O75  1  0.85723000  0.26911000  0.65787000  1.0 -0.5286168239
O  O76  1  0.00459000  0.42455000  0.76198000  1.0 -0.5286168239
O  O77  1  0.84698000  0.15409000  0.83154000  1.0 -0.5286168239
O  O78  1  0.66082000  0.26367000  0.56880000  1.0 -0.5286168239
O  O79  1  0.03538000  0.61907000  0.81071000  1.0 -0.5225871299
O  O80  1  0.53431000  0.42665000  0.54523000  1.0 -0.5115283863
O  O81  1  0.84769000  0.61831000  0.92364000  1.0 -0.5225871299
O  O82  1  0.63424000  0.18342000  0.73773000  1.0 -0.5286168239
O  O83  1  0.90292000  0.77060000  0.77979000  1.0 -0.5225871299
O  O84  1  0.48047000  0.51371000  0.73403000  1.0 -0.5115283863
O  O85  1  0.47292000  0.31902000  0.69349000  1.0 -0.5286168239
O  O86  1  0.54720000  0.63243000  0.58964000  1.0 -0.4967457564
O  O87  1  0.64311000  0.64360000  0.83834000  1.0 -0.5225871299
O  O88  1  0.69620000  0.76240000  0.68618000  1.0 -0.4967457564
