# DDEC6 charges by PACMAN v1.1 (https://github.com/mtap-research/PACMAN-charge/)
data_LINTOV04_ASR_pacman
_symmetry_space_group_name_H-M   'P 1'
_cell_length_a   22.90000000
_cell_length_b   17.02500000
_cell_length_c   33.13100000
_cell_angle_alpha   90.00000000
_cell_angle_beta   123.72700000
_cell_angle_gamma   90.00000000
_symmetry_Int_Tables_number   1
_chemical_formula_structural   UH68C75(N17O11)2
_chemical_formula_sum   'U4 H272 C300 N136 O88'
_cell_volume   10742.86125320
_cell_formula_units_Z   4
loop_
 _symmetry_equiv_pos_site_id
 _symmetry_equiv_pos_as_xyz
  1  'x, y, z'
loop_
 _atom_site_type_symbol
 _atom_site_label
 _atom_site_symmetry_multiplicity
 _atom_site_fract_x
 _atom_site_fract_y
 _atom_site_fract_z
 _atom_site_occupancy
 _atom_site_charge
U  U1  1  0.35762000  0.05878000  0.48664000  1.0 1.7544587162
U  U2  1  0.64238000  0.55878000  0.01336000  1.0 1.7544587162
U  U3  1  0.64238000  0.94122000  0.51336000  1.0 1.7544587162
U  U4  1  0.35762000  0.44122000  0.98664000  1.0 1.7544587162
H  H1  1  0.20291000  0.47397000  0.04665000  1.0 0.1294353512
H  H2  1  0.79709000  0.97397000  0.45335000  1.0 0.1294353512
H  H3  1  0.79709000  0.52603000  0.95335000  1.0 0.1294353512
H  H4  1  0.20291000  0.02603000  0.54665000  1.0 0.1294353512
H  H5  1  0.13904000  0.54265000  0.06982000  1.0 0.1398214216
H  H6  1  0.86096000  0.04265000  0.43018000  1.0 0.1398214216
H  H7  1  0.86096000  0.45735000  0.93018000  1.0 0.1398214216
H  H8  1  0.13904000  0.95735000  0.56982000  1.0 0.1398214216
H  H9  1  0.28550000  0.69423000  0.25126000  1.0 0.1398214216
H  H10  1  0.71450000  0.19423000  0.24874000  1.0 0.1398214216
H  H11  1  0.71450000  0.30577000  0.74874000  1.0 0.1398214216
H  H12  1  0.28550000  0.80577000  0.75126000  1.0 0.1398214216
H  H13  1  0.37755000  0.45346000  0.43619000  1.0 0.1398214216
H  H14  1  0.62245000  0.95346000  0.06381000  1.0 0.1398214216
H  H15  1  0.62245000  0.54654000  0.56381000  1.0 0.1398214216
H  H16  1  0.37755000  0.04654000  0.93619000  1.0 0.1398214216
H  H17  1  0.07553000  0.60767000  0.11914000  1.0 0.1189843395
H  H18  1  0.92447000  0.10767000  0.38086000  1.0 0.1189843395
H  H19  1  0.92447000  0.39233000  0.88086000  1.0 0.1189843395
H  H20  1  0.07553000  0.89233000  0.61914000  1.0 0.1189843395
H  H21  1  0.25076000  0.72629000  0.17355000  1.0 0.1294353512
H  H22  1  0.74924000  0.22629000  0.32645000  1.0 0.1294353512
H  H23  1  0.74924000  0.27371000  0.82645000  1.0 0.1294353512
H  H24  1  0.25076000  0.77371000  0.67355000  1.0 0.1294353512
H  H25  1  0.10562000  0.57473000  0.19590000  1.0 0.1458144319
H  H26  1  0.89438000  0.07473000  0.30410000  1.0 0.1458144319
H  H27  1  0.89438000  0.42527000  0.80410000  1.0 0.1458144319
H  H28  1  0.10562000  0.92527000  0.69590000  1.0 0.1458144319
H  H29  1  0.32404000  0.63160000  0.31624000  1.0 0.1458144319
H  H30  1  0.67596000  0.13160000  0.18376000  1.0 0.1458144319
H  H31  1  0.67596000  0.36840000  0.68376000  1.0 0.1458144319
H  H32  1  0.32404000  0.86840000  0.81624000  1.0 0.1458144319
H  H33  1  0.38604000  0.31789000  0.44330000  1.0 0.1398214216
H  H34  1  0.61396000  0.81789000  0.05670000  1.0 0.1398214216
H  H35  1  0.61396000  0.68211000  0.55670000  1.0 0.1398214216
H  H36  1  0.38604000  0.18211000  0.94330000  1.0 0.1398214216
H  H37  1  0.12348000  0.58447000  0.26636000  1.0 0.1398214216
H  H38  1  0.87652000  0.08447000  0.23364000  1.0 0.1398214216
H  H39  1  0.87652000  0.41553000  0.73364000  1.0 0.1398214216
H  H40  1  0.12348000  0.91553000  0.76636000  1.0 0.1398214216
H  H41  1  0.35356000  0.59744000  0.39284000  1.0 0.1189843395
H  H42  1  0.64644000  0.09744000  0.10716000  1.0 0.1189843395
H  H43  1  0.64644000  0.40256000  0.60716000  1.0 0.1189843395
H  H44  1  0.35356000  0.90256000  0.89284000  1.0 0.1189843395
H  H45  1  0.08907000  0.68244000  0.06749000  1.0 0.1398214216
H  H46  1  0.91093000  0.18244000  0.43251000  1.0 0.1398214216
H  H47  1  0.91093000  0.31756000  0.93251000  1.0 0.1398214216
H  H48  1  0.08907000  0.81756000  0.56749000  1.0 0.1398214216
H  H49  1  0.14637000  0.75002000  0.08970000  1.0 0.1398214216
H  H50  1  0.85363000  0.25002000  0.41030000  1.0 0.1398214216
H  H51  1  0.85363000  0.24998000  0.91030000  1.0 0.1398214216
H  H52  1  0.14637000  0.74998000  0.58970000  1.0 0.1398214216
H  H53  1  0.23601000  0.74140000  0.07604000  1.0 0.1294353512
H  H54  1  0.76399000  0.24140000  0.42396000  1.0 0.1294353512
H  H55  1  0.76399000  0.25860000  0.92396000  1.0 0.1294353512
H  H56  1  0.23601000  0.75860000  0.57604000  1.0 0.1294353512
H  H57  1  0.29880000  0.67418000  0.05036000  1.0 0.1294353512
H  H58  1  0.70120000  0.17418000  0.44964000  1.0 0.1294353512
H  H59  1  0.70120000  0.32582000  0.94964000  1.0 0.1294353512
H  H60  1  0.29880000  0.82582000  0.55036000  1.0 0.1294353512
H  H61  1  0.15697000  0.55272000  0.34390000  1.0 0.1294353512
H  H62  1  0.84303000  0.05272000  0.15610000  1.0 0.1294353512
H  H63  1  0.84303000  0.44728000  0.65610000  1.0 0.1294353512
H  H64  1  0.15697000  0.94728000  0.84390000  1.0 0.1294353512
H  H65  1  0.32537000  0.57586000  0.44797000  1.0 0.1398214216
H  H66  1  0.67463000  0.07586000  0.05203000  1.0 0.1398214216
H  H67  1  0.67463000  0.42414000  0.55203000  1.0 0.1398214216
H  H68  1  0.32537000  0.92414000  0.94797000  1.0 0.1398214216
H  H69  1  0.24538000  0.57169000  0.43042000  1.0 0.1398214216
H  H70  1  0.75462000  0.07169000  0.06958000  1.0 0.1398214216
H  H71  1  0.75462000  0.42831000  0.56958000  1.0 0.1398214216
H  H72  1  0.24538000  0.92831000  0.93042000  1.0 0.1398214216
H  H73  1  0.19589000  0.44476000  0.42869000  1.0 0.1189843395
H  H74  1  0.80411000  0.94476000  0.07131000  1.0 0.1189843395
H  H75  1  0.80411000  0.55524000  0.57131000  1.0 0.1189843395
H  H76  1  0.19589000  0.05524000  0.92869000  1.0 0.1189843395
H  H77  1  0.20959000  0.31023000  0.44246000  1.0 0.1189843395
H  H78  1  0.79041000  0.81023000  0.05754000  1.0 0.1189843395
H  H79  1  0.79041000  0.68977000  0.55754000  1.0 0.1189843395
H  H80  1  0.20959000  0.18977000  0.94246000  1.0 0.1189843395
H  H81  1  0.45448000  0.61803000  0.90475000  1.0 0.0804490776
H  H82  1  0.84527000  0.89495000  0.53259000  1.0 0.110429823
H  H83  1  0.90776000  0.87366000  0.52705000  1.0 0.110429823
H  H84  1  0.84871000  0.83186000  0.60408000  1.0 0.0908905161
H  H85  1  0.89219000  0.00041000  0.67294000  1.0 0.1002099465
H  H86  1  0.83614000  0.96907000  0.62007000  1.0 0.1002099465
H  H87  1  0.88692000  0.14525000  0.54287000  1.0 0.0804490776
H  H88  1  0.83842000  0.03412000  0.55102000  1.0 0.0804490776
H  H89  1  0.90765000  0.72920000  0.65525000  1.0 0.0908905161
H  H90  1  0.59093000  0.76504000  0.94431000  1.0 0.0804490776
H  H91  1  0.23900000  0.67346000  0.89139000  1.0 0.110429823
H  H92  1  0.24324000  0.59094000  0.87112000  1.0 0.0804490776
H  H93  1  0.34325000  0.56785000  0.86213000  1.0 0.0804490776
H  H94  1  0.04796000  0.61382000  0.73686000  1.0 0.1002099465
H  H95  1  0.98182000  0.71848000  0.74333000  1.0 0.110429823
H  H96  1  0.02146000  0.79482000  0.77360000  1.0 0.110429823
H  H97  1  0.46675000  0.78414000  0.97366000  1.0 0.1189843395
H  H98  1  0.51499000  0.72021000  0.97133000  1.0 0.1002099465
H  H99  1  0.02151000  0.64623000  0.62436000  1.0 0.110429823
H  H100  1  0.98244000  0.62219000  0.64966000  1.0 0.1002099465
H  H101  1  0.63605000  0.88701000  0.95007000  1.0 0.0804490776
H  H102  1  0.02650000  0.28473000  0.57566000  1.0 0.0804490776
H  H103  1  0.13648000  0.33730000  0.61861000  1.0 0.0804490776
H  H104  1  0.02477000  0.10162000  0.52822000  1.0 0.1189843395
H  H105  1  0.97456000  0.17171000  0.52133000  1.0 0.0908905161
H  H106  1  0.52941000  0.66226000  0.87783000  1.0 0.1002099465
H  H107  1  0.49165000  0.69214000  0.82363000  1.0 0.110429823
H  H108  1  0.94280000  0.26163000  0.59980000  1.0 0.1002099465
H  H109  1  0.97415000  0.24657000  0.65541000  1.0 0.110429823
H  H110  1  0.65212000  0.96247000  0.89013000  1.0 0.0908905161
H  H111  1  0.60756000  0.93105000  0.83610000  1.0 0.110429823
H  H112  1  0.62283000  0.09552000  0.90492000  1.0 0.0804490776
H  H113  1  0.15915000  0.56507000  0.78341000  1.0 0.0804490776
H  H114  1  0.25861000  0.54565000  0.77497000  1.0 0.0908905161
H  H115  1  0.26398000  0.59949000  0.73818000  1.0 0.110429823
H  H116  1  0.23698000  0.30444000  0.61732000  1.0 0.0908905161
H  H117  1  0.24525000  0.21675000  0.60542000  1.0 0.1189843395
H  H118  1  0.61235000  0.02482000  0.96605000  1.0 0.0804490776
H  H119  1  0.54146000  0.03687000  0.96306000  1.0 0.1189843395
H  H120  1  0.48061000  0.14518000  0.73155000  1.0 0.1189843395
H  H121  1  0.51074000  0.21937000  0.76618000  1.0 0.110429823
H  H122  1  0.47999000  0.29095000  0.85126000  1.0 0.1002099465
H  H123  1  0.43033000  0.25902000  0.86678000  1.0 0.1189843395
H  H124  1  0.31878000  0.35018000  0.70419000  1.0 0.0908905161
H  H125  1  0.42793000  0.31337000  0.76349000  1.0 0.1002099465
H  H126  1  0.21724000  0.38139000  0.70428000  1.0 0.0908905161
H  H127  1  0.20914000  0.34174000  0.74415000  1.0 0.1189843395
H  H128  1  0.56511000  0.19963000  0.85348000  1.0 0.0804490776
H  H129  1  0.54552000  0.11803000  0.59525000  1.0 0.0804490776
H  H130  1  0.15473000  0.39495000  0.96741000  1.0 0.110429823
H  H131  1  0.09224000  0.37366000  0.97295000  1.0 0.110429823
H  H132  1  0.15129000  0.33186000  0.89592000  1.0 0.0908905161
H  H133  1  0.10781000  0.50041000  0.82706000  1.0 0.1002099465
H  H134  1  0.16386000  0.46907000  0.87993000  1.0 0.1002099465
H  H135  1  0.11308000  0.64525000  0.95713000  1.0 0.0804490776
H  H136  1  0.16158000  0.53412000  0.94898000  1.0 0.0804490776
H  H137  1  0.09235000  0.22920000  0.84475000  1.0 0.0908905161
H  H138  1  0.40907000  0.26504000  0.55569000  1.0 0.0804490776
H  H139  1  0.76100000  0.17346000  0.60861000  1.0 0.110429823
H  H140  1  0.75676000  0.09094000  0.62888000  1.0 0.0804490776
H  H141  1  0.65675000  0.06785000  0.63787000  1.0 0.0804490776
H  H142  1  0.95204000  0.11382000  0.76314000  1.0 0.1002099465
H  H143  1  0.01818000  0.21848000  0.75667000  1.0 0.110429823
H  H144  1  0.97854000  0.29482000  0.72640000  1.0 0.110429823
H  H145  1  0.53325000  0.28414000  0.52634000  1.0 0.1189843395
H  H146  1  0.48501000  0.22021000  0.52867000  1.0 0.1002099465
H  H147  1  0.97849000  0.14623000  0.87564000  1.0 0.110429823
H  H148  1  0.01756000  0.12219000  0.85034000  1.0 0.1002099465
H  H149  1  0.36395000  0.38701000  0.54993000  1.0 0.0804490776
H  H150  1  0.97350000  0.78473000  0.92434000  1.0 0.0804490776
H  H151  1  0.86352000  0.83730000  0.88139000  1.0 0.0804490776
H  H152  1  0.97523000  0.60162000  0.97178000  1.0 0.1189843395
H  H153  1  0.02544000  0.67171000  0.97867000  1.0 0.0908905161
H  H154  1  0.47059000  0.16226000  0.62217000  1.0 0.1002099465
H  H155  1  0.50835000  0.19214000  0.67637000  1.0 0.110429823
H  H156  1  0.05720000  0.76163000  0.90020000  1.0 0.1002099465
H  H157  1  0.02585000  0.74657000  0.84459000  1.0 0.110429823
H  H158  1  0.34788000  0.46247000  0.60987000  1.0 0.0908905161
H  H159  1  0.39244000  0.43105000  0.66390000  1.0 0.110429823
H  H160  1  0.37717000  0.59552000  0.59508000  1.0 0.0804490776
H  H161  1  0.84085000  0.06507000  0.71659000  1.0 0.0804490776
H  H162  1  0.74139000  0.04565000  0.72503000  1.0 0.0908905161
H  H163  1  0.73602000  0.09949000  0.76182000  1.0 0.110429823
H  H164  1  0.76302000  0.80444000  0.88268000  1.0 0.0908905161
H  H165  1  0.75475000  0.71675000  0.89458000  1.0 0.1189843395
H  H166  1  0.38765000  0.52482000  0.53395000  1.0 0.0804490776
H  H167  1  0.45854000  0.53687000  0.53694000  1.0 0.1189843395
H  H168  1  0.51939000  0.64518000  0.76845000  1.0 0.1189843395
H  H169  1  0.48926000  0.71937000  0.73382000  1.0 0.110429823
H  H170  1  0.52001000  0.79095000  0.64874000  1.0 0.1002099465
H  H171  1  0.56967000  0.75902000  0.63322000  1.0 0.1189843395
H  H172  1  0.68122000  0.85018000  0.79581000  1.0 0.0908905161
H  H173  1  0.57207000  0.81337000  0.73651000  1.0 0.1002099465
H  H174  1  0.78276000  0.88139000  0.79572000  1.0 0.0908905161
H  H175  1  0.79086000  0.84174000  0.75585000  1.0 0.1189843395
H  H176  1  0.43489000  0.69963000  0.64652000  1.0 0.0804490776
H  H177  1  0.54552000  0.38197000  0.09525000  1.0 0.0804490776
H  H178  1  0.15473000  0.10505000  0.46741000  1.0 0.110429823
H  H179  1  0.09224000  0.12634000  0.47295000  1.0 0.110429823
H  H180  1  0.15129000  0.16814000  0.39592000  1.0 0.0908905161
H  H181  1  0.10781000  0.99959000  0.32706000  1.0 0.1002099465
H  H182  1  0.16386000  0.03093000  0.37993000  1.0 0.1002099465
H  H183  1  0.11308000  0.85475000  0.45713000  1.0 0.0804490776
H  H184  1  0.16158000  0.96588000  0.44898000  1.0 0.0804490776
H  H185  1  0.09235000  0.27080000  0.34475000  1.0 0.0908905161
H  H186  1  0.40907000  0.23496000  0.05569000  1.0 0.0804490776
H  H187  1  0.76100000  0.32654000  0.10861000  1.0 0.110429823
H  H188  1  0.75676000  0.40906000  0.12888000  1.0 0.0804490776
H  H189  1  0.65675000  0.43215000  0.13787000  1.0 0.0804490776
H  H190  1  0.95204000  0.38618000  0.26314000  1.0 0.1002099465
H  H191  1  0.01818000  0.28152000  0.25667000  1.0 0.110429823
H  H192  1  0.97854000  0.20518000  0.22640000  1.0 0.110429823
H  H193  1  0.53325000  0.21586000  0.02634000  1.0 0.1189843395
H  H194  1  0.48501000  0.27979000  0.02867000  1.0 0.1002099465
H  H195  1  0.97849000  0.35377000  0.37564000  1.0 0.110429823
H  H196  1  0.01756000  0.37781000  0.35034000  1.0 0.1002099465
H  H197  1  0.36395000  0.11299000  0.04993000  1.0 0.0804490776
H  H198  1  0.97350000  0.71527000  0.42434000  1.0 0.0804490776
H  H199  1  0.86352000  0.66270000  0.38139000  1.0 0.0804490776
H  H200  1  0.97523000  0.89838000  0.47178000  1.0 0.1189843395
H  H201  1  0.02544000  0.82829000  0.47867000  1.0 0.0908905161
H  H202  1  0.47059000  0.33774000  0.12217000  1.0 0.1002099465
H  H203  1  0.50835000  0.30786000  0.17637000  1.0 0.110429823
H  H204  1  0.05720000  0.73837000  0.40020000  1.0 0.1002099465
H  H205  1  0.02585000  0.75343000  0.34459000  1.0 0.110429823
H  H206  1  0.34788000  0.03753000  0.10987000  1.0 0.0908905161
H  H207  1  0.39244000  0.06895000  0.16390000  1.0 0.110429823
H  H208  1  0.37717000  0.90448000  0.09508000  1.0 0.0804490776
H  H209  1  0.84085000  0.43493000  0.21659000  1.0 0.0804490776
H  H210  1  0.74139000  0.45435000  0.22503000  1.0 0.0908905161
H  H211  1  0.73602000  0.40051000  0.26182000  1.0 0.110429823
H  H212  1  0.76302000  0.69556000  0.38268000  1.0 0.0908905161
H  H213  1  0.75475000  0.78325000  0.39458000  1.0 0.1189843395
H  H214  1  0.38765000  0.97518000  0.03395000  1.0 0.0804490776
H  H215  1  0.45854000  0.96313000  0.03694000  1.0 0.1189843395
H  H216  1  0.51939000  0.85482000  0.26845000  1.0 0.1189843395
H  H217  1  0.48926000  0.78063000  0.23382000  1.0 0.110429823
H  H218  1  0.52001000  0.70905000  0.14874000  1.0 0.1002099465
H  H219  1  0.56967000  0.74098000  0.13322000  1.0 0.1189843395
H  H220  1  0.68122000  0.64982000  0.29581000  1.0 0.0908905161
H  H221  1  0.57207000  0.68663000  0.23651000  1.0 0.1002099465
H  H222  1  0.78276000  0.61861000  0.29572000  1.0 0.0908905161
H  H223  1  0.79086000  0.65826000  0.25585000  1.0 0.1189843395
H  H224  1  0.43489000  0.80037000  0.14652000  1.0 0.0804490776
H  H225  1  0.45448000  0.88197000  0.40475000  1.0 0.0804490776
H  H226  1  0.84527000  0.60505000  0.03259000  1.0 0.110429823
H  H227  1  0.90776000  0.62634000  0.02705000  1.0 0.110429823
H  H228  1  0.84871000  0.66814000  0.10408000  1.0 0.0908905161
H  H229  1  0.89219000  0.49959000  0.17294000  1.0 0.1002099465
H  H230  1  0.83614000  0.53093000  0.12007000  1.0 0.1002099465
H  H231  1  0.88692000  0.35475000  0.04287000  1.0 0.0804490776
H  H232  1  0.83842000  0.46588000  0.05102000  1.0 0.0804490776
H  H233  1  0.90765000  0.77080000  0.15525000  1.0 0.0908905161
H  H234  1  0.59093000  0.73496000  0.44431000  1.0 0.0804490776
H  H235  1  0.23900000  0.82654000  0.39139000  1.0 0.110429823
H  H236  1  0.24324000  0.90906000  0.37112000  1.0 0.0804490776
H  H237  1  0.34325000  0.93215000  0.36213000  1.0 0.0804490776
H  H238  1  0.04796000  0.88618000  0.23686000  1.0 0.1002099465
H  H239  1  0.98182000  0.78152000  0.24333000  1.0 0.110429823
H  H240  1  0.02146000  0.70518000  0.27360000  1.0 0.110429823
H  H241  1  0.46675000  0.71586000  0.47366000  1.0 0.1189843395
H  H242  1  0.51499000  0.77979000  0.47133000  1.0 0.1002099465
H  H243  1  0.02151000  0.85377000  0.12436000  1.0 0.110429823
H  H244  1  0.98244000  0.87781000  0.14966000  1.0 0.1002099465
H  H245  1  0.63605000  0.61299000  0.45007000  1.0 0.0804490776
H  H246  1  0.02650000  0.21527000  0.07566000  1.0 0.0804490776
H  H247  1  0.13648000  0.16270000  0.11861000  1.0 0.0804490776
H  H248  1  0.02477000  0.39838000  0.02822000  1.0 0.1189843395
H  H249  1  0.97456000  0.32829000  0.02133000  1.0 0.0908905161
H  H250  1  0.52941000  0.83774000  0.37783000  1.0 0.1002099465
H  H251  1  0.49165000  0.80786000  0.32363000  1.0 0.110429823
H  H252  1  0.94280000  0.23837000  0.09980000  1.0 0.1002099465
H  H253  1  0.97415000  0.25343000  0.15541000  1.0 0.110429823
H  H254  1  0.65212000  0.53753000  0.39013000  1.0 0.0908905161
H  H255  1  0.60756000  0.56895000  0.33610000  1.0 0.110429823
H  H256  1  0.62283000  0.40448000  0.40492000  1.0 0.0804490776
H  H257  1  0.15915000  0.93493000  0.28341000  1.0 0.0804490776
H  H258  1  0.25861000  0.95435000  0.27497000  1.0 0.0908905161
H  H259  1  0.26398000  0.90051000  0.23818000  1.0 0.110429823
H  H260  1  0.23698000  0.19556000  0.11732000  1.0 0.0908905161
H  H261  1  0.24525000  0.28325000  0.10542000  1.0 0.1189843395
H  H262  1  0.61235000  0.47518000  0.46605000  1.0 0.0804490776
H  H263  1  0.54146000  0.46313000  0.46306000  1.0 0.1189843395
H  H264  1  0.48061000  0.35482000  0.23155000  1.0 0.1189843395
H  H265  1  0.51074000  0.28063000  0.26618000  1.0 0.110429823
H  H266  1  0.47999000  0.20905000  0.35126000  1.0 0.1002099465
H  H267  1  0.43033000  0.24098000  0.36678000  1.0 0.1189843395
H  H268  1  0.31878000  0.14982000  0.20419000  1.0 0.0908905161
H  H269  1  0.42793000  0.18663000  0.26349000  1.0 0.1002099465
H  H270  1  0.21724000  0.11861000  0.20428000  1.0 0.0908905161
H  H271  1  0.20914000  0.15826000  0.24415000  1.0 0.1189843395
H  H272  1  0.56511000  0.30037000  0.35348000  1.0 0.0804490776
C  C1  1  0.20950000  0.52840000  0.05213000  1.0 -0.0707344579
C  C2  1  0.79050000  0.02840000  0.44787000  1.0 -0.0707344579
C  C3  1  0.79050000  0.47160000  0.94787000  1.0 -0.0707344579
C  C4  1  0.20950000  0.97160000  0.55213000  1.0 -0.0707344579
C  C5  1  0.29380000  0.52450000  0.02766000  1.0 0.5377160516
C  C6  1  0.70620000  0.02450000  0.47234000  1.0 0.5377160516
C  C7  1  0.70620000  0.47550000  0.97234000  1.0 0.5377160516
C  C8  1  0.29380000  0.97550000  0.52766000  1.0 0.5377160516
C  C9  1  0.25680000  0.56760000  0.04609000  1.0 -0.0394683447
C  C10  1  0.74320000  0.06760000  0.45391000  1.0 -0.0394683447
C  C11  1  0.74320000  0.43240000  0.95391000  1.0 -0.0394683447
C  C12  1  0.25680000  0.93240000  0.54609000  1.0 -0.0394683447
C  C13  1  0.19920000  0.63210000  0.23260000  1.0 0.110429823
C  C14  1  0.80080000  0.13210000  0.26740000  1.0 0.110429823
C  C15  1  0.80080000  0.36790000  0.76740000  1.0 0.110429823
C  C16  1  0.19920000  0.86790000  0.73260000  1.0 0.110429823
C  C17  1  0.21950000  0.61140000  0.28208000  1.0 0.110429823
C  C18  1  0.78050000  0.11140000  0.21792000  1.0 0.110429823
C  C19  1  0.78050000  0.38860000  0.71792000  1.0 0.110429823
C  C20  1  0.21950000  0.88860000  0.78208000  1.0 0.110429823
C  C21  1  0.30870000  0.21450000  0.45157000  1.0 0.5377160516
C  C22  1  0.69130000  0.71450000  0.04843000  1.0 0.5377160516
C  C23  1  0.69130000  0.78550000  0.54843000  1.0 0.5377160516
C  C24  1  0.30870000  0.28550000  0.95157000  1.0 0.5377160516
C  C25  1  0.29870000  0.30100000  0.44389000  1.0 -0.0394683447
C  C26  1  0.70130000  0.80100000  0.05611000  1.0 -0.0394683447
C  C27  1  0.70130000  0.69900000  0.55611000  1.0 -0.0394683447
C  C28  1  0.29870000  0.19900000  0.94389000  1.0 -0.0394683447
C  C29  1  0.49730000  0.96220000  0.51120000  1.0 0.4777441752
C  C30  1  0.50270000  0.46220000  0.98880000  1.0 0.4777441752
C  C31  1  0.50270000  0.03780000  0.48880000  1.0 0.4777441752
C  C32  1  0.49730000  0.53780000  0.01120000  1.0 0.4777441752
C  C33  1  0.17180000  0.56940000  0.06623000  1.0 -0.1399805769
C  C34  1  0.82820000  0.06940000  0.43377000  1.0 -0.1399805769
C  C35  1  0.82820000  0.43060000  0.93377000  1.0 -0.1399805769
C  C36  1  0.17180000  0.93060000  0.56623000  1.0 -0.1399805769
C  C37  1  0.24190000  0.67650000  0.22478000  1.0 -0.1792084729
C  C38  1  0.75810000  0.17650000  0.27522000  1.0 -0.1792084729
C  C39  1  0.75810000  0.32350000  0.77522000  1.0 -0.1792084729
C  C40  1  0.24190000  0.82350000  0.72478000  1.0 -0.1792084729
C  C41  1  0.34280000  0.42450000  0.43640000  1.0 -0.1399805769
C  C42  1  0.65720000  0.92450000  0.06360000  1.0 -0.1399805769
C  C43  1  0.65720000  0.57550000  0.56360000  1.0 -0.1399805769
C  C44  1  0.34280000  0.07550000  0.93640000  1.0 -0.1399805769
C  C45  1  0.11810000  0.62580000  0.14639000  1.0 0.0292563322
C  C46  1  0.88190000  0.12580000  0.35361000  1.0 0.0292563322
C  C47  1  0.88190000  0.37420000  0.85361000  1.0 0.0292563322
C  C48  1  0.11810000  0.87420000  0.64639000  1.0 0.0292563322
C  C49  1  0.22120000  0.69520000  0.17842000  1.0 0.0564990696
C  C50  1  0.77880000  0.19520000  0.32158000  1.0 0.0564990696
C  C51  1  0.77880000  0.30480000  0.82158000  1.0 0.0564990696
C  C52  1  0.22120000  0.80480000  0.67842000  1.0 0.0564990696
C  C53  1  0.13600000  0.60600000  0.19201000  1.0 -0.1792084729
C  C54  1  0.86400000  0.10600000  0.30799000  1.0 -0.1792084729
C  C55  1  0.86400000  0.39400000  0.80799000  1.0 -0.1792084729
C  C56  1  0.13600000  0.89400000  0.69201000  1.0 -0.1792084729
C  C57  1  0.28900000  0.61530000  0.32097000  1.0 -0.1888950885
C  C58  1  0.71100000  0.11530000  0.17903000  1.0 -0.1888950885
C  C59  1  0.71100000  0.38470000  0.67903000  1.0 -0.1888950885
C  C60  1  0.28900000  0.88470000  0.82097000  1.0 -0.1888950885
C  C61  1  0.34840000  0.34390000  0.44147000  1.0 -0.0707344579
C  C62  1  0.65160000  0.84390000  0.05853000  1.0 -0.0707344579
C  C63  1  0.65160000  0.65610000  0.55853000  1.0 -0.0707344579
C  C64  1  0.34840000  0.15610000  0.94147000  1.0 -0.0707344579
C  C65  1  0.17110000  0.58760000  0.29187000  1.0 -0.173572475
C  C66  1  0.82890000  0.08760000  0.20813000  1.0 -0.173572475
C  C67  1  0.82890000  0.41240000  0.70813000  1.0 -0.173572475
C  C68  1  0.17110000  0.91240000  0.79187000  1.0 -0.173572475
C  C69  1  0.18140000  0.64900000  0.07518000  1.0 0.1002099465
C  C70  1  0.81860000  0.14900000  0.42482000  1.0 0.1002099465
C  C71  1  0.81860000  0.35100000  0.92482000  1.0 0.1002099465
C  C72  1  0.18140000  0.85100000  0.57518000  1.0 0.1002099465
C  C73  1  0.30630000  0.59510000  0.36658000  1.0 0.0384040171
C  C74  1  0.69370000  0.09510000  0.13342000  1.0 0.0384040171
C  C75  1  0.69370000  0.40490000  0.63342000  1.0 0.0384040171
C  C76  1  0.30630000  0.90490000  0.86658000  1.0 0.0384040171
C  C77  1  0.13910000  0.69340000  0.09049000  1.0 -0.1888950885
C  C78  1  0.86090000  0.19340000  0.40951000  1.0 -0.1888950885
C  C79  1  0.86090000  0.30660000  0.90951000  1.0 -0.1888950885
C  C80  1  0.13910000  0.80660000  0.59049000  1.0 -0.1888950885
C  C81  1  0.28610000  0.46280000  0.43165000  1.0 0.1002099465
C  C82  1  0.71390000  0.96280000  0.06835000  1.0 0.1002099465
C  C83  1  0.71390000  0.53720000  0.56835000  1.0 0.1002099465
C  C84  1  0.28610000  0.03720000  0.93165000  1.0 0.1002099465
C  C85  1  0.22880000  0.68720000  0.06960000  1.0 -0.1792084729
C  C86  1  0.77120000  0.18720000  0.43040000  1.0 -0.1792084729
C  C87  1  0.77120000  0.31280000  0.93040000  1.0 -0.1792084729
C  C88  1  0.22880000  0.81280000  0.56960000  1.0 -0.1792084729
C  C89  1  0.26680000  0.64710000  0.05460000  1.0 -0.0984852258
C  C90  1  0.73320000  0.14710000  0.44540000  1.0 -0.0984852258
C  C91  1  0.73320000  0.35290000  0.94540000  1.0 -0.0984852258
C  C92  1  0.26680000  0.85290000  0.55460000  1.0 -0.0984852258
C  C93  1  0.19090000  0.56860000  0.33796000  1.0 0.0475961026
C  C94  1  0.80910000  0.06860000  0.16204000  1.0 0.0475961026
C  C95  1  0.80910000  0.43140000  0.66204000  1.0 0.0475961026
C  C96  1  0.19090000  0.93140000  0.83796000  1.0 0.0475961026
C  C97  1  0.28000000  0.55140000  0.42448000  1.0 -0.1888950885
C  C98  1  0.72000000  0.05140000  0.07552000  1.0 -0.1888950885
C  C99  1  0.72000000  0.44860000  0.57552000  1.0 -0.1888950885
C  C100  1  0.28000000  0.94860000  0.92448000  1.0 -0.1888950885
C  C101  1  0.23530000  0.41930000  0.43285000  1.0 -0.1888950885
C  C102  1  0.76470000  0.91930000  0.06715000  1.0 -0.1888950885
C  C103  1  0.76470000  0.58070000  0.56715000  1.0 -0.1888950885
C  C104  1  0.23530000  0.08070000  0.93285000  1.0 -0.1888950885
C  C105  1  0.24270000  0.33890000  0.44011000  1.0 -0.1095081437
C  C106  1  0.75730000  0.83890000  0.05989000  1.0 -0.1095081437
C  C107  1  0.75730000  0.66110000  0.55989000  1.0 -0.1095081437
C  C108  1  0.24270000  0.16110000  0.94011000  1.0 -0.1095081437
C  C109  1  0.41920000  0.65850000  0.88424000  1.0 0.110429823
C  C110  1  0.97220000  0.00320000  0.55583000  1.0 0.528901833
C  C111  1  0.89650000  0.89420000  0.54961000  1.0 0.0292563322
C  C112  1  0.90022000  0.83920000  0.62247000  1.0 0.1002099465
C  C113  1  0.97010000  0.88200000  0.70302000  1.0 0.5107586999
C  C114  1  0.94510000  0.10230000  0.64759000  1.0 0.528901833
C  C115  1  0.35350000  0.72250000  0.90885000  1.0 0.5184680951
C  C116  1  0.88640000  0.97840000  0.64358000  1.0 0.0292563322
C  C117  1  0.92250000  0.11120000  0.56951000  1.0 0.1002099465
C  C118  1  0.89010000  0.03470000  0.57395000  1.0 0.110429823
C  C119  1  0.96710000  0.78010000  0.59743000  1.0 0.5107586999
C  C120  1  0.94020000  0.76820000  0.65584000  1.0 0.1002099465
C  C121  1  0.55400000  0.80260000  0.92172000  1.0 0.1002099465
C  C122  1  0.24350000  0.64780000  0.86674000  1.0 0.0292563322
C  C123  1  0.34340000  0.62470000  0.85598000  1.0 0.1002099465
C  C124  1  0.08340000  0.65190000  0.74071000  1.0 0.110429823
C  C125  1  0.01480000  0.75980000  0.74787000  1.0 0.0384040171
C  C126  1  0.50080000  0.89750000  0.94209000  1.0 0.528901833
C  C127  1  0.47830000  0.75940000  0.95223000  1.0 0.0292563322
C  C128  1  0.14210000  0.65040000  0.70188000  1.0 0.5107586999
C  C129  1  0.13640000  0.72600000  0.81146000  1.0 0.528901833
C  C130  1  0.01310000  0.66180000  0.64922000  1.0 0.018212824
C  C131  1  0.58550000  0.88420000  0.92382000  1.0 0.110429823
C  C132  1  0.09930000  0.26710000  0.68343000  1.0 0.5107586999
C  C133  1  0.36990000  0.67030000  0.80114000  1.0 0.5107586999
C  C134  1  0.06050000  0.24940000  0.60218000  1.0 0.0908905161
C  C135  1  0.53870000  0.82820000  0.84727000  1.0 0.528901833
C  C136  1  0.13590000  0.28440000  0.63077000  1.0 0.0908905161
C  C137  1  0.00900000  0.13400000  0.54489000  1.0 0.0292563322
C  C138  1  0.49550000  0.70040000  0.85429000  1.0 0.0384040171
C  C139  1  0.97570000  0.22910000  0.62784000  1.0 0.0292563322
C  C140  1  0.52810000  0.05020000  0.80000000  1.0 0.5107586999
C  C141  1  0.60430000  0.95140000  0.86250000  1.0 0.018212824
C  C142  1  0.57280000  0.08340000  0.88040000  1.0 0.1002099465
C  C143  1  0.15860000  0.62170000  0.77640000  1.0 0.110429823
C  C144  1  0.13350000  0.17000000  0.59184000  1.0 0.5107586999
C  C145  1  0.25890000  0.60020000  0.76567000  1.0 0.0292563322
C  C146  1  0.35470000  0.19000000  0.68810000  1.0 0.5184680951
C  C147  1  0.48590000  0.12610000  0.89185000  1.0 0.5107586999
C  C148  1  0.23970000  0.24970000  0.62734000  1.0 0.018212824
C  C149  1  0.56120000  0.01910000  0.94489000  1.0 0.0292563322
C  C150  1  0.47910000  0.17420000  0.75650000  1.0 0.018212824
C  C151  1  0.44660000  0.24930000  0.84540000  1.0 0.0101722431
C  C152  1  0.31950000  0.29560000  0.71470000  1.0 0.0908905161
C  C153  1  0.39340000  0.27100000  0.75530000  1.0 0.0908905161
C  C154  1  0.21460000  0.33090000  0.71740000  1.0 0.0101722431
C  C155  1  0.32130000  0.26790000  0.78420000  1.0 0.5014377442
C  C156  1  0.53280000  0.15530000  0.84650000  1.0 0.0908905161
C  C157  1  0.58080000  0.15850000  0.61576000  1.0 0.110429823
C  C158  1  0.02780000  0.50320000  0.94417000  1.0 0.528901833
C  C159  1  0.10350000  0.39420000  0.95039000  1.0 0.0292563322
C  C160  1  0.09978000  0.33920000  0.87753000  1.0 0.1002099465
C  C161  1  0.02990000  0.38200000  0.79698000  1.0 0.5107586999
C  C162  1  0.05490000  0.60230000  0.85241000  1.0 0.528901833
C  C163  1  0.64650000  0.22250000  0.59115000  1.0 0.5184680951
C  C164  1  0.11360000  0.47840000  0.85642000  1.0 0.0292563322
C  C165  1  0.07750000  0.61120000  0.93049000  1.0 0.1002099465
C  C166  1  0.10990000  0.53470000  0.92605000  1.0 0.110429823
C  C167  1  0.03290000  0.28010000  0.90257000  1.0 0.5107586999
C  C168  1  0.05980000  0.26820000  0.84416000  1.0 0.1002099465
C  C169  1  0.44600000  0.30260000  0.57828000  1.0 0.1002099465
C  C170  1  0.75650000  0.14780000  0.63326000  1.0 0.0292563322
C  C171  1  0.65660000  0.12470000  0.64402000  1.0 0.1002099465
C  C172  1  0.91660000  0.15190000  0.75929000  1.0 0.110429823
C  C173  1  0.98520000  0.25980000  0.75213000  1.0 0.0384040171
C  C174  1  0.49920000  0.39750000  0.55791000  1.0 0.528901833
C  C175  1  0.52170000  0.25940000  0.54777000  1.0 0.0292563322
C  C176  1  0.85790000  0.15040000  0.79812000  1.0 0.5107586999
C  C177  1  0.86360000  0.22600000  0.68854000  1.0 0.528901833
C  C178  1  0.98690000  0.16180000  0.85078000  1.0 0.018212824
C  C179  1  0.41450000  0.38420000  0.57618000  1.0 0.110429823
C  C180  1  0.90070000  0.76710000  0.81657000  1.0 0.5107586999
C  C181  1  0.63010000  0.17030000  0.69886000  1.0 0.5107586999
C  C182  1  0.93950000  0.74940000  0.89782000  1.0 0.0908905161
C  C183  1  0.46130000  0.32820000  0.65273000  1.0 0.528901833
C  C184  1  0.86410000  0.78440000  0.86923000  1.0 0.0908905161
C  C185  1  0.99100000  0.63400000  0.95511000  1.0 0.0292563322
C  C186  1  0.50450000  0.20040000  0.64571000  1.0 0.0384040171
C  C187  1  0.02430000  0.72910000  0.87216000  1.0 0.0292563322
C  C188  1  0.47190000  0.55020000  0.70000000  1.0 0.5107586999
C  C189  1  0.39570000  0.45140000  0.63750000  1.0 0.018212824
C  C190  1  0.42720000  0.58340000  0.61960000  1.0 0.1002099465
C  C191  1  0.84140000  0.12170000  0.72360000  1.0 0.110429823
C  C192  1  0.86650000  0.67000000  0.90816000  1.0 0.5107586999
C  C193  1  0.74110000  0.10020000  0.73433000  1.0 0.0292563322
C  C194  1  0.64530000  0.69000000  0.81190000  1.0 0.5184680951
C  C195  1  0.51410000  0.62610000  0.60815000  1.0 0.5107586999
C  C196  1  0.76030000  0.74970000  0.87266000  1.0 0.018212824
C  C197  1  0.43880000  0.51910000  0.55511000  1.0 0.0292563322
C  C198  1  0.52090000  0.67420000  0.74350000  1.0 0.018212824
C  C199  1  0.55340000  0.74930000  0.65460000  1.0 0.0101722431
C  C200  1  0.68050000  0.79560000  0.78530000  1.0 0.0908905161
C  C201  1  0.60660000  0.77100000  0.74470000  1.0 0.0908905161
C  C202  1  0.78540000  0.83090000  0.78260000  1.0 0.0101722431
C  C203  1  0.67870000  0.76790000  0.71580000  1.0 0.5014377442
C  C204  1  0.46720000  0.65530000  0.65350000  1.0 0.0908905161
C  C205  1  0.58080000  0.34150000  0.11576000  1.0 0.110429823
C  C206  1  0.02780000  0.99680000  0.44417000  1.0 0.528901833
C  C207  1  0.10350000  0.10580000  0.45039000  1.0 0.0292563322
C  C208  1  0.09978000  0.16080000  0.37753000  1.0 0.1002099465
C  C209  1  0.02990000  0.11800000  0.29698000  1.0 0.5107586999
C  C210  1  0.05490000  0.89770000  0.35241000  1.0 0.528901833
C  C211  1  0.64650000  0.27750000  0.09115000  1.0 0.5184680951
C  C212  1  0.11360000  0.02160000  0.35642000  1.0 0.0292563322
C  C213  1  0.07750000  0.88880000  0.43049000  1.0 0.1002099465
C  C214  1  0.10990000  0.96530000  0.42605000  1.0 0.110429823
C  C215  1  0.03290000  0.21990000  0.40257000  1.0 0.5107586999
C  C216  1  0.05980000  0.23180000  0.34416000  1.0 0.1002099465
C  C217  1  0.44600000  0.19740000  0.07828000  1.0 0.1002099465
C  C218  1  0.75650000  0.35220000  0.13326000  1.0 0.0292563322
C  C219  1  0.65660000  0.37530000  0.14402000  1.0 0.1002099465
C  C220  1  0.91660000  0.34810000  0.25929000  1.0 0.110429823
C  C221  1  0.98520000  0.24020000  0.25213000  1.0 0.0384040171
C  C222  1  0.49920000  0.10250000  0.05791000  1.0 0.528901833
C  C223  1  0.52170000  0.24060000  0.04777000  1.0 0.0292563322
C  C224  1  0.85790000  0.34960000  0.29812000  1.0 0.5107586999
C  C225  1  0.86360000  0.27400000  0.18854000  1.0 0.528901833
C  C226  1  0.98690000  0.33820000  0.35078000  1.0 0.018212824
C  C227  1  0.41450000  0.11580000  0.07618000  1.0 0.110429823
C  C228  1  0.90070000  0.73290000  0.31657000  1.0 0.5107586999
C  C229  1  0.63010000  0.32970000  0.19886000  1.0 0.5107586999
C  C230  1  0.93950000  0.75060000  0.39782000  1.0 0.0908905161
C  C231  1  0.46130000  0.17180000  0.15273000  1.0 0.528901833
C  C232  1  0.86410000  0.71560000  0.36923000  1.0 0.0908905161
C  C233  1  0.99100000  0.86600000  0.45511000  1.0 0.0292563322
C  C234  1  0.50450000  0.29960000  0.14571000  1.0 0.0384040171
C  C235  1  0.02430000  0.77090000  0.37216000  1.0 0.0292563322
C  C236  1  0.47190000  0.94980000  0.20000000  1.0 0.5107586999
C  C237  1  0.39570000  0.04860000  0.13750000  1.0 0.018212824
C  C238  1  0.42720000  0.91660000  0.11960000  1.0 0.1002099465
C  C239  1  0.84140000  0.37830000  0.22360000  1.0 0.110429823
C  C240  1  0.86650000  0.83000000  0.40816000  1.0 0.5107586999
C  C241  1  0.74110000  0.39980000  0.23433000  1.0 0.0292563322
C  C242  1  0.64530000  0.81000000  0.31190000  1.0 0.5184680951
C  C243  1  0.51410000  0.87390000  0.10815000  1.0 0.5107586999
C  C244  1  0.76030000  0.75030000  0.37266000  1.0 0.018212824
C  C245  1  0.43880000  0.98090000  0.05511000  1.0 0.0292563322
C  C246  1  0.52090000  0.82580000  0.24350000  1.0 0.018212824
C  C247  1  0.55340000  0.75070000  0.15460000  1.0 0.0101722431
C  C248  1  0.68050000  0.70440000  0.28530000  1.0 0.0908905161
C  C249  1  0.60660000  0.72900000  0.24470000  1.0 0.0908905161
C  C250  1  0.78540000  0.66910000  0.28260000  1.0 0.0101722431
C  C251  1  0.67870000  0.73210000  0.21580000  1.0 0.5014377442
C  C252  1  0.46720000  0.84470000  0.15350000  1.0 0.0908905161
C  C253  1  0.41920000  0.84150000  0.38424000  1.0 0.110429823
C  C254  1  0.97220000  0.49680000  0.05583000  1.0 0.528901833
C  C255  1  0.89650000  0.60580000  0.04961000  1.0 0.0292563322
C  C256  1  0.90022000  0.66080000  0.12247000  1.0 0.1002099465
C  C257  1  0.97010000  0.61800000  0.20302000  1.0 0.5107586999
C  C258  1  0.94510000  0.39770000  0.14759000  1.0 0.528901833
C  C259  1  0.35350000  0.77750000  0.40885000  1.0 0.5184680951
C  C260  1  0.88640000  0.52160000  0.14358000  1.0 0.0292563322
C  C261  1  0.92250000  0.38880000  0.06951000  1.0 0.1002099465
C  C262  1  0.89010000  0.46530000  0.07395000  1.0 0.110429823
C  C263  1  0.96710000  0.71990000  0.09743000  1.0 0.5107586999
C  C264  1  0.94020000  0.73180000  0.15584000  1.0 0.1002099465
C  C265  1  0.55400000  0.69740000  0.42172000  1.0 0.1002099465
C  C266  1  0.24350000  0.85220000  0.36674000  1.0 0.0292563322
C  C267  1  0.34340000  0.87530000  0.35598000  1.0 0.1002099465
C  C268  1  0.08340000  0.84810000  0.24071000  1.0 0.110429823
C  C269  1  0.01480000  0.74020000  0.24787000  1.0 0.0384040171
C  C270  1  0.50080000  0.60250000  0.44209000  1.0 0.528901833
C  C271  1  0.47830000  0.74060000  0.45223000  1.0 0.0292563322
C  C272  1  0.14210000  0.84960000  0.20188000  1.0 0.5107586999
C  C273  1  0.13640000  0.77400000  0.31146000  1.0 0.528901833
C  C274  1  0.01310000  0.83820000  0.14922000  1.0 0.018212824
C  C275  1  0.58550000  0.61580000  0.42382000  1.0 0.110429823
C  C276  1  0.09930000  0.23290000  0.18343000  1.0 0.5107586999
C  C277  1  0.36990000  0.82970000  0.30114000  1.0 0.5107586999
C  C278  1  0.06050000  0.25060000  0.10218000  1.0 0.0908905161
C  C279  1  0.53870000  0.67180000  0.34727000  1.0 0.528901833
C  C280  1  0.13590000  0.21560000  0.13077000  1.0 0.0908905161
C  C281  1  0.00900000  0.36600000  0.04489000  1.0 0.0292563322
C  C282  1  0.49550000  0.79960000  0.35429000  1.0 0.0384040171
C  C283  1  0.97570000  0.27090000  0.12784000  1.0 0.0292563322
C  C284  1  0.52810000  0.44980000  0.30000000  1.0 0.5107586999
C  C285  1  0.60430000  0.54860000  0.36250000  1.0 0.018212824
C  C286  1  0.57280000  0.41660000  0.38040000  1.0 0.1002099465
C  C287  1  0.15860000  0.87830000  0.27640000  1.0 0.110429823
C  C288  1  0.13350000  0.33000000  0.09184000  1.0 0.5107586999
C  C289  1  0.25890000  0.89980000  0.26567000  1.0 0.0292563322
C  C290  1  0.35470000  0.31000000  0.18810000  1.0 0.5184680951
C  C291  1  0.48590000  0.37390000  0.39185000  1.0 0.5107586999
C  C292  1  0.23970000  0.25030000  0.12734000  1.0 0.018212824
C  C293  1  0.56120000  0.48090000  0.44489000  1.0 0.0292563322
C  C294  1  0.47910000  0.32580000  0.25650000  1.0 0.018212824
C  C295  1  0.44660000  0.25070000  0.34540000  1.0 0.0101722431
C  C296  1  0.31950000  0.20440000  0.21470000  1.0 0.0908905161
C  C297  1  0.39340000  0.22900000  0.25530000  1.0 0.0908905161
C  C298  1  0.21460000  0.16910000  0.21740000  1.0 0.0101722431
C  C299  1  0.32130000  0.23210000  0.28420000  1.0 0.5014377442
C  C300  1  0.53280000  0.34470000  0.34650000  1.0 0.0908905161
N  N1  1  0.16035000  0.67040000  0.14019000  1.0 0.1189843395
N  N2  1  0.83965000  0.17040000  0.35981000  1.0 0.1189843395
N  N3  1  0.83965000  0.32960000  0.85981000  1.0 0.1189843395
N  N4  1  0.16035000  0.82960000  0.64019000  1.0 0.1189843395
N  N5  1  0.25840000  0.57256000  0.37441000  1.0 0.1189843395
N  N6  1  0.74160000  0.07256000  0.12559000  1.0 0.1189843395
N  N7  1  0.74160000  0.42744000  0.62559000  1.0 0.1189843395
N  N8  1  0.25840000  0.92744000  0.87441000  1.0 0.1189843395
N  N9  1  0.92292000  0.90440000  0.65555000  1.0 -0.2399386517
N  N10  1  0.30937000  0.66990000  0.87427000  1.0 -0.2584423246
N  N11  1  0.92506000  0.84168000  0.59053000  1.0 -0.2522511519
N  N12  1  0.42788000  0.68600000  0.84673000  1.0 -0.2584423246
N  N13  1  0.91041000  0.03550000  0.62356000  1.0 -0.2399386517
N  N14  1  0.41651000  0.71990000  0.91320000  1.0 -0.2777742836
N  N15  1  0.08180000  0.72401000  0.76316000  1.0 -0.2777742836
N  N16  1  0.95300000  0.14750000  0.61707000  1.0 -0.2324427498
N  N17  1  0.98454000  0.80400000  0.70332000  1.0 -0.2522511519
N  N18  1  0.06820000  0.17630000  0.58361000  1.0 -0.2399386517
N  N19  1  0.57390000  0.89110000  0.87645000  1.0 -0.2522511519
N  N20  1  0.18312000  0.66890000  0.81875000  1.0 -0.2584423246
N  N21  1  0.50565000  0.81860000  0.93568000  1.0 -0.2584423246
N  N22  1  0.07958000  0.66210000  0.69605000  1.0 -0.2399386517
N  N23  1  0.97737000  0.73647000  0.63580000  1.0 -0.2584423246
N  N24  1  0.04510000  0.24110000  0.63906000  1.0 -0.2324427498
N  N25  1  0.56480000  0.02400000  0.84674000  1.0 -0.2399386517
N  N26  1  0.52158000  0.77870000  0.87167000  1.0 -0.2584423246
N  N27  1  0.92272000  0.97442000  0.56271000  1.0 -0.2522511519
N  N28  1  0.97535000  0.08420000  0.56137000  1.0 -0.2733972165
N  N29  1  0.19173000  0.63700000  0.75028000  1.0 -0.28588433
N  N30  1  0.31838000  0.64020000  0.80584000  1.0 -0.2522511519
N  N31  1  0.54410000  0.93700000  0.93253000  1.0 -0.2584423246
N  N32  1  0.53460000  0.06900000  0.90244000  1.0 -0.2522511519
N  N33  1  0.40720000  0.20280000  0.73570000  1.0 -0.2324427498
N  N34  1  0.17490000  0.22930000  0.62204000  1.0 -0.2078007328
N  N35  1  0.15320000  0.28790000  0.67952000  1.0 -0.2191070572
N  N36  1  0.38670000  0.25420000  0.79522000  1.0 -0.2191070572
N  N37  1  0.27970000  0.28850000  0.73607000  1.0 -0.2324427498
N  N38  1  0.48280000  0.17490000  0.85832000  1.0 -0.2191070572
N  N39  1  0.50380000  0.12360000  0.79829000  1.0 -0.2324427498
N  N40  1  0.30140000  0.24040000  0.67642000  1.0 -0.2584423246
N  N41  1  0.07708000  0.40440000  0.84445000  1.0 -0.2399386517
N  N42  1  0.69063000  0.16990000  0.62573000  1.0 -0.2584423246
N  N43  1  0.07494000  0.34168000  0.90947000  1.0 -0.2522511519
N  N44  1  0.57212000  0.18600000  0.65327000  1.0 -0.2584423246
N  N45  1  0.08959000  0.53550000  0.87644000  1.0 -0.2399386517
N  N46  1  0.58349000  0.21990000  0.58680000  1.0 -0.2777742836
N  N47  1  0.91820000  0.22401000  0.73684000  1.0 -0.2777742836
N  N48  1  0.04700000  0.64750000  0.88293000  1.0 -0.2324427498
N  N49  1  0.01546000  0.30400000  0.79668000  1.0 -0.2584423246
N  N50  1  0.93180000  0.67630000  0.91639000  1.0 -0.2324427498
N  N51  1  0.42610000  0.39110000  0.62355000  1.0 -0.2522511519
N  N52  1  0.81688000  0.16890000  0.68125000  1.0 -0.2584423246
N  N53  1  0.49435000  0.31860000  0.56432000  1.0 -0.2522511519
N  N54  1  0.92042000  0.16210000  0.80395000  1.0 -0.2324427498
N  N55  1  0.02263000  0.23647000  0.86420000  1.0 -0.2584423246
N  N56  1  0.95490000  0.74110000  0.86094000  1.0 -0.2324427498
N  N57  1  0.43520000  0.52400000  0.65326000  1.0 -0.2399386517
N  N58  1  0.47842000  0.27870000  0.62833000  1.0 -0.2584423246
N  N59  1  0.07728000  0.47442000  0.93729000  1.0 -0.2522511519
N  N60  1  0.02465000  0.58420000  0.93863000  1.0 -0.2733972165
N  N61  1  0.80827000  0.13700000  0.74972000  1.0 -0.28588433
N  N62  1  0.68162000  0.14020000  0.69416000  1.0 -0.2522511519
N  N63  1  0.45590000  0.43700000  0.56747000  1.0 -0.2584423246
N  N64  1  0.46540000  0.56900000  0.59756000  1.0 -0.2522511519
N  N65  1  0.59280000  0.70280000  0.76430000  1.0 -0.2324427498
N  N66  1  0.82510000  0.72930000  0.87796000  1.0 -0.2078007328
N  N67  1  0.84680000  0.78790000  0.82048000  1.0 -0.2191070572
N  N68  1  0.61330000  0.75420000  0.70478000  1.0 -0.2191070572
N  N69  1  0.72030000  0.78850000  0.76393000  1.0 -0.2324427498
N  N70  1  0.51720000  0.67490000  0.64168000  1.0 -0.2191070572
N  N71  1  0.49620000  0.62360000  0.70171000  1.0 -0.2324427498
N  N72  1  0.69860000  0.74040000  0.82358000  1.0 -0.2584423246
N  N73  1  0.07708000  0.09560000  0.34445000  1.0 -0.2399386517
N  N74  1  0.69063000  0.33010000  0.12573000  1.0 -0.2584423246
N  N75  1  0.07494000  0.15832000  0.40947000  1.0 -0.2522511519
N  N76  1  0.57212000  0.31400000  0.15327000  1.0 -0.2584423246
N  N77  1  0.08959000  0.96450000  0.37644000  1.0 -0.2399386517
N  N78  1  0.58349000  0.28010000  0.08680000  1.0 -0.2777742836
N  N79  1  0.91820000  0.27599000  0.23684000  1.0 -0.2777742836
N  N80  1  0.04700000  0.85250000  0.38293000  1.0 -0.2324427498
N  N81  1  0.01546000  0.19600000  0.29668000  1.0 -0.2584423246
N  N82  1  0.93180000  0.82370000  0.41639000  1.0 -0.2324427498
N  N83  1  0.42610000  0.10890000  0.12355000  1.0 -0.2522511519
N  N84  1  0.81688000  0.33110000  0.18125000  1.0 -0.2522511519
N  N85  1  0.49435000  0.18140000  0.06432000  1.0 -0.2522511519
N  N86  1  0.92042000  0.33790000  0.30395000  1.0 -0.2399386517
N  N87  1  0.02263000  0.26353000  0.36420000  1.0 -0.2584423246
N  N88  1  0.95490000  0.75890000  0.36094000  1.0 -0.2324427498
N  N89  1  0.43520000  0.97600000  0.15326000  1.0 -0.2399386517
N  N90  1  0.47842000  0.22130000  0.12833000  1.0 -0.2584423246
N  N91  1  0.07728000  0.02558000  0.43729000  1.0 -0.2522511519
N  N92  1  0.02465000  0.91580000  0.43863000  1.0 -0.2733972165
N  N93  1  0.80827000  0.36300000  0.24972000  1.0 -0.2777742836
N  N94  1  0.68162000  0.35980000  0.19416000  1.0 -0.2522511519
N  N95  1  0.45590000  0.06300000  0.06747000  1.0 -0.2584423246
N  N96  1  0.46540000  0.93100000  0.09756000  1.0 -0.2522511519
N  N97  1  0.59280000  0.79720000  0.26430000  1.0 -0.2324427498
N  N98  1  0.82510000  0.77070000  0.37796000  1.0 -0.2078007328
N  N99  1  0.84680000  0.71210000  0.32048000  1.0 -0.2191070572
N  N100  1  0.61330000  0.74580000  0.20478000  1.0 -0.2191070572
N  N101  1  0.72030000  0.71150000  0.26393000  1.0 -0.2324427498
N  N102  1  0.51720000  0.82510000  0.14168000  1.0 -0.2191070572
N  N103  1  0.49620000  0.87640000  0.20171000  1.0 -0.2324427498
N  N104  1  0.69860000  0.75960000  0.32358000  1.0 -0.2584423246
N  N105  1  0.92292000  0.59560000  0.15555000  1.0 -0.2399386517
N  N106  1  0.30937000  0.83010000  0.37427000  1.0 -0.2584423246
N  N107  1  0.92506000  0.65832000  0.09053000  1.0 -0.2522511519
N  N108  1  0.42788000  0.81400000  0.34673000  1.0 -0.2584423246
N  N109  1  0.91041000  0.46450000  0.12356000  1.0 -0.2399386517
N  N110  1  0.41651000  0.78010000  0.41320000  1.0 -0.2777742836
N  N111  1  0.08180000  0.77599000  0.26316000  1.0 -0.2777742836
N  N112  1  0.95300000  0.35250000  0.11707000  1.0 -0.2324427498
N  N113  1  0.98454000  0.69600000  0.20332000  1.0 -0.2584423246
N  N114  1  0.06820000  0.32370000  0.08361000  1.0 -0.2399386517
N  N115  1  0.57390000  0.60890000  0.37645000  1.0 -0.2584423246
N  N116  1  0.18312000  0.83110000  0.31875000  1.0 -0.2522511519
N  N117  1  0.50565000  0.68140000  0.43568000  1.0 -0.2584423246
N  N118  1  0.07958000  0.83790000  0.19605000  1.0 -0.2399386517
N  N119  1  0.97737000  0.76353000  0.13580000  1.0 -0.2584423246
N  N120  1  0.04510000  0.25890000  0.13906000  1.0 -0.2324427498
N  N121  1  0.56480000  0.47600000  0.34674000  1.0 -0.2399386517
N  N122  1  0.52158000  0.72130000  0.37167000  1.0 -0.2584423246
N  N123  1  0.92272000  0.52558000  0.06271000  1.0 -0.2522511519
N  N124  1  0.97535000  0.41580000  0.06137000  1.0 -0.2733972165
N  N125  1  0.19173000  0.86300000  0.25028000  1.0 -0.28588433
N  N126  1  0.31838000  0.85980000  0.30584000  1.0 -0.2522511519
N  N127  1  0.54410000  0.56300000  0.43253000  1.0 -0.2584423246
N  N128  1  0.53460000  0.43100000  0.40244000  1.0 -0.2399386517
N  N129  1  0.40720000  0.29720000  0.23570000  1.0 -0.2324427498
N  N130  1  0.17490000  0.27070000  0.12204000  1.0 -0.2078007328
N  N131  1  0.15320000  0.21210000  0.17952000  1.0 -0.2191070572
N  N132  1  0.38670000  0.24580000  0.29522000  1.0 -0.2191070572
N  N133  1  0.27970000  0.21150000  0.23607000  1.0 -0.2324427498
N  N134  1  0.48280000  0.32510000  0.35832000  1.0 -0.2191070572
N  N135  1  0.50380000  0.37640000  0.29829000  1.0 -0.2324427498
N  N136  1  0.30140000  0.25960000  0.17642000  1.0 -0.2522511519
O  O1  1  0.27402000  0.45539000  0.01017000  1.0 -0.5967158917
O  O2  1  0.72598000  0.95539000  0.48983000  1.0 -0.5967158917
O  O3  1  0.72598000  0.54461000  0.98983000  1.0 -0.5967158917
O  O4  1  0.27402000  0.04461000  0.51017000  1.0 -0.5967158917
O  O5  1  0.27472000  0.17385000  0.46384000  1.0 -0.5889056864
O  O6  1  0.72528000  0.67385000  0.03616000  1.0 -0.5889056864
O  O7  1  0.72528000  0.82615000  0.53616000  1.0 -0.5889056864
O  O8  1  0.27472000  0.32615000  0.96384000  1.0 -0.5889056864
O  O9  1  0.34347000  0.55545000  0.02719000  1.0 -0.5613681618
O  O10  1  0.65653000  0.05545000  0.47281000  1.0 -0.5613681618
O  O11  1  0.65653000  0.44455000  0.97281000  1.0 -0.5613681618
O  O12  1  0.34347000  0.94455000  0.52719000  1.0 -0.5613681618
O  O13  1  0.35555000  0.18129000  0.44842000  1.0 -0.5613681618
O  O14  1  0.64445000  0.68129000  0.05158000  1.0 -0.5613681618
O  O15  1  0.64445000  0.81871000  0.55158000  1.0 -0.5613681618
O  O16  1  0.35555000  0.31871000  0.94842000  1.0 -0.5613681618
O  O17  1  0.44370000  0.95210000  0.51160000  1.0 -0.5492750648
O  O18  1  0.55630000  0.45210000  0.98840000  1.0 -0.5492750648
O  O19  1  0.55630000  0.04790000  0.48840000  1.0 -0.5492750648
O  O20  1  0.44370000  0.54790000  0.01160000  1.0 -0.5492750648
O  O21  1  0.54940000  0.91730000  0.52900000  1.0 -0.5613681618
O  O22  1  0.45060000  0.41730000  0.97100000  1.0 -0.5613681618
O  O23  1  0.45060000  0.08270000  0.47100000  1.0 -0.5613681618
O  O24  1  0.54940000  0.58270000  0.02900000  1.0 -0.5613681618
O  O25  1  0.00873000  0.96402000  0.54698000  1.0 -0.5180327618
O  O26  1  0.99187000  0.76533000  0.57350000  1.0 -0.5313724334
O  O27  1  0.14208000  0.77090000  0.84209000  1.0 -0.5180327618
O  O28  1  0.99468000  0.92490000  0.73828000  1.0 -0.5313724334
O  O29  1  0.15321000  0.65320000  0.66951000  1.0 -0.5378719512
O  O30  1  0.33911000  0.76460000  0.93213000  1.0 -0.5313724334
O  O31  1  0.96519000  0.11909000  0.68930000  1.0 -0.5180327618
O  O32  1  0.36527000  0.68290000  0.76320000  1.0 -0.5313724334
O  O33  1  0.46484000  0.92656000  0.95458000  1.0 -0.5084198118
O  O34  1  0.09860000  0.27020000  0.71984000  1.0 -0.5180327618
O  O35  1  0.15220000  0.11860000  0.57550000  1.0 -0.5180327618
O  O36  1  0.51860000  0.01260000  0.76513000  1.0 -0.5180327618
O  O37  1  0.52480000  0.81830000  0.80631000  1.0 -0.5180327618
O  O38  1  0.45120000  0.13200000  0.90932000  1.0 -0.5019243452
O  O39  1  0.35570000  0.14240000  0.66087000  1.0 -0.5084198118
O  O40  1  0.30270000  0.26360000  0.81249000  1.0 -0.5084198118
O  O41  1  0.99127000  0.46402000  0.95302000  1.0 -0.5180327618
O  O42  1  0.00813000  0.26533000  0.92650000  1.0 -0.5313724334
O  O43  1  0.85792000  0.27090000  0.65791000  1.0 -0.5180327618
O  O44  1  0.00532000  0.42490000  0.76172000  1.0 -0.5313724334
O  O45  1  0.84679000  0.15320000  0.83049000  1.0 -0.5378719512
O  O46  1  0.66089000  0.26460000  0.56787000  1.0 -0.5313724334
O  O47  1  0.03481000  0.61909000  0.81070000  1.0 -0.5180327618
O  O48  1  0.63473000  0.18290000  0.73680000  1.0 -0.5313724334
O  O49  1  0.53516000  0.42656000  0.54542000  1.0 -0.5084198118
O  O50  1  0.90140000  0.77020000  0.78016000  1.0 -0.5084198118
O  O51  1  0.84780000  0.61860000  0.92450000  1.0 -0.5180327618
O  O52  1  0.48140000  0.51260000  0.73487000  1.0 -0.5180327618
O  O53  1  0.47520000  0.31830000  0.69369000  1.0 -0.5180327618
O  O54  1  0.54880000  0.63200000  0.59068000  1.0 -0.5019243452
O  O55  1  0.64430000  0.64240000  0.83913000  1.0 -0.5084198118
O  O56  1  0.69730000  0.76360000  0.68751000  1.0 -0.5084198118
O  O57  1  0.99127000  0.03598000  0.45302000  1.0 -0.5180327618
O  O58  1  0.00813000  0.23467000  0.42650000  1.0 -0.5313724334
O  O59  1  0.85792000  0.22910000  0.15791000  1.0 -0.5180327618
O  O60  1  0.00532000  0.07510000  0.26172000  1.0 -0.5313724334
O  O61  1  0.84679000  0.34680000  0.33049000  1.0 -0.5378719512
O  O62  1  0.66089000  0.23540000  0.06787000  1.0 -0.5313724334
O  O63  1  0.03481000  0.88091000  0.31070000  1.0 -0.5180327618
O  O64  1  0.63473000  0.31710000  0.23680000  1.0 -0.5313724334
O  O65  1  0.53516000  0.07344000  0.04542000  1.0 -0.5084198118
O  O66  1  0.90140000  0.72980000  0.28016000  1.0 -0.5084198118
O  O67  1  0.84780000  0.88140000  0.42450000  1.0 -0.5180327618
O  O68  1  0.48140000  0.98740000  0.23487000  1.0 -0.5180327618
O  O69  1  0.47520000  0.18170000  0.19369000  1.0 -0.5180327618
O  O70  1  0.54880000  0.86800000  0.09068000  1.0 -0.5019243452
O  O71  1  0.64430000  0.85760000  0.33913000  1.0 -0.5084198118
O  O72  1  0.69730000  0.73640000  0.18751000  1.0 -0.5084198118
O  O73  1  0.00873000  0.53598000  0.04698000  1.0 -0.5180327618
O  O74  1  0.99187000  0.73467000  0.07350000  1.0 -0.5313724334
O  O75  1  0.14208000  0.72910000  0.34209000  1.0 -0.5180327618
O  O76  1  0.99468000  0.57510000  0.23828000  1.0 -0.5313724334
O  O77  1  0.15321000  0.84680000  0.16951000  1.0 -0.5378719512
O  O78  1  0.33911000  0.73540000  0.43213000  1.0 -0.5313724334
O  O79  1  0.96519000  0.38091000  0.18930000  1.0 -0.5180327618
O  O80  1  0.36527000  0.81710000  0.26320000  1.0 -0.5313724334
O  O81  1  0.46484000  0.57344000  0.45458000  1.0 -0.5019243452
O  O82  1  0.09860000  0.22980000  0.21984000  1.0 -0.5180327618
O  O83  1  0.15220000  0.38140000  0.07550000  1.0 -0.5180327618
O  O84  1  0.51860000  0.48740000  0.26513000  1.0 -0.5180327618
O  O85  1  0.52480000  0.68170000  0.30631000  1.0 -0.5180327618
O  O86  1  0.45120000  0.36800000  0.40932000  1.0 -0.5019243452
O  O87  1  0.35570000  0.35760000  0.16087000  1.0 -0.5084198118
O  O88  1  0.30270000  0.23640000  0.31249000  1.0 -0.5084198118
