# DDEC6 charges by PACMAN v1.1 (https://github.com/mtap-research/PACMAN-charge/)
data_LINTOV06_ASR_pacman
_symmetry_space_group_name_H-M   'P 1'
_cell_length_a   22.85000000
_cell_length_b   16.96090000
_cell_length_c   33.16600000
_cell_angle_alpha   90.00000000
_cell_angle_beta   123.77700000
_cell_angle_gamma   90.00000000
_symmetry_Int_Tables_number   1
_chemical_formula_structural   UH68C75(N17O11)2
_chemical_formula_sum   'U4 H272 C300 N136 O88'
_cell_volume   10684.09544955
_cell_formula_units_Z   4
loop_
 _symmetry_equiv_pos_site_id
 _symmetry_equiv_pos_as_xyz
  1  'x, y, z'
loop_
 _atom_site_type_symbol
 _atom_site_label
 _atom_site_symmetry_multiplicity
 _atom_site_fract_x
 _atom_site_fract_y
 _atom_site_fract_z
 _atom_site_occupancy
 _atom_site_charge
U  U1  1  0.64247000  0.55767000  0.51279000  1.0 1.7293442674
U  U2  1  0.35753000  0.05767000  0.98721000  1.0 1.7293442674
U  U3  1  0.35753000  0.44233000  0.48721000  1.0 1.7293442674
U  U4  1  0.64247000  0.94233000  0.01279000  1.0 1.7293442674
H  H1  1  0.79682000  0.97608000  0.95309000  1.0 0.1297991611
H  H2  1  0.20318000  0.47608000  0.54691000  1.0 0.1297991611
H  H3  1  0.20318000  0.02392000  0.04691000  1.0 0.1297991611
H  H4  1  0.79682000  0.52392000  0.45309000  1.0 0.1297991611
H  H5  1  0.71453000  0.19512000  0.74848000  1.0 0.1402866546
H  H6  1  0.28547000  0.69512000  0.75152000  1.0 0.1402866546
H  H7  1  0.28547000  0.80488000  0.25152000  1.0 0.1402866546
H  H8  1  0.71453000  0.30488000  0.24848000  1.0 0.1402866546
H  H9  1  0.85975000  0.04627000  0.92916000  1.0 0.1402866546
H  H10  1  0.14025000  0.54627000  0.57084000  1.0 0.1402866546
H  H11  1  0.14025000  0.95373000  0.07084000  1.0 0.1402866546
H  H12  1  0.85975000  0.45373000  0.42916000  1.0 0.1402866546
H  H13  1  0.67676000  0.13184000  0.68232000  1.0 0.1474706866
H  H14  1  0.32324000  0.63184000  0.81768000  1.0 0.1474706866
H  H15  1  0.32324000  0.86816000  0.31768000  1.0 0.1474706866
H  H16  1  0.67676000  0.36816000  0.18232000  1.0 0.1474706866
H  H17  1  0.61590000  0.81814000  0.55695000  1.0 0.1402866546
H  H18  1  0.38410000  0.31814000  0.94305000  1.0 0.1402866546
H  H19  1  0.38410000  0.18186000  0.44305000  1.0 0.1402866546
H  H20  1  0.61590000  0.68186000  0.05695000  1.0 0.1402866546
H  H21  1  0.64865000  0.09804000  0.60767000  1.0 0.1188777008
H  H22  1  0.35135000  0.59804000  0.89233000  1.0 0.1188777008
H  H23  1  0.35135000  0.90196000  0.39233000  1.0 0.1188777008
H  H24  1  0.64865000  0.40196000  0.10767000  1.0 0.1188777008
H  H25  1  0.87703000  0.08148000  0.73467000  1.0 0.1402866546
H  H26  1  0.12297000  0.58148000  0.76533000  1.0 0.1402866546
H  H27  1  0.12297000  0.91852000  0.26533000  1.0 0.1402866546
H  H28  1  0.87703000  0.41852000  0.23467000  1.0 0.1402866546
H  H29  1  0.62575000  0.95384000  0.56499000  1.0 0.1402866546
H  H30  1  0.37425000  0.45384000  0.93501000  1.0 0.1402866546
H  H31  1  0.37425000  0.04616000  0.43501000  1.0 0.1402866546
H  H32  1  0.62575000  0.54616000  0.06499000  1.0 0.1402866546
H  H33  1  0.89443000  0.07458000  0.80527000  1.0 0.1402866546
H  H34  1  0.10557000  0.57458000  0.69473000  1.0 0.1402866546
H  H35  1  0.10557000  0.92542000  0.19473000  1.0 0.1402866546
H  H36  1  0.89443000  0.42542000  0.30527000  1.0 0.1402866546
H  H37  1  0.70074000  0.17655000  0.94906000  1.0 0.1297991611
H  H38  1  0.29926000  0.67655000  0.55094000  1.0 0.1297991611
H  H39  1  0.29926000  0.82345000  0.05094000  1.0 0.1297991611
H  H40  1  0.70074000  0.32345000  0.44906000  1.0 0.1297991611
H  H41  1  0.76280000  0.24413000  0.92345000  1.0 0.1297991611
H  H42  1  0.23720000  0.74413000  0.57655000  1.0 0.1297991611
H  H43  1  0.23720000  0.75587000  0.07655000  1.0 0.1297991611
H  H44  1  0.76280000  0.25587000  0.42345000  1.0 0.1297991611
H  H45  1  0.90884000  0.18900000  0.93153000  1.0 0.1402866546
H  H46  1  0.09116000  0.68900000  0.56847000  1.0 0.1402866546
H  H47  1  0.09116000  0.81100000  0.06847000  1.0 0.1402866546
H  H48  1  0.90884000  0.31100000  0.43153000  1.0 0.1402866546
H  H49  1  0.84982000  0.25379000  0.90802000  1.0 0.1402866546
H  H50  1  0.15018000  0.75379000  0.59198000  1.0 0.1402866546
H  H51  1  0.15018000  0.74621000  0.09198000  1.0 0.1402866546
H  H52  1  0.84982000  0.24621000  0.40802000  1.0 0.1402866546
H  H53  1  0.84459000  0.05090000  0.65756000  1.0 0.1297991611
H  H54  1  0.15541000  0.55090000  0.84244000  1.0 0.1297991611
H  H55  1  0.15541000  0.94910000  0.34244000  1.0 0.1297991611
H  H56  1  0.84459000  0.44910000  0.15756000  1.0 0.1297991611
H  H57  1  0.67875000  0.07625000  0.55250000  1.0 0.1402866546
H  H58  1  0.32125000  0.57625000  0.94750000  1.0 0.1402866546
H  H59  1  0.32125000  0.92375000  0.44750000  1.0 0.1402866546
H  H60  1  0.67875000  0.42375000  0.05250000  1.0 0.1402866546
H  H61  1  0.75856000  0.07066000  0.57107000  1.0 0.1297991611
H  H62  1  0.24144000  0.57066000  0.92893000  1.0 0.1297991611
H  H63  1  0.24144000  0.92934000  0.42893000  1.0 0.1297991611
H  H64  1  0.75856000  0.42934000  0.07107000  1.0 0.1297991611
H  H65  1  0.92329000  0.10929000  0.88095000  1.0 0.1188777008
H  H66  1  0.07671000  0.60929000  0.61905000  1.0 0.1188777008
H  H67  1  0.07671000  0.89071000  0.11905000  1.0 0.1188777008
H  H68  1  0.92329000  0.39071000  0.38095000  1.0 0.1188777008
H  H69  1  0.74928000  0.22911000  0.82550000  1.0 0.1297991611
H  H70  1  0.25072000  0.72911000  0.67450000  1.0 0.1297991611
H  H71  1  0.25072000  0.77089000  0.17450000  1.0 0.1297991611
H  H72  1  0.74928000  0.27089000  0.32550000  1.0 0.1297991611
H  H73  1  0.80549000  0.94419000  0.57086000  1.0 0.1188777008
H  H74  1  0.19451000  0.44419000  0.92914000  1.0 0.1188777008
H  H75  1  0.19451000  0.05581000  0.42914000  1.0 0.1188777008
H  H76  1  0.80549000  0.55581000  0.07086000  1.0 0.1188777008
H  H77  1  0.79093000  0.80953000  0.55640000  1.0 0.1188777008
H  H78  1  0.20907000  0.30953000  0.94360000  1.0 0.1188777008
H  H79  1  0.20907000  0.19047000  0.44360000  1.0 0.1188777008
H  H80  1  0.79093000  0.69047000  0.05640000  1.0 0.1188777008
H  H81  1  0.54640000  0.11742000  0.09528000  1.0 0.082115883
H  H82  1  0.10701000  0.50286000  0.32737000  1.0 0.0986734918
H  H83  1  0.16293000  0.47194000  0.37970000  1.0 0.0986734918
H  H84  1  0.09361000  0.23180000  0.34497000  1.0 0.089203804
H  H85  1  0.40985000  0.26475000  0.05588000  1.0 0.082115883
H  H86  1  0.15412000  0.39668000  0.46707000  1.0 0.1099780407
H  H87  1  0.09228000  0.37489000  0.47255000  1.0 0.1188777008
H  H88  1  0.15099000  0.33500000  0.39586000  1.0 0.089203804
H  H89  1  0.53277000  0.28292000  0.02581000  1.0 0.1188777008
H  H90  1  0.48511000  0.21983000  0.02867000  1.0 0.0986734918
H  H91  1  0.76302000  0.17288000  0.10899000  1.0 0.1099780407
H  H92  1  0.75895000  0.09080000  0.12902000  1.0 0.082115883
H  H93  1  0.02435000  0.67207000  0.47899000  1.0 0.089203804
H  H94  1  0.97433000  0.60234000  0.47169000  1.0 0.1188777008
H  H95  1  0.16064000  0.53641000  0.44883000  1.0 0.082115883
H  H96  1  0.97964000  0.29526000  0.22674000  1.0 0.1099780407
H  H97  1  0.01921000  0.21981000  0.25709000  1.0 0.1099780407
H  H98  1  0.11187000  0.64711000  0.45701000  1.0 0.089203804
H  H99  1  0.36532000  0.38728000  0.05006000  1.0 0.082115883
H  H100  1  0.51010000  0.19239000  0.17624000  1.0 0.1099780407
H  H101  1  0.47219000  0.16255000  0.12264000  1.0 0.0986734918
H  H102  1  0.65733000  0.06649000  0.13715000  1.0 0.082115883
H  H103  1  0.86269000  0.83994000  0.38298000  1.0 0.082115883
H  H104  1  0.84347000  0.06468000  0.21625000  1.0 0.089203804
H  H105  1  0.98040000  0.14558000  0.37530000  1.0 0.1099780407
H  H106  1  0.01963000  0.12281000  0.35047000  1.0 0.0986734918
H  H107  1  0.05541000  0.76407000  0.40063000  1.0 0.0986734918
H  H108  1  0.02427000  0.74969000  0.34557000  1.0 0.1099780407
H  H109  1  0.97305000  0.78650000  0.42487000  1.0 0.082115883
H  H110  1  0.95404000  0.11431000  0.26298000  1.0 0.0986734918
H  H111  1  0.39013000  0.43044000  0.16178000  1.0 0.1099780407
H  H112  1  0.34772000  0.46191000  0.10836000  1.0 0.0986734918
H  H113  1  0.37690000  0.59668000  0.09434000  1.0 0.082115883
H  H114  1  0.74286000  0.04318000  0.22384000  1.0 0.0986734918
H  H115  1  0.73758000  0.09527000  0.26074000  1.0 0.1099780407
H  H116  1  0.43361000  0.70023000  0.14561000  1.0 0.082115883
H  H117  1  0.76179000  0.80658000  0.38274000  1.0 0.0986734918
H  H118  1  0.75337000  0.71959000  0.39445000  1.0 0.1188777008
H  H119  1  0.38906000  0.52526000  0.03387000  1.0 0.089203804
H  H120  1  0.45985000  0.53723000  0.03746000  1.0 0.1188777008
H  H121  1  0.78193000  0.88567000  0.29903000  1.0 0.0986734918
H  H122  1  0.79048000  0.84991000  0.25904000  1.0 0.1188777008
H  H123  1  0.51868000  0.79288000  0.14862000  1.0 0.0986734918
H  H124  1  0.56853000  0.76165000  0.13365000  1.0 0.1188777008
H  H125  1  0.67824000  0.85343000  0.29670000  1.0 0.089203804
H  H126  1  0.51693000  0.64792000  0.26698000  1.0 0.1188777008
H  H127  1  0.48771000  0.72097000  0.23225000  1.0 0.1099780407
H  H128  1  0.56899000  0.81493000  0.23640000  1.0 0.0986734918
H  H129  1  0.45360000  0.61742000  0.40472000  1.0 0.082115883
H  H130  1  0.89299000  0.00286000  0.17263000  1.0 0.0986734918
H  H131  1  0.83707000  0.97194000  0.12030000  1.0 0.0986734918
H  H132  1  0.90639000  0.73180000  0.15503000  1.0 0.089203804
H  H133  1  0.59015000  0.76475000  0.44412000  1.0 0.082115883
H  H134  1  0.84588000  0.89668000  0.03293000  1.0 0.1099780407
H  H135  1  0.90772000  0.87489000  0.02745000  1.0 0.1188777008
H  H136  1  0.84901000  0.83500000  0.10414000  1.0 0.089203804
H  H137  1  0.46723000  0.78292000  0.47419000  1.0 0.1188777008
H  H138  1  0.51489000  0.71983000  0.47133000  1.0 0.0986734918
H  H139  1  0.23698000  0.67288000  0.39101000  1.0 0.1099780407
H  H140  1  0.24105000  0.59080000  0.37098000  1.0 0.082115883
H  H141  1  0.97565000  0.17207000  0.02101000  1.0 0.089203804
H  H142  1  0.02567000  0.10234000  0.02831000  1.0 0.1188777008
H  H143  1  0.83936000  0.03641000  0.05117000  1.0 0.082115883
H  H144  1  0.02036000  0.79526000  0.27326000  1.0 0.1099780407
H  H145  1  0.98079000  0.71981000  0.24291000  1.0 0.1099780407
H  H146  1  0.88813000  0.14711000  0.04299000  1.0 0.089203804
H  H147  1  0.63468000  0.88728000  0.44994000  1.0 0.082115883
H  H148  1  0.48990000  0.69239000  0.32376000  1.0 0.1099780407
H  H149  1  0.52781000  0.66255000  0.37736000  1.0 0.0986734918
H  H150  1  0.34267000  0.56649000  0.36285000  1.0 0.082115883
H  H151  1  0.13731000  0.33994000  0.11702000  1.0 0.082115883
H  H152  1  0.15653000  0.56468000  0.28375000  1.0 0.089203804
H  H153  1  0.01960000  0.64558000  0.12470000  1.0 0.1099780407
H  H154  1  0.98037000  0.62281000  0.14953000  1.0 0.0986734918
H  H155  1  0.94459000  0.26407000  0.09937000  1.0 0.0986734918
H  H156  1  0.97573000  0.24969000  0.15443000  1.0 0.1099780407
H  H157  1  0.02695000  0.28650000  0.07513000  1.0 0.082115883
H  H158  1  0.04596000  0.61431000  0.23702000  1.0 0.0986734918
H  H159  1  0.60987000  0.93044000  0.33822000  1.0 0.1099780407
H  H160  1  0.65228000  0.96191000  0.39164000  1.0 0.0986734918
H  H161  1  0.62310000  0.09668000  0.40566000  1.0 0.082115883
H  H162  1  0.25714000  0.54318000  0.27616000  1.0 0.0986734918
H  H163  1  0.26242000  0.59527000  0.23926000  1.0 0.1099780407
H  H164  1  0.56639000  0.20023000  0.35439000  1.0 0.082115883
H  H165  1  0.23821000  0.30658000  0.11726000  1.0 0.0986734918
H  H166  1  0.24663000  0.21959000  0.10555000  1.0 0.1188777008
H  H167  1  0.61094000  0.02526000  0.46613000  1.0 0.089203804
H  H168  1  0.54015000  0.03723000  0.46254000  1.0 0.1188777008
H  H169  1  0.21807000  0.38567000  0.20097000  1.0 0.0986734918
H  H170  1  0.20952000  0.34991000  0.24096000  1.0 0.1188777008
H  H171  1  0.48132000  0.29288000  0.35138000  1.0 0.0986734918
H  H172  1  0.43147000  0.26165000  0.36635000  1.0 0.1188777008
H  H173  1  0.32176000  0.35343000  0.20330000  1.0 0.089203804
H  H174  1  0.48307000  0.14792000  0.23302000  1.0 0.1188777008
H  H175  1  0.51229000  0.22097000  0.26775000  1.0 0.1099780407
H  H176  1  0.43101000  0.31493000  0.26360000  1.0 0.0986734918
H  H177  1  0.45360000  0.88258000  0.90472000  1.0 0.082115883
H  H178  1  0.89299000  0.49714000  0.67263000  1.0 0.0986734918
H  H179  1  0.83707000  0.52806000  0.62030000  1.0 0.0986734918
H  H180  1  0.90639000  0.76820000  0.65503000  1.0 0.089203804
H  H181  1  0.59015000  0.73525000  0.94412000  1.0 0.082115883
H  H182  1  0.84588000  0.60332000  0.53293000  1.0 0.1099780407
H  H183  1  0.90772000  0.62511000  0.52745000  1.0 0.1188777008
H  H184  1  0.84901000  0.66500000  0.60414000  1.0 0.089203804
H  H185  1  0.46723000  0.71708000  0.97419000  1.0 0.1188777008
H  H186  1  0.51489000  0.78017000  0.97133000  1.0 0.0986734918
H  H187  1  0.23698000  0.82712000  0.89101000  1.0 0.1099780407
H  H188  1  0.24105000  0.90920000  0.87098000  1.0 0.082115883
H  H189  1  0.97565000  0.32793000  0.52101000  1.0 0.089203804
H  H190  1  0.02567000  0.39766000  0.52831000  1.0 0.1188777008
H  H191  1  0.83936000  0.46359000  0.55117000  1.0 0.082115883
H  H192  1  0.02036000  0.70474000  0.77326000  1.0 0.1099780407
H  H193  1  0.98079000  0.78019000  0.74291000  1.0 0.1099780407
H  H194  1  0.88813000  0.35289000  0.54299000  1.0 0.089203804
H  H195  1  0.63468000  0.61272000  0.94994000  1.0 0.082115883
H  H196  1  0.48990000  0.80761000  0.82376000  1.0 0.1099780407
H  H197  1  0.52781000  0.83745000  0.87736000  1.0 0.0986734918
H  H198  1  0.34267000  0.93351000  0.86285000  1.0 0.082115883
H  H199  1  0.13731000  0.16006000  0.61702000  1.0 0.082115883
H  H200  1  0.15653000  0.93532000  0.78375000  1.0 0.089203804
H  H201  1  0.01960000  0.85442000  0.62470000  1.0 0.1099780407
H  H202  1  0.98037000  0.87719000  0.64953000  1.0 0.0986734918
H  H203  1  0.94459000  0.23593000  0.59937000  1.0 0.0986734918
H  H204  1  0.97573000  0.25031000  0.65443000  1.0 0.1099780407
H  H205  1  0.02695000  0.21350000  0.57513000  1.0 0.082115883
H  H206  1  0.04596000  0.88569000  0.73702000  1.0 0.0986734918
H  H207  1  0.60987000  0.56956000  0.83822000  1.0 0.1099780407
H  H208  1  0.65228000  0.53809000  0.89164000  1.0 0.0986734918
H  H209  1  0.62310000  0.40332000  0.90566000  1.0 0.082115883
H  H210  1  0.25714000  0.95682000  0.77616000  1.0 0.0986734918
H  H211  1  0.26242000  0.90473000  0.73926000  1.0 0.1099780407
H  H212  1  0.56639000  0.29977000  0.85439000  1.0 0.082115883
H  H213  1  0.23821000  0.19342000  0.61726000  1.0 0.0986734918
H  H214  1  0.24663000  0.28041000  0.60555000  1.0 0.1188777008
H  H215  1  0.61094000  0.47474000  0.96613000  1.0 0.089203804
H  H216  1  0.54015000  0.46277000  0.96254000  1.0 0.1188777008
H  H217  1  0.21807000  0.11433000  0.70097000  1.0 0.0986734918
H  H218  1  0.20952000  0.15009000  0.74096000  1.0 0.1188777008
H  H219  1  0.48132000  0.20712000  0.85138000  1.0 0.0986734918
H  H220  1  0.43147000  0.23835000  0.86635000  1.0 0.1188777008
H  H221  1  0.32176000  0.14657000  0.70330000  1.0 0.089203804
H  H222  1  0.48307000  0.35208000  0.73302000  1.0 0.1188777008
H  H223  1  0.51229000  0.27903000  0.76775000  1.0 0.1099780407
H  H224  1  0.43101000  0.18507000  0.76360000  1.0 0.0986734918
H  H225  1  0.54640000  0.38258000  0.59528000  1.0 0.082115883
H  H226  1  0.10701000  0.99714000  0.82737000  1.0 0.0986734918
H  H227  1  0.16293000  0.02806000  0.87970000  1.0 0.0986734918
H  H228  1  0.09361000  0.26820000  0.84497000  1.0 0.089203804
H  H229  1  0.40985000  0.23525000  0.55588000  1.0 0.082115883
H  H230  1  0.15412000  0.10332000  0.96707000  1.0 0.1099780407
H  H231  1  0.09228000  0.12511000  0.97255000  1.0 0.1188777008
H  H232  1  0.15099000  0.16500000  0.89586000  1.0 0.089203804
H  H233  1  0.53277000  0.21708000  0.52581000  1.0 0.1188777008
H  H234  1  0.48511000  0.28017000  0.52867000  1.0 0.0986734918
H  H235  1  0.76302000  0.32712000  0.60899000  1.0 0.1099780407
H  H236  1  0.75895000  0.40920000  0.62902000  1.0 0.082115883
H  H237  1  0.02435000  0.82793000  0.97899000  1.0 0.089203804
H  H238  1  0.97433000  0.89766000  0.97169000  1.0 0.1188777008
H  H239  1  0.16064000  0.96359000  0.94883000  1.0 0.082115883
H  H240  1  0.97964000  0.20474000  0.72674000  1.0 0.1099780407
H  H241  1  0.01921000  0.28019000  0.75709000  1.0 0.1099780407
H  H242  1  0.11187000  0.85289000  0.95701000  1.0 0.089203804
H  H243  1  0.36532000  0.11272000  0.55006000  1.0 0.082115883
H  H244  1  0.51010000  0.30761000  0.67624000  1.0 0.1099780407
H  H245  1  0.47219000  0.33745000  0.62264000  1.0 0.0986734918
H  H246  1  0.65733000  0.43351000  0.63715000  1.0 0.082115883
H  H247  1  0.86269000  0.66006000  0.88298000  1.0 0.082115883
H  H248  1  0.84347000  0.43532000  0.71625000  1.0 0.089203804
H  H249  1  0.98040000  0.35442000  0.87530000  1.0 0.1099780407
H  H250  1  0.01963000  0.37719000  0.85047000  1.0 0.0986734918
H  H251  1  0.05541000  0.73593000  0.90063000  1.0 0.0986734918
H  H252  1  0.02427000  0.75031000  0.84557000  1.0 0.1099780407
H  H253  1  0.97305000  0.71350000  0.92487000  1.0 0.082115883
H  H254  1  0.95404000  0.38569000  0.76298000  1.0 0.0986734918
H  H255  1  0.39013000  0.06956000  0.66178000  1.0 0.1099780407
H  H256  1  0.34772000  0.03809000  0.60836000  1.0 0.0986734918
H  H257  1  0.37690000  0.90332000  0.59434000  1.0 0.082115883
H  H258  1  0.74286000  0.45682000  0.72384000  1.0 0.0986734918
H  H259  1  0.73758000  0.40473000  0.76074000  1.0 0.1099780407
H  H260  1  0.43361000  0.79977000  0.64561000  1.0 0.082115883
H  H261  1  0.76179000  0.69342000  0.88274000  1.0 0.0986734918
H  H262  1  0.75337000  0.78041000  0.89445000  1.0 0.1188777008
H  H263  1  0.38906000  0.97474000  0.53387000  1.0 0.089203804
H  H264  1  0.45985000  0.96277000  0.53746000  1.0 0.1188777008
H  H265  1  0.78193000  0.61433000  0.79903000  1.0 0.0986734918
H  H266  1  0.79048000  0.65009000  0.75904000  1.0 0.1188777008
H  H267  1  0.51868000  0.70712000  0.64862000  1.0 0.0986734918
H  H268  1  0.56853000  0.73835000  0.63365000  1.0 0.1188777008
H  H269  1  0.67824000  0.64657000  0.79670000  1.0 0.089203804
H  H270  1  0.51693000  0.85208000  0.76698000  1.0 0.1188777008
H  H271  1  0.48771000  0.77903000  0.73225000  1.0 0.1099780407
H  H272  1  0.56899000  0.68507000  0.73640000  1.0 0.0986734918
C  C1  1  0.70590000  0.02640000  0.97180000  1.0 0.5382757075
C  C2  1  0.29410000  0.52640000  0.52820000  1.0 0.5382757075
C  C3  1  0.29410000  0.97360000  0.02820000  1.0 0.5382757075
C  C4  1  0.70590000  0.47360000  0.47180000  1.0 0.5382757075
C  C5  1  0.69220000  0.71390000  0.54797000  1.0 0.530124668
C  C6  1  0.30780000  0.21390000  0.95203000  1.0 0.530124668
C  C7  1  0.30780000  0.28610000  0.45203000  1.0 0.530124668
C  C8  1  0.69220000  0.78610000  0.04797000  1.0 0.530124668
C  C9  1  0.79000000  0.03010000  0.94745000  1.0 -0.0711936243
C  C10  1  0.21000000  0.53010000  0.55255000  1.0 -0.0711936243
C  C11  1  0.21000000  0.96990000  0.05255000  1.0 -0.0711936243
C  C12  1  0.79000000  0.46990000  0.44745000  1.0 -0.0711936243
C  C13  1  0.74250000  0.07040000  0.95332000  1.0 -0.0390363848
C  C14  1  0.25750000  0.57040000  0.54668000  1.0 -0.0390363848
C  C15  1  0.25750000  0.92960000  0.04668000  1.0 -0.0390363848
C  C16  1  0.74250000  0.42960000  0.45332000  1.0 -0.0390363848
C  C17  1  0.78090000  0.11080000  0.71797000  1.0 0.1099780407
C  C18  1  0.21910000  0.61080000  0.78203000  1.0 0.1099780407
C  C19  1  0.21910000  0.88920000  0.28203000  1.0 0.1099780407
C  C20  1  0.78090000  0.38920000  0.21797000  1.0 0.1099780407
C  C21  1  0.70250000  0.80090000  0.55591000  1.0 -0.0312804096
C  C22  1  0.29750000  0.30090000  0.94409000  1.0 -0.0312804096
C  C23  1  0.29750000  0.19910000  0.44409000  1.0 -0.0312804096
C  C24  1  0.70250000  0.69910000  0.05591000  1.0 -0.0312804096
C  C25  1  0.80070000  0.13230000  0.76737000  1.0 0.1099780407
C  C26  1  0.19930000  0.63230000  0.73263000  1.0 0.1099780407
C  C27  1  0.19930000  0.86770000  0.23263000  1.0 0.1099780407
C  C28  1  0.80070000  0.36770000  0.26737000  1.0 0.1099780407
C  C29  1  0.75770000  0.17780000  0.77482000  1.0 -0.1798701963
C  C30  1  0.24230000  0.67780000  0.72518000  1.0 -0.1798701963
C  C31  1  0.24230000  0.82220000  0.22518000  1.0 -0.1798701963
C  C32  1  0.75770000  0.32220000  0.27482000  1.0 -0.1798701963
C  C33  1  0.82730000  0.07240000  0.93291000  1.0 -0.1433588602
C  C34  1  0.17270000  0.57240000  0.56709000  1.0 -0.1433588602
C  C35  1  0.17270000  0.92760000  0.06709000  1.0 -0.1433588602
C  C36  1  0.82730000  0.42760000  0.43291000  1.0 -0.1433588602
C  C37  1  0.71190000  0.11510000  0.67825000  1.0 -0.1876780466
C  C38  1  0.28810000  0.61510000  0.82175000  1.0 -0.1876780466
C  C39  1  0.28810000  0.88490000  0.32175000  1.0 -0.1876780466
C  C40  1  0.71190000  0.38490000  0.17825000  1.0 -0.1876780466
C  C41  1  0.65330000  0.84380000  0.55876000  1.0 -0.0711936243
C  C42  1  0.34670000  0.34380000  0.94124000  1.0 -0.0711936243
C  C43  1  0.34670000  0.15620000  0.44124000  1.0 -0.0711936243
C  C44  1  0.65330000  0.65620000  0.05876000  1.0 -0.0711936243
C  C45  1  0.81740000  0.15210000  0.92393000  1.0 0.0986734918
C  C46  1  0.18260000  0.65210000  0.57607000  1.0 0.0986734918
C  C47  1  0.18260000  0.84790000  0.07607000  1.0 0.0986734918
C  C48  1  0.81740000  0.34790000  0.42393000  1.0 0.0986734918
C  C49  1  0.69540000  0.09540000  0.63381000  1.0 0.030000017
C  C50  1  0.30460000  0.59540000  0.86619000  1.0 0.030000017
C  C51  1  0.30460000  0.90460000  0.36619000  1.0 0.030000017
C  C52  1  0.69540000  0.40460000  0.13381000  1.0 0.030000017
C  C53  1  0.83010000  0.08580000  0.70906000  1.0 -0.1798701963
C  C54  1  0.16990000  0.58580000  0.79094000  1.0 -0.1798701963
C  C55  1  0.16990000  0.91420000  0.29094000  1.0 -0.1798701963
C  C56  1  0.83010000  0.41420000  0.20906000  1.0 -0.1798701963
C  C57  1  0.65970000  0.92490000  0.56430000  1.0 -0.1331328787
C  C58  1  0.34030000  0.42490000  0.93570000  1.0 -0.1331328787
C  C59  1  0.34030000  0.07510000  0.43570000  1.0 -0.1331328787
C  C60  1  0.65970000  0.57510000  0.06430000  1.0 -0.1331328787
C  C61  1  0.71610000  0.96250000  0.56877000  1.0 0.0986734918
C  C62  1  0.28390000  0.46250000  0.93123000  1.0 0.0986734918
C  C63  1  0.28390000  0.03750000  0.43123000  1.0 0.0986734918
C  C64  1  0.71610000  0.53750000  0.06877000  1.0 0.0986734918
C  C65  1  0.86410000  0.10620000  0.80861000  1.0 -0.1798701963
C  C66  1  0.13590000  0.60620000  0.69139000  1.0 -0.1798701963
C  C67  1  0.13590000  0.89380000  0.19139000  1.0 -0.1798701963
C  C68  1  0.86410000  0.39380000  0.30861000  1.0 -0.1798701963
C  C69  1  0.73250000  0.14980000  0.94480000  1.0 -0.0968122892
C  C70  1  0.26750000  0.64980000  0.55520000  1.0 -0.0968122892
C  C71  1  0.26750000  0.85020000  0.05520000  1.0 -0.0968122892
C  C72  1  0.73250000  0.35020000  0.44480000  1.0 -0.0968122892
C  C73  1  0.77010000  0.19030000  0.92970000  1.0 -0.1798701963
C  C74  1  0.22990000  0.69030000  0.57030000  1.0 -0.1798701963
C  C75  1  0.22990000  0.80970000  0.07030000  1.0 -0.1798701963
C  C76  1  0.77010000  0.30970000  0.42970000  1.0 -0.1798701963
C  C77  1  0.50240000  0.46200000  0.48910000  1.0 0.4734537266
C  C78  1  0.49760000  0.96200000  0.01090000  1.0 0.4734537266
C  C79  1  0.49760000  0.53800000  0.51090000  1.0 0.4734537266
C  C80  1  0.50240000  0.03800000  0.98910000  1.0 0.4734537266
C  C81  1  0.85890000  0.19780000  0.90834000  1.0 -0.1798701963
C  C82  1  0.14110000  0.69780000  0.59166000  1.0 -0.1798701963
C  C83  1  0.14110000  0.80220000  0.09166000  1.0 -0.1798701963
C  C84  1  0.85890000  0.30220000  0.40834000  1.0 -0.1798701963
C  C85  1  0.81070000  0.06720000  0.66310000  1.0 0.0512515722
C  C86  1  0.18930000  0.56720000  0.83690000  1.0 0.0401224395
C  C87  1  0.18930000  0.93280000  0.33690000  1.0 0.0401224395
C  C88  1  0.81070000  0.43280000  0.16310000  1.0 0.0512515722
C  C89  1  0.72320000  0.05120000  0.57614000  1.0 -0.1876780466
C  C90  1  0.27680000  0.55120000  0.92386000  1.0 -0.1876780466
C  C91  1  0.27680000  0.94880000  0.42386000  1.0 -0.1876780466
C  C92  1  0.72320000  0.44880000  0.07614000  1.0 -0.1876780466
C  C93  1  0.88130000  0.12720000  0.85371000  1.0 0.0216016107
C  C94  1  0.11870000  0.62720000  0.64629000  1.0 0.0216016107
C  C95  1  0.11870000  0.87280000  0.14629000  1.0 0.0216016107
C  C96  1  0.88130000  0.37280000  0.35371000  1.0 0.0216016107
C  C97  1  0.77850000  0.19750000  0.82100000  1.0 0.0512515722
C  C98  1  0.22150000  0.69750000  0.67900000  1.0 0.0512515722
C  C99  1  0.22150000  0.80250000  0.17900000  1.0 0.0512515722
C  C100  1  0.77850000  0.30250000  0.32100000  1.0 0.0512515722
C  C101  1  0.76650000  0.91890000  0.56692000  1.0 -0.1798701963
C  C102  1  0.23350000  0.41890000  0.93308000  1.0 -0.1798701963
C  C103  1  0.23350000  0.08110000  0.43308000  1.0 -0.1798701963
C  C104  1  0.76650000  0.58110000  0.06692000  1.0 -0.1798701963
C  C105  1  0.75870000  0.83820000  0.55925000  1.0 -0.11275029
C  C106  1  0.24130000  0.33820000  0.94075000  1.0 -0.11275029
C  C107  1  0.24130000  0.16180000  0.44075000  1.0 -0.11275029
C  C108  1  0.75870000  0.66180000  0.05925000  1.0 -0.11275029
C  C109  1  0.03320000  0.28010000  0.40237000  1.0 0.5100164461
C  C110  1  0.58170000  0.15750000  0.11552000  1.0 0.1099780407
C  C111  1  0.02660000  0.50440000  0.44384000  1.0 0.530124668
C  C112  1  0.03030000  0.38390000  0.29711000  1.0 0.5100164461
C  C113  1  0.11300000  0.48090000  0.35645000  1.0 0.030000017
C  C114  1  0.06070000  0.26990000  0.34423000  1.0 0.0986734918
C  C115  1  0.44650000  0.30220000  0.07802000  1.0 0.0986734918
C  C116  1  0.64730000  0.22180000  0.09064000  1.0 0.5195350833
C  C117  1  0.10330000  0.39570000  0.45025000  1.0 0.0401224395
C  C118  1  0.05340000  0.60460000  0.35259000  1.0 0.530124668
C  C119  1  0.09980000  0.34160000  0.37750000  1.0 0.1099780407
C  C120  1  0.86430000  0.22620000  0.18838000  1.0 0.5195350833
C  C121  1  0.52170000  0.25870000  0.04729000  1.0 0.0401224395
C  C122  1  0.75840000  0.14730000  0.13327000  1.0 0.030000017
C  C123  1  0.99010000  0.63480000  0.45544000  1.0 0.030000017
C  C124  1  0.85920000  0.14800000  0.29773000  1.0 0.5100164461
C  C125  1  0.10930000  0.53670000  0.42621000  1.0 0.1099780407
C  C126  1  0.98620000  0.26070000  0.25225000  1.0 0.0401224395
C  C127  1  0.07670000  0.61320000  0.43064000  1.0 0.0986734918
C  C128  1  0.41540000  0.38420000  0.07616000  1.0 0.1099780407
C  C129  1  0.50610000  0.20040000  0.14583000  1.0 0.0401224395
C  C130  1  0.65740000  0.12290000  0.14362000  1.0 0.1099780407
C  C131  1  0.50010000  0.39770000  0.05787000  1.0 0.530124668
C  C132  1  0.86290000  0.78780000  0.37030000  1.0 0.089203804
C  C133  1  0.84350000  0.12080000  0.22333000  1.0 0.1099780407
C  C134  1  0.98870000  0.16160000  0.35079000  1.0 0.030000017
C  C135  1  0.02270000  0.73190000  0.37277000  1.0 0.030000017
C  C136  1  0.63150000  0.16900000  0.19849000  1.0 0.5100164461
C  C137  1  0.64380000  0.69200000  0.31120000  1.0 0.5195350833
C  C138  1  0.93880000  0.75190000  0.39849000  1.0 0.0986734918
C  C139  1  0.91850000  0.15150000  0.25920000  1.0 0.1099780407
C  C140  1  0.51490000  0.62690000  0.10860000  1.0 0.5100164461
C  C141  1  0.47060000  0.55040000  0.19960000  1.0 0.5100164461
C  C142  1  0.39470000  0.45090000  0.13630000  1.0 0.0216016107
C  C143  1  0.42650000  0.58480000  0.11890000  1.0 0.0986734918
C  C144  1  0.86510000  0.67150000  0.40828000  1.0 0.5100164461
C  C145  1  0.46260000  0.32840000  0.15271000  1.0 0.530124668
C  C146  1  0.89900000  0.77150000  0.31760000  1.0 0.5100164461
C  C147  1  0.74250000  0.09700000  0.23350000  1.0 0.030000017
C  C148  1  0.46580000  0.65620000  0.15270000  1.0 0.089203804
C  C149  1  0.75890000  0.75220000  0.37280000  1.0 0.0216016107
C  C150  1  0.43980000  0.51970000  0.05513000  1.0 0.030000017
C  C151  1  0.78450000  0.83670000  0.28500000  1.0 0.0138378846
C  C152  1  0.55230000  0.75190000  0.15470000  1.0 0.0216016107
C  C153  1  0.67850000  0.79960000  0.28610000  1.0 0.089203804
C  C154  1  0.51930000  0.67610000  0.24250000  1.0 0.0216016107
C  C155  1  0.67810000  0.77330000  0.21720000  1.0 0.5034235008
C  C156  1  0.60390000  0.77350000  0.24480000  1.0 0.0986734918
C  C157  1  0.96680000  0.78010000  0.09763000  1.0 0.5100164461
C  C158  1  0.41830000  0.65750000  0.38448000  1.0 0.1099780407
C  C159  1  0.97340000  0.00440000  0.05616000  1.0 0.530124668
C  C160  1  0.96970000  0.88390000  0.20289000  1.0 0.5100164461
C  C161  1  0.88700000  0.98090000  0.14355000  1.0 0.030000017
C  C162  1  0.93930000  0.76990000  0.15577000  1.0 0.0986734918
C  C163  1  0.55350000  0.80220000  0.42198000  1.0 0.0986734918
C  C164  1  0.35270000  0.72180000  0.40936000  1.0 0.5195350833
C  C165  1  0.89670000  0.89570000  0.04975000  1.0 0.0401224395
C  C166  1  0.94660000  0.10460000  0.14741000  1.0 0.530124668
C  C167  1  0.90020000  0.84160000  0.12250000  1.0 0.1099780407
C  C168  1  0.13570000  0.72620000  0.31162000  1.0 0.5195350833
C  C169  1  0.47830000  0.75870000  0.45271000  1.0 0.0401224395
C  C170  1  0.24160000  0.64730000  0.36673000  1.0 0.030000017
C  C171  1  0.00990000  0.13480000  0.04456000  1.0 0.030000017
C  C172  1  0.14080000  0.64800000  0.20227000  1.0 0.5100164461
C  C173  1  0.89070000  0.03670000  0.07379000  1.0 0.1099780407
C  C174  1  0.01380000  0.76070000  0.24775000  1.0 0.0401224395
C  C175  1  0.92330000  0.11320000  0.06936000  1.0 0.0986734918
C  C176  1  0.58460000  0.88420000  0.42384000  1.0 0.0986734918
C  C177  1  0.49390000  0.70040000  0.35417000  1.0 0.0401224395
C  C178  1  0.34260000  0.62290000  0.35638000  1.0 0.1099780407
C  C179  1  0.49990000  0.89770000  0.44213000  1.0 0.530124668
C  C180  1  0.13710000  0.28780000  0.12970000  1.0 0.089203804
C  C181  1  0.15650000  0.62080000  0.27667000  1.0 0.1099780407
C  C182  1  0.01130000  0.66160000  0.14921000  1.0 0.030000017
C  C183  1  0.97730000  0.23190000  0.12723000  1.0 0.030000017
C  C184  1  0.36850000  0.66900000  0.30151000  1.0 0.5100164461
C  C185  1  0.35620000  0.19200000  0.18880000  1.0 0.5195350833
C  C186  1  0.06120000  0.25190000  0.10151000  1.0 0.0986734918
C  C187  1  0.08150000  0.65150000  0.24080000  1.0 0.1099780407
C  C188  1  0.48510000  0.12690000  0.39140000  1.0 0.5100164461
C  C189  1  0.52940000  0.05040000  0.30040000  1.0 0.5100164461
C  C190  1  0.60530000  0.95090000  0.36370000  1.0 0.0216016107
C  C191  1  0.57350000  0.08480000  0.38110000  1.0 0.0986734918
C  C192  1  0.13490000  0.17150000  0.09172000  1.0 0.5100164461
C  C193  1  0.53740000  0.82840000  0.34729000  1.0 0.530124668
C  C194  1  0.10100000  0.27150000  0.18240000  1.0 0.5100164461
C  C195  1  0.25750000  0.59700000  0.26650000  1.0 0.030000017
C  C196  1  0.53420000  0.15620000  0.34730000  1.0 0.089203804
C  C197  1  0.24110000  0.25220000  0.12720000  1.0 0.0216016107
C  C198  1  0.56020000  0.01970000  0.44487000  1.0 0.030000017
C  C199  1  0.21550000  0.33670000  0.21500000  1.0 0.0138378846
C  C200  1  0.44770000  0.25190000  0.34530000  1.0 0.0216016107
C  C201  1  0.32150000  0.29960000  0.21390000  1.0 0.089203804
C  C202  1  0.48070000  0.17610000  0.25750000  1.0 0.0216016107
C  C203  1  0.32190000  0.27330000  0.28280000  1.0 0.5034235008
C  C204  1  0.39610000  0.27350000  0.25520000  1.0 0.0986734918
C  C205  1  0.96680000  0.71990000  0.59763000  1.0 0.5100164461
C  C206  1  0.41830000  0.84250000  0.88448000  1.0 0.1099780407
C  C207  1  0.97340000  0.49560000  0.55616000  1.0 0.530124668
C  C208  1  0.96970000  0.61610000  0.70289000  1.0 0.5100164461
C  C209  1  0.88700000  0.51910000  0.64355000  1.0 0.030000017
C  C210  1  0.93930000  0.73010000  0.65577000  1.0 0.0986734918
C  C211  1  0.55350000  0.69780000  0.92198000  1.0 0.0986734918
C  C212  1  0.35270000  0.77820000  0.90936000  1.0 0.5195350833
C  C213  1  0.89670000  0.60430000  0.54975000  1.0 0.0401224395
C  C214  1  0.94660000  0.39540000  0.64741000  1.0 0.530124668
C  C215  1  0.90020000  0.65840000  0.62250000  1.0 0.1099780407
C  C216  1  0.13570000  0.77380000  0.81162000  1.0 0.5195350833
C  C217  1  0.47830000  0.74130000  0.95271000  1.0 0.0401224395
C  C218  1  0.24160000  0.85270000  0.86673000  1.0 0.030000017
C  C219  1  0.00990000  0.36520000  0.54456000  1.0 0.030000017
C  C220  1  0.14080000  0.85200000  0.70227000  1.0 0.5100164461
C  C221  1  0.89070000  0.46330000  0.57379000  1.0 0.1099780407
C  C222  1  0.01380000  0.73930000  0.74775000  1.0 0.0401224395
C  C223  1  0.92330000  0.38680000  0.56936000  1.0 0.0986734918
C  C224  1  0.58460000  0.61580000  0.92384000  1.0 0.0986734918
C  C225  1  0.49390000  0.79960000  0.85417000  1.0 0.0401224395
C  C226  1  0.34260000  0.87710000  0.85638000  1.0 0.1099780407
C  C227  1  0.49990000  0.60230000  0.94213000  1.0 0.530124668
C  C228  1  0.13710000  0.21220000  0.62970000  1.0 0.089203804
C  C229  1  0.15650000  0.87920000  0.77667000  1.0 0.1099780407
C  C230  1  0.01130000  0.83840000  0.64921000  1.0 0.030000017
C  C231  1  0.97730000  0.26810000  0.62723000  1.0 0.030000017
C  C232  1  0.36850000  0.83100000  0.80151000  1.0 0.5100164461
C  C233  1  0.35620000  0.30800000  0.68880000  1.0 0.5195350833
C  C234  1  0.06120000  0.24810000  0.60151000  1.0 0.0986734918
C  C235  1  0.08150000  0.84850000  0.74080000  1.0 0.1099780407
C  C236  1  0.48510000  0.37310000  0.89140000  1.0 0.5100164461
C  C237  1  0.52940000  0.44960000  0.80040000  1.0 0.5100164461
C  C238  1  0.60530000  0.54910000  0.86370000  1.0 0.0216016107
C  C239  1  0.57350000  0.41520000  0.88110000  1.0 0.0986734918
C  C240  1  0.13490000  0.32850000  0.59172000  1.0 0.5195350833
C  C241  1  0.53740000  0.67160000  0.84729000  1.0 0.530124668
C  C242  1  0.10100000  0.22850000  0.68240000  1.0 0.5100164461
C  C243  1  0.25750000  0.90300000  0.76650000  1.0 0.030000017
C  C244  1  0.53420000  0.34380000  0.84730000  1.0 0.089203804
C  C245  1  0.24110000  0.24780000  0.62720000  1.0 0.0216016107
C  C246  1  0.56020000  0.48030000  0.94487000  1.0 0.030000017
C  C247  1  0.21550000  0.16330000  0.71500000  1.0 0.0138378846
C  C248  1  0.44770000  0.24810000  0.84530000  1.0 0.0216016107
C  C249  1  0.32150000  0.20040000  0.71390000  1.0 0.089203804
C  C250  1  0.48070000  0.32390000  0.75750000  1.0 0.0216016107
C  C251  1  0.32190000  0.22670000  0.78280000  1.0 0.5034235008
C  C252  1  0.39610000  0.22650000  0.75520000  1.0 0.0986734918
C  C253  1  0.03320000  0.21990000  0.90237000  1.0 0.5100164461
C  C254  1  0.58170000  0.34250000  0.61552000  1.0 0.1099780407
C  C255  1  0.02660000  0.99560000  0.94384000  1.0 0.530124668
C  C256  1  0.03030000  0.11610000  0.79711000  1.0 0.5100164461
C  C257  1  0.11300000  0.01910000  0.85645000  1.0 0.030000017
C  C258  1  0.06070000  0.23010000  0.84423000  1.0 0.0986734918
C  C259  1  0.44650000  0.19780000  0.57802000  1.0 0.0986734918
C  C260  1  0.64730000  0.27820000  0.59064000  1.0 0.5195350833
C  C261  1  0.10330000  0.10430000  0.95025000  1.0 0.0401224395
C  C262  1  0.05340000  0.89540000  0.85259000  1.0 0.530124668
C  C263  1  0.09980000  0.15840000  0.87750000  1.0 0.1099780407
C  C264  1  0.86430000  0.27380000  0.68838000  1.0 0.5195350833
C  C265  1  0.52170000  0.24130000  0.54729000  1.0 0.0401224395
C  C266  1  0.75840000  0.35270000  0.63327000  1.0 0.030000017
C  C267  1  0.99010000  0.86520000  0.95544000  1.0 0.030000017
C  C268  1  0.85920000  0.35200000  0.79773000  1.0 0.5100164461
C  C269  1  0.10930000  0.96330000  0.92621000  1.0 0.1099780407
C  C270  1  0.98620000  0.23930000  0.75225000  1.0 0.0401224395
C  C271  1  0.07670000  0.88680000  0.93064000  1.0 0.0986734918
C  C272  1  0.41540000  0.11580000  0.57616000  1.0 0.1099780407
C  C273  1  0.50610000  0.29960000  0.64583000  1.0 0.0401224395
C  C274  1  0.65740000  0.37710000  0.64362000  1.0 0.1099780407
C  C275  1  0.50010000  0.10230000  0.55787000  1.0 0.530124668
C  C276  1  0.86290000  0.71220000  0.87030000  1.0 0.089203804
C  C277  1  0.84350000  0.37920000  0.72333000  1.0 0.1099780407
C  C278  1  0.98870000  0.33840000  0.85079000  1.0 0.030000017
C  C279  1  0.02270000  0.76810000  0.87277000  1.0 0.030000017
C  C280  1  0.63150000  0.33100000  0.69849000  1.0 0.5100164461
C  C281  1  0.64380000  0.80800000  0.81120000  1.0 0.5195350833
C  C282  1  0.93880000  0.74810000  0.89849000  1.0 0.0986734918
C  C283  1  0.91850000  0.34850000  0.75920000  1.0 0.1099780407
C  C284  1  0.51490000  0.87310000  0.60860000  1.0 0.5100164461
C  C285  1  0.47060000  0.94960000  0.69960000  1.0 0.5100164461
C  C286  1  0.39470000  0.04910000  0.63630000  1.0 0.0216016107
C  C287  1  0.42650000  0.91520000  0.61890000  1.0 0.0986734918
C  C288  1  0.86510000  0.82850000  0.90828000  1.0 0.5195350833
C  C289  1  0.46260000  0.17160000  0.65271000  1.0 0.530124668
C  C290  1  0.89900000  0.72850000  0.81760000  1.0 0.5100164461
C  C291  1  0.74250000  0.40300000  0.73350000  1.0 0.030000017
C  C292  1  0.46580000  0.84380000  0.65270000  1.0 0.089203804
C  C293  1  0.75890000  0.74780000  0.87280000  1.0 0.0216016107
C  C294  1  0.43980000  0.98030000  0.55513000  1.0 0.030000017
C  C295  1  0.78450000  0.66330000  0.78500000  1.0 0.0138378846
C  C296  1  0.55230000  0.74810000  0.65470000  1.0 0.0216016107
C  C297  1  0.67850000  0.70040000  0.78610000  1.0 0.089203804
C  C298  1  0.51930000  0.82390000  0.74250000  1.0 0.0216016107
C  C299  1  0.67810000  0.72670000  0.71720000  1.0 0.5034235008
C  C300  1  0.60390000  0.72650000  0.74480000  1.0 0.0986734918
N  N1  1  0.74380000  0.07230000  0.62631000  1.0 0.1188777008
N  N2  1  0.25620000  0.57230000  0.87369000  1.0 0.1188777008
N  N3  1  0.25620000  0.92770000  0.37369000  1.0 0.1188777008
N  N4  1  0.74380000  0.42770000  0.12631000  1.0 0.1188777008
N  N5  1  0.83900000  0.17290000  0.85929000  1.0 0.1188777008
N  N6  1  0.16100000  0.67290000  0.64071000  1.0 0.1188777008
N  N7  1  0.16100000  0.82710000  0.14071000  1.0 0.1188777008
N  N8  1  0.83900000  0.32710000  0.35929000  1.0 0.1188777008
N  N9  1  0.07682000  0.40660000  0.34461000  1.0 -0.2405174887
N  N10  1  0.69200000  0.16920000  0.12550000  1.0 -0.2695315461
N  N11  1  0.04560000  0.65000000  0.38326000  1.0 -0.2405174887
N  N12  1  0.07470000  0.34310000  0.40918000  1.0 -0.2695315461
N  N13  1  0.58418000  0.21900000  0.08641000  1.0 -0.2802046165
N  N14  1  0.57340000  0.18530000  0.15322000  1.0 -0.259007993
N  N15  1  0.81799000  0.16860000  0.18089000  1.0 -0.2512629231
N  N16  1  0.02380000  0.23700000  0.36431000  1.0 -0.259007993
N  N17  1  0.91942000  0.22460000  0.23681000  1.0 -0.2802046165
N  N18  1  0.01609000  0.30580000  0.29672000  1.0 -0.259007993
N  N19  1  0.47990000  0.27910000  0.12841000  1.0 -0.2695315461
N  N20  1  0.92227000  0.16120000  0.30398000  1.0 -0.2405174887
N  N21  1  0.42650000  0.39100000  0.12337000  1.0 -0.2512629231
N  N22  1  0.93080000  0.67780000  0.41677000  1.0 -0.2512629231
N  N23  1  0.07700000  0.47570000  0.43754000  1.0 -0.259007993
N  N24  1  0.95360000  0.74360000  0.36164000  1.0 -0.228871048
N  N25  1  0.45700000  0.43680000  0.06773000  1.0 -0.259007993
N  N26  1  0.08860000  0.53760000  0.37641000  1.0 -0.2405174887
N  N27  1  0.49495000  0.31850000  0.06399000  1.0 -0.2512629231
N  N28  1  0.02360000  0.58550000  0.43879000  1.0 -0.2695315461
N  N29  1  0.43450000  0.52420000  0.15293000  1.0 -0.2405174887
N  N30  1  0.80956000  0.13450000  0.24908000  1.0 -0.2902457528
N  N31  1  0.68280000  0.13760000  0.19381000  1.0 -0.2512629231
N  N32  1  0.46590000  0.56980000  0.09756000  1.0 -0.2405174887
N  N33  1  0.82360000  0.73180000  0.37845000  1.0 -0.2079717741
N  N34  1  0.84540000  0.79290000  0.32173000  1.0 -0.2221586369
N  N35  1  0.49470000  0.62460000  0.20118000  1.0 -0.2405174887
N  N36  1  0.59080000  0.70490000  0.26413000  1.0 -0.2221586369
N  N37  1  0.61200000  0.75750000  0.20490000  1.0 -0.2221586369
N  N38  1  0.69680000  0.74330000  0.32392000  1.0 -0.2512629231
N  N39  1  0.51690000  0.67630000  0.14234000  1.0 -0.228871048
N  N40  1  0.71900000  0.79460000  0.26480000  1.0 -0.2221586369
N  N41  1  0.92318000  0.90660000  0.15539000  1.0 -0.2405174887
N  N42  1  0.30800000  0.66920000  0.37450000  1.0 -0.2695315461
N  N43  1  0.95440000  0.15000000  0.11674000  1.0 -0.228871048
N  N44  1  0.92530000  0.84310000  0.09082000  1.0 -0.2695315461
N  N45  1  0.41582000  0.71900000  0.41359000  1.0 -0.2802046165
N  N46  1  0.42660000  0.68530000  0.34678000  1.0 -0.259007993
N  N47  1  0.18201000  0.66860000  0.31911000  1.0 -0.2512629231
N  N48  1  0.97620000  0.73700000  0.13569000  1.0 -0.259007993
N  N49  1  0.08058000  0.72460000  0.26319000  1.0 -0.2802046165
N  N50  1  0.98391000  0.80580000  0.20328000  1.0 -0.259007993
N  N51  1  0.52010000  0.77910000  0.37159000  1.0 -0.2695315461
N  N52  1  0.07773000  0.66120000  0.19602000  1.0 -0.2405174887
N  N53  1  0.57350000  0.89100000  0.37663000  1.0 -0.2512629231
N  N54  1  0.06920000  0.17780000  0.08323000  1.0 -0.2512629231
N  N55  1  0.92300000  0.97570000  0.06246000  1.0 -0.259007993
N  N56  1  0.04640000  0.24360000  0.13836000  1.0 -0.228871048
N  N57  1  0.54300000  0.93680000  0.43227000  1.0 -0.259007993
N  N58  1  0.91140000  0.03760000  0.12359000  1.0 -0.2405174887
N  N59  1  0.50505000  0.81850000  0.43601000  1.0 -0.259007993
N  N60  1  0.97640000  0.08550000  0.06121000  1.0 -0.2695315461
N  N61  1  0.56550000  0.02420000  0.34707000  1.0 -0.2405174887
N  N62  1  0.19044000  0.63450000  0.25092000  1.0 -0.2902457528
N  N63  1  0.31720000  0.63760000  0.30619000  1.0 -0.2512629231
N  N64  1  0.53410000  0.06980000  0.40244000  1.0 -0.2405174887
N  N65  1  0.17640000  0.23180000  0.12155000  1.0 -0.2079717741
N  N66  1  0.15460000  0.29290000  0.17827000  1.0 -0.2221586369
N  N67  1  0.50530000  0.12460000  0.29882000  1.0 -0.2405174887
N  N68  1  0.40920000  0.20490000  0.23587000  1.0 -0.2221586369
N  N69  1  0.38800000  0.25750000  0.29510000  1.0 -0.2221586369
N  N70  1  0.30320000  0.24330000  0.17608000  1.0 -0.2512629231
N  N71  1  0.48310000  0.17630000  0.35766000  1.0 -0.228871048
N  N72  1  0.28100000  0.29460000  0.23520000  1.0 -0.228871048
N  N73  1  0.92318000  0.59340000  0.65539000  1.0 -0.2405174887
N  N74  1  0.30800000  0.83080000  0.87450000  1.0 -0.2695315461
N  N75  1  0.95440000  0.35000000  0.61674000  1.0 -0.2405174887
N  N76  1  0.92530000  0.65690000  0.59082000  1.0 -0.2695315461
N  N77  1  0.41582000  0.78100000  0.91359000  1.0 -0.2802046165
N  N78  1  0.42660000  0.81470000  0.84678000  1.0 -0.259007993
N  N79  1  0.18201000  0.83140000  0.81911000  1.0 -0.2512629231
N  N80  1  0.97620000  0.76300000  0.63569000  1.0 -0.259007993
N  N81  1  0.08058000  0.77540000  0.76319000  1.0 -0.2802046165
N  N82  1  0.98391000  0.69420000  0.70328000  1.0 -0.259007993
N  N83  1  0.52010000  0.72090000  0.87159000  1.0 -0.2695315461
N  N84  1  0.07773000  0.83880000  0.69602000  1.0 -0.2512629231
N  N85  1  0.57350000  0.60900000  0.87663000  1.0 -0.2512629231
N  N86  1  0.06920000  0.32220000  0.58323000  1.0 -0.2512629231
N  N87  1  0.92300000  0.52430000  0.56246000  1.0 -0.259007993
N  N88  1  0.04640000  0.25640000  0.63836000  1.0 -0.228871048
N  N89  1  0.54300000  0.56320000  0.93227000  1.0 -0.259007993
N  N90  1  0.91140000  0.46240000  0.62359000  1.0 -0.2405174887
N  N91  1  0.50505000  0.68150000  0.93601000  1.0 -0.259007993
N  N92  1  0.97640000  0.41450000  0.56121000  1.0 -0.2695315461
N  N93  1  0.56550000  0.47580000  0.84707000  1.0 -0.2405174887
N  N94  1  0.19044000  0.86550000  0.75092000  1.0 -0.2902457528
N  N95  1  0.31720000  0.86240000  0.80619000  1.0 -0.2512629231
N  N96  1  0.53410000  0.43020000  0.90244000  1.0 -0.2405174887
N  N97  1  0.17640000  0.26820000  0.62155000  1.0 -0.2079717741
N  N98  1  0.15460000  0.20710000  0.67827000  1.0 -0.2221586369
N  N99  1  0.50530000  0.37540000  0.79882000  1.0 -0.2405174887
N  N100  1  0.40920000  0.29510000  0.73587000  1.0 -0.228871048
N  N101  1  0.38800000  0.24250000  0.79510000  1.0 -0.2221586369
N  N102  1  0.30320000  0.25670000  0.67608000  1.0 -0.2512629231
N  N103  1  0.48310000  0.32370000  0.85766000  1.0 -0.228871048
N  N104  1  0.28100000  0.20540000  0.73520000  1.0 -0.228871048
N  N105  1  0.07682000  0.09340000  0.84461000  1.0 -0.2405174887
N  N106  1  0.69200000  0.33080000  0.62550000  1.0 -0.2695315461
N  N107  1  0.04560000  0.85000000  0.88326000  1.0 -0.2405174887
N  N108  1  0.07470000  0.15690000  0.90918000  1.0 -0.2695315461
N  N109  1  0.58418000  0.28100000  0.58641000  1.0 -0.2802046165
N  N110  1  0.57340000  0.31470000  0.65322000  1.0 -0.259007993
N  N111  1  0.81799000  0.33140000  0.68089000  1.0 -0.2512629231
N  N112  1  0.02380000  0.26300000  0.86431000  1.0 -0.259007993
N  N113  1  0.91942000  0.27540000  0.73681000  1.0 -0.2802046165
N  N114  1  0.01609000  0.19420000  0.79672000  1.0 -0.259007993
N  N115  1  0.47990000  0.22090000  0.62841000  1.0 -0.2695315461
N  N116  1  0.92227000  0.33880000  0.80398000  1.0 -0.2512629231
N  N117  1  0.42650000  0.10900000  0.62337000  1.0 -0.2512629231
N  N118  1  0.93080000  0.82220000  0.91677000  1.0 -0.2405174887
N  N119  1  0.07700000  0.02430000  0.93754000  1.0 -0.259007993
N  N120  1  0.95360000  0.75640000  0.86164000  1.0 -0.228871048
N  N121  1  0.45700000  0.06320000  0.56773000  1.0 -0.2512629231
N  N122  1  0.08860000  0.96240000  0.87641000  1.0 -0.2405174887
N  N123  1  0.49495000  0.18150000  0.56399000  1.0 -0.2512629231
N  N124  1  0.02360000  0.91450000  0.93879000  1.0 -0.2695315461
N  N125  1  0.43450000  0.97580000  0.65293000  1.0 -0.2405174887
N  N126  1  0.80956000  0.36550000  0.74908000  1.0 -0.2902457528
N  N127  1  0.68280000  0.36240000  0.69381000  1.0 -0.2512629231
N  N128  1  0.46590000  0.93020000  0.59756000  1.0 -0.2405174887
N  N129  1  0.82360000  0.76820000  0.87845000  1.0 -0.2079717741
N  N130  1  0.84540000  0.70710000  0.82173000  1.0 -0.2221586369
N  N131  1  0.49470000  0.87540000  0.70118000  1.0 -0.2405174887
N  N132  1  0.59080000  0.79510000  0.76413000  1.0 -0.228871048
N  N133  1  0.61200000  0.74250000  0.70490000  1.0 -0.2221586369
N  N134  1  0.69680000  0.75670000  0.82392000  1.0 -0.2512629231
N  N135  1  0.51690000  0.82370000  0.64234000  1.0 -0.228871048
N  N136  1  0.71900000  0.70540000  0.76480000  1.0 -0.228871048
O  O1  1  0.72651000  0.95786000  0.98959000  1.0 -0.5909160562
O  O2  1  0.27349000  0.45786000  0.51041000  1.0 -0.5909160562
O  O3  1  0.27349000  0.04214000  0.01041000  1.0 -0.5909160562
O  O4  1  0.72651000  0.54214000  0.48959000  1.0 -0.5909160562
O  O5  1  0.72604000  0.67256000  0.53547000  1.0 -0.5909160562
O  O6  1  0.27396000  0.17256000  0.96453000  1.0 -0.5909160562
O  O7  1  0.27396000  0.32744000  0.46453000  1.0 -0.5909160562
O  O8  1  0.72604000  0.82744000  0.03547000  1.0 -0.5909160562
O  O9  1  0.65545000  0.05739000  0.97172000  1.0 -0.5591620318
O  O10  1  0.34455000  0.55739000  0.52828000  1.0 -0.5591620318
O  O11  1  0.34455000  0.94261000  0.02828000  1.0 -0.5591620318
O  O12  1  0.65545000  0.44261000  0.47172000  1.0 -0.5591620318
O  O13  1  0.64520000  0.68080000  0.55091000  1.0 -0.5521005131
O  O14  1  0.35480000  0.18080000  0.94909000  1.0 -0.5521005131
O  O15  1  0.35480000  0.31920000  0.44909000  1.0 -0.5591620318
O  O16  1  0.64520000  0.81920000  0.05091000  1.0 -0.5521005131
O  O17  1  0.55580000  0.45110000  0.48810000  1.0 -0.5521005131
O  O18  1  0.44420000  0.95110000  0.01190000  1.0 -0.5521005131
O  O19  1  0.44420000  0.54890000  0.51190000  1.0 -0.5521005131
O  O20  1  0.55580000  0.04890000  0.98810000  1.0 -0.5521005131
O  O21  1  0.45050000  0.41670000  0.47180000  1.0 -0.5591620318
O  O22  1  0.54950000  0.91670000  0.02820000  1.0 -0.5521005131
O  O23  1  0.54950000  0.58330000  0.52820000  1.0 -0.5591620318
O  O24  1  0.45050000  0.08330000  0.97180000  1.0 -0.5591620318
O  O25  1  0.99035000  0.46469000  0.45263000  1.0 -0.5123796259
O  O26  1  0.00898000  0.26488000  0.42629000  1.0 -0.5299640683
O  O27  1  0.00560000  0.42689000  0.26182000  1.0 -0.5299640683
O  O28  1  0.66159000  0.26390000  0.06747000  1.0 -0.5299640683
O  O29  1  0.85822000  0.27180000  0.15804000  1.0 -0.5200580113
O  O30  1  0.53632000  0.42690000  0.04514000  1.0 -0.5123796259
O  O31  1  0.03249000  0.62180000  0.31065000  1.0 -0.5299640683
O  O32  1  0.84816000  0.15010000  0.33007000  1.0 -0.5361794942
O  O33  1  0.63650000  0.18060000  0.23671000  1.0 -0.5299640683
O  O34  1  0.47950000  0.51270000  0.23395000  1.0 -0.5123796259
O  O35  1  0.55000000  0.63350000  0.09150000  1.0 -0.4993364104
O  O36  1  0.47630000  0.31870000  0.19366000  1.0 -0.5200580113
O  O37  1  0.89950000  0.77590000  0.28111000  1.0 -0.5123796259
O  O38  1  0.84580000  0.62000000  0.42454000  1.0 -0.5200580113
O  O39  1  0.64240000  0.64240000  0.33800000  1.0 -0.5299640683
O  O40  1  0.69740000  0.76990000  0.18912000  1.0 -0.5123796259
O  O41  1  0.00965000  0.96469000  0.04737000  1.0 -0.5123796259
O  O42  1  0.99102000  0.76488000  0.07371000  1.0 -0.5299640683
O  O43  1  0.99440000  0.92689000  0.23818000  1.0 -0.5299640683
O  O44  1  0.33841000  0.76390000  0.43253000  1.0 -0.5299640683
O  O45  1  0.14178000  0.77180000  0.34196000  1.0 -0.5200580113
O  O46  1  0.46368000  0.92690000  0.45486000  1.0 -0.5123796259
O  O47  1  0.96751000  0.12180000  0.18935000  1.0 -0.5299640683
O  O48  1  0.15184000  0.65010000  0.16993000  1.0 -0.5361794942
O  O49  1  0.36350000  0.68060000  0.26329000  1.0 -0.5299640683
O  O50  1  0.52050000  0.01270000  0.26605000  1.0 -0.5123796259
O  O51  1  0.45000000  0.13350000  0.40850000  1.0 -0.4993364104
O  O52  1  0.52370000  0.81870000  0.30634000  1.0 -0.5200580113
O  O53  1  0.10050000  0.27590000  0.21889000  1.0 -0.5200580113
O  O54  1  0.15420000  0.12000000  0.07546000  1.0 -0.5200580113
O  O55  1  0.35760000  0.14240000  0.16200000  1.0 -0.5299640683
O  O56  1  0.30260000  0.26990000  0.31088000  1.0 -0.5123796259
O  O57  1  0.00965000  0.53531000  0.54737000  1.0 -0.5123796259
O  O58  1  0.99102000  0.73512000  0.57371000  1.0 -0.5299640683
O  O59  1  0.99440000  0.57311000  0.73818000  1.0 -0.5299640683
O  O60  1  0.33841000  0.73610000  0.93253000  1.0 -0.5299640683
O  O61  1  0.14178000  0.72820000  0.84196000  1.0 -0.5200580113
O  O62  1  0.46368000  0.57310000  0.95486000  1.0 -0.5123796259
O  O63  1  0.96751000  0.37820000  0.68935000  1.0 -0.5299640683
O  O64  1  0.15184000  0.84990000  0.66993000  1.0 -0.5361794942
O  O65  1  0.36350000  0.81940000  0.76329000  1.0 -0.5299640683
O  O66  1  0.52050000  0.48730000  0.76605000  1.0 -0.5123796259
O  O67  1  0.45000000  0.36650000  0.90850000  1.0 -0.4993364104
O  O68  1  0.52370000  0.68130000  0.80634000  1.0 -0.5200580113
O  O69  1  0.10050000  0.22410000  0.71889000  1.0 -0.5200580113
O  O70  1  0.15420000  0.38000000  0.57546000  1.0 -0.5200580113
O  O71  1  0.35760000  0.35760000  0.66200000  1.0 -0.5299640683
O  O72  1  0.30260000  0.23010000  0.81088000  1.0 -0.5123796259
O  O73  1  0.99035000  0.03531000  0.95263000  1.0 -0.5123796259
O  O74  1  0.00898000  0.23512000  0.92629000  1.0 -0.5299640683
O  O75  1  0.00560000  0.07311000  0.76182000  1.0 -0.5299640683
O  O76  1  0.66159000  0.23610000  0.56747000  1.0 -0.5299640683
O  O77  1  0.85822000  0.22820000  0.65804000  1.0 -0.5200580113
O  O78  1  0.53632000  0.07310000  0.54514000  1.0 -0.5123796259
O  O79  1  0.03249000  0.87820000  0.81065000  1.0 -0.5299640683
O  O80  1  0.84816000  0.34990000  0.83007000  1.0 -0.5361794942
O  O81  1  0.63650000  0.31940000  0.73671000  1.0 -0.5299640683
O  O82  1  0.47950000  0.98730000  0.73395000  1.0 -0.5123796259
O  O83  1  0.55000000  0.86650000  0.59150000  1.0 -0.4993364104
O  O84  1  0.47630000  0.18130000  0.69366000  1.0 -0.5200580113
O  O85  1  0.89950000  0.72410000  0.78111000  1.0 -0.5200580113
O  O86  1  0.84580000  0.88000000  0.92454000  1.0 -0.5200580113
O  O87  1  0.64240000  0.85760000  0.83800000  1.0 -0.5299640683
O  O88  1  0.69740000  0.73010000  0.68912000  1.0 -0.5123796259
