# DDEC6 charges by PACMAN v1.1 (https://github.com/mtap-research/PACMAN-charge/)
data_LINTOV_ASR_pacman
_symmetry_space_group_name_H-M   'P 1'
_cell_length_a   22.87230000
_cell_length_b   16.83580000
_cell_length_c   33.17360000
_cell_angle_alpha   90.00000000
_cell_angle_beta   123.73200000
_cell_angle_gamma   90.00000000
_symmetry_Int_Tables_number   1
_chemical_formula_structural   UH68C75(N17O11)2
_chemical_formula_sum   'U4 H272 C300 N136 O88'
_cell_volume   10623.64905879
_cell_formula_units_Z   4
loop_
 _symmetry_equiv_pos_site_id
 _symmetry_equiv_pos_as_xyz
  1  'x, y, z'
loop_
 _atom_site_type_symbol
 _atom_site_label
 _atom_site_symmetry_multiplicity
 _atom_site_fract_x
 _atom_site_fract_y
 _atom_site_fract_z
 _atom_site_occupancy
 _atom_site_charge
U  U1  1  0.14207000  0.05893000  0.01251000  1.0 1.7223724456
U  U2  1  0.85793000  0.55893000  0.48749000  1.0 1.7223724456
U  U3  1  0.85793000  0.94107000  0.98749000  1.0 1.7223724456
U  U4  1  0.14207000  0.44107000  0.51251000  1.0 1.7223724456
H  H1  1  0.29573000  0.47099000  0.45175000  1.0 0.1307545679
H  H2  1  0.70427000  0.97099000  0.04825000  1.0 0.1307545679
H  H3  1  0.70427000  0.52901000  0.54825000  1.0 0.1307545679
H  H4  1  0.29573000  0.02901000  0.95175000  1.0 0.1307545679
H  H5  1  0.43107000  0.61019000  0.38267000  1.0 0.110445301
H  H6  1  0.56893000  0.11019000  0.11733000  1.0 0.110445301
H  H7  1  0.56893000  0.38981000  0.61733000  1.0 0.110445301
H  H8  1  0.43107000  0.88981000  0.88267000  1.0 0.110445301
H  H9  1  0.37698000  0.59417000  0.23329000  1.0 0.1388016447
H  H10  1  0.62302000  0.09417000  0.26671000  1.0 0.1388016447
H  H11  1  0.62302000  0.40583000  0.76671000  1.0 0.1388016447
H  H12  1  0.37698000  0.90583000  0.73329000  1.0 0.1388016447
H  H13  1  0.39824000  0.57896000  0.30451000  1.0 0.1388016447
H  H14  1  0.60176000  0.07896000  0.19549000  1.0 0.1388016447
H  H15  1  0.60176000  0.42104000  0.69549000  1.0 0.1388016447
H  H16  1  0.39824000  0.92104000  0.80451000  1.0 0.1388016447
H  H17  1  0.36408000  0.54029000  0.43107000  1.0 0.1307545679
H  H18  1  0.63592000  0.04029000  0.06893000  1.0 0.1307545679
H  H19  1  0.63592000  0.45971000  0.56893000  1.0 0.1307545679
H  H20  1  0.36408000  0.95971000  0.93107000  1.0 0.1388016447
H  H21  1  0.20661000  0.67875000  0.45306000  1.0 0.1307545679
H  H22  1  0.79339000  0.17875000  0.04694000  1.0 0.1307545679
H  H23  1  0.79339000  0.32125000  0.54694000  1.0 0.1307545679
H  H24  1  0.20661000  0.82125000  0.95306000  1.0 0.1307545679
H  H25  1  0.34049000  0.56584000  0.15454000  1.0 0.1307545679
H  H26  1  0.65951000  0.06584000  0.34546000  1.0 0.1307545679
H  H27  1  0.65951000  0.43416000  0.84546000  1.0 0.1307545679
H  H28  1  0.34049000  0.93416000  0.65454000  1.0 0.1307545679
H  H29  1  0.11046000  0.31813000  0.05511000  1.0 0.1307545679
H  H30  1  0.88954000  0.81813000  0.44489000  1.0 0.1307545679
H  H31  1  0.88954000  0.68187000  0.94489000  1.0 0.1307545679
H  H32  1  0.11046000  0.18187000  0.55511000  1.0 0.1307545679
H  H33  1  0.14140000  0.59385000  0.11018000  1.0 0.1190693162
H  H34  1  0.85860000  0.09385000  0.38982000  1.0 0.1190693162
H  H35  1  0.85860000  0.40615000  0.88982000  1.0 0.1190693162
H  H36  1  0.14140000  0.90615000  0.61018000  1.0 0.1190693162
H  H37  1  0.27286000  0.74674000  0.42978000  1.0 0.1190693162
H  H38  1  0.72714000  0.24674000  0.07022000  1.0 0.1190693162
H  H39  1  0.72714000  0.25326000  0.57022000  1.0 0.1190693162
H  H40  1  0.27286000  0.75326000  0.92978000  1.0 0.1190693162
H  H41  1  0.28972000  0.31597000  0.05763000  1.0 0.1190693162
H  H42  1  0.71028000  0.81597000  0.44237000  1.0 0.1190693162
H  H43  1  0.71028000  0.68403000  0.94237000  1.0 0.1190693162
H  H44  1  0.28972000  0.18403000  0.55763000  1.0 0.1190693162
H  H45  1  0.11716000  0.45578000  0.06287000  1.0 0.1388016447
H  H46  1  0.88284000  0.95578000  0.43713000  1.0 0.1388016447
H  H47  1  0.88284000  0.54422000  0.93713000  1.0 0.1388016447
H  H48  1  0.11716000  0.04422000  0.56287000  1.0 0.1388016447
H  H49  1  0.17415000  0.62676000  0.18781000  1.0 0.145078692
H  H50  1  0.82585000  0.12676000  0.31219000  1.0 0.1388016447
H  H51  1  0.82585000  0.37324000  0.81219000  1.0 0.1388016447
H  H52  1  0.17415000  0.87324000  0.68781000  1.0 0.145078692
H  H53  1  0.21383000  0.69251000  0.25276000  1.0 0.1388016447
H  H54  1  0.78617000  0.19251000  0.24724000  1.0 0.1388016447
H  H55  1  0.78617000  0.30749000  0.74724000  1.0 0.1388016447
H  H56  1  0.21383000  0.80749000  0.75276000  1.0 0.1388016447
H  H57  1  0.25121000  0.72322000  0.33126000  1.0 0.1307545679
H  H58  1  0.74879000  0.22322000  0.16874000  1.0 0.1307545679
H  H59  1  0.74879000  0.27678000  0.66874000  1.0 0.1307545679
H  H60  1  0.25121000  0.77678000  0.83126000  1.0 0.1307545679
H  H61  1  0.41780000  0.67956000  0.43616000  1.0 0.1388016447
H  H62  1  0.58220000  0.17956000  0.06384000  1.0 0.1388016447
H  H63  1  0.58220000  0.32044000  0.56384000  1.0 0.1388016447
H  H64  1  0.41780000  0.82044000  0.93616000  1.0 0.1388016447
H  H65  1  0.36227000  0.75119000  0.41500000  1.0 0.1388016447
H  H66  1  0.63773000  0.25119000  0.08500000  1.0 0.1388016447
H  H67  1  0.63773000  0.24881000  0.58500000  1.0 0.1388016447
H  H68  1  0.36227000  0.74881000  0.91500000  1.0 0.1388016447
H  H69  1  0.30079000  0.45283000  0.07147000  1.0 0.1190693162
H  H70  1  0.69921000  0.95283000  0.42853000  1.0 0.1190693162
H  H71  1  0.69921000  0.54717000  0.92853000  1.0 0.1190693162
H  H72  1  0.30079000  0.04717000  0.57147000  1.0 0.1190693162
H  H73  1  0.16950000  0.58101000  0.05266000  1.0 0.1388016447
H  H74  1  0.83050000  0.08101000  0.44734000  1.0 0.1388016447
H  H75  1  0.83050000  0.41899000  0.94734000  1.0 0.1388016447
H  H76  1  0.16950000  0.91899000  0.55266000  1.0 0.1388016447
H  H77  1  0.25009000  0.57782000  0.06962000  1.0 0.1307545679
H  H78  1  0.74991000  0.07782000  0.43038000  1.0 0.1307545679
H  H79  1  0.74991000  0.42218000  0.93038000  1.0 0.1307545679
H  H80  1  0.25009000  0.92218000  0.56962000  1.0 0.1307545679
H  H81  1  0.66429000  0.03689000  0.94900000  1.0 0.0799376986
H  H82  1  0.65330000  0.83046000  0.89566000  1.0 0.0900943107
H  H83  1  0.59271000  0.72544000  0.84547000  1.0 0.0900943107
H  H84  1  0.45158000  0.60795000  0.76613000  1.0 0.0991941173
H  H85  1  0.59832000  0.87447000  0.97574000  1.0 0.110445301
H  H86  1  0.65973000  0.89682000  0.96837000  1.0 0.110445301
H  H87  1  0.90703000  0.76219000  0.55586000  1.0 0.0799376986
H  H88  1  0.61409000  0.14929000  0.95655000  1.0 0.0799376986
H  H89  1  0.04357000  0.61638000  0.59805000  1.0 0.0726302
H  H90  1  0.66480000  0.96815000  0.87963000  1.0 0.0991941173
H  H91  1  0.60752000  0.99942000  0.82620000  1.0 0.0991941173
H  H92  1  0.25457000  0.58044000  0.63407000  1.0 0.0799376986
H  H93  1  0.26015000  0.66155000  0.61135000  1.0 0.110445301
H  H94  1  0.03496000  0.78446000  0.52969000  1.0 0.1190693162
H  H95  1  0.98566000  0.71863000  0.53099000  1.0 0.0900943107
H  H96  1  0.33930000  0.55850000  0.72154000  1.0 0.0799376986
H  H97  1  0.85892000  0.88535000  0.54852000  1.0 0.0799376986
H  H98  1  0.47185000  0.28879000  0.92237000  1.0 0.0799376986
H  H99  1  0.36084000  0.34028000  0.87826000  1.0 0.0799376986
H  H100  1  0.55785000  0.26529000  0.90024000  1.0 0.0991941173
H  H101  1  0.52747000  0.25046000  0.84429000  1.0 0.110445301
H  H102  1  0.51778000  0.71335000  0.75829000  1.0 0.110445301
H  H103  1  0.47761000  0.79113000  0.72747000  1.0 0.110445301
H  H104  1  0.51777000  0.61722000  0.85309000  1.0 0.0991941173
H  H105  1  0.47868000  0.64385000  0.87858000  1.0 0.110445301
H  H106  1  0.15516000  0.56396000  0.64336000  1.0 0.0799376986
H  H107  1  0.96792000  0.66048000  0.62438000  1.0 0.0991941173
H  H108  1  0.00493000  0.69314000  0.67854000  1.0 0.110445301
H  H109  1  0.52481000  0.17515000  0.97708000  1.0 0.0900943107
H  H110  1  0.47490000  0.10285000  0.97050000  1.0 0.1190693162
H  H111  1  0.88472000  0.93276000  0.66153000  1.0 0.110445301
H  H112  1  0.84041000  0.96336000  0.60667000  1.0 0.0900943107
H  H113  1  0.86944000  0.10055000  0.59210000  1.0 0.0799376986
H  H114  1  0.18160000  0.35303000  0.79345000  1.0 0.0799376986
H  H115  1  0.98711000  0.22450000  0.73263000  1.0 0.110445301
H  H116  1  0.01602000  0.14762000  0.76671000  1.0 0.110445301
H  H117  1  0.23672000  0.60351000  0.76735000  1.0 0.110445301
H  H118  1  0.24105000  0.54514000  0.73104000  1.0 0.0900943107
H  H119  1  0.88053000  0.02446000  0.53225000  1.0 0.0799376986
H  H120  1  0.95141000  0.03797000  0.53438000  1.0 0.1190693162
H  H121  1  0.06957000  0.31695000  0.73522000  1.0 0.0900943107
H  H122  1  0.25340000  0.21698000  0.89260000  1.0 0.1190693162
H  H123  1  0.26199000  0.30650000  0.88058000  1.0 0.0900943107
H  H124  1  0.92855000  0.20495000  0.64446000  1.0 0.0799376986
H  H125  1  0.06340000  0.26422000  0.63006000  1.0 0.1190693162
H  H126  1  0.01510000  0.29709000  0.64731000  1.0 0.0991941173
H  H127  1  0.27967000  0.38177000  0.79019000  1.0 0.0900943107
H  H128  1  0.28859000  0.33792000  0.75115000  1.0 0.110445301
H  H129  1  0.33571000  0.53689000  0.55100000  1.0 0.0799376986
H  H130  1  0.34670000  0.33046000  0.60434000  1.0 0.0900943107
H  H131  1  0.40729000  0.22544000  0.65453000  1.0 0.0900943107
H  H132  1  0.54842000  0.10795000  0.73387000  1.0 0.0991941173
H  H133  1  0.40168000  0.37447000  0.52426000  1.0 0.110445301
H  H134  1  0.34027000  0.39682000  0.53163000  1.0 0.110445301
H  H135  1  0.09297000  0.26219000  0.94414000  1.0 0.0799376986
H  H136  1  0.38591000  0.64929000  0.54345000  1.0 0.0799376986
H  H137  1  0.95643000  0.11638000  0.90195000  1.0 0.0726302
H  H138  1  0.33520000  0.46815000  0.62037000  1.0 0.0991941173
H  H139  1  0.39248000  0.49942000  0.67380000  1.0 0.0991941173
H  H140  1  0.74543000  0.08044000  0.86593000  1.0 0.0799376986
H  H141  1  0.73985000  0.16155000  0.88865000  1.0 0.110445301
H  H142  1  0.96504000  0.28446000  0.97031000  1.0 0.1190693162
H  H143  1  0.01434000  0.21863000  0.96901000  1.0 0.0900943107
H  H144  1  0.66070000  0.05850000  0.77846000  1.0 0.0799376986
H  H145  1  0.14108000  0.38535000  0.95148000  1.0 0.0799376986
H  H146  1  0.52815000  0.78879000  0.57763000  1.0 0.0799376986
H  H147  1  0.63916000  0.84028000  0.62174000  1.0 0.0799376986
H  H148  1  0.44215000  0.76529000  0.59976000  1.0 0.0991941173
H  H149  1  0.47253000  0.75046000  0.65571000  1.0 0.110445301
H  H150  1  0.48222000  0.21335000  0.74171000  1.0 0.110445301
H  H151  1  0.52239000  0.29113000  0.77253000  1.0 0.110445301
H  H152  1  0.48223000  0.11722000  0.64691000  1.0 0.0991941173
H  H153  1  0.52132000  0.14385000  0.62142000  1.0 0.110445301
H  H154  1  0.84484000  0.06396000  0.85664000  1.0 0.0799376986
H  H155  1  0.03208000  0.16048000  0.87562000  1.0 0.0991941173
H  H156  1  0.99507000  0.19314000  0.82146000  1.0 0.110445301
H  H157  1  0.47519000  0.67515000  0.52292000  1.0 0.0900943107
H  H158  1  0.52510000  0.60285000  0.52950000  1.0 0.1190693162
H  H159  1  0.11528000  0.43276000  0.83847000  1.0 0.110445301
H  H160  1  0.15959000  0.46336000  0.89333000  1.0 0.0900943107
H  H161  1  0.13056000  0.60055000  0.90790000  1.0 0.0799376986
H  H162  1  0.81840000  0.85303000  0.70655000  1.0 0.0799376986
H  H163  1  0.01289000  0.72450000  0.76737000  1.0 0.110445301
H  H164  1  0.98398000  0.64762000  0.73329000  1.0 0.110445301
H  H165  1  0.76328000  0.10351000  0.73265000  1.0 0.110445301
H  H166  1  0.75895000  0.04514000  0.76896000  1.0 0.0900943107
H  H167  1  0.11947000  0.52446000  0.96775000  1.0 0.0799376986
H  H168  1  0.04859000  0.53797000  0.96562000  1.0 0.1190693162
H  H169  1  0.93043000  0.81695000  0.76478000  1.0 0.0900943107
H  H170  1  0.74660000  0.71698000  0.60740000  1.0 0.1190693162
H  H171  1  0.73801000  0.80650000  0.61942000  1.0 0.0900943107
H  H172  1  0.07145000  0.70495000  0.85554000  1.0 0.0799376986
H  H173  1  0.93660000  0.76422000  0.86994000  1.0 0.1190693162
H  H174  1  0.98490000  0.79709000  0.85269000  1.0 0.0991941173
H  H175  1  0.72033000  0.88177000  0.70981000  1.0 0.0900943107
H  H176  1  0.71141000  0.83792000  0.74885000  1.0 0.110445301
H  H177  1  0.33571000  0.96311000  0.05100000  1.0 0.0799376986
H  H178  1  0.34670000  0.16954000  0.10434000  1.0 0.0900943107
H  H179  1  0.40729000  0.27456000  0.15453000  1.0 0.0900943107
H  H180  1  0.54842000  0.39205000  0.23387000  1.0 0.0991941173
H  H181  1  0.40168000  0.12553000  0.02426000  1.0 0.1190693162
H  H182  1  0.34027000  0.10318000  0.03163000  1.0 0.110445301
H  H183  1  0.09297000  0.23781000  0.44414000  1.0 0.0799376986
H  H184  1  0.38591000  0.85071000  0.04345000  1.0 0.0799376986
H  H185  1  0.95643000  0.38362000  0.40195000  1.0 0.0726302
H  H186  1  0.33520000  0.03185000  0.12037000  1.0 0.0991941173
H  H187  1  0.39248000  0.00058000  0.17380000  1.0 0.0991941173
H  H188  1  0.74543000  0.41956000  0.36593000  1.0 0.0799376986
H  H189  1  0.73985000  0.33845000  0.38865000  1.0 0.110445301
H  H190  1  0.96504000  0.21554000  0.47031000  1.0 0.1190693162
H  H191  1  0.01434000  0.28137000  0.46901000  1.0 0.0900943107
H  H192  1  0.66070000  0.44150000  0.27846000  1.0 0.0799376986
H  H193  1  0.14108000  0.11465000  0.45148000  1.0 0.0799376986
H  H194  1  0.52815000  0.71121000  0.07763000  1.0 0.0799376986
H  H195  1  0.63916000  0.65972000  0.12174000  1.0 0.0799376986
H  H196  1  0.44215000  0.73471000  0.09976000  1.0 0.0991941173
H  H197  1  0.47253000  0.74954000  0.15571000  1.0 0.110445301
H  H198  1  0.48222000  0.28665000  0.24171000  1.0 0.110445301
H  H199  1  0.52239000  0.20887000  0.27253000  1.0 0.110445301
H  H200  1  0.48223000  0.38278000  0.14691000  1.0 0.0991941173
H  H201  1  0.52132000  0.35615000  0.12142000  1.0 0.110445301
H  H202  1  0.84484000  0.43604000  0.35664000  1.0 0.0799376986
H  H203  1  0.03208000  0.33952000  0.37562000  1.0 0.0991941173
H  H204  1  0.99507000  0.30686000  0.32146000  1.0 0.110445301
H  H205  1  0.47519000  0.82485000  0.02292000  1.0 0.0900943107
H  H206  1  0.52510000  0.89715000  0.02950000  1.0 0.1190693162
H  H207  1  0.11528000  0.06724000  0.33847000  1.0 0.110445301
H  H208  1  0.15959000  0.03664000  0.39333000  1.0 0.0900943107
H  H209  1  0.13056000  0.89945000  0.40790000  1.0 0.0799376986
H  H210  1  0.81840000  0.64697000  0.20655000  1.0 0.0799376986
H  H211  1  0.01289000  0.77550000  0.26737000  1.0 0.110445301
H  H212  1  0.98398000  0.85238000  0.23329000  1.0 0.110445301
H  H213  1  0.76328000  0.39649000  0.23265000  1.0 0.110445301
H  H214  1  0.75895000  0.45486000  0.26896000  1.0 0.0900943107
H  H215  1  0.11947000  0.97554000  0.46775000  1.0 0.0799376986
H  H216  1  0.04859000  0.96203000  0.46562000  1.0 0.1190693162
H  H217  1  0.93043000  0.68305000  0.26478000  1.0 0.0900943107
H  H218  1  0.74660000  0.78302000  0.10740000  1.0 0.1190693162
H  H219  1  0.73801000  0.69350000  0.11942000  1.0 0.0900943107
H  H220  1  0.07145000  0.79505000  0.35554000  1.0 0.0799376986
H  H221  1  0.93660000  0.73578000  0.36994000  1.0 0.1190693162
H  H222  1  0.98490000  0.70291000  0.35269000  1.0 0.0991941173
H  H223  1  0.72033000  0.61823000  0.20981000  1.0 0.0900943107
H  H224  1  0.71141000  0.66208000  0.24885000  1.0 0.110445301
H  H225  1  0.66429000  0.46311000  0.44900000  1.0 0.0799376986
H  H226  1  0.65330000  0.66954000  0.39566000  1.0 0.0900943107
H  H227  1  0.59271000  0.77456000  0.34547000  1.0 0.0900943107
H  H228  1  0.45158000  0.89205000  0.26613000  1.0 0.0991941173
H  H229  1  0.59832000  0.62553000  0.47574000  1.0 0.110445301
H  H230  1  0.65973000  0.60318000  0.46837000  1.0 0.110445301
H  H231  1  0.90703000  0.73781000  0.05586000  1.0 0.0799376986
H  H232  1  0.61409000  0.35071000  0.45655000  1.0 0.0799376986
H  H233  1  0.04357000  0.88362000  0.09805000  1.0 0.0726302
H  H234  1  0.66480000  0.53185000  0.37963000  1.0 0.0991941173
H  H235  1  0.60752000  0.50058000  0.32620000  1.0 0.0991941173
H  H236  1  0.25457000  0.91956000  0.13407000  1.0 0.0799376986
H  H237  1  0.26015000  0.83845000  0.11135000  1.0 0.110445301
H  H238  1  0.03496000  0.71554000  0.02969000  1.0 0.1190693162
H  H239  1  0.98566000  0.78137000  0.03099000  1.0 0.0900943107
H  H240  1  0.33930000  0.94150000  0.22154000  1.0 0.0799376986
H  H241  1  0.85892000  0.61465000  0.04852000  1.0 0.0799376986
H  H242  1  0.47185000  0.21121000  0.42237000  1.0 0.0799376986
H  H243  1  0.36084000  0.15972000  0.37826000  1.0 0.0799376986
H  H244  1  0.55785000  0.23471000  0.40024000  1.0 0.0991941173
H  H245  1  0.52747000  0.24954000  0.34429000  1.0 0.110445301
H  H246  1  0.51778000  0.78665000  0.25829000  1.0 0.110445301
H  H247  1  0.47761000  0.70887000  0.22747000  1.0 0.110445301
H  H248  1  0.51777000  0.88278000  0.35309000  1.0 0.0991941173
H  H249  1  0.47868000  0.85615000  0.37858000  1.0 0.110445301
H  H250  1  0.15516000  0.93604000  0.14336000  1.0 0.0799376986
H  H251  1  0.96792000  0.83952000  0.12438000  1.0 0.0991941173
H  H252  1  0.00493000  0.80686000  0.17854000  1.0 0.110445301
H  H253  1  0.52481000  0.32485000  0.47708000  1.0 0.0900943107
H  H254  1  0.47490000  0.39715000  0.47050000  1.0 0.1190693162
H  H255  1  0.88472000  0.56724000  0.16153000  1.0 0.110445301
H  H256  1  0.84041000  0.53664000  0.10667000  1.0 0.0900943107
H  H257  1  0.86944000  0.39945000  0.09210000  1.0 0.0799376986
H  H258  1  0.18160000  0.14697000  0.29345000  1.0 0.0799376986
H  H259  1  0.98711000  0.27550000  0.23263000  1.0 0.110445301
H  H260  1  0.01602000  0.35238000  0.26671000  1.0 0.110445301
H  H261  1  0.23672000  0.89649000  0.26735000  1.0 0.110445301
H  H262  1  0.24105000  0.95486000  0.23104000  1.0 0.0900943107
H  H263  1  0.88053000  0.47554000  0.03225000  1.0 0.0799376986
H  H264  1  0.95141000  0.46203000  0.03438000  1.0 0.1190693162
H  H265  1  0.06957000  0.18305000  0.23522000  1.0 0.0900943107
H  H266  1  0.25340000  0.28302000  0.39260000  1.0 0.1190693162
H  H267  1  0.26199000  0.19350000  0.38058000  1.0 0.0900943107
H  H268  1  0.92855000  0.29505000  0.14446000  1.0 0.0799376986
H  H269  1  0.06340000  0.23578000  0.13006000  1.0 0.1190693162
H  H270  1  0.01510000  0.20291000  0.14731000  1.0 0.0991941173
H  H271  1  0.27967000  0.11823000  0.29019000  1.0 0.0900943107
H  H272  1  0.28859000  0.16208000  0.25115000  1.0 0.110445301
C  C1  1  0.29148000  0.52702000  0.44773000  1.0 -0.0763855694
C  C2  1  0.70852000  0.02702000  0.05227000  1.0 -0.0763855694
C  C3  1  0.70852000  0.47298000  0.55227000  1.0 -0.0763855694
C  C4  1  0.29148000  0.97298000  0.94773000  1.0 -0.0763855694
C  C5  1  0.30229000  0.63304000  0.26976000  1.0 0.110445301
C  C6  1  0.69771000  0.13304000  0.23024000  1.0 0.110445301
C  C7  1  0.69771000  0.36696000  0.73024000  1.0 0.110445301
C  C8  1  0.30229000  0.86696000  0.76976000  1.0 0.110445301
C  C9  1  0.20586000  0.52469000  0.47119000  1.0 0.5400422843
C  C10  1  0.79414000  0.02469000  0.02881000  1.0 0.5400422843
C  C11  1  0.79414000  0.47531000  0.52881000  1.0 0.5400422843
C  C12  1  0.20586000  0.97531000  0.97119000  1.0 0.5400422843
C  C13  1  0.24513000  0.56863000  0.45455000  1.0 -0.0412863946
C  C14  1  0.75487000  0.06863000  0.04545000  1.0 -0.0412863946
C  C15  1  0.75487000  0.43137000  0.54545000  1.0 -0.0412863946
C  C16  1  0.24513000  0.93137000  0.95455000  1.0 -0.0412863946
C  C17  1  0.27989000  0.61394000  0.21950000  1.0 0.110445301
C  C18  1  0.72011000  0.11394000  0.28050000  1.0 0.110445301
C  C19  1  0.72011000  0.38606000  0.78050000  1.0 0.110445301
C  C20  1  0.27989000  0.88606000  0.71950000  1.0 0.110445301
C  C21  1  0.38696000  0.62770000  0.35570000  1.0 0.0391281372
C  C22  1  0.61304000  0.12770000  0.14430000  1.0 0.0391281372
C  C23  1  0.61304000  0.37230000  0.64430000  1.0 0.0391281372
C  C24  1  0.38696000  0.87230000  0.85570000  1.0 0.0391281372
C  C25  1  0.19116000  0.21626000  0.04814000  1.0 0.5301718185
C  C26  1  0.80884000  0.71626000  0.45186000  1.0 0.5301718185
C  C27  1  0.80884000  0.78374000  0.95186000  1.0 0.5301718185
C  C28  1  0.19116000  0.28374000  0.54814000  1.0 0.5301718185
C  C29  1  0.32828000  0.59510000  0.20833000  1.0 -0.1714765174
C  C30  1  0.67172000  0.09510000  0.29167000  1.0 -0.1714765174
C  C31  1  0.67172000  0.40490000  0.79167000  1.0 -0.1714765174
C  C32  1  0.32828000  0.90490000  0.70833000  1.0 -0.1714765174
C  C33  1  0.36736000  0.60870000  0.30940000  1.0 -0.1809092616
C  C34  1  0.63264000  0.10870000  0.19060000  1.0 -0.1809092616
C  C35  1  0.63264000  0.39130000  0.69060000  1.0 -0.1809092616
C  C36  1  0.36736000  0.89130000  0.80940000  1.0 -0.1809092616
C  C37  1  0.19981000  0.30344000  0.05588000  1.0 -0.0412863946
C  C38  1  0.80019000  0.80344000  0.44412000  1.0 -0.0412863946
C  C39  1  0.80019000  0.69656000  0.94412000  1.0 -0.0412863946
C  C40  1  0.19981000  0.19656000  0.55588000  1.0 -0.0412863946
C  C41  1  0.33145000  0.56817000  0.43500000  1.0 -0.1376301316
C  C42  1  0.66855000  0.06817000  0.06500000  1.0 -0.1376301316
C  C43  1  0.66855000  0.43183000  0.56500000  1.0 -0.1376301316
C  C44  1  0.33145000  0.93183000  0.93500000  1.0 -0.1376301316
C  C45  1  0.23814000  0.65050000  0.44817000  1.0 -0.1028638748
C  C46  1  0.76186000  0.15050000  0.05183000  1.0 -0.1028638748
C  C47  1  0.76186000  0.34950000  0.55183000  1.0 -0.1028638748
C  C48  1  0.23814000  0.84950000  0.94817000  1.0 -0.1028638748
C  C49  1  0.30670000  0.57780000  0.16178000  1.0 0.0492199915
C  C50  1  0.69330000  0.07780000  0.33822000  1.0 0.0492199915
C  C51  1  0.69330000  0.42220000  0.83822000  1.0 0.0492199915
C  C52  1  0.30670000  0.92220000  0.66178000  1.0 0.0492199915
C  C53  1  0.14859000  0.34570000  0.05764000  1.0 -0.0669857493
C  C54  1  0.85141000  0.84570000  0.44236000  1.0 -0.0669857493
C  C55  1  0.85141000  0.65430000  0.94236000  1.0 -0.0669857493
C  C56  1  0.14859000  0.15430000  0.55764000  1.0 -0.0669857493
C  C57  1  0.18980000  0.59480000  0.13576000  1.0 0.0293749666
C  C58  1  0.81020000  0.09480000  0.36424000  1.0 0.0293749666
C  C59  1  0.81020000  0.40520000  0.86424000  1.0 0.0293749666
C  C60  1  0.18980000  0.90520000  0.63576000  1.0 0.0293749666
C  C61  1  0.27779000  0.69090000  0.43454000  1.0 -0.1809092616
C  C62  1  0.72221000  0.19090000  0.06546000  1.0 -0.1809092616
C  C63  1  0.72221000  0.30910000  0.56546000  1.0 -0.1809092616
C  C64  1  0.27779000  0.80910000  0.93454000  1.0 -0.1809092616
C  C65  1  0.32414000  0.65000000  0.42794000  1.0 0.0991941173
C  C66  1  0.67586000  0.15000000  0.07206000  1.0 0.0991941173
C  C67  1  0.67586000  0.35000000  0.57206000  1.0 0.0991941173
C  C68  1  0.32414000  0.85000000  0.92794000  1.0 0.0991941173
C  C69  1  0.25560000  0.34400000  0.05992000  1.0 -0.1096830709
C  C70  1  0.74440000  0.84400000  0.44008000  1.0 -0.1096830709
C  C71  1  0.74440000  0.65600000  0.94008000  1.0 -0.1096830709
C  C72  1  0.25560000  0.15600000  0.55992000  1.0 -0.1096830709
C  C73  1  0.15306000  0.42720000  0.06301000  1.0 -0.1336770324
C  C74  1  0.84694000  0.92720000  0.43699000  1.0 -0.1336770324
C  C75  1  0.84694000  0.57280000  0.93699000  1.0 -0.1336770324
C  C76  1  0.15306000  0.07280000  0.56301000  1.0 -0.1336770324
C  C77  1  0.20898000  0.61380000  0.18171000  1.0 -0.1809092616
C  C78  1  0.79102000  0.11380000  0.31829000  1.0 -0.1809092616
C  C79  1  0.79102000  0.38620000  0.81829000  1.0 -0.1809092616
C  C80  1  0.20898000  0.88620000  0.68171000  1.0 -0.1809092616
C  C81  1  0.25895000  0.67580000  0.27889000  1.0 -0.1714765174
C  C82  1  0.74105000  0.17580000  0.22111000  1.0 -0.1714765174
C  C83  1  0.74105000  0.32420000  0.72111000  1.0 -0.1714765174
C  C84  1  0.25895000  0.82420000  0.77889000  1.0 -0.1714765174
C  C85  1  0.21020000  0.46710000  0.06860000  1.0 0.0991941173
C  C86  1  0.78980000  0.96710000  0.43140000  1.0 0.0991941173
C  C87  1  0.78980000  0.53290000  0.93140000  1.0 0.0991941173
C  C88  1  0.21020000  0.03290000  0.56860000  1.0 0.0991941173
C  C89  1  0.28120000  0.69370000  0.32539000  1.0 0.0559814474
C  C90  1  0.71880000  0.19370000  0.17461000  1.0 0.0559814474
C  C91  1  0.71880000  0.30630000  0.67461000  1.0 0.0559814474
C  C92  1  0.28120000  0.80630000  0.82539000  1.0 0.0559814474
C  C93  1  0.36750000  0.69310000  0.41335000  1.0 -0.1875176901
C  C94  1  0.63250000  0.19310000  0.08665000  1.0 -0.1875176901
C  C95  1  0.63250000  0.30690000  0.58665000  1.0 -0.1875176901
C  C96  1  0.36750000  0.80690000  0.91335000  1.0 -0.1875176901
C  C97  1  0.26150000  0.42540000  0.06729000  1.0 -0.1809092616
C  C98  1  0.73850000  0.92540000  0.43271000  1.0 -0.1809092616
C  C99  1  0.73850000  0.57460000  0.93271000  1.0 -0.1809092616
C  C100  1  0.26150000  0.07460000  0.56729000  1.0 -0.1809092616
C  C101  1  0.99990000  0.96370000  0.98610000  1.0 0.4791566017
C  C102  1  0.00010000  0.46370000  0.51390000  1.0 0.4791566017
C  C103  1  0.00010000  0.03630000  0.01390000  1.0 0.4791566017
C  C104  1  0.99990000  0.53630000  0.48610000  1.0 0.4791566017
C  C105  1  0.21570000  0.55640000  0.07604000  1.0 -0.1875176901
C  C106  1  0.78430000  0.05640000  0.42396000  1.0 -0.1875176901
C  C107  1  0.78430000  0.44360000  0.92396000  1.0 -0.1875176901
C  C108  1  0.21570000  0.94360000  0.57604000  1.0 -0.1875176901
C  C109  1  0.61194000  0.03639000  0.92619000  1.0 0.110445301
C  C110  1  0.60130000  0.83778000  0.87818000  1.0 0.110445301
C  C111  1  0.53014000  0.00428000  0.94474000  1.0 0.5301718185
C  C112  1  0.52848000  0.88004000  0.79779000  1.0 0.5109422963
C  C113  1  0.56033000  0.76544000  0.84540000  1.0 0.0991941173
C  C114  1  0.41612000  0.64751000  0.76216000  1.0 0.110445301
C  C115  1  0.60806000  0.89496000  0.95206000  1.0 0.0293749666
C  C116  1  0.94322000  0.80156000  0.57859000  1.0 0.110445301
C  C117  1  0.55466000  0.10323000  0.85154000  1.0 0.5301718185
C  C118  1  0.14683000  0.71980000  0.59484000  1.0 0.520568035
C  C119  1  0.36296000  0.71925000  0.69004000  1.0 0.520568035
C  C120  1  0.57850000  0.11397000  0.92986000  1.0 0.0991941173
C  C121  1  0.95583000  0.82880000  0.65238000  1.0 0.5301718185
C  C122  1  0.07935000  0.65750000  0.61900000  1.0 0.110445301
C  C123  1  0.61394000  0.97777000  0.85615000  1.0 0.0293749666
C  C124  1  0.25561000  0.63900000  0.63705000  1.0 0.0202996099
C  C125  1  0.02218000  0.75900000  0.55068000  1.0 0.0293749666
C  C126  1  0.35785000  0.65152000  0.80158000  1.0 0.5020652892
C  C127  1  0.34049000  0.61701000  0.72716000  1.0 0.110445301
C  C128  1  0.53695000  0.77779000  0.90569000  1.0 0.5109422963
C  C129  1  0.90988000  0.88370000  0.57540000  1.0 0.110445301
C  C130  1  0.43820000  0.25236000  0.89554000  1.0 0.0991941173
C  C131  1  0.99650000  0.89830000  0.55871000  1.0 0.520568035
C  C132  1  0.36270000  0.28620000  0.86658000  1.0 0.0900943107
C  C133  1  0.36540000  0.17018000  0.90560000  1.0 0.5109422963
C  C134  1  0.52506000  0.23222000  0.87171000  1.0 0.0293749666
C  C135  1  0.48439000  0.75560000  0.75353000  1.0 0.0293749666
C  C136  1  0.48748000  0.65874000  0.85353000  1.0 0.0202996099
C  C137  1  0.15532000  0.62250000  0.64846000  1.0 0.110445301
C  C138  1  0.00159000  0.70030000  0.64771000  1.0 0.0293749666
C  C139  1  0.49082000  0.13570000  0.95359000  1.0 0.0293749666
C  C140  1  0.88861000  0.95280000  0.63505000  1.0 0.0202996099
C  C141  1  0.91990000  0.08750000  0.61673000  1.0 0.0900943107
C  C142  1  0.40061000  0.26940000  0.81452000  1.0 0.5109422963
C  C143  1  0.14230000  0.19210000  0.81012000  1.0 0.520568035
C  C144  1  0.96680000  0.05220000  0.69752000  1.0 0.5109422963
C  C145  1  0.17920000  0.29670000  0.78306000  1.0 0.0900943107
C  C146  1  0.01800000  0.17740000  0.74175000  1.0 0.0202996099
C  C147  1  0.12817000  0.67220000  0.70239000  1.0 0.5109422963
C  C148  1  0.24105000  0.60170000  0.73929000  1.0 0.0293749666
C  C149  1  0.93240000  0.02010000  0.55335000  1.0 0.0293749666
C  C150  1  0.10360000  0.27310000  0.74252000  1.0 0.0991941173
C  C151  1  0.25860000  0.25060000  0.87027000  1.0 0.0202996099
C  C152  1  0.96070000  0.15940000  0.65078000  1.0 0.0900943107
C  C153  1  0.00790000  0.12910000  0.60548000  1.0 0.5109422963
C  C154  1  0.04780000  0.25400000  0.65210000  1.0 0.0107262053
C  C155  1  0.28320000  0.32910000  0.77841000  1.0 0.0107262053
C  C156  1  0.17440000  0.26750000  0.71190000  1.0 0.5020652892
C  C157  1  0.38806000  0.53639000  0.57381000  1.0 0.110445301
C  C158  1  0.39870000  0.33778000  0.62182000  1.0 0.110445301
C  C159  1  0.46986000  0.50428000  0.55526000  1.0 0.5301718185
C  C160  1  0.47152000  0.38004000  0.70221000  1.0 0.5109422963
C  C161  1  0.43967000  0.26544000  0.65460000  1.0 0.0991941173
C  C162  1  0.58388000  0.14751000  0.73784000  1.0 0.110445301
C  C163  1  0.39194000  0.39496000  0.54794000  1.0 0.0293749666
C  C164  1  0.05678000  0.30156000  0.92141000  1.0 0.110445301
C  C165  1  0.44534000  0.60323000  0.64846000  1.0 0.5301718185
C  C166  1  0.85317000  0.21980000  0.90516000  1.0 0.520568035
C  C167  1  0.63704000  0.21925000  0.80996000  1.0 0.520568035
C  C168  1  0.42150000  0.61397000  0.57014000  1.0 0.0991941173
C  C169  1  0.04417000  0.32880000  0.84762000  1.0 0.5301718185
C  C170  1  0.92065000  0.15750000  0.88100000  1.0 0.110445301
C  C171  1  0.38606000  0.47777000  0.64385000  1.0 0.0293749666
C  C172  1  0.74439000  0.13900000  0.86295000  1.0 0.0202996099
C  C173  1  0.97782000  0.25900000  0.94932000  1.0 0.0293749666
C  C174  1  0.64215000  0.15152000  0.69842000  1.0 0.5020652892
C  C175  1  0.65951000  0.11701000  0.77284000  1.0 0.110445301
C  C176  1  0.46305000  0.27779000  0.59431000  1.0 0.5109422963
C  C177  1  0.09012000  0.38370000  0.92460000  1.0 0.110445301
C  C178  1  0.56180000  0.75236000  0.60446000  1.0 0.0991941173
C  C179  1  0.00350000  0.39830000  0.94129000  1.0 0.520568035
C  C180  1  0.63730000  0.78620000  0.63342000  1.0 0.0900943107
C  C181  1  0.63460000  0.67018000  0.59440000  1.0 0.5109422963
C  C182  1  0.47494000  0.73222000  0.62829000  1.0 0.0293749666
C  C183  1  0.51561000  0.25560000  0.74647000  1.0 0.0293749666
C  C184  1  0.51252000  0.15874000  0.64647000  1.0 0.0202996099
C  C185  1  0.84468000  0.12250000  0.85154000  1.0 0.110445301
C  C186  1  0.99841000  0.20030000  0.85229000  1.0 0.0293749666
C  C187  1  0.50918000  0.63570000  0.54641000  1.0 0.0293749666
C  C188  1  0.11139000  0.45280000  0.86495000  1.0 0.0202996099
C  C189  1  0.08010000  0.58750000  0.88327000  1.0 0.0900943107
C  C190  1  0.59939000  0.76940000  0.68548000  1.0 0.5109422963
C  C191  1  0.85770000  0.69210000  0.68988000  1.0 0.520568035
C  C192  1  0.03320000  0.55220000  0.80248000  1.0 0.5109422963
C  C193  1  0.82080000  0.79670000  0.71694000  1.0 0.0900943107
C  C194  1  0.98200000  0.67740000  0.75825000  1.0 0.0202996099
C  C195  1  0.87183000  0.17220000  0.79761000  1.0 0.5109422963
C  C196  1  0.75895000  0.10170000  0.76071000  1.0 0.0293749666
C  C197  1  0.06760000  0.52010000  0.94665000  1.0 0.0202996099
C  C198  1  0.89640000  0.77310000  0.75748000  1.0 0.0991941173
C  C199  1  0.74140000  0.75060000  0.62973000  1.0 0.0202996099
C  C200  1  0.03930000  0.65940000  0.84922000  1.0 0.0900943107
C  C201  1  0.99210000  0.62910000  0.89452000  1.0 0.5109422963
C  C202  1  0.95220000  0.75400000  0.84790000  1.0 0.0107262053
C  C203  1  0.71680000  0.82910000  0.72159000  1.0 0.0107262053
C  C204  1  0.82560000  0.76750000  0.78810000  1.0 0.5020652892
C  C205  1  0.38806000  0.96361000  0.07381000  1.0 0.110445301
C  C206  1  0.39870000  0.16222000  0.12182000  1.0 0.110445301
C  C207  1  0.46986000  0.99572000  0.05526000  1.0 0.5301718185
C  C208  1  0.47152000  0.11996000  0.20221000  1.0 0.5109422963
C  C209  1  0.43967000  0.23456000  0.15460000  1.0 0.0991941173
C  C210  1  0.58388000  0.35249000  0.23784000  1.0 0.110445301
C  C211  1  0.39194000  0.10504000  0.04794000  1.0 0.0293749666
C  C212  1  0.05678000  0.19844000  0.42141000  1.0 0.110445301
C  C213  1  0.44534000  0.89677000  0.14846000  1.0 0.5301718185
C  C214  1  0.85317000  0.28020000  0.40516000  1.0 0.520568035
C  C215  1  0.63704000  0.28075000  0.30996000  1.0 0.520568035
C  C216  1  0.42150000  0.88603000  0.07014000  1.0 0.0991941173
C  C217  1  0.04417000  0.17120000  0.34762000  1.0 0.5301718185
C  C218  1  0.92065000  0.34250000  0.38100000  1.0 0.110445301
C  C219  1  0.38606000  0.02223000  0.14385000  1.0 0.0293749666
C  C220  1  0.74439000  0.36100000  0.36295000  1.0 0.0202996099
C  C221  1  0.97782000  0.24100000  0.44932000  1.0 0.0293749666
C  C222  1  0.64215000  0.34848000  0.19842000  1.0 0.5020652892
C  C223  1  0.65951000  0.38299000  0.27284000  1.0 0.110445301
C  C224  1  0.46305000  0.22221000  0.09431000  1.0 0.5109422963
C  C225  1  0.09012000  0.11630000  0.42460000  1.0 0.110445301
C  C226  1  0.56180000  0.74764000  0.10446000  1.0 0.0991941173
C  C227  1  0.00350000  0.10170000  0.44129000  1.0 0.520568035
C  C228  1  0.63730000  0.71380000  0.13342000  1.0 0.0900943107
C  C229  1  0.63460000  0.82982000  0.09440000  1.0 0.5109422963
C  C230  1  0.47494000  0.76778000  0.12829000  1.0 0.0293749666
C  C231  1  0.51561000  0.24440000  0.24647000  1.0 0.0293749666
C  C232  1  0.51252000  0.34126000  0.14647000  1.0 0.0202996099
C  C233  1  0.84468000  0.37750000  0.35154000  1.0 0.110445301
C  C234  1  0.99841000  0.29970000  0.35229000  1.0 0.0293749666
C  C235  1  0.50918000  0.86430000  0.04641000  1.0 0.0293749666
C  C236  1  0.11139000  0.04720000  0.36495000  1.0 0.0202996099
C  C237  1  0.08010000  0.91250000  0.38327000  1.0 0.0900943107
C  C238  1  0.59939000  0.73060000  0.18548000  1.0 0.5109422963
C  C239  1  0.85770000  0.80790000  0.18988000  1.0 0.520568035
C  C240  1  0.03320000  0.94780000  0.30248000  1.0 0.5109422963
C  C241  1  0.82080000  0.70330000  0.21694000  1.0 0.0900943107
C  C242  1  0.98200000  0.82260000  0.25825000  1.0 0.0202996099
C  C243  1  0.87183000  0.32780000  0.29761000  1.0 0.5109422963
C  C244  1  0.75895000  0.39830000  0.26071000  1.0 0.0293749666
C  C245  1  0.06760000  0.97990000  0.44665000  1.0 0.0202996099
C  C246  1  0.89640000  0.72690000  0.25748000  1.0 0.0991941173
C  C247  1  0.74140000  0.74940000  0.12973000  1.0 0.0202996099
C  C248  1  0.03930000  0.84060000  0.34922000  1.0 0.0900943107
C  C249  1  0.99210000  0.87090000  0.39452000  1.0 0.5109422963
C  C250  1  0.95220000  0.74600000  0.34790000  1.0 0.0107262053
C  C251  1  0.71680000  0.67090000  0.22159000  1.0 0.0107262053
C  C252  1  0.82560000  0.73250000  0.28810000  1.0 0.5020652892
C  C253  1  0.61194000  0.46361000  0.42619000  1.0 0.110445301
C  C254  1  0.60130000  0.66222000  0.37818000  1.0 0.110445301
C  C255  1  0.53014000  0.49572000  0.44474000  1.0 0.5301718185
C  C256  1  0.52848000  0.61996000  0.29779000  1.0 0.5109422963
C  C257  1  0.56033000  0.73456000  0.34540000  1.0 0.0991941173
C  C258  1  0.41612000  0.85249000  0.26216000  1.0 0.110445301
C  C259  1  0.60806000  0.60504000  0.45206000  1.0 0.0293749666
C  C260  1  0.94322000  0.69844000  0.07859000  1.0 0.110445301
C  C261  1  0.55466000  0.39677000  0.35154000  1.0 0.5301718185
C  C262  1  0.14683000  0.78020000  0.09484000  1.0 0.520568035
C  C263  1  0.36296000  0.78075000  0.19004000  1.0 0.520568035
C  C264  1  0.57850000  0.38603000  0.42986000  1.0 0.0991941173
C  C265  1  0.95583000  0.67120000  0.15238000  1.0 0.5301718185
C  C266  1  0.07935000  0.84250000  0.11900000  1.0 0.110445301
C  C267  1  0.61394000  0.52223000  0.35615000  1.0 0.0293749666
C  C268  1  0.25561000  0.86100000  0.13705000  1.0 0.0202996099
C  C269  1  0.02218000  0.74100000  0.05068000  1.0 0.0293749666
C  C270  1  0.35785000  0.84848000  0.30158000  1.0 0.5020652892
C  C271  1  0.34049000  0.88299000  0.22716000  1.0 0.110445301
C  C272  1  0.53695000  0.72221000  0.40569000  1.0 0.5109422963
C  C273  1  0.90988000  0.61630000  0.07540000  1.0 0.110445301
C  C274  1  0.43820000  0.24764000  0.39554000  1.0 0.0991941173
C  C275  1  0.99650000  0.60170000  0.05871000  1.0 0.520568035
C  C276  1  0.36270000  0.21380000  0.36658000  1.0 0.0900943107
C  C277  1  0.36540000  0.32982000  0.40560000  1.0 0.5109422963
C  C278  1  0.52506000  0.26778000  0.37171000  1.0 0.0293749666
C  C279  1  0.48439000  0.74440000  0.25353000  1.0 0.0293749666
C  C280  1  0.48748000  0.84126000  0.35353000  1.0 0.0202996099
C  C281  1  0.15532000  0.87750000  0.14846000  1.0 0.110445301
C  C282  1  0.00159000  0.79970000  0.14771000  1.0 0.0293749666
C  C283  1  0.49082000  0.36430000  0.45359000  1.0 0.0293749666
C  C284  1  0.88861000  0.54720000  0.13505000  1.0 0.0202996099
C  C285  1  0.91990000  0.41250000  0.11673000  1.0 0.0900943107
C  C286  1  0.40061000  0.23060000  0.31452000  1.0 0.5109422963
C  C287  1  0.14230000  0.30790000  0.31012000  1.0 0.520568035
C  C288  1  0.96680000  0.44780000  0.19752000  1.0 0.5109422963
C  C289  1  0.17920000  0.20330000  0.28306000  1.0 0.0900943107
C  C290  1  0.01800000  0.32260000  0.24175000  1.0 0.0202996099
C  C291  1  0.12817000  0.82780000  0.20239000  1.0 0.5109422963
C  C292  1  0.24105000  0.89830000  0.23929000  1.0 0.0293749666
C  C293  1  0.93240000  0.47990000  0.05335000  1.0 0.0202996099
C  C294  1  0.10360000  0.22690000  0.24252000  1.0 0.0991941173
C  C295  1  0.25860000  0.24940000  0.37027000  1.0 0.0202996099
C  C296  1  0.96070000  0.34060000  0.15078000  1.0 0.0900943107
C  C297  1  0.00790000  0.37090000  0.10548000  1.0 0.5109422963
C  C298  1  0.04780000  0.24600000  0.15210000  1.0 0.0107262053
C  C299  1  0.28320000  0.17090000  0.27841000  1.0 0.0107262053
C  C300  1  0.17440000  0.23250000  0.21190000  1.0 0.5020652892
N  N1  1  0.34444000  0.67049000  0.36300000  1.0 0.1190693162
N  N2  1  0.65556000  0.17049000  0.13700000  1.0 0.1190693162
N  N3  1  0.65556000  0.32951000  0.63700000  1.0 0.1190693162
N  N4  1  0.34444000  0.82951000  0.86300000  1.0 0.1190693162
N  N5  1  0.23823000  0.57758000  0.12633000  1.0 0.1190693162
N  N6  1  0.76177000  0.07758000  0.37367000  1.0 0.1190693162
N  N7  1  0.76177000  0.42242000  0.87367000  1.0 0.1190693162
N  N8  1  0.23823000  0.92242000  0.62633000  1.0 0.1190693162
N  N9  1  0.08365000  0.71953000  0.59044000  1.0 -0.2688797656
N  N10  1  0.41762000  0.71969000  0.73848000  1.0 -0.2688797656
N  N11  1  0.58046000  0.97487000  0.93834000  1.0 -0.2688797656
N  N12  1  0.51441000  0.80075000  0.79795000  1.0 -0.2572781412
N  N13  1  0.52476000  0.73371000  0.86693000  1.0 -0.2503201259
N  N14  1  0.57882000  0.84009000  0.91152000  1.0 -0.2503201259
N  N15  1  0.43080000  0.17742000  0.91403000  1.0 -0.2400019763
N  N16  1  0.57695000  0.90290000  0.84496000  1.0 -0.2400019763
N  N17  1  0.18973000  0.66544000  0.62918000  1.0 -0.2572781412
N  N18  1  0.42133000  0.66016000  0.80695000  1.0 -0.2400019763
N  N19  1  0.59050000  0.03620000  0.87612000  1.0 -0.2400019763
N  N20  1  0.92020000  0.89182000  0.62231000  1.0 -0.2503201259
N  N21  1  0.45468000  0.24417000  0.85959000  1.0 -0.2310213341
N  N22  1  0.31659000  0.66148000  0.68379000  1.0 -0.2400019763
N  N23  1  0.97473000  0.77917000  0.62901000  1.0 -0.2503201259
N  N24  1  0.30744000  0.63751000  0.75299000  1.0 -0.2817718727
N  N25  1  0.99295000  0.81853000  0.56604000  1.0 -0.2400019763
N  N26  1  0.54779000  0.15021000  0.88235000  1.0 -0.2310213341
N  N27  1  0.52606000  0.08541000  0.93849000  1.0 -0.2503201259
N  N28  1  0.95123000  0.93782000  0.56668000  1.0 -0.2503201259
N  N29  1  0.07007000  0.68590000  0.65612000  1.0 -0.2572781412
N  N30  1  0.32319000  0.22911000  0.87459000  1.0 -0.2080488844
N  N31  1  0.92757000  0.02695000  0.65041000  1.0 -0.2400019763
N  N32  1  0.95830000  0.07200000  0.59463000  1.0 -0.2400019763
N  N33  1  0.18040000  0.64110000  0.69816000  1.0 -0.2503201259
N  N34  1  0.19644000  0.24172000  0.82167000  1.0 -0.2400019763
N  N35  1  0.99142000  0.12700000  0.69914000  1.0 -0.2400019763
N  N36  1  0.08996000  0.20386000  0.76230000  1.0 -0.2310213341
N  N37  1  0.21831000  0.28550000  0.76071000  1.0 -0.2213537307
N  N38  1  0.34540000  0.28840000  0.81737000  1.0 -0.2213537307
N  N39  1  0.01061000  0.17915000  0.63903000  1.0 -0.2213537307
N  N40  1  0.10810000  0.25640000  0.70136000  1.0 -0.2213537307
N  N41  1  0.91635000  0.21953000  0.90956000  1.0 -0.2688797656
N  N42  1  0.58238000  0.21969000  0.76152000  1.0 -0.2688797656
N  N43  1  0.41954000  0.47487000  0.56166000  1.0 -0.2688797656
N  N44  1  0.48559000  0.30075000  0.70205000  1.0 -0.2572781412
N  N45  1  0.47524000  0.23371000  0.63307000  1.0 -0.2503201259
N  N46  1  0.42118000  0.34009000  0.58848000  1.0 -0.2503201259
N  N47  1  0.56920000  0.67742000  0.58597000  1.0 -0.2400019763
N  N48  1  0.42305000  0.40290000  0.65504000  1.0 -0.2400019763
N  N49  1  0.81027000  0.16544000  0.87082000  1.0 -0.2572781412
N  N50  1  0.57867000  0.16016000  0.69305000  1.0 -0.2400019763
N  N51  1  0.40950000  0.53620000  0.62388000  1.0 -0.2400019763
N  N52  1  0.07980000  0.39182000  0.87769000  1.0 -0.2503201259
N  N53  1  0.54532000  0.74417000  0.64041000  1.0 -0.2310213341
N  N54  1  0.68341000  0.16148000  0.81621000  1.0 -0.2400019763
N  N55  1  0.02527000  0.27917000  0.87099000  1.0 -0.2503201259
N  N56  1  0.69256000  0.13751000  0.74701000  1.0 -0.2817718727
N  N57  1  0.00705000  0.31853000  0.93396000  1.0 -0.2400019763
N  N58  1  0.45221000  0.65021000  0.61765000  1.0 -0.2310213341
N  N59  1  0.47394000  0.58541000  0.56151000  1.0 -0.2503201259
N  N60  1  0.04877000  0.43782000  0.93332000  1.0 -0.2503201259
N  N61  1  0.92993000  0.18590000  0.84388000  1.0 -0.2572781412
N  N62  1  0.67681000  0.72911000  0.62541000  1.0 -0.2080488844
N  N63  1  0.07243000  0.52695000  0.84959000  1.0 -0.2400019763
N  N64  1  0.04170000  0.57200000  0.90537000  1.0 -0.2400019763
N  N65  1  0.81960000  0.14110000  0.80184000  1.0 -0.2503201259
N  N66  1  0.80356000  0.74172000  0.67833000  1.0 -0.2400019763
N  N67  1  0.00858000  0.62700000  0.80086000  1.0 -0.2400019763
N  N68  1  0.91004000  0.70386000  0.73770000  1.0 -0.2310213341
N  N69  1  0.78169000  0.78550000  0.73929000  1.0 -0.2213537307
N  N70  1  0.65460000  0.78840000  0.68263000  1.0 -0.2213537307
N  N71  1  0.98939000  0.67915000  0.86097000  1.0 -0.2213537307
N  N72  1  0.89190000  0.75640000  0.79864000  1.0 -0.2213537307
N  N73  1  0.91635000  0.28047000  0.40956000  1.0 -0.2688797656
N  N74  1  0.58238000  0.28031000  0.26152000  1.0 -0.2688797656
N  N75  1  0.41954000  0.02513000  0.06166000  1.0 -0.2688797656
N  N76  1  0.48559000  0.19925000  0.20205000  1.0 -0.2572781412
N  N77  1  0.47524000  0.26629000  0.13307000  1.0 -0.2503201259
N  N78  1  0.42118000  0.15991000  0.08848000  1.0 -0.2503201259
N  N79  1  0.56920000  0.82258000  0.08597000  1.0 -0.2400019763
N  N80  1  0.42305000  0.09710000  0.15504000  1.0 -0.2400019763
N  N81  1  0.81027000  0.33456000  0.37082000  1.0 -0.2572781412
N  N82  1  0.57867000  0.33984000  0.19305000  1.0 -0.2400019763
N  N83  1  0.40950000  0.96380000  0.12388000  1.0 -0.2400019763
N  N84  1  0.07980000  0.10818000  0.37769000  1.0 -0.2503201259
N  N85  1  0.54532000  0.75583000  0.14041000  1.0 -0.2310213341
N  N86  1  0.68341000  0.33852000  0.31621000  1.0 -0.2400019763
N  N87  1  0.02527000  0.22083000  0.37099000  1.0 -0.2503201259
N  N88  1  0.69256000  0.36249000  0.24701000  1.0 -0.2817718727
N  N89  1  0.00705000  0.18147000  0.43396000  1.0 -0.2400019763
N  N90  1  0.45221000  0.84979000  0.11765000  1.0 -0.2310213341
N  N91  1  0.47394000  0.91459000  0.06151000  1.0 -0.2503201259
N  N92  1  0.04877000  0.06218000  0.43332000  1.0 -0.2503201259
N  N93  1  0.92993000  0.31410000  0.34388000  1.0 -0.2572781412
N  N94  1  0.67681000  0.77089000  0.12541000  1.0 -0.2080488844
N  N95  1  0.07243000  0.97305000  0.34959000  1.0 -0.2400019763
N  N96  1  0.04170000  0.92800000  0.40537000  1.0 -0.2400019763
N  N97  1  0.81960000  0.35890000  0.30184000  1.0 -0.2503201259
N  N98  1  0.80356000  0.75828000  0.17833000  1.0 -0.2400019763
N  N99  1  0.00858000  0.87300000  0.30086000  1.0 -0.2400019763
N  N100  1  0.91004000  0.79614000  0.23770000  1.0 -0.2310213341
N  N101  1  0.78169000  0.71450000  0.23929000  1.0 -0.2213537307
N  N102  1  0.65460000  0.71160000  0.18263000  1.0 -0.2213537307
N  N103  1  0.98939000  0.82085000  0.36097000  1.0 -0.2213537307
N  N104  1  0.89190000  0.74360000  0.29864000  1.0 -0.2213537307
N  N105  1  0.08365000  0.78047000  0.09044000  1.0 -0.2688797656
N  N106  1  0.41762000  0.78031000  0.23848000  1.0 -0.2688797656
N  N107  1  0.58046000  0.52513000  0.43834000  1.0 -0.2688797656
N  N108  1  0.51441000  0.69925000  0.29795000  1.0 -0.2572781412
N  N109  1  0.52476000  0.76629000  0.36693000  1.0 -0.2503201259
N  N110  1  0.57882000  0.65991000  0.41152000  1.0 -0.2503201259
N  N111  1  0.43080000  0.32258000  0.41403000  1.0 -0.2400019763
N  N112  1  0.57695000  0.59710000  0.34496000  1.0 -0.2400019763
N  N113  1  0.18973000  0.83456000  0.12918000  1.0 -0.2572781412
N  N114  1  0.42133000  0.83984000  0.30695000  1.0 -0.2400019763
N  N115  1  0.59050000  0.46380000  0.37612000  1.0 -0.2400019763
N  N116  1  0.92020000  0.60818000  0.12231000  1.0 -0.2503201259
N  N117  1  0.45468000  0.25583000  0.35959000  1.0 -0.2310213341
N  N118  1  0.31659000  0.83852000  0.18379000  1.0 -0.2400019763
N  N119  1  0.97473000  0.72083000  0.12901000  1.0 -0.2503201259
N  N120  1  0.30744000  0.86249000  0.25299000  1.0 -0.2817718727
N  N121  1  0.99295000  0.68147000  0.06604000  1.0 -0.2400019763
N  N122  1  0.54779000  0.34979000  0.38235000  1.0 -0.2310213341
N  N123  1  0.52606000  0.41459000  0.43849000  1.0 -0.2503201259
N  N124  1  0.95123000  0.56218000  0.06668000  1.0 -0.2503201259
N  N125  1  0.07007000  0.81410000  0.15612000  1.0 -0.2572781412
N  N126  1  0.32319000  0.27089000  0.37459000  1.0 -0.2080488844
N  N127  1  0.92757000  0.47305000  0.15041000  1.0 -0.2400019763
N  N128  1  0.95830000  0.42800000  0.09463000  1.0 -0.2400019763
N  N129  1  0.18040000  0.85890000  0.19816000  1.0 -0.2503201259
N  N130  1  0.19644000  0.25828000  0.32167000  1.0 -0.2400019763
N  N131  1  0.99142000  0.37300000  0.19914000  1.0 -0.2400019763
N  N132  1  0.08996000  0.29614000  0.26230000  1.0 -0.2310213341
N  N133  1  0.21831000  0.21450000  0.26071000  1.0 -0.2213537307
N  N134  1  0.34540000  0.21160000  0.31737000  1.0 -0.2213537307
N  N135  1  0.01061000  0.32085000  0.13903000  1.0 -0.2213537307
N  N136  1  0.10810000  0.24360000  0.20136000  1.0 -0.2213537307
O  O1  1  0.22380000  0.45384000  0.48722000  1.0 -0.5970455674
O  O2  1  0.77620000  0.95384000  0.01278000  1.0 -0.5970455674
O  O3  1  0.77620000  0.54616000  0.51278000  1.0 -0.5970455674
O  O4  1  0.22380000  0.04616000  0.98722000  1.0 -0.5970455674
O  O5  1  0.22455000  0.17602000  0.03490000  1.0 -0.5875180034
O  O6  1  0.77545000  0.67602000  0.46510000  1.0 -0.5875180034
O  O7  1  0.77545000  0.82398000  0.96510000  1.0 -0.5875180034
O  O8  1  0.22455000  0.32398000  0.53490000  1.0 -0.5875180034
O  O9  1  0.15601000  0.55686000  0.47140000  1.0 -0.5611460135
O  O10  1  0.84399000  0.05686000  0.02860000  1.0 -0.5611460135
O  O11  1  0.84399000  0.44314000  0.52860000  1.0 -0.5611460135
O  O12  1  0.15601000  0.94314000  0.97140000  1.0 -0.5651704935
O  O13  1  0.14563000  0.18118000  0.05220000  1.0 -0.5611460135
O  O14  1  0.85437000  0.68118000  0.44780000  1.0 -0.5611460135
O  O15  1  0.85437000  0.81882000  0.94780000  1.0 -0.5611460135
O  O16  1  0.14563000  0.31882000  0.55220000  1.0 -0.5611460135
O  O17  1  0.94690000  0.92020000  0.96760000  1.0 -0.5481354861
O  O18  1  0.05310000  0.42020000  0.53240000  1.0 -0.5481354861
O  O19  1  0.05310000  0.07980000  0.03240000  1.0 -0.5481354861
O  O20  1  0.94690000  0.57980000  0.46760000  1.0 -0.5481354861
O  O21  1  0.05250000  0.95385000  0.98410000  1.0 -0.5481354861
O  O22  1  0.94750000  0.45385000  0.51590000  1.0 -0.5481354861
O  O23  1  0.94750000  0.04615000  0.01590000  1.0 -0.5481354861
O  O24  1  0.05250000  0.54615000  0.48410000  1.0 -0.5481354861
O  O25  1  0.49452000  0.96415000  0.95427000  1.0 -0.5193824425
O  O26  1  0.51402000  0.76316000  0.93064000  1.0 -0.5316226152
O  O27  1  0.35688000  0.76286000  0.65866000  1.0 -0.5193824425
O  O28  1  0.50232000  0.92289000  0.76239000  1.0 -0.5193824425
O  O29  1  0.16194000  0.76141000  0.57183000  1.0 -0.5316226152
O  O30  1  0.03278000  0.92828000  0.54627000  1.0 -0.5082673026
O  O31  1  0.34687000  0.11790000  0.92207000  1.0 -0.5193824425
O  O32  1  0.34749000  0.65700000  0.83368000  1.0 -0.5193824425
O  O33  1  0.97730000  0.01415000  0.73264000  1.0 -0.5193824425
O  O34  1  0.53357000  0.11873000  0.80971000  1.0 -0.5193824425
O  O35  1  0.96790000  0.81974000  0.69290000  1.0 -0.5193824425
O  O36  1  0.13200000  0.68489000  0.73979000  1.0 -0.5193824425
O  O37  1  0.04282000  0.13487000  0.58816000  1.0 -0.5082673026
O  O38  1  0.40334000  0.27340000  0.77897000  1.0 -0.5193824425
O  O39  1  0.14104000  0.14513000  0.83777000  1.0 -0.5193824425
O  O40  1  0.19220000  0.26330000  0.68350000  1.0 -0.4979244439
O  O41  1  0.50548000  0.46415000  0.54573000  1.0 -0.5193824425
O  O42  1  0.48598000  0.26316000  0.56936000  1.0 -0.5316226152
O  O43  1  0.64312000  0.26286000  0.84134000  1.0 -0.5193824425
O  O44  1  0.49768000  0.42289000  0.73761000  1.0 -0.5193824425
O  O45  1  0.83806000  0.26141000  0.92817000  1.0 -0.5316226152
O  O46  1  0.96722000  0.42828000  0.95373000  1.0 -0.5082673026
O  O47  1  0.65313000  0.61790000  0.57793000  1.0 -0.5193824425
O  O48  1  0.65251000  0.15700000  0.66632000  1.0 -0.5193824425
O  O49  1  0.02270000  0.51415000  0.76736000  1.0 -0.5193824425
O  O50  1  0.46643000  0.61873000  0.69029000  1.0 -0.5193824425
O  O51  1  0.03210000  0.31974000  0.80710000  1.0 -0.5193824425
O  O52  1  0.86800000  0.18489000  0.76021000  1.0 -0.5193824425
O  O53  1  0.95718000  0.63487000  0.91184000  1.0 -0.5082673026
O  O54  1  0.59666000  0.77340000  0.72103000  1.0 -0.5193824425
O  O55  1  0.85896000  0.64513000  0.66223000  1.0 -0.5193824425
O  O56  1  0.80780000  0.76330000  0.81650000  1.0 -0.4979244439
O  O57  1  0.50548000  0.03585000  0.04573000  1.0 -0.5193824425
O  O58  1  0.48598000  0.23684000  0.06936000  1.0 -0.5316226152
O  O59  1  0.64312000  0.23714000  0.34134000  1.0 -0.5193824425
O  O60  1  0.49768000  0.07711000  0.23761000  1.0 -0.5193824425
O  O61  1  0.83806000  0.23859000  0.42817000  1.0 -0.5316226152
O  O62  1  0.96722000  0.07172000  0.45373000  1.0 -0.5082673026
O  O63  1  0.65313000  0.88210000  0.07793000  1.0 -0.5193824425
O  O64  1  0.65251000  0.34300000  0.16632000  1.0 -0.5193824425
O  O65  1  0.02270000  0.98585000  0.26736000  1.0 -0.5193824425
O  O66  1  0.46643000  0.88127000  0.19029000  1.0 -0.5193824425
O  O67  1  0.03210000  0.18026000  0.30710000  1.0 -0.5193824425
O  O68  1  0.86800000  0.31511000  0.26021000  1.0 -0.5193824425
O  O69  1  0.95718000  0.86513000  0.41184000  1.0 -0.5082673026
O  O70  1  0.59666000  0.72660000  0.22103000  1.0 -0.5193824425
O  O71  1  0.85896000  0.85487000  0.16223000  1.0 -0.5193824425
O  O72  1  0.80780000  0.73670000  0.31650000  1.0 -0.4979244439
O  O73  1  0.49452000  0.53585000  0.45427000  1.0 -0.5193824425
O  O74  1  0.51402000  0.73684000  0.43064000  1.0 -0.5316226152
O  O75  1  0.35688000  0.73714000  0.15866000  1.0 -0.5193824425
O  O76  1  0.50232000  0.57711000  0.26239000  1.0 -0.5193824425
O  O77  1  0.16194000  0.73859000  0.07183000  1.0 -0.5316226152
O  O78  1  0.03278000  0.57172000  0.04627000  1.0 -0.5082673026
O  O79  1  0.34687000  0.38210000  0.42207000  1.0 -0.5193824425
O  O80  1  0.34749000  0.84300000  0.33368000  1.0 -0.5193824425
O  O81  1  0.97730000  0.48585000  0.23264000  1.0 -0.5193824425
O  O82  1  0.53357000  0.38127000  0.30971000  1.0 -0.5193824425
O  O83  1  0.96790000  0.68026000  0.19290000  1.0 -0.5193824425
O  O84  1  0.13200000  0.81511000  0.23979000  1.0 -0.5193824425
O  O85  1  0.04282000  0.36513000  0.08816000  1.0 -0.5082673026
O  O86  1  0.40334000  0.22660000  0.27897000  1.0 -0.5193824425
O  O87  1  0.14104000  0.35487000  0.33777000  1.0 -0.5193824425
O  O88  1  0.19220000  0.23670000  0.18350000  1.0 -0.4979244439
