# DDEC6 charges by PACMAN v1.1 (https://github.com/mtap-research/PACMAN-charge/)
data_LINTOV07_ASR_pacman
_symmetry_space_group_name_H-M   'P 1'
_cell_length_a   22.78500000
_cell_length_b   16.87990000
_cell_length_c   33.28300000
_cell_angle_alpha   90.00000000
_cell_angle_beta   123.91000000
_cell_angle_gamma   90.00000000
_symmetry_Int_Tables_number   1
_chemical_formula_structural   UH68C75(N17O11)2
_chemical_formula_sum   'U4 H272 C300 N136 O88'
_cell_volume   10623.67909365
_cell_formula_units_Z   4
loop_
 _symmetry_equiv_pos_site_id
 _symmetry_equiv_pos_as_xyz
  1  'x, y, z'
loop_
 _atom_site_type_symbol
 _atom_site_label
 _atom_site_symmetry_multiplicity
 _atom_site_fract_x
 _atom_site_fract_y
 _atom_site_fract_z
 _atom_site_occupancy
 _atom_site_charge
U  U1  1  0.35742000  0.94350000  0.48807000  1.0 1.7503765249
U  U2  1  0.64258000  0.44350000  0.01193000  1.0 1.7503765249
U  U3  1  0.64258000  0.05650000  0.51193000  1.0 1.7503765249
U  U4  1  0.35742000  0.55650000  0.98807000  1.0 1.7503765249
H  H1  1  0.20245000  0.52193000  0.04660000  1.0 0.1284217948
H  H2  1  0.79755000  0.02193000  0.45340000  1.0 0.1284217948
H  H3  1  0.79755000  0.47807000  0.95340000  1.0 0.1284217948
H  H4  1  0.20245000  0.97807000  0.54660000  1.0 0.1284217948
H  H5  1  0.28644000  0.30563000  0.25254000  1.0 0.1402574809
H  H6  1  0.71356000  0.80563000  0.24746000  1.0 0.1402574809
H  H7  1  0.71356000  0.69437000  0.74746000  1.0 0.1402574809
H  H8  1  0.28644000  0.19437000  0.75254000  1.0 0.1402574809
H  H9  1  0.38156000  0.68188000  0.44238000  1.0 0.1402574809
H  H10  1  0.61844000  0.18188000  0.05762000  1.0 0.1402574809
H  H11  1  0.61844000  0.31812000  0.55762000  1.0 0.1402574809
H  H12  1  0.38156000  0.81812000  0.94238000  1.0 0.1402574809
H  H13  1  0.32260000  0.36752000  0.31781000  1.0 0.145602333
H  H14  1  0.67740000  0.86752000  0.18219000  1.0 0.145602333
H  H15  1  0.67740000  0.63248000  0.68219000  1.0 0.145602333
H  H16  1  0.32260000  0.13248000  0.81781000  1.0 0.145602333
H  H17  1  0.12240000  0.42145000  0.26311000  1.0 0.1402574809
H  H18  1  0.87760000  0.92145000  0.23689000  1.0 0.1402574809
H  H19  1  0.87760000  0.57855000  0.73689000  1.0 0.1402574809
H  H20  1  0.12240000  0.07855000  0.76311000  1.0 0.1402574809
H  H21  1  0.14073000  0.44878000  0.07207000  1.0 0.1402574809
H  H22  1  0.85927000  0.94878000  0.42793000  1.0 0.1402574809
H  H23  1  0.85927000  0.55122000  0.92793000  1.0 0.1402574809
H  H24  1  0.14073000  0.05122000  0.57207000  1.0 0.1402574809
H  H25  1  0.25200000  0.26840000  0.17630000  1.0 0.1284217948
H  H26  1  0.74800000  0.76840000  0.32370000  1.0 0.1284217948
H  H27  1  0.74800000  0.73160000  0.82370000  1.0 0.1284217948
H  H28  1  0.25200000  0.23160000  0.67630000  1.0 0.1284217948
H  H29  1  0.37092000  0.54483000  0.43412000  1.0 0.1402574809
H  H30  1  0.62908000  0.04483000  0.06588000  1.0 0.1402574809
H  H31  1  0.62908000  0.45517000  0.56588000  1.0 0.1402574809
H  H32  1  0.37092000  0.95517000  0.93412000  1.0 0.1402574809
H  H33  1  0.35009000  0.40170000  0.39296000  1.0 0.1185617869
H  H34  1  0.64991000  0.90170000  0.10704000  1.0 0.1185617869
H  H35  1  0.64991000  0.59830000  0.60704000  1.0 0.1185617869
H  H36  1  0.35009000  0.09830000  0.89296000  1.0 0.1185617869
H  H37  1  0.10483000  0.42406000  0.19343000  1.0 0.1402574809
H  H38  1  0.89517000  0.92406000  0.30657000  1.0 0.1402574809
H  H39  1  0.89517000  0.57594000  0.80657000  1.0 0.1402574809
H  H40  1  0.10483000  0.07594000  0.69343000  1.0 0.1402574809
H  H41  1  0.30118000  0.31944000  0.05219000  1.0 0.1284217948
H  H42  1  0.69882000  0.81944000  0.44781000  1.0 0.1284217948
H  H43  1  0.69882000  0.68056000  0.94781000  1.0 0.1284217948
H  H44  1  0.30118000  0.18056000  0.55219000  1.0 0.1284217948
H  H45  1  0.15233000  0.24075000  0.09357000  1.0 0.1402574809
H  H46  1  0.84767000  0.74075000  0.40643000  1.0 0.1402574809
H  H47  1  0.84767000  0.75925000  0.90643000  1.0 0.1402574809
H  H48  1  0.15233000  0.25925000  0.59357000  1.0 0.1402574809
H  H49  1  0.09192000  0.30461000  0.06917000  1.0 0.1402574809
H  H50  1  0.90808000  0.80461000  0.43083000  1.0 0.1402574809
H  H51  1  0.90808000  0.69539000  0.93083000  1.0 0.1402574809
H  H52  1  0.09192000  0.19539000  0.56917000  1.0 0.1402574809
H  H53  1  0.19189000  0.55561000  0.42960000  1.0 0.1185617869
H  H54  1  0.80811000  0.05561000  0.07040000  1.0 0.1185617869
H  H55  1  0.80811000  0.44439000  0.57040000  1.0 0.1185617869
H  H56  1  0.19189000  0.94439000  0.92960000  1.0 0.1185617869
H  H57  1  0.23593000  0.42825000  0.42699000  1.0 0.1402574809
H  H58  1  0.76407000  0.92825000  0.07301000  1.0 0.1402574809
H  H59  1  0.76407000  0.57175000  0.57301000  1.0 0.1402574809
H  H60  1  0.23593000  0.07175000  0.92699000  1.0 0.1402574809
H  H61  1  0.31649000  0.42139000  0.44668000  1.0 0.1402574809
H  H62  1  0.68351000  0.92139000  0.05332000  1.0 0.1402574809
H  H63  1  0.68351000  0.57861000  0.55332000  1.0 0.1402574809
H  H64  1  0.31649000  0.07861000  0.94668000  1.0 0.1402574809
H  H65  1  0.15174000  0.45194000  0.33965000  1.0 0.1284217948
H  H66  1  0.84826000  0.95194000  0.16035000  1.0 0.1284217948
H  H67  1  0.84826000  0.54806000  0.66035000  1.0 0.1284217948
H  H68  1  0.15174000  0.04806000  0.83965000  1.0 0.1284217948
H  H69  1  0.20813000  0.68972000  0.44517000  1.0 0.1284217948
H  H70  1  0.79187000  0.18972000  0.05483000  1.0 0.1284217948
H  H71  1  0.79187000  0.31028000  0.55483000  1.0 0.1284217948
H  H72  1  0.20813000  0.81028000  0.94517000  1.0 0.1284217948
H  H73  1  0.07829000  0.38855000  0.11833000  1.0 0.1185617869
H  H74  1  0.92171000  0.88855000  0.38167000  1.0 0.1185617869
H  H75  1  0.92171000  0.61145000  0.88167000  1.0 0.1185617869
H  H76  1  0.07829000  0.11145000  0.61833000  1.0 0.1185617869
H  H77  1  0.23796000  0.25186000  0.07779000  1.0 0.1185617869
H  H78  1  0.76204000  0.75186000  0.42221000  1.0 0.1185617869
H  H79  1  0.76204000  0.74814000  0.92221000  1.0 0.1185617869
H  H80  1  0.23796000  0.24814000  0.57779000  1.0 0.1185617869
H  H81  1  0.45260000  0.38367000  0.90419000  1.0 0.0825644707
H  H82  1  0.90777000  0.12432000  0.52735000  1.0 0.1185617869
H  H83  1  0.84574000  0.10126000  0.53258000  1.0 0.1108076758
H  H84  1  0.83758000  0.02439000  0.62009000  1.0 0.0990214151
H  H85  1  0.89374000  0.99349000  0.67243000  1.0 0.0990214151
H  H86  1  0.84780000  0.16157000  0.60348000  1.0 0.0893021278
H  H87  1  0.51463000  0.28035000  0.97176000  1.0 0.0990214151
H  H88  1  0.46651000  0.21691000  0.97416000  1.0 0.1185617869
H  H89  1  0.90384000  0.26636000  0.65450000  1.0 0.0893021278
H  H90  1  0.01929000  0.20274000  0.77279000  1.0 0.1108076758
H  H91  1  0.97825000  0.27807000  0.74250000  1.0 0.1108076758
H  H92  1  0.58986000  0.23524000  0.94372000  1.0 0.0825644707
H  H93  1  0.48895000  0.30560000  0.82329000  1.0 0.1108076758
H  H94  1  0.52744000  0.33685000  0.87655000  1.0 0.0990214151
H  H95  1  0.88987000  0.85048000  0.54280000  1.0 0.0893021278
H  H96  1  0.63470000  0.11240000  0.95057000  1.0 0.0825644707
H  H97  1  0.24049000  0.41094000  0.87122000  1.0 0.0825644707
H  H98  1  0.23619000  0.32853000  0.89109000  1.0 0.1108076758
H  H99  1  0.34215000  0.43501000  0.86363000  1.0 0.0825644707
H  H100  1  0.02844000  0.89688000  0.52898000  1.0 0.1185617869
H  H101  1  0.97755000  0.82716000  0.52086000  1.0 0.0990214151
H  H102  1  0.84007000  0.96134000  0.55114000  1.0 0.0825644707
H  H103  1  0.26045000  0.40862000  0.73923000  1.0 0.1108076758
H  H104  1  0.25495000  0.45968000  0.77635000  1.0 0.0990214151
H  H105  1  0.15370000  0.43795000  0.78283000  1.0 0.0893021278
H  H106  1  0.13812000  0.65646000  0.61435000  1.0 0.0825644707
H  H107  1  0.97722000  0.37781000  0.64920000  1.0 0.0990214151
H  H108  1  0.01698000  0.35619000  0.62459000  1.0 0.1108076758
H  H109  1  0.97722000  0.74545000  0.65345000  1.0 0.1185617869
H  H110  1  0.94583000  0.73250000  0.59837000  1.0 0.0990214151
H  H111  1  0.61295000  0.06851000  0.84021000  1.0 0.1108076758
H  H112  1  0.65477000  0.03727000  0.89361000  1.0 0.0990214151
H  H113  1  0.04307000  0.38605000  0.73657000  1.0 0.0990214151
H  H114  1  0.62484000  0.90201000  0.90722000  1.0 0.0825644707
H  H115  1  0.02882000  0.71032000  0.57390000  1.0 0.0825644707
H  H116  1  0.56865000  0.79747000  0.85643000  1.0 0.0825644707
H  H117  1  0.61088000  0.97326000  0.96645000  1.0 0.0893021278
H  H118  1  0.53962000  0.96081000  0.96244000  1.0 0.1185617869
H  H119  1  0.48603000  0.84981000  0.73418000  1.0 0.1185617869
H  H120  1  0.51564000  0.77627000  0.76867000  1.0 0.1108076758
H  H121  1  0.21224000  0.64241000  0.73937000  1.0 0.1185617869
H  H122  1  0.22104000  0.60746000  0.69943000  1.0 0.0990214151
H  H123  1  0.24989000  0.77848000  0.60559000  1.0 0.1185617869
H  H124  1  0.24097000  0.69050000  0.61628000  1.0 0.0893021278
H  H125  1  0.43357000  0.73421000  0.86626000  1.0 0.1185617869
H  H126  1  0.48450000  0.70439000  0.85186000  1.0 0.0990214151
H  H127  1  0.43444000  0.68171000  0.76436000  1.0 0.0990214151
H  H128  1  0.32718000  0.64154000  0.70414000  1.0 0.0893021278
H  H129  1  0.54740000  0.88367000  0.59581000  1.0 0.0825644707
H  H130  1  0.09223000  0.62432000  0.97265000  1.0 0.1185617869
H  H131  1  0.15426000  0.60126000  0.96742000  1.0 0.1108076758
H  H132  1  0.16242000  0.52439000  0.87991000  1.0 0.0990214151
H  H133  1  0.10626000  0.49349000  0.82757000  1.0 0.0990214151
H  H134  1  0.15220000  0.66157000  0.89652000  1.0 0.0893021278
H  H135  1  0.48537000  0.78035000  0.52824000  1.0 0.0990214151
H  H136  1  0.53349000  0.71691000  0.52584000  1.0 0.1185617869
H  H137  1  0.09616000  0.76636000  0.84550000  1.0 0.0893021278
H  H138  1  0.98071000  0.70274000  0.72721000  1.0 0.1108076758
H  H139  1  0.02175000  0.77807000  0.75750000  1.0 0.1108076758
H  H140  1  0.41014000  0.73524000  0.55628000  1.0 0.0825644707
H  H141  1  0.51105000  0.80560000  0.67671000  1.0 0.1108076758
H  H142  1  0.47256000  0.83685000  0.62345000  1.0 0.0990214151
H  H143  1  0.11013000  0.35048000  0.95720000  1.0 0.0825644707
H  H144  1  0.36530000  0.61240000  0.54943000  1.0 0.0825644707
H  H145  1  0.75951000  0.91094000  0.62878000  1.0 0.0825644707
H  H146  1  0.76381000  0.82853000  0.60891000  1.0 0.1108076758
H  H147  1  0.65785000  0.93501000  0.63637000  1.0 0.0825644707
H  H148  1  0.97156000  0.39688000  0.97102000  1.0 0.1185617869
H  H149  1  0.02245000  0.32716000  0.97914000  1.0 0.0990214151
H  H150  1  0.15993000  0.46134000  0.94886000  1.0 0.0825644707
H  H151  1  0.73955000  0.90862000  0.76077000  1.0 0.1108076758
H  H152  1  0.74505000  0.95968000  0.72365000  1.0 0.0990214151
H  H153  1  0.84630000  0.93795000  0.71717000  1.0 0.0893021278
H  H154  1  0.86188000  0.15646000  0.88565000  1.0 0.0825644707
H  H155  1  0.02278000  0.87781000  0.85080000  1.0 0.0990214151
H  H156  1  0.98302000  0.85619000  0.87541000  1.0 0.1108076758
H  H157  1  0.02278000  0.24545000  0.84655000  1.0 0.1185617869
H  H158  1  0.05417000  0.23250000  0.90163000  1.0 0.0990214151
H  H159  1  0.38705000  0.56851000  0.65979000  1.0 0.1108076758
H  H160  1  0.34523000  0.53727000  0.60639000  1.0 0.0990214151
H  H161  1  0.95693000  0.88605000  0.76343000  1.0 0.0990214151
H  H162  1  0.37516000  0.40201000  0.59278000  1.0 0.0825644707
H  H163  1  0.97118000  0.21032000  0.92610000  1.0 0.0825644707
H  H164  1  0.43135000  0.29747000  0.64357000  1.0 0.0825644707
H  H165  1  0.38912000  0.47326000  0.53355000  1.0 0.0893021278
H  H166  1  0.46038000  0.46081000  0.53756000  1.0 0.1185617869
H  H167  1  0.51397000  0.34981000  0.76582000  1.0 0.1185617869
H  H168  1  0.48436000  0.27627000  0.73133000  1.0 0.1108076758
H  H169  1  0.78776000  0.14241000  0.76063000  1.0 0.1185617869
H  H170  1  0.77896000  0.10746000  0.80057000  1.0 0.0990214151
H  H171  1  0.75011000  0.27848000  0.89441000  1.0 0.1185617869
H  H172  1  0.75903000  0.19050000  0.88372000  1.0 0.0893021278
H  H173  1  0.56643000  0.23421000  0.63374000  1.0 0.1185617869
H  H174  1  0.51550000  0.20439000  0.64814000  1.0 0.0990214151
H  H175  1  0.56556000  0.18171000  0.73564000  1.0 0.0990214151
H  H176  1  0.67282000  0.14154000  0.79586000  1.0 0.0893021278
H  H177  1  0.54740000  0.61633000  0.09581000  1.0 0.0825644707
H  H178  1  0.09223000  0.87568000  0.47265000  1.0 0.1108076758
H  H179  1  0.15426000  0.89874000  0.46742000  1.0 0.1108076758
H  H180  1  0.16242000  0.97561000  0.37991000  1.0 0.0990214151
H  H181  1  0.10626000  0.00651000  0.32757000  1.0 0.0990214151
H  H182  1  0.15220000  0.83843000  0.39652000  1.0 0.0893021278
H  H183  1  0.48537000  0.71965000  0.02824000  1.0 0.0990214151
H  H184  1  0.53349000  0.78309000  0.02584000  1.0 0.1185617869
H  H185  1  0.09616000  0.73364000  0.34550000  1.0 0.0893021278
H  H186  1  0.98071000  0.79726000  0.22721000  1.0 0.1108076758
H  H187  1  0.02175000  0.72193000  0.25750000  1.0 0.1108076758
H  H188  1  0.41014000  0.76476000  0.05628000  1.0 0.0825644707
H  H189  1  0.51105000  0.69440000  0.17671000  1.0 0.1108076758
H  H190  1  0.47256000  0.66315000  0.12345000  1.0 0.0990214151
H  H191  1  0.11013000  0.14952000  0.45720000  1.0 0.0825644707
H  H192  1  0.36530000  0.88760000  0.04943000  1.0 0.0825644707
H  H193  1  0.75951000  0.58906000  0.12878000  1.0 0.0825644707
H  H194  1  0.76381000  0.67147000  0.10891000  1.0 0.1108076758
H  H195  1  0.65785000  0.56499000  0.13637000  1.0 0.0825644707
H  H196  1  0.97156000  0.10312000  0.47102000  1.0 0.1185617869
H  H197  1  0.02245000  0.17284000  0.47914000  1.0 0.0990214151
H  H198  1  0.15993000  0.03866000  0.44886000  1.0 0.0825644707
H  H199  1  0.73955000  0.59138000  0.26077000  1.0 0.1108076758
H  H200  1  0.74505000  0.54032000  0.22365000  1.0 0.0990214151
H  H201  1  0.84630000  0.56205000  0.21717000  1.0 0.0893021278
H  H202  1  0.86188000  0.34354000  0.38565000  1.0 0.0825644707
H  H203  1  0.02278000  0.62219000  0.35080000  1.0 0.0990214151
H  H204  1  0.98302000  0.64381000  0.37541000  1.0 0.1108076758
H  H205  1  0.02278000  0.25455000  0.34655000  1.0 0.1185617869
H  H206  1  0.05417000  0.26750000  0.40163000  1.0 0.0990214151
H  H207  1  0.38705000  0.93149000  0.15979000  1.0 0.1108076758
H  H208  1  0.34523000  0.96273000  0.10639000  1.0 0.0990214151
H  H209  1  0.95693000  0.61395000  0.26343000  1.0 0.0990214151
H  H210  1  0.37516000  0.09799000  0.09278000  1.0 0.0825644707
H  H211  1  0.97118000  0.28968000  0.42610000  1.0 0.0825644707
H  H212  1  0.43135000  0.20253000  0.14357000  1.0 0.0825644707
H  H213  1  0.38912000  0.02674000  0.03355000  1.0 0.0893021278
H  H214  1  0.46038000  0.03919000  0.03756000  1.0 0.1185617869
H  H215  1  0.51397000  0.15019000  0.26582000  1.0 0.1185617869
H  H216  1  0.48436000  0.22373000  0.23133000  1.0 0.1108076758
H  H217  1  0.78776000  0.35759000  0.26063000  1.0 0.1185617869
H  H218  1  0.77896000  0.39254000  0.30057000  1.0 0.0990214151
H  H219  1  0.75011000  0.22152000  0.39441000  1.0 0.1185617869
H  H220  1  0.75903000  0.30950000  0.38372000  1.0 0.0893021278
H  H221  1  0.56643000  0.26579000  0.13374000  1.0 0.1185617869
H  H222  1  0.51550000  0.29561000  0.14814000  1.0 0.0990214151
H  H223  1  0.56556000  0.31829000  0.23564000  1.0 0.0990214151
H  H224  1  0.67282000  0.35846000  0.29586000  1.0 0.0893021278
H  H225  1  0.45260000  0.11633000  0.40419000  1.0 0.0825644707
H  H226  1  0.90777000  0.37568000  0.02735000  1.0 0.1185617869
H  H227  1  0.84574000  0.39874000  0.03258000  1.0 0.1108076758
H  H228  1  0.83758000  0.47561000  0.12009000  1.0 0.0990214151
H  H229  1  0.89374000  0.50651000  0.17243000  1.0 0.0990214151
H  H230  1  0.84780000  0.33843000  0.10348000  1.0 0.0893021278
H  H231  1  0.51463000  0.21965000  0.47176000  1.0 0.0990214151
H  H232  1  0.46651000  0.28309000  0.47416000  1.0 0.1185617869
H  H233  1  0.90384000  0.23364000  0.15450000  1.0 0.0893021278
H  H234  1  0.01929000  0.29726000  0.27279000  1.0 0.1108076758
H  H235  1  0.97825000  0.22193000  0.24250000  1.0 0.1108076758
H  H236  1  0.58986000  0.26476000  0.44372000  1.0 0.0825644707
H  H237  1  0.48895000  0.19440000  0.32329000  1.0 0.1108076758
H  H238  1  0.52744000  0.16315000  0.37655000  1.0 0.0990214151
H  H239  1  0.88987000  0.64952000  0.04280000  1.0 0.0825644707
H  H240  1  0.63470000  0.38760000  0.45057000  1.0 0.0825644707
H  H241  1  0.24049000  0.08906000  0.37122000  1.0 0.0825644707
H  H242  1  0.23619000  0.17147000  0.39109000  1.0 0.1108076758
H  H243  1  0.34215000  0.06499000  0.36363000  1.0 0.0825644707
H  H244  1  0.02844000  0.60312000  0.02898000  1.0 0.1185617869
H  H245  1  0.97755000  0.67284000  0.02086000  1.0 0.0990214151
H  H246  1  0.84007000  0.53866000  0.05114000  1.0 0.0825644707
H  H247  1  0.26045000  0.09138000  0.23923000  1.0 0.1108076758
H  H248  1  0.25495000  0.04032000  0.27635000  1.0 0.0990214151
H  H249  1  0.15370000  0.06205000  0.28283000  1.0 0.0893021278
H  H250  1  0.13812000  0.84354000  0.11435000  1.0 0.0825644707
H  H251  1  0.97722000  0.12219000  0.14920000  1.0 0.0990214151
H  H252  1  0.01698000  0.14381000  0.12459000  1.0 0.1108076758
H  H253  1  0.97722000  0.75455000  0.15345000  1.0 0.1185617869
H  H254  1  0.94583000  0.76750000  0.09837000  1.0 0.0990214151
H  H255  1  0.61295000  0.43149000  0.34021000  1.0 0.1108076758
H  H256  1  0.65477000  0.46273000  0.39361000  1.0 0.0990214151
H  H257  1  0.04307000  0.11395000  0.23657000  1.0 0.0990214151
H  H258  1  0.62484000  0.59799000  0.40722000  1.0 0.0825644707
H  H259  1  0.02882000  0.78968000  0.07390000  1.0 0.0825644707
H  H260  1  0.56865000  0.70253000  0.35643000  1.0 0.0825644707
H  H261  1  0.61088000  0.52674000  0.46645000  1.0 0.0893021278
H  H262  1  0.53962000  0.53919000  0.46244000  1.0 0.1185617869
H  H263  1  0.48603000  0.65019000  0.23418000  1.0 0.1185617869
H  H264  1  0.51564000  0.72373000  0.26867000  1.0 0.1108076758
H  H265  1  0.21224000  0.85759000  0.23937000  1.0 0.1185617869
H  H266  1  0.22104000  0.89254000  0.19943000  1.0 0.0990214151
H  H267  1  0.24989000  0.72152000  0.10559000  1.0 0.1185617869
H  H268  1  0.24097000  0.80950000  0.11628000  1.0 0.0893021278
H  H269  1  0.43357000  0.76579000  0.36626000  1.0 0.1185617869
H  H270  1  0.48450000  0.79561000  0.35186000  1.0 0.0990214151
H  H271  1  0.43444000  0.81829000  0.26436000  1.0 0.0990214151
H  H272  1  0.32718000  0.85846000  0.20414000  1.0 0.0893021278
C  C1  1  0.29390000  0.47060000  0.02860000  1.0 0.5408287072
C  C2  1  0.70610000  0.97060000  0.47140000  1.0 0.5408287072
C  C3  1  0.70610000  0.52940000  0.97140000  1.0 0.5408287072
C  C4  1  0.29390000  0.02940000  0.52860000  1.0 0.5408287072
C  C5  1  0.20990000  0.46790000  0.05280000  1.0 -0.0786861381
C  C6  1  0.79010000  0.96790000  0.44720000  1.0 -0.0786861381
C  C7  1  0.79010000  0.53210000  0.94720000  1.0 -0.0786861381
C  C8  1  0.20990000  0.03210000  0.55280000  1.0 -0.0786861381
C  C9  1  0.21820000  0.39010000  0.28142000  1.0 0.1108076758
C  C10  1  0.78180000  0.89010000  0.21858000  1.0 0.1108076758
C  C11  1  0.78180000  0.60990000  0.71858000  1.0 0.1108076758
C  C12  1  0.21820000  0.10990000  0.78142000  1.0 0.1108076758
C  C13  1  0.30710000  0.78640000  0.45280000  1.0 0.5298196697
C  C14  1  0.69290000  0.28640000  0.04720000  1.0 0.5298196697
C  C15  1  0.69290000  0.21360000  0.54720000  1.0 0.5298196697
C  C16  1  0.30710000  0.71360000  0.95280000  1.0 0.5298196697
C  C17  1  0.19970000  0.36750000  0.23280000  1.0 0.1108076758
C  C18  1  0.80030000  0.86750000  0.26720000  1.0 0.1108076758
C  C19  1  0.80030000  0.63250000  0.76720000  1.0 0.1108076758
C  C20  1  0.19970000  0.13250000  0.73280000  1.0 0.1108076758
C  C21  1  0.25800000  0.42560000  0.04750000  1.0 -0.0371994762
C  C22  1  0.74200000  0.92560000  0.45250000  1.0 -0.0371994762
C  C23  1  0.74200000  0.57440000  0.95250000  1.0 -0.0371994762
C  C24  1  0.25800000  0.07440000  0.54750000  1.0 -0.0371994762
C  C25  1  0.29520000  0.69890000  0.44428000  1.0 -0.0323563753
C  C26  1  0.70480000  0.19890000  0.05572000  1.0 -0.0323563753
C  C27  1  0.70480000  0.30110000  0.55572000  1.0 -0.0323563753
C  C28  1  0.29520000  0.80110000  0.94428000  1.0 -0.0323563753
C  C29  1  0.24290000  0.32210000  0.22600000  1.0 -0.180961251
C  C30  1  0.75710000  0.82210000  0.27400000  1.0 -0.180961251
C  C31  1  0.75710000  0.67790000  0.77400000  1.0 -0.180961251
C  C32  1  0.24290000  0.17790000  0.72600000  1.0 -0.180961251
C  C33  1  0.50180000  0.96150000  0.48860000  1.0 0.4756492698
C  C34  1  0.49820000  0.46150000  0.01140000  1.0 0.4756492698
C  C35  1  0.49820000  0.03850000  0.51140000  1.0 0.4756492698
C  C36  1  0.50180000  0.53850000  0.98860000  1.0 0.4756492698
C  C37  1  0.34430000  0.65610000  0.44080000  1.0 -0.0682059726
C  C38  1  0.65570000  0.15610000  0.05920000  1.0 -0.0682059726
C  C39  1  0.65570000  0.34390000  0.55920000  1.0 -0.0682059726
C  C40  1  0.34430000  0.84390000  0.94080000  1.0 -0.0682059726
C  C41  1  0.28710000  0.38470000  0.32150000  1.0 -0.180961251
C  C42  1  0.71290000  0.88470000  0.17850000  1.0 -0.180961251
C  C43  1  0.71290000  0.61530000  0.67850000  1.0 -0.180961251
C  C44  1  0.28710000  0.11530000  0.82150000  1.0 -0.180961251
C  C45  1  0.16910000  0.41600000  0.28930000  1.0 -0.1726989015
C  C46  1  0.83090000  0.91600000  0.21070000  1.0 -0.1726989015
C  C47  1  0.83090000  0.58400000  0.71070000  1.0 -0.1726989015
C  C48  1  0.16910000  0.08400000  0.78930000  1.0 -0.1726989015
C  C49  1  0.17320000  0.42310000  0.06800000  1.0 -0.1517104781
C  C50  1  0.82680000  0.92310000  0.43200000  1.0 -0.1517104781
C  C51  1  0.82680000  0.57690000  0.93200000  1.0 -0.1517104781
C  C52  1  0.17320000  0.07690000  0.56800000  1.0 -0.1517104781
C  C53  1  0.28040000  0.53690000  0.43050000  1.0 0.0990214151
C  C54  1  0.71960000  0.03690000  0.06950000  1.0 0.0990214151
C  C55  1  0.71960000  0.46310000  0.56950000  1.0 0.0990214151
C  C56  1  0.28040000  0.96310000  0.93050000  1.0 0.0990214151
C  C57  1  0.18350000  0.34330000  0.07710000  1.0 0.0990214151
C  C58  1  0.81650000  0.84330000  0.42290000  1.0 0.0990214151
C  C59  1  0.81650000  0.65670000  0.92290000  1.0 0.0990214151
C  C60  1  0.18350000  0.15670000  0.57710000  1.0 0.0990214151
C  C61  1  0.22230000  0.30060000  0.18010000  1.0 0.0570805819
C  C62  1  0.77770000  0.80060000  0.31990000  1.0 0.0570805819
C  C63  1  0.77770000  0.69940000  0.81990000  1.0 0.0570805819
C  C64  1  0.22230000  0.19940000  0.68010000  1.0 0.0570805819
C  C65  1  0.33710000  0.57420000  0.43500000  1.0 -0.1388578242
C  C66  1  0.66290000  0.07420000  0.06500000  1.0 -0.1388578242
C  C67  1  0.66290000  0.42580000  0.56500000  1.0 -0.1388578242
C  C68  1  0.33710000  0.92580000  0.93500000  1.0 -0.1388578242
C  C69  1  0.30340000  0.40440000  0.36640000  1.0 0.0232333234
C  C70  1  0.69660000  0.90440000  0.13360000  1.0 0.028772079
C  C71  1  0.69660000  0.59560000  0.63360000  1.0 0.0232333234
C  C72  1  0.30340000  0.09560000  0.86640000  1.0 0.0232333234
C  C73  1  0.13610000  0.39250000  0.19090000  1.0 -0.189461959
C  C74  1  0.86390000  0.89250000  0.30910000  1.0 -0.189461959
C  C75  1  0.86390000  0.60750000  0.80910000  1.0 -0.189461959
C  C76  1  0.13610000  0.10750000  0.69090000  1.0 -0.189461959
C  C77  1  0.26910000  0.34620000  0.05620000  1.0 -0.09589573
C  C78  1  0.73090000  0.84620000  0.44380000  1.0 -0.0949122137
C  C79  1  0.73090000  0.65380000  0.94380000  1.0 -0.09589573
C  C80  1  0.26910000  0.15380000  0.55620000  1.0 -0.09589573
C  C81  1  0.14220000  0.29680000  0.09250000  1.0 -0.189461959
C  C82  1  0.85780000  0.79680000  0.40750000  1.0 -0.189461959
C  C83  1  0.85780000  0.70320000  0.90750000  1.0 -0.189461959
C  C84  1  0.14220000  0.20320000  0.59250000  1.0 -0.189461959
C  C85  1  0.23090000  0.58080000  0.43330000  1.0 -0.189461959
C  C86  1  0.76910000  0.08080000  0.06670000  1.0 -0.180961251
C  C87  1  0.76910000  0.41920000  0.56670000  1.0 -0.180961251
C  C88  1  0.23090000  0.91920000  0.93330000  1.0 -0.189461959
C  C89  1  0.27240000  0.44730000  0.42290000  1.0 -0.189461959
C  C90  1  0.72760000  0.94730000  0.07710000  1.0 -0.189461959
C  C91  1  0.72760000  0.55270000  0.57710000  1.0 -0.189461959
C  C92  1  0.27240000  0.05270000  0.92290000  1.0 -0.189461959
C  C93  1  0.18640000  0.43460000  0.33510000  1.0 0.0544590005
C  C94  1  0.81360000  0.93460000  0.16490000  1.0 0.0544590005
C  C95  1  0.81360000  0.56540000  0.66490000  1.0 0.0544590005
C  C96  1  0.18640000  0.06540000  0.83510000  1.0 0.0570805819
C  C97  1  0.23970000  0.66110000  0.44150000  1.0 -0.1083761132
C  C98  1  0.76030000  0.16110000  0.05850000  1.0 -0.1083761132
C  C99  1  0.76030000  0.33890000  0.55850000  1.0 -0.1083761132
C  C100  1  0.23970000  0.83890000  0.94150000  1.0 -0.1083761132
C  C101  1  0.11990000  0.37040000  0.14600000  1.0 0.028772079
C  C102  1  0.88010000  0.87040000  0.35400000  1.0 0.028772079
C  C103  1  0.88010000  0.62960000  0.85400000  1.0 0.028772079
C  C104  1  0.11990000  0.12960000  0.64600000  1.0 0.028772079
C  C105  1  0.23060000  0.30590000  0.07140000  1.0 -0.180961251
C  C106  1  0.76940000  0.80590000  0.42860000  1.0 -0.180961251
C  C107  1  0.76940000  0.69410000  0.92860000  1.0 -0.180961251
C  C108  1  0.23060000  0.19410000  0.57140000  1.0 -0.180961251
C  C109  1  0.41700000  0.34340000  0.88420000  1.0 0.1108076758
C  C110  1  0.96560000  0.21980000  0.59749000  1.0 0.5095324615
C  C111  1  0.89680000  0.10280000  0.54947000  1.0 0.0386556313
C  C112  1  0.96970000  0.11410000  0.70282000  1.0 0.5095324615
C  C113  1  0.88770000  0.01580000  0.64350000  1.0 0.0232333234
C  C114  1  0.89940000  0.15620000  0.62203000  1.0 0.1108076758
C  C115  1  0.47790000  0.24140000  0.95290000  1.0 0.0386556313
C  C116  1  0.93750000  0.22890000  0.65550000  1.0 0.0990214151
C  C117  1  0.94910000  0.89240000  0.64770000  1.0 0.5298196697
C  C118  1  0.13420000  0.27410000  0.81160000  1.0 0.5204861225
C  C119  1  0.13870000  0.35420000  0.70200000  1.0 0.5095324615
C  C120  1  0.35180000  0.27920000  0.90920000  1.0 0.5204861225
C  C121  1  0.97470000  0.99460000  0.55645000  1.0 0.5298196697
C  C122  1  0.01200000  0.23780000  0.74730000  1.0 0.0386556313
C  C123  1  0.55290000  0.19740000  0.92190000  1.0 0.0990214151
C  C124  1  0.36690000  0.33230000  0.80120000  1.0 0.5095324615
C  C125  1  0.49320000  0.29860000  0.85370000  1.0 0.0386556313
C  C126  1  0.92510000  0.88450000  0.56920000  1.0 0.0990214151
C  C127  1  0.58450000  0.11520000  0.92410000  1.0 0.1108076758
C  C128  1  0.24070000  0.35410000  0.86690000  1.0 0.028772079
C  C129  1  0.49940000  0.10220000  0.94246000  1.0 0.5298196697
C  C130  1  0.34160000  0.37840000  0.85680000  1.0 0.1108076758
C  C131  1  0.01220000  0.86390000  0.54480000  1.0 0.028772079
C  C132  1  0.89170000  0.96120000  0.57370000  1.0 0.1108076758
C  C133  1  0.25540000  0.40590000  0.76630000  1.0 0.028772079
C  C134  1  0.15440000  0.38150000  0.77610000  1.0 0.1108076758
C  C135  1  0.53770000  0.17100000  0.84800000  1.0 0.5204861225
C  C136  1  0.35900000  0.80490000  0.68960000  1.0 0.5204861225
C  C137  1  0.13830000  0.70810000  0.62790000  1.0 0.0893021278
C  C138  1  0.00880000  0.33960000  0.64900000  1.0 0.028772079
C  C139  1  0.97890000  0.76400000  0.62650000  1.0 0.028772079
C  C140  1  0.60780000  0.04810000  0.86530000  1.0 0.0232333234
C  C141  1  0.53230000  0.94840000  0.80120000  1.0 0.5095324615
C  C142  1  0.48510000  0.87120000  0.89120000  1.0 0.5095324615
C  C143  1  0.07910000  0.34910000  0.74040000  1.0 0.1108076758
C  C144  1  0.57520000  0.91400000  0.88230000  1.0 0.0990214151
C  C145  1  0.13660000  0.82610000  0.59190000  1.0 0.5095324615
C  C146  1  0.10390000  0.72250000  0.68190000  1.0 0.5095324615
C  C147  1  0.06350000  0.74450000  0.60050000  1.0 0.0893021278
C  C148  1  0.53600000  0.84160000  0.84860000  1.0 0.0990214151
C  C149  1  0.32390000  0.71970000  0.78180000  1.0 0.4980126643
C  C150  1  0.55990000  0.97860000  0.94500000  1.0 0.028772079
C  C151  1  0.48380000  0.82110000  0.75850000  1.0 0.0232333234
C  C152  1  0.21840000  0.65630000  0.71370000  1.0 0.0102872663
C  C153  1  0.24380000  0.74490000  0.62670000  1.0 0.0232333234
C  C154  1  0.44990000  0.74470000  0.84540000  1.0 0.0102872663
C  C155  1  0.39890000  0.72290000  0.75560000  1.0 0.0893021278
C  C156  1  0.32570000  0.69540000  0.71460000  1.0 0.0893021278
C  C157  1  0.58300000  0.84340000  0.61580000  1.0 0.1108076758
C  C158  1  0.03440000  0.71980000  0.90251000  1.0 0.5095324615
C  C159  1  0.10320000  0.60280000  0.95053000  1.0 0.0386556313
C  C160  1  0.03030000  0.61410000  0.79718000  1.0 0.5095324615
C  C161  1  0.11230000  0.51580000  0.85650000  1.0 0.028772079
C  C162  1  0.10060000  0.65620000  0.87797000  1.0 0.1108076758
C  C163  1  0.52210000  0.74140000  0.54710000  1.0 0.0386556313
C  C164  1  0.06250000  0.72890000  0.84450000  1.0 0.0990214151
C  C165  1  0.05090000  0.39240000  0.85230000  1.0 0.5298196697
C  C166  1  0.86580000  0.77410000  0.68840000  1.0 0.5204861225
C  C167  1  0.86130000  0.85420000  0.79800000  1.0 0.5095324615
C  C168  1  0.64820000  0.77920000  0.59080000  1.0 0.5204861225
C  C169  1  0.02530000  0.49460000  0.94355000  1.0 0.5298196697
C  C170  1  0.98800000  0.73780000  0.75270000  1.0 0.0386556313
C  C171  1  0.44710000  0.69740000  0.57810000  1.0 0.0990214151
C  C172  1  0.63310000  0.83230000  0.69880000  1.0 0.5095324615
C  C173  1  0.50680000  0.79860000  0.64630000  1.0 0.0386556313
C  C174  1  0.07490000  0.38450000  0.93080000  1.0 0.0990214151
C  C175  1  0.41550000  0.61520000  0.57590000  1.0 0.1108076758
C  C176  1  0.75930000  0.85410000  0.63310000  1.0 0.028772079
C  C177  1  0.50060000  0.60220000  0.55754000  1.0 0.5298196697
C  C178  1  0.65840000  0.87840000  0.64320000  1.0 0.1108076758
C  C179  1  0.98780000  0.36390000  0.95520000  1.0 0.028772079
C  C180  1  0.10830000  0.46120000  0.92630000  1.0 0.1185617869
C  C181  1  0.74460000  0.90590000  0.73370000  1.0 0.028772079
C  C182  1  0.84560000  0.88150000  0.72390000  1.0 0.1108076758
C  C183  1  0.46230000  0.67100000  0.65200000  1.0 0.5204861225
C  C184  1  0.64100000  0.30490000  0.81040000  1.0 0.5204861225
C  C185  1  0.86170000  0.20810000  0.87210000  1.0 0.0893021278
C  C186  1  0.99120000  0.83960000  0.85100000  1.0 0.028772079
C  C187  1  0.02110000  0.26400000  0.87350000  1.0 0.028772079
C  C188  1  0.39220000  0.54810000  0.63470000  1.0 0.0232333234
C  C189  1  0.46770000  0.44840000  0.69880000  1.0 0.5095324615
C  C190  1  0.51490000  0.37120000  0.60880000  1.0 0.5095324615
C  C191  1  0.92090000  0.84910000  0.75960000  1.0 0.1108076758
C  C192  1  0.42480000  0.41400000  0.61770000  1.0 0.0990214151
C  C193  1  0.86340000  0.32610000  0.90810000  1.0 0.5095324615
C  C194  1  0.89610000  0.22250000  0.81810000  1.0 0.5095324615
C  C195  1  0.93650000  0.24450000  0.89950000  1.0 0.0990214151
C  C196  1  0.46400000  0.34160000  0.65140000  1.0 0.0990214151
C  C197  1  0.67610000  0.21970000  0.71820000  1.0 0.4980126643
C  C198  1  0.44010000  0.47860000  0.55500000  1.0 0.028772079
C  C199  1  0.51620000  0.32110000  0.74150000  1.0 0.028772079
C  C200  1  0.78160000  0.15630000  0.78630000  1.0 0.0102872663
C  C201  1  0.75620000  0.24490000  0.87330000  1.0 0.0232333234
C  C202  1  0.55010000  0.24470000  0.65460000  1.0 0.0102872663
C  C203  1  0.60110000  0.22290000  0.74440000  1.0 0.0893021278
C  C204  1  0.67430000  0.19540000  0.78540000  1.0 0.0893021278
C  C205  1  0.58300000  0.65660000  0.11580000  1.0 0.1108076758
C  C206  1  0.03440000  0.78020000  0.40251000  1.0 0.5095324615
C  C207  1  0.10320000  0.89720000  0.45053000  1.0 0.0386556313
C  C208  1  0.03030000  0.88590000  0.29718000  1.0 0.5095324615
C  C209  1  0.11230000  0.98420000  0.35650000  1.0 0.0232333234
C  C210  1  0.10060000  0.84380000  0.37797000  1.0 0.1108076758
C  C211  1  0.52210000  0.75860000  0.04710000  1.0 0.0386556313
C  C212  1  0.06250000  0.77110000  0.34450000  1.0 0.0990214151
C  C213  1  0.05090000  0.10760000  0.35230000  1.0 0.5298196697
C  C214  1  0.86580000  0.72590000  0.18840000  1.0 0.5204861225
C  C215  1  0.86130000  0.64580000  0.29800000  1.0 0.5095324615
C  C216  1  0.64820000  0.72080000  0.09080000  1.0 0.5204861225
C  C217  1  0.02530000  0.00540000  0.44355000  1.0 0.5298196697
C  C218  1  0.98800000  0.76220000  0.25270000  1.0 0.0386556313
C  C219  1  0.44710000  0.80260000  0.07810000  1.0 0.0990214151
C  C220  1  0.63310000  0.66770000  0.19880000  1.0 0.5095324615
C  C221  1  0.50680000  0.70140000  0.14630000  1.0 0.0386556313
C  C222  1  0.07490000  0.11550000  0.43080000  1.0 0.0990214151
C  C223  1  0.41550000  0.88480000  0.07590000  1.0 0.1108076758
C  C224  1  0.75930000  0.64590000  0.13310000  1.0 0.028772079
C  C225  1  0.50060000  0.89780000  0.05754000  1.0 0.5298196697
C  C226  1  0.65840000  0.62160000  0.14320000  1.0 0.1108076758
C  C227  1  0.98780000  0.13610000  0.45520000  1.0 0.028772079
C  C228  1  0.10830000  0.03880000  0.42630000  1.0 0.1185617869
C  C229  1  0.74460000  0.59410000  0.23370000  1.0 0.028772079
C  C230  1  0.84560000  0.61850000  0.22390000  1.0 0.1108076758
C  C231  1  0.46230000  0.82900000  0.15200000  1.0 0.5204861225
C  C232  1  0.64100000  0.19510000  0.31040000  1.0 0.5204861225
C  C233  1  0.86170000  0.29190000  0.37210000  1.0 0.0893021278
C  C234  1  0.99120000  0.66040000  0.35100000  1.0 0.028772079
C  C235  1  0.02110000  0.23600000  0.37350000  1.0 0.028772079
C  C236  1  0.39220000  0.95190000  0.13470000  1.0 0.0232333234
C  C237  1  0.46770000  0.05160000  0.19880000  1.0 0.5095324615
C  C238  1  0.51490000  0.12880000  0.10880000  1.0 0.5095324615
C  C239  1  0.92090000  0.65090000  0.25960000  1.0 0.1108076758
C  C240  1  0.42480000  0.08600000  0.11770000  1.0 0.0990214151
C  C241  1  0.86340000  0.17390000  0.40810000  1.0 0.5095324615
C  C242  1  0.89610000  0.27750000  0.31810000  1.0 0.5095324615
C  C243  1  0.93650000  0.25550000  0.39950000  1.0 0.0893021278
C  C244  1  0.46400000  0.15840000  0.15140000  1.0 0.0990214151
C  C245  1  0.67610000  0.28030000  0.21820000  1.0 0.4980126643
C  C246  1  0.44010000  0.02140000  0.05500000  1.0 0.028772079
C  C247  1  0.51620000  0.17890000  0.24150000  1.0 0.028772079
C  C248  1  0.78160000  0.34370000  0.28630000  1.0 0.0102872663
C  C249  1  0.75620000  0.25510000  0.37330000  1.0 0.0232333234
C  C250  1  0.55010000  0.25530000  0.15460000  1.0 0.0102872663
C  C251  1  0.60110000  0.27710000  0.24440000  1.0 0.0893021278
C  C252  1  0.67430000  0.30460000  0.28540000  1.0 0.0893021278
C  C253  1  0.41700000  0.15660000  0.38420000  1.0 0.1108076758
C  C254  1  0.96560000  0.28020000  0.09749000  1.0 0.5095324615
C  C255  1  0.89680000  0.39720000  0.04947000  1.0 0.0386556313
C  C256  1  0.96970000  0.38590000  0.20282000  1.0 0.5095324615
C  C257  1  0.88770000  0.48420000  0.14350000  1.0 0.0232333234
C  C258  1  0.89940000  0.34380000  0.12203000  1.0 0.1108076758
C  C259  1  0.47790000  0.25860000  0.45290000  1.0 0.0386556313
C  C260  1  0.93750000  0.27110000  0.15550000  1.0 0.0990214151
C  C261  1  0.94910000  0.60760000  0.14770000  1.0 0.5298196697
C  C262  1  0.13420000  0.22590000  0.31160000  1.0 0.5204861225
C  C263  1  0.13870000  0.14580000  0.20200000  1.0 0.5095324615
C  C264  1  0.35180000  0.22080000  0.40920000  1.0 0.5204861225
C  C265  1  0.97470000  0.50540000  0.05645000  1.0 0.5298196697
C  C266  1  0.01200000  0.26220000  0.24730000  1.0 0.0386556313
C  C267  1  0.55290000  0.30260000  0.42190000  1.0 0.0990214151
C  C268  1  0.36690000  0.16770000  0.30120000  1.0 0.5095324615
C  C269  1  0.49320000  0.20140000  0.35370000  1.0 0.0386556313
C  C270  1  0.92510000  0.61550000  0.06920000  1.0 0.0990214151
C  C271  1  0.58450000  0.38480000  0.42410000  1.0 0.1108076758
C  C272  1  0.24070000  0.14590000  0.36690000  1.0 0.028772079
C  C273  1  0.49940000  0.39780000  0.44246000  1.0 0.5298196697
C  C274  1  0.34160000  0.12160000  0.35680000  1.0 0.1108076758
C  C275  1  0.01220000  0.63610000  0.04480000  1.0 0.028772079
C  C276  1  0.89170000  0.53880000  0.07370000  1.0 0.1185617869
C  C277  1  0.25540000  0.09410000  0.26630000  1.0 0.028772079
C  C278  1  0.15440000  0.11850000  0.27610000  1.0 0.1108076758
C  C279  1  0.53770000  0.32900000  0.34800000  1.0 0.5204861225
C  C280  1  0.35900000  0.69510000  0.18960000  1.0 0.5204861225
C  C281  1  0.13830000  0.79190000  0.12790000  1.0 0.0893021278
C  C282  1  0.00880000  0.16040000  0.14900000  1.0 0.028772079
C  C283  1  0.97890000  0.73600000  0.12650000  1.0 0.028772079
C  C284  1  0.60780000  0.45190000  0.36530000  1.0 0.0232333234
C  C285  1  0.53230000  0.55160000  0.30120000  1.0 0.5095324615
C  C286  1  0.48510000  0.62880000  0.39120000  1.0 0.5095324615
C  C287  1  0.07910000  0.15090000  0.24040000  1.0 0.1108076758
C  C288  1  0.57520000  0.58600000  0.38230000  1.0 0.0990214151
C  C289  1  0.13660000  0.67390000  0.09190000  1.0 0.5095324615
C  C290  1  0.10390000  0.77750000  0.18190000  1.0 0.5095324615
C  C291  1  0.06350000  0.75550000  0.10050000  1.0 0.0893021278
C  C292  1  0.53600000  0.65840000  0.34860000  1.0 0.0990214151
C  C293  1  0.32390000  0.78030000  0.28180000  1.0 0.4980126643
C  C294  1  0.55990000  0.52140000  0.44500000  1.0 0.028772079
C  C295  1  0.48380000  0.67890000  0.25850000  1.0 0.0232333234
C  C296  1  0.21840000  0.84370000  0.21370000  1.0 0.0102872663
C  C297  1  0.24380000  0.75510000  0.12670000  1.0 0.0232333234
C  C298  1  0.44990000  0.75530000  0.34540000  1.0 0.0102872663
C  C299  1  0.39890000  0.77710000  0.25560000  1.0 0.0893021278
C  C300  1  0.32570000  0.80460000  0.21460000  1.0 0.0893021278
N  N1  1  0.25280000  0.42760000  0.37258000  1.0 0.1185617869
N  N2  1  0.74720000  0.92760000  0.12742000  1.0 0.1185617869
N  N3  1  0.74720000  0.57240000  0.62742000  1.0 0.1185617869
N  N4  1  0.25280000  0.07240000  0.87258000  1.0 0.1185617869
N  N5  1  0.16230000  0.32400000  0.14152000  1.0 0.1185617869
N  N6  1  0.83770000  0.82400000  0.35848000  1.0 0.1185617869
N  N7  1  0.83770000  0.67600000  0.85848000  1.0 0.1185617869
N  N8  1  0.16230000  0.17600000  0.64152000  1.0 0.1185617869
N  N9  1  0.92400000  0.09100000  0.65543000  1.0 -0.2419840897
N  N10  1  0.30710000  0.33200000  0.87473000  1.0 -0.2604460533
N  N11  1  0.95690000  0.84660000  0.61691000  1.0 -0.2419840897
N  N12  1  0.41510000  0.28180000  0.91374000  1.0 -0.2767323768
N  N13  1  0.42520000  0.31470000  0.84633000  1.0 -0.2604460533
N  N14  1  0.92520000  0.15530000  0.59072000  1.0 -0.2694326143
N  N15  1  0.98260000  0.19280000  0.70305000  1.0 -0.2501874477
N  N16  1  0.18010000  0.33320000  0.81918000  1.0 -0.2604460533
N  N17  1  0.51920000  0.22020000  0.87163000  1.0 -0.2604460533
N  N18  1  0.97450000  0.26310000  0.63553000  1.0 -0.2604460533
N  N19  1  0.07860000  0.27580000  0.76277000  1.0 -0.2951500392
N  N20  1  0.91330000  0.95930000  0.62372000  1.0 -0.2501874477
N  N21  1  0.07550000  0.34050000  0.69581000  1.0 -0.2501874477
N  N22  1  0.57480000  0.10850000  0.87760000  1.0 -0.2604460533
N  N23  1  0.92410000  0.02230000  0.56231000  1.0 -0.2501874477
N  N24  1  0.54240000  0.06180000  0.93242000  1.0 -0.2694326143
N  N25  1  0.50480000  0.18200000  0.93674000  1.0 -0.2501874477
N  N26  1  0.56820000  0.97470000  0.84870000  1.0 -0.2419840897
N  N27  1  0.07140000  0.81940000  0.58278000  1.0 -0.2283550337
N  N28  1  0.04850000  0.75230000  0.63766000  1.0 -0.2419840897
N  N29  1  0.18820000  0.36790000  0.75029000  1.0 -0.2694326143
N  N30  1  0.31580000  0.36420000  0.80601000  1.0 -0.2501874477
N  N31  1  0.97870000  0.91300000  0.56123000  1.0 -0.2694326143
N  N32  1  0.53440000  0.92830000  0.90300000  1.0 -0.2419840897
N  N33  1  0.17900000  0.76510000  0.62120000  1.0 -0.2194901329
N  N34  1  0.15720000  0.70060000  0.67710000  1.0 -0.2283550337
N  N35  1  0.41270000  0.79180000  0.73680000  1.0 -0.2283550337
N  N36  1  0.39000000  0.73750000  0.79500000  1.0 -0.2194901329
N  N37  1  0.50870000  0.87300000  0.80010000  1.0 -0.2501874477
N  N38  1  0.30580000  0.75310000  0.67620000  1.0 -0.2604460533
N  N39  1  0.48440000  0.82130000  0.85800000  1.0 -0.2283550337
N  N40  1  0.28450000  0.69850000  0.73450000  1.0 -0.2194901329
N  N41  1  0.07600000  0.59100000  0.84457000  1.0 -0.2501874477
N  N42  1  0.69290000  0.83200000  0.62527000  1.0 -0.2604460533
N  N43  1  0.04310000  0.34660000  0.88309000  1.0 -0.2419840897
N  N44  1  0.58490000  0.78180000  0.58626000  1.0 -0.2767323768
N  N45  1  0.57480000  0.81470000  0.65367000  1.0 -0.2604460533
N  N46  1  0.07480000  0.65530000  0.90928000  1.0 -0.2694326143
N  N47  1  0.01740000  0.69280000  0.79695000  1.0 -0.2501874477
N  N48  1  0.81990000  0.83320000  0.68082000  1.0 -0.2604460533
N  N49  1  0.48080000  0.72020000  0.62837000  1.0 -0.2604460533
N  N50  1  0.02550000  0.76310000  0.86447000  1.0 -0.2604460533
N  N51  1  0.92140000  0.77580000  0.73723000  1.0 -0.2939581251
N  N52  1  0.08670000  0.45930000  0.87628000  1.0 -0.2501874477
N  N53  1  0.92450000  0.84050000  0.80419000  1.0 -0.2501874477
N  N54  1  0.42520000  0.60850000  0.62240000  1.0 -0.2604460533
N  N55  1  0.07590000  0.52230000  0.93769000  1.0 -0.2501874477
N  N56  1  0.45760000  0.56180000  0.56758000  1.0 -0.2694326143
N  N57  1  0.49520000  0.68200000  0.56326000  1.0 -0.2501874477
N  N58  1  0.43180000  0.47470000  0.65130000  1.0 -0.2419840897
N  N59  1  0.92860000  0.31940000  0.91722000  1.0 -0.2283550337
N  N60  1  0.95150000  0.25230000  0.86234000  1.0 -0.2419840897
N  N61  1  0.81180000  0.86790000  0.74971000  1.0 -0.2694326143
N  N62  1  0.68420000  0.86420000  0.69399000  1.0 -0.2501874477
N  N63  1  0.02130000  0.41300000  0.93877000  1.0 -0.2604460533
N  N64  1  0.46560000  0.42830000  0.59700000  1.0 -0.2419840897
N  N65  1  0.82100000  0.26510000  0.87880000  1.0 -0.2194901329
N  N66  1  0.84280000  0.20060000  0.82290000  1.0 -0.2283550337
N  N67  1  0.58730000  0.29180000  0.76320000  1.0 -0.2283550337
N  N68  1  0.61000000  0.23750000  0.70500000  1.0 -0.2194901329
N  N69  1  0.49130000  0.37300000  0.69990000  1.0 -0.2501874477
N  N70  1  0.69420000  0.25310000  0.82380000  1.0 -0.2604460533
N  N71  1  0.51560000  0.32130000  0.64200000  1.0 -0.2283550337
N  N72  1  0.71550000  0.19850000  0.76550000  1.0 -0.2194901329
N  N73  1  0.07600000  0.90900000  0.34457000  1.0 -0.2501874477
N  N74  1  0.69290000  0.66800000  0.12527000  1.0 -0.2604460533
N  N75  1  0.04310000  0.15340000  0.38309000  1.0 -0.2419840897
N  N76  1  0.58490000  0.71820000  0.08626000  1.0 -0.2767323768
N  N77  1  0.57480000  0.68530000  0.15367000  1.0 -0.2604460533
N  N78  1  0.07480000  0.84470000  0.40928000  1.0 -0.2694326143
N  N79  1  0.01740000  0.80720000  0.29695000  1.0 -0.2501874477
N  N80  1  0.81990000  0.66680000  0.18082000  1.0 -0.2604460533
N  N81  1  0.48080000  0.77980000  0.12837000  1.0 -0.2604460533
N  N82  1  0.02550000  0.73690000  0.36447000  1.0 -0.2604460533
N  N83  1  0.92140000  0.72420000  0.23723000  1.0 -0.2939581251
N  N84  1  0.08670000  0.04070000  0.37628000  1.0 -0.2501874477
N  N85  1  0.92450000  0.65950000  0.30419000  1.0 -0.2501874477
N  N86  1  0.42520000  0.89150000  0.12240000  1.0 -0.2501874477
N  N87  1  0.07590000  0.97770000  0.43769000  1.0 -0.2501874477
N  N88  1  0.45760000  0.93820000  0.06758000  1.0 -0.2767323768
N  N89  1  0.49520000  0.81800000  0.06326000  1.0 -0.2501874477
N  N90  1  0.43180000  0.02530000  0.15130000  1.0 -0.2419840897
N  N91  1  0.92860000  0.18060000  0.41722000  1.0 -0.2283550337
N  N92  1  0.95150000  0.24770000  0.36234000  1.0 -0.2419840897
N  N93  1  0.81180000  0.63210000  0.24971000  1.0 -0.2694326143
N  N94  1  0.68420000  0.63580000  0.19399000  1.0 -0.2501874477
N  N95  1  0.02130000  0.08700000  0.43877000  1.0 -0.2694326143
N  N96  1  0.46560000  0.07170000  0.09700000  1.0 -0.2419840897
N  N97  1  0.82100000  0.23490000  0.37880000  1.0 -0.2194901329
N  N98  1  0.84280000  0.29940000  0.32290000  1.0 -0.2283550337
N  N99  1  0.58730000  0.20820000  0.26320000  1.0 -0.2283550337
N  N100  1  0.61000000  0.26250000  0.20500000  1.0 -0.2194901329
N  N101  1  0.49130000  0.12700000  0.19990000  1.0 -0.2501874477
N  N102  1  0.69420000  0.24690000  0.32380000  1.0 -0.2604460533
N  N103  1  0.51560000  0.17870000  0.14200000  1.0 -0.2283550337
N  N104  1  0.71550000  0.30150000  0.26550000  1.0 -0.2194901329
N  N105  1  0.92400000  0.40900000  0.15543000  1.0 -0.2501874477
N  N106  1  0.30710000  0.16800000  0.37473000  1.0 -0.2604460533
N  N107  1  0.95690000  0.65340000  0.11691000  1.0 -0.2419840897
N  N108  1  0.41510000  0.21820000  0.41374000  1.0 -0.2767323768
N  N109  1  0.42520000  0.18530000  0.34633000  1.0 -0.2604460533
N  N110  1  0.92520000  0.34470000  0.09072000  1.0 -0.2604460533
N  N111  1  0.98260000  0.30720000  0.20305000  1.0 -0.2501874477
N  N112  1  0.18010000  0.16680000  0.31918000  1.0 -0.2604460533
N  N113  1  0.51920000  0.27980000  0.37163000  1.0 -0.2604460533
N  N114  1  0.97450000  0.23690000  0.13553000  1.0 -0.2604460533
N  N115  1  0.07860000  0.22420000  0.26277000  1.0 -0.2939581251
N  N116  1  0.91330000  0.54070000  0.12372000  1.0 -0.2501874477
N  N117  1  0.07550000  0.15950000  0.19581000  1.0 -0.2501874477
N  N118  1  0.57480000  0.39150000  0.37760000  1.0 -0.2604460533
N  N119  1  0.92410000  0.47770000  0.06231000  1.0 -0.2501874477
N  N120  1  0.54240000  0.43820000  0.43242000  1.0 -0.2694326143
N  N121  1  0.50480000  0.31800000  0.43674000  1.0 -0.2501874477
N  N122  1  0.56820000  0.52530000  0.34870000  1.0 -0.2419840897
N  N123  1  0.07140000  0.68060000  0.08278000  1.0 -0.2283550337
N  N124  1  0.04850000  0.74770000  0.13766000  1.0 -0.2419840897
N  N125  1  0.18820000  0.13210000  0.25029000  1.0 -0.2694326143
N  N126  1  0.31580000  0.13580000  0.30601000  1.0 -0.2501874477
N  N127  1  0.97870000  0.58700000  0.06123000  1.0 -0.2604460533
N  N128  1  0.53440000  0.57170000  0.40300000  1.0 -0.2419840897
N  N129  1  0.17900000  0.73490000  0.12120000  1.0 -0.2194901329
N  N130  1  0.15720000  0.79940000  0.17710000  1.0 -0.2283550337
N  N131  1  0.41270000  0.70820000  0.23680000  1.0 -0.2283550337
N  N132  1  0.39000000  0.76250000  0.29500000  1.0 -0.2146344906
N  N133  1  0.50870000  0.62700000  0.30010000  1.0 -0.2501874477
N  N134  1  0.30580000  0.74690000  0.17620000  1.0 -0.2604460533
N  N135  1  0.48440000  0.67870000  0.35800000  1.0 -0.2283550337
N  N136  1  0.28450000  0.80150000  0.23450000  1.0 -0.2194901329
O  O1  1  0.27330000  0.53970000  0.01087000  1.0 -0.5945689952
O  O2  1  0.72670000  0.03970000  0.48913000  1.0 -0.5991317904
O  O3  1  0.72670000  0.46030000  0.98913000  1.0 -0.5991317904
O  O4  1  0.27330000  0.96030000  0.51087000  1.0 -0.5991317904
O  O5  1  0.27282000  0.82800000  0.46532000  1.0 -0.5991317904
O  O6  1  0.72718000  0.32800000  0.03468000  1.0 -0.5991317904
O  O7  1  0.72718000  0.17200000  0.53468000  1.0 -0.5991317904
O  O8  1  0.27282000  0.67200000  0.96532000  1.0 -0.5991317904
O  O9  1  0.34600000  0.44010000  0.02960000  1.0 -0.5718402541
O  O10  1  0.65400000  0.94010000  0.47040000  1.0 -0.5718402541
O  O11  1  0.65400000  0.55990000  0.97040000  1.0 -0.5718402541
O  O12  1  0.34600000  0.05990000  0.52960000  1.0 -0.5718402541
O  O13  1  0.55510000  0.94970000  0.48770000  1.0 -0.5498018473
O  O14  1  0.44490000  0.44970000  0.01230000  1.0 -0.5378069109
O  O15  1  0.44490000  0.05030000  0.51230000  1.0 -0.5498018473
O  O16  1  0.55510000  0.55030000  0.98770000  1.0 -0.5498018473
O  O17  1  0.35410000  0.81910000  0.44995000  1.0 -0.5498018473
O  O18  1  0.64590000  0.31910000  0.05005000  1.0 -0.5498018473
O  O19  1  0.64590000  0.18090000  0.55005000  1.0 -0.5551806962
O  O20  1  0.35410000  0.68090000  0.94995000  1.0 -0.5551806962
O  O21  1  0.45020000  0.91630000  0.47250000  1.0 -0.5498018473
O  O22  1  0.54980000  0.41630000  0.02750000  1.0 -0.5498018473
O  O23  1  0.54980000  0.08370000  0.52750000  1.0 -0.5498018473
O  O24  1  0.45020000  0.58370000  0.97250000  1.0 -0.5498018473
O  O25  1  0.01100000  0.03430000  0.54765000  1.0 -0.5154563463
O  O26  1  0.98930000  0.23650000  0.57330000  1.0 -0.5309212887
O  O27  1  0.33720000  0.23810000  0.93273000  1.0 -0.5309212887
O  O28  1  0.99440000  0.07090000  0.73827000  1.0 -0.5378069109
O  O29  1  0.14090000  0.22760000  0.84151000  1.0 -0.5124485171
O  O30  1  0.46280000  0.07260000  0.95501000  1.0 -0.5154563463
O  O31  1  0.36230000  0.32100000  0.76326000  1.0 -0.5309212887
O  O32  1  0.97110000  0.87530000  0.68931000  1.0 -0.5124485171
O  O33  1  0.15000000  0.35320000  0.66999000  1.0 -0.5309212887
O  O34  1  0.52450000  0.98560000  0.76756000  1.0 -0.4951348579
O  O35  1  0.52350000  0.17980000  0.80708000  1.0 -0.5154563463
O  O36  1  0.10350000  0.71700000  0.71815000  1.0 -0.5124485171
O  O37  1  0.44970000  0.86350000  0.90750000  1.0 -0.4941387501
O  O38  1  0.15700000  0.87830000  0.57620000  1.0 -0.5309212887
O  O39  1  0.36120000  0.85590000  0.66330000  1.0 -0.5309212887
O  O40  1  0.30350000  0.72150000  0.80930000  1.0 -0.5124485171
O  O41  1  0.98900000  0.53430000  0.95235000  1.0 -0.5154563463
O  O42  1  0.01070000  0.73650000  0.92670000  1.0 -0.5309212887
O  O43  1  0.66280000  0.73810000  0.56727000  1.0 -0.5309212887
O  O44  1  0.00560000  0.57090000  0.76173000  1.0 -0.5378069109
O  O45  1  0.85910000  0.72760000  0.65849000  1.0 -0.5124485171
O  O46  1  0.53720000  0.57260000  0.54499000  1.0 -0.5154563463
O  O47  1  0.63770000  0.82100000  0.73674000  1.0 -0.5309212887
O  O48  1  0.02890000  0.37530000  0.81069000  1.0 -0.5124485171
O  O49  1  0.85000000  0.85320000  0.83001000  1.0 -0.5309212887
O  O50  1  0.47550000  0.48560000  0.73244000  1.0 -0.4951348579
O  O51  1  0.47650000  0.67980000  0.69292000  1.0 -0.5154563463
O  O52  1  0.89650000  0.21700000  0.78185000  1.0 -0.5124485171
O  O53  1  0.55030000  0.36350000  0.59250000  1.0 -0.4941387501
O  O54  1  0.84300000  0.37830000  0.92380000  1.0 -0.5309212887
O  O55  1  0.63880000  0.35590000  0.83670000  1.0 -0.5309212887
O  O56  1  0.69650000  0.22150000  0.69070000  1.0 -0.5124485171
O  O57  1  0.98900000  0.96570000  0.45235000  1.0 -0.5124485171
O  O58  1  0.01070000  0.76350000  0.42670000  1.0 -0.5309212887
O  O59  1  0.66280000  0.76190000  0.06727000  1.0 -0.5309212887
O  O60  1  0.00560000  0.92910000  0.26173000  1.0 -0.5378069109
O  O61  1  0.85910000  0.77240000  0.15849000  1.0 -0.5124485171
O  O62  1  0.53720000  0.92740000  0.04499000  1.0 -0.5154563463
O  O63  1  0.63770000  0.67900000  0.23674000  1.0 -0.5309212887
O  O64  1  0.02890000  0.12470000  0.31069000  1.0 -0.5124485171
O  O65  1  0.85000000  0.64680000  0.33001000  1.0 -0.5309212887
O  O66  1  0.47550000  0.01440000  0.23244000  1.0 -0.4941387501
O  O67  1  0.47650000  0.82020000  0.19292000  1.0 -0.5124485171
O  O68  1  0.89650000  0.28300000  0.28185000  1.0 -0.5124485171
O  O69  1  0.55030000  0.13650000  0.09250000  1.0 -0.4941387501
O  O70  1  0.84300000  0.12170000  0.42380000  1.0 -0.5309212887
O  O71  1  0.63880000  0.14410000  0.33670000  1.0 -0.5309212887
O  O72  1  0.69650000  0.27850000  0.19070000  1.0 -0.5124485171
O  O73  1  0.01100000  0.46570000  0.04765000  1.0 -0.5154563463
O  O74  1  0.98930000  0.26350000  0.07330000  1.0 -0.5309212887
O  O75  1  0.33720000  0.26190000  0.43273000  1.0 -0.5309212887
O  O76  1  0.99440000  0.42910000  0.23827000  1.0 -0.5309212887
O  O77  1  0.14090000  0.27240000  0.34151000  1.0 -0.5124485171
O  O78  1  0.46280000  0.42740000  0.45501000  1.0 -0.5154563463
O  O79  1  0.36230000  0.17900000  0.26326000  1.0 -0.5309212887
O  O80  1  0.97110000  0.62470000  0.18931000  1.0 -0.5124485171
O  O81  1  0.15000000  0.14680000  0.16999000  1.0 -0.5309212887
O  O82  1  0.52450000  0.51440000  0.26756000  1.0 -0.4941387501
O  O83  1  0.52350000  0.32020000  0.30708000  1.0 -0.5154563463
O  O84  1  0.10350000  0.78300000  0.21815000  1.0 -0.5124485171
O  O85  1  0.44970000  0.63650000  0.40750000  1.0 -0.4941387501
O  O86  1  0.15700000  0.62170000  0.07620000  1.0 -0.5309212887
O  O87  1  0.36120000  0.64410000  0.16330000  1.0 -0.5309212887
O  O88  1  0.30350000  0.77850000  0.30930000  1.0 -0.5124485171
