# DDEC6 charges by PACMAN v1.1 (https://github.com/mtap-research/PACMAN-charge/)
data_LINTOV08_ASR_pacman
_symmetry_space_group_name_H-M   'P 1'
_cell_length_a   22.66050000
_cell_length_b   17.09720000
_cell_length_c   33.22900000
_cell_angle_alpha   90.00000000
_cell_angle_beta   123.74000000
_cell_angle_gamma   90.00000000
_symmetry_Int_Tables_number   1
_chemical_formula_structural   UH68C75(N17O11)2
_chemical_formula_sum   'U4 H272 C300 N136 O88'
_cell_volume   10705.54475031
_cell_formula_units_Z   4
loop_
 _symmetry_equiv_pos_site_id
 _symmetry_equiv_pos_as_xyz
  1  'x, y, z'
loop_
 _atom_site_type_symbol
 _atom_site_label
 _atom_site_symmetry_multiplicity
 _atom_site_fract_x
 _atom_site_fract_y
 _atom_site_fract_z
 _atom_site_occupancy
 _atom_site_charge
U  U1  1  0.64722000  0.05495000  0.52269000  1.0 1.9067061112
U  U2  1  0.35278000  0.55495000  0.97731000  1.0 1.9067061112
U  U3  1  0.35278000  0.94505000  0.47731000  1.0 1.9067061112
U  U4  1  0.64722000  0.44505000  0.02269000  1.0 1.9067061112
H  H1  1  0.62119000  0.45244000  0.56719000  1.0 0.1392392412
H  H2  1  0.37881000  0.95244000  0.93281000  1.0 0.1392392412
H  H3  1  0.37881000  0.54756000  0.43281000  1.0 0.1392392412
H  H4  1  0.62119000  0.04756000  0.06719000  1.0 0.1392392412
H  H5  1  0.79389000  0.47944000  0.95468000  1.0 0.1277780471
H  H6  1  0.20611000  0.97944000  0.54532000  1.0 0.1277780471
H  H7  1  0.20611000  0.52056000  0.04532000  1.0 0.1277780471
H  H8  1  0.79389000  0.02056000  0.45468000  1.0 0.1277780471
H  H9  1  0.85434000  0.54261000  0.92821000  1.0 0.1392392412
H  H10  1  0.14566000  0.04261000  0.57179000  1.0 0.1392392412
H  H11  1  0.14566000  0.45739000  0.07179000  1.0 0.1392392412
H  H12  1  0.85434000  0.95739000  0.42821000  1.0 0.1392392412
H  H13  1  0.80469000  0.44590000  0.57108000  1.0 0.1277780471
H  H14  1  0.19531000  0.94590000  0.92892000  1.0 0.1277780471
H  H15  1  0.19531000  0.55410000  0.42892000  1.0 0.1277780471
H  H16  1  0.80469000  0.05410000  0.07108000  1.0 0.1277780471
H  H17  1  0.67100000  0.62447000  0.68576000  1.0 0.1392392412
H  H18  1  0.32900000  0.12447000  0.81424000  1.0 0.1392392412
H  H19  1  0.32900000  0.37553000  0.31424000  1.0 0.1392392412
H  H20  1  0.67100000  0.87553000  0.18576000  1.0 0.1392392412
H  H21  1  0.77202000  0.74555000  0.93042000  1.0 0.1180846765
H  H22  1  0.22798000  0.24555000  0.56958000  1.0 0.1180846765
H  H23  1  0.22798000  0.25445000  0.06958000  1.0 0.1180846765
H  H24  1  0.77202000  0.75445000  0.43042000  1.0 0.1180846765
H  H25  1  0.64066000  0.59609000  0.61020000  1.0 0.1180846765
H  H26  1  0.35934000  0.09609000  0.88980000  1.0 0.1180846765
H  H27  1  0.35934000  0.40391000  0.38980000  1.0 0.1180846765
H  H28  1  0.64066000  0.90391000  0.11020000  1.0 0.1180846765
H  H29  1  0.83643000  0.55795000  0.65439000  1.0 0.1180846765
H  H30  1  0.16357000  0.05795000  0.84561000  1.0 0.1180846765
H  H31  1  0.16357000  0.44205000  0.34561000  1.0 0.1180846765
H  H32  1  0.83643000  0.94205000  0.15439000  1.0 0.1180846765
H  H33  1  0.74849000  0.72445000  0.83108000  1.0 0.1277780471
H  H34  1  0.25151000  0.22445000  0.66892000  1.0 0.1277780471
H  H35  1  0.25151000  0.27555000  0.16892000  1.0 0.1277780471
H  H36  1  0.74849000  0.77555000  0.33108000  1.0 0.1277780471
H  H37  1  0.79901000  0.31143000  0.57066000  1.0 0.1180846765
H  H38  1  0.20099000  0.81143000  0.92934000  1.0 0.1180846765
H  H39  1  0.20099000  0.68857000  0.42934000  1.0 0.1180846765
H  H40  1  0.79901000  0.18857000  0.07066000  1.0 0.1180846765
H  H41  1  0.92424000  0.60629000  0.88267000  1.0 0.1111841848
H  H42  1  0.07576000  0.10629000  0.61733000  1.0 0.1111841848
H  H43  1  0.07576000  0.39371000  0.11733000  1.0 0.1111841848
H  H44  1  0.92424000  0.89371000  0.38267000  1.0 0.1111841848
H  H45  1  0.75538000  0.57010000  0.57320000  1.0 0.1277780471
H  H46  1  0.24462000  0.07010000  0.92680000  1.0 0.1277780471
H  H47  1  0.24462000  0.42990000  0.42680000  1.0 0.1277780471
H  H48  1  0.75538000  0.92990000  0.07320000  1.0 0.1277780471
H  H49  1  0.67308000  0.57270000  0.55382000  1.0 0.1392392412
H  H50  1  0.32692000  0.07270000  0.94618000  1.0 0.1392392412
H  H51  1  0.32692000  0.42730000  0.44618000  1.0 0.1392392412
H  H52  1  0.67308000  0.92730000  0.05382000  1.0 0.1392392412
H  H53  1  0.61079000  0.32075000  0.55558000  1.0 0.1277780471
H  H54  1  0.38921000  0.82075000  0.94442000  1.0 0.1277780471
H  H55  1  0.38921000  0.67925000  0.44442000  1.0 0.1277780471
H  H56  1  0.61079000  0.17925000  0.05558000  1.0 0.1277780471
H  H57  1  0.87525000  0.58426000  0.73526000  1.0 0.1392392412
H  H58  1  0.12475000  0.08426000  0.76474000  1.0 0.1392392412
H  H59  1  0.12475000  0.41574000  0.26474000  1.0 0.1392392412
H  H60  1  0.87525000  0.91574000  0.23526000  1.0 0.1392392412
H  H61  1  0.70534000  0.68385000  0.95491000  1.0 0.1277780471
H  H62  1  0.29466000  0.18385000  0.54509000  1.0 0.1180846765
H  H63  1  0.29466000  0.31615000  0.04509000  1.0 0.1277780471
H  H64  1  0.70534000  0.81615000  0.45491000  1.0 0.1277780471
H  H65  1  0.70659000  0.69279000  0.75394000  1.0 0.1392392412
H  H66  1  0.29341000  0.19279000  0.74606000  1.0 0.1392392412
H  H67  1  0.29341000  0.30721000  0.24606000  1.0 0.1392392412
H  H68  1  0.70659000  0.80721000  0.25394000  1.0 0.1392392412
H  H69  1  0.85317000  0.75066000  0.91159000  1.0 0.1392392412
H  H70  1  0.14683000  0.25066000  0.58841000  1.0 0.1392392412
H  H71  1  0.14683000  0.24934000  0.08841000  1.0 0.1392392412
H  H72  1  0.85317000  0.74934000  0.41159000  1.0 0.1392392412
H  H73  1  0.91136000  0.68225000  0.93460000  1.0 0.1392392412
H  H74  1  0.08864000  0.18225000  0.56540000  1.0 0.1392392412
H  H75  1  0.08864000  0.31775000  0.06540000  1.0 0.1392392412
H  H76  1  0.91136000  0.81775000  0.43460000  1.0 0.1392392412
H  H77  1  0.89045000  0.57684000  0.80410000  1.0 0.1392392412
H  H78  1  0.10955000  0.07684000  0.69590000  1.0 0.1392392412
H  H79  1  0.10955000  0.42316000  0.19590000  1.0 0.1392392412
H  H80  1  0.89045000  0.92316000  0.30410000  1.0 0.1392392412
H  H81  1  0.95305000  0.61683000  0.25944000  1.0 0.0998091594
H  H82  1  0.15141000  0.84117000  0.39435000  1.0 0.0998091594
H  H83  1  0.48945000  0.71994000  0.02995000  1.0 0.0998091594
H  H84  1  0.53616000  0.78763000  0.02790000  1.0 0.1180846765
H  H85  1  0.15471000  0.90174000  0.46398000  1.0 0.1180846765
H  H86  1  0.09344000  0.87548000  0.47137000  1.0 0.1180846765
H  H87  1  0.02891000  0.72403000  0.26336000  1.0 0.1111841848
H  H88  1  0.99009000  0.79800000  0.22920000  1.0 0.1111841848
H  H89  1  0.40470000  0.76302000  0.05278000  1.0 0.0815157996
H  H90  1  0.09695000  0.73541000  0.34767000  1.0 0.0884229883
H  H91  1  0.98354000  0.65217000  0.37554000  1.0 0.1111841848
H  H92  1  0.02513000  0.63006000  0.35093000  1.0 0.0884229883
H  H93  1  0.76215000  0.68305000  0.10786000  1.0 0.1111841848
H  H94  1  0.75703000  0.59946000  0.12732000  1.0 0.0815157996
H  H95  1  0.96660000  0.09758000  0.46759000  1.0 0.1180846765
H  H96  1  0.01645000  0.16984000  0.47601000  1.0 0.0998091594
H  H97  1  0.66331000  0.57794000  0.13774000  1.0 0.0884229883
H  H98  1  0.04541000  0.26393000  0.40053000  1.0 0.0998091594
H  H99  1  0.01350000  0.25320000  0.34434000  1.0 0.1180846765
H  H100  1  0.46908000  0.66649000  0.11698000  1.0 0.0998091594
H  H101  1  0.50448000  0.69377000  0.17157000  1.0 0.1111841848
H  H102  1  0.55156000  0.62079000  0.09384000  1.0 0.0884229883
H  H103  1  0.38127000  0.01502000  0.03456000  1.0 0.0884229883
H  H104  1  0.45103000  0.03151000  0.03515000  1.0 0.1180846765
H  H105  1  0.15828000  0.97944000  0.37947000  1.0 0.0998091594
H  H106  1  0.10208000  0.01252000  0.32662000  1.0 0.0998091594
H  H107  1  0.85080000  0.33367000  0.37944000  1.0 0.0884229883
H  H108  1  0.96064000  0.28647000  0.42367000  1.0 0.0884229883
H  H109  1  0.74318000  0.54979000  0.22329000  1.0 0.0884229883
H  H110  1  0.73788000  0.60213000  0.26117000  1.0 0.1111841848
H  H111  1  0.10871000  0.15242000  0.45291000  1.0 0.0884229883
H  H112  1  0.84307000  0.57352000  0.21381000  1.0 0.0815157996
H  H113  1  0.15364000  0.04170000  0.44401000  1.0 0.0884229883
H  H114  1  0.35984000  0.88431000  0.04649000  1.0 0.0884229883
H  H115  1  0.74818000  0.30105000  0.38227000  1.0 0.0884229883
H  H116  1  0.74262000  0.21091000  0.39282000  1.0 0.1180846765
H  H117  1  0.66562000  0.34774000  0.29484000  1.0 0.0884229883
H  H118  1  0.56218000  0.25844000  0.13570000  1.0 0.1180846765
H  H119  1  0.50872000  0.28816000  0.14938000  1.0 0.0998091594
H  H120  1  0.33673000  0.96050000  0.10508000  1.0 0.0884229883
H  H121  1  0.38029000  0.92765000  0.15940000  1.0 0.1111841848
H  H122  1  0.77916000  0.34556000  0.25651000  1.0 0.1180846765
H  H123  1  0.76935000  0.37821000  0.29740000  1.0 0.0998091594
H  H124  1  0.36629000  0.09234000  0.08809000  1.0 0.0815157996
H  H125  1  0.55681000  0.30833000  0.23865000  1.0 0.0998091594
H  H126  1  0.42324000  0.19516000  0.14551000  1.0 0.0884229883
H  H127  1  0.47462000  0.21304000  0.23409000  1.0 0.0998091594
H  H128  1  0.50877000  0.13685000  0.26761000  1.0 0.1111841848
H  H129  1  0.04695000  0.11683000  0.24056000  1.0 0.0998091594
H  H130  1  0.84859000  0.34117000  0.10565000  1.0 0.0998091594
H  H131  1  0.51055000  0.21994000  0.47005000  1.0 0.0998091594
H  H132  1  0.46384000  0.28763000  0.47210000  1.0 0.1180846765
H  H133  1  0.84529000  0.40174000  0.03602000  1.0 0.1180846765
H  H134  1  0.90656000  0.37548000  0.02863000  1.0 0.1180846765
H  H135  1  0.97109000  0.22403000  0.23664000  1.0 0.1111841848
H  H136  1  0.00991000  0.29800000  0.27080000  1.0 0.1111841848
H  H137  1  0.59530000  0.26302000  0.44722000  1.0 0.0815157996
H  H138  1  0.90305000  0.23541000  0.15233000  1.0 0.0884229883
H  H139  1  0.01646000  0.15217000  0.12446000  1.0 0.1111841848
H  H140  1  0.97487000  0.13006000  0.14907000  1.0 0.0884229883
H  H141  1  0.23785000  0.18305000  0.39214000  1.0 0.1111841848
H  H142  1  0.24297000  0.09946000  0.37268000  1.0 0.0815157996
H  H143  1  0.03340000  0.59758000  0.03241000  1.0 0.1180846765
H  H144  1  0.98355000  0.66984000  0.02399000  1.0 0.0998091594
H  H145  1  0.33669000  0.07794000  0.36226000  1.0 0.0884229883
H  H146  1  0.95459000  0.76393000  0.09947000  1.0 0.0998091594
H  H147  1  0.98650000  0.75320000  0.15566000  1.0 0.1180846765
H  H148  1  0.53092000  0.16649000  0.38302000  1.0 0.0998091594
H  H149  1  0.49552000  0.19377000  0.32843000  1.0 0.1111841848
H  H150  1  0.44844000  0.12079000  0.40616000  1.0 0.0884229883
H  H151  1  0.61873000  0.51502000  0.46544000  1.0 0.0884229883
H  H152  1  0.54897000  0.53151000  0.46485000  1.0 0.1180846765
H  H153  1  0.84172000  0.47944000  0.12053000  1.0 0.0998091594
H  H154  1  0.89792000  0.51252000  0.17338000  1.0 0.0998091594
H  H155  1  0.14920000  0.83367000  0.12056000  1.0 0.0884229883
H  H156  1  0.03936000  0.78647000  0.07633000  1.0 0.0884229883
H  H157  1  0.25682000  0.04979000  0.27671000  1.0 0.0884229883
H  H158  1  0.26212000  0.10213000  0.23883000  1.0 0.1111841848
H  H159  1  0.89129000  0.65242000  0.04709000  1.0 0.0884229883
H  H160  1  0.15693000  0.07352000  0.28619000  1.0 0.0815157996
H  H161  1  0.84636000  0.54170000  0.05599000  1.0 0.0884229883
H  H162  1  0.64016000  0.38431000  0.45351000  1.0 0.0884229883
H  H163  1  0.25182000  0.80105000  0.11773000  1.0 0.0884229883
H  H164  1  0.25738000  0.71091000  0.10718000  1.0 0.1180846765
H  H165  1  0.33438000  0.84774000  0.20516000  1.0 0.0884229883
H  H166  1  0.43782000  0.75844000  0.36430000  1.0 0.1180846765
H  H167  1  0.49128000  0.78816000  0.35062000  1.0 0.0998091594
H  H168  1  0.66327000  0.46050000  0.39492000  1.0 0.0884229883
H  H169  1  0.61971000  0.42765000  0.34060000  1.0 0.1111841848
H  H170  1  0.22084000  0.84556000  0.24349000  1.0 0.1180846765
H  H171  1  0.23065000  0.87821000  0.20260000  1.0 0.0998091594
H  H172  1  0.63371000  0.59234000  0.41191000  1.0 0.0815157996
H  H173  1  0.44319000  0.80833000  0.26135000  1.0 0.0998091594
H  H174  1  0.57676000  0.69516000  0.35449000  1.0 0.0884229883
H  H175  1  0.52538000  0.71304000  0.26591000  1.0 0.0998091594
H  H176  1  0.49123000  0.63685000  0.23239000  1.0 0.1111841848
H  H177  1  0.04695000  0.38317000  0.74056000  1.0 0.0998091594
H  H178  1  0.84859000  0.15883000  0.60565000  1.0 0.0998091594
H  H179  1  0.51055000  0.28006000  0.97005000  1.0 0.0998091594
H  H180  1  0.46384000  0.21237000  0.97210000  1.0 0.1180846765
H  H181  1  0.84529000  0.09826000  0.53602000  1.0 0.1180846765
H  H182  1  0.90656000  0.12452000  0.52863000  1.0 0.1180846765
H  H183  1  0.97109000  0.27597000  0.73664000  1.0 0.1111841848
H  H184  1  0.00991000  0.20200000  0.77080000  1.0 0.1111841848
H  H185  1  0.59530000  0.23698000  0.94722000  1.0 0.0815157996
H  H186  1  0.90305000  0.26459000  0.65233000  1.0 0.0884229883
H  H187  1  0.01646000  0.34783000  0.62446000  1.0 0.1111841848
H  H188  1  0.97487000  0.36994000  0.64907000  1.0 0.0884229883
H  H189  1  0.23785000  0.31695000  0.89214000  1.0 0.1111841848
H  H190  1  0.24297000  0.40054000  0.87268000  1.0 0.0815157996
H  H191  1  0.03340000  0.90242000  0.53241000  1.0 0.1180846765
H  H192  1  0.98355000  0.83016000  0.52399000  1.0 0.0998091594
H  H193  1  0.33669000  0.42206000  0.86226000  1.0 0.0884229883
H  H194  1  0.95459000  0.73607000  0.59947000  1.0 0.0998091594
H  H195  1  0.98650000  0.74680000  0.65566000  1.0 0.1180846765
H  H196  1  0.53092000  0.33351000  0.88302000  1.0 0.0998091594
H  H197  1  0.49552000  0.30623000  0.82843000  1.0 0.1111841848
H  H198  1  0.44844000  0.37921000  0.90616000  1.0 0.0884229883
H  H199  1  0.61873000  0.98498000  0.96544000  1.0 0.0884229883
H  H200  1  0.54897000  0.96849000  0.96485000  1.0 0.1180846765
H  H201  1  0.84172000  0.02056000  0.62053000  1.0 0.0998091594
H  H202  1  0.89792000  0.98748000  0.67338000  1.0 0.0998091594
H  H203  1  0.14920000  0.66633000  0.62056000  1.0 0.0884229883
H  H204  1  0.03936000  0.71353000  0.57633000  1.0 0.0884229883
H  H205  1  0.25682000  0.45021000  0.77671000  1.0 0.0884229883
H  H206  1  0.26212000  0.39787000  0.73883000  1.0 0.1111841848
H  H207  1  0.89129000  0.84758000  0.54709000  1.0 0.0884229883
H  H208  1  0.15693000  0.42648000  0.78619000  1.0 0.0815157996
H  H209  1  0.84636000  0.95830000  0.55599000  1.0 0.0884229883
H  H210  1  0.64016000  0.11569000  0.95351000  1.0 0.0884229883
H  H211  1  0.25182000  0.69895000  0.61773000  1.0 0.0884229883
H  H212  1  0.25738000  0.78909000  0.60718000  1.0 0.1180846765
H  H213  1  0.33438000  0.65226000  0.70516000  1.0 0.0884229883
H  H214  1  0.43782000  0.74156000  0.86430000  1.0 0.1180846765
H  H215  1  0.49128000  0.71184000  0.85062000  1.0 0.0998091594
H  H216  1  0.66327000  0.03950000  0.89492000  1.0 0.0884229883
H  H217  1  0.61971000  0.07235000  0.84060000  1.0 0.1111841848
H  H218  1  0.22084000  0.65444000  0.74349000  1.0 0.1180846765
H  H219  1  0.23065000  0.62179000  0.70260000  1.0 0.0998091594
H  H220  1  0.63371000  0.90766000  0.91191000  1.0 0.0815157996
H  H221  1  0.44319000  0.69167000  0.76135000  1.0 0.0998091594
H  H222  1  0.57676000  0.80484000  0.85449000  1.0 0.0884229883
H  H223  1  0.52538000  0.78696000  0.76591000  1.0 0.0998091594
H  H224  1  0.49123000  0.86315000  0.73239000  1.0 0.1111841848
H  H225  1  0.95305000  0.88317000  0.75944000  1.0 0.0998091594
H  H226  1  0.15141000  0.65883000  0.89435000  1.0 0.0998091594
H  H227  1  0.48945000  0.78006000  0.52995000  1.0 0.0998091594
H  H228  1  0.53616000  0.71237000  0.52790000  1.0 0.1180846765
H  H229  1  0.15471000  0.59826000  0.96398000  1.0 0.1180846765
H  H230  1  0.09344000  0.62452000  0.97137000  1.0 0.1180846765
H  H231  1  0.02891000  0.77597000  0.76336000  1.0 0.1111841848
H  H232  1  0.99009000  0.70200000  0.72920000  1.0 0.1111841848
H  H233  1  0.40470000  0.73698000  0.55278000  1.0 0.0815157996
H  H234  1  0.09695000  0.76459000  0.84767000  1.0 0.0884229883
H  H235  1  0.98354000  0.84783000  0.87554000  1.0 0.1111841848
H  H236  1  0.02513000  0.86994000  0.85093000  1.0 0.0884229883
H  H237  1  0.76215000  0.81695000  0.60786000  1.0 0.1111841848
H  H238  1  0.75703000  0.90054000  0.62732000  1.0 0.0815157996
H  H239  1  0.96660000  0.40242000  0.96759000  1.0 0.1180846765
H  H240  1  0.01645000  0.33016000  0.97601000  1.0 0.0998091594
H  H241  1  0.66331000  0.92206000  0.63774000  1.0 0.0884229883
H  H242  1  0.04541000  0.23607000  0.90053000  1.0 0.0998091594
H  H243  1  0.01350000  0.24680000  0.84434000  1.0 0.1180846765
H  H244  1  0.46908000  0.83351000  0.61698000  1.0 0.0998091594
H  H245  1  0.50448000  0.80623000  0.67157000  1.0 0.1111841848
H  H246  1  0.55156000  0.87921000  0.59384000  1.0 0.0884229883
H  H247  1  0.38127000  0.48498000  0.53456000  1.0 0.0884229883
H  H248  1  0.45103000  0.46849000  0.53515000  1.0 0.1180846765
H  H249  1  0.15828000  0.52056000  0.87947000  1.0 0.0998091594
H  H250  1  0.10208000  0.48748000  0.82662000  1.0 0.0998091594
H  H251  1  0.85080000  0.16633000  0.87944000  1.0 0.0884229883
H  H252  1  0.96064000  0.21353000  0.92367000  1.0 0.0815157996
H  H253  1  0.74318000  0.95021000  0.72329000  1.0 0.0884229883
H  H254  1  0.73788000  0.89787000  0.76117000  1.0 0.1111841848
H  H255  1  0.10871000  0.34758000  0.95291000  1.0 0.0884229883
H  H256  1  0.84307000  0.92648000  0.71381000  1.0 0.0815157996
H  H257  1  0.15364000  0.45830000  0.94401000  1.0 0.0884229883
H  H258  1  0.35984000  0.61569000  0.54649000  1.0 0.0884229883
H  H259  1  0.74818000  0.19895000  0.88227000  1.0 0.0884229883
H  H260  1  0.74262000  0.28909000  0.89282000  1.0 0.1180846765
H  H261  1  0.66562000  0.15226000  0.79484000  1.0 0.0884229883
H  H262  1  0.56218000  0.24156000  0.63570000  1.0 0.1180846765
H  H263  1  0.50872000  0.21184000  0.64938000  1.0 0.0998091594
H  H264  1  0.33673000  0.53950000  0.60508000  1.0 0.0884229883
H  H265  1  0.38029000  0.57235000  0.65940000  1.0 0.1111841848
H  H266  1  0.77916000  0.15444000  0.75651000  1.0 0.1180846765
H  H267  1  0.76935000  0.12179000  0.79740000  1.0 0.0998091594
H  H268  1  0.36629000  0.40766000  0.58809000  1.0 0.0815157996
H  H269  1  0.55681000  0.19167000  0.73865000  1.0 0.0998091594
H  H270  1  0.42324000  0.30484000  0.64551000  1.0 0.0884229883
H  H271  1  0.47462000  0.28696000  0.73409000  1.0 0.0998091594
H  H272  1  0.50877000  0.36315000  0.76761000  1.0 0.1111841848
C  C1  1  0.70190000  0.30180000  0.55710000  1.0 -0.0787338752
C  C2  1  0.29810000  0.80180000  0.94290000  1.0 -0.0787338752
C  C3  1  0.29810000  0.69820000  0.44290000  1.0 -0.0787338752
C  C4  1  0.70190000  0.19820000  0.05710000  1.0 -0.0787338752
C  C5  1  0.68860000  0.22140000  0.55050000  1.0 0.4995577712
C  C6  1  0.31140000  0.72140000  0.94950000  1.0 0.4995577712
C  C7  1  0.31140000  0.77860000  0.44950000  1.0 0.4995577712
C  C8  1  0.68860000  0.27860000  0.05050000  1.0 0.4995577712
C  C9  1  0.81940000  0.65290000  0.92530000  1.0 0.0998091594
C  C10  1  0.18060000  0.15290000  0.57470000  1.0 0.0998091594
C  C11  1  0.18060000  0.34710000  0.07470000  1.0 0.0998091594
C  C12  1  0.81940000  0.84710000  0.42530000  1.0 0.0998091594
C  C13  1  0.71480000  0.46520000  0.57130000  1.0 0.0998091594
C  C14  1  0.28520000  0.96520000  0.92870000  1.0 0.0998091594
C  C15  1  0.28520000  0.53480000  0.42870000  1.0 0.0998091594
C  C16  1  0.71480000  0.03480000  0.07130000  1.0 0.0998091594
C  C17  1  0.65640000  0.42450000  0.56600000  1.0 -0.1344689897
C  C18  1  0.34360000  0.92450000  0.93400000  1.0 -0.1344689897
C  C19  1  0.34360000  0.57550000  0.43400000  1.0 -0.1344689897
C  C20  1  0.65640000  0.07550000  0.06600000  1.0 -0.1344689897
C  C21  1  0.79010000  0.53470000  0.95090000  1.0 -0.0537441953
C  C22  1  0.20990000  0.03470000  0.54910000  1.0 -0.0537441953
C  C23  1  0.20990000  0.46530000  0.04910000  1.0 -0.0537441953
C  C24  1  0.79010000  0.96530000  0.45090000  1.0 -0.0537441953
C  C25  1  0.75070000  0.57450000  0.96210000  1.0 -0.0787338752
C  C26  1  0.24930000  0.07450000  0.53790000  1.0 -0.0787338752
C  C27  1  0.24930000  0.42550000  0.03790000  1.0 -0.0787338752
C  C28  1  0.75070000  0.92550000  0.46210000  1.0 -0.0787338752
C  C29  1  0.82470000  0.57240000  0.93430000  1.0 -0.1573422554
C  C30  1  0.17530000  0.07240000  0.56570000  1.0 -0.1573422554
C  C31  1  0.17530000  0.42760000  0.06570000  1.0 -0.1573422554
C  C32  1  0.82470000  0.92760000  0.43430000  1.0 -0.1573422554
C  C33  1  0.76630000  0.42060000  0.56980000  1.0 -0.1812659023
C  C34  1  0.23370000  0.92060000  0.93020000  1.0 -0.1812659023
C  C35  1  0.23370000  0.57940000  0.43020000  1.0 -0.1812659023
C  C36  1  0.76630000  0.07940000  0.06980000  1.0 -0.1812659023
C  C37  1  0.79860000  0.63230000  0.77100000  1.0 0.1180846765
C  C38  1  0.20140000  0.13230000  0.72900000  1.0 0.1180846765
C  C39  1  0.20140000  0.36770000  0.22900000  1.0 0.1180846765
C  C40  1  0.79860000  0.86770000  0.27100000  1.0 0.1180846765
C  C41  1  0.77780000  0.61010000  0.71990000  1.0 0.1180846765
C  C42  1  0.22220000  0.11010000  0.78010000  1.0 0.1180846765
C  C43  1  0.22220000  0.38990000  0.28010000  1.0 0.1180846765
C  C44  1  0.77780000  0.88990000  0.21990000  1.0 0.1180846765
C  C45  1  0.70700000  0.61100000  0.68060000  1.0 -0.1909851671
C  C46  1  0.29300000  0.11100000  0.81940000  1.0 -0.1909851671
C  C47  1  0.29300000  0.38900000  0.31940000  1.0 -0.1909851671
C  C48  1  0.70700000  0.88900000  0.18060000  1.0 -0.1909851671
C  C49  1  0.77640000  0.69050000  0.93510000  1.0 -0.1812659023
C  C50  1  0.22360000  0.19050000  0.56490000  1.0 -0.1812659023
C  C51  1  0.22360000  0.30950000  0.06490000  1.0 -0.1812659023
C  C52  1  0.77640000  0.80950000  0.43510000  1.0 -0.1812659023
C  C53  1  0.68890000  0.59360000  0.63660000  1.0 -0.0070496325
C  C54  1  0.31110000  0.09360000  0.86340000  1.0 -0.0070496325
C  C55  1  0.31110000  0.40640000  0.36340000  1.0 -0.0070496325
C  C56  1  0.68890000  0.90640000  0.13660000  1.0 -0.0070496325
C  C57  1  0.80280000  0.57080000  0.66190000  1.0 0.0815157996
C  C58  1  0.19720000  0.07080000  0.83810000  1.0 0.0815157996
C  C59  1  0.19720000  0.42920000  0.33810000  1.0 0.0815157996
C  C60  1  0.80280000  0.92920000  0.16190000  1.0 0.0815157996
C  C61  1  0.77690000  0.69290000  0.82460000  1.0 0.0499990971
C  C62  1  0.22310000  0.19290000  0.67540000  1.0 0.0499990971
C  C63  1  0.22310000  0.30710000  0.17540000  1.0 0.0499990971
C  C64  1  0.77690000  0.80710000  0.32460000  1.0 0.0499990971
C  C65  1  0.76030000  0.34090000  0.56640000  1.0 -0.0787338752
C  C66  1  0.23970000  0.84090000  0.93360000  1.0 -0.0787338752
C  C67  1  0.23970000  0.65910000  0.43360000  1.0 -0.0787338752
C  C68  1  0.76030000  0.15910000  0.06640000  1.0 -0.0787338752
C  C69  1  0.88060000  0.62510000  0.85560000  1.0 0.0409839924
C  C70  1  0.11940000  0.12510000  0.64440000  1.0 0.0409839924
C  C71  1  0.11940000  0.37490000  0.14440000  1.0 0.0409839924
C  C72  1  0.88060000  0.87490000  0.35560000  1.0 0.0409839924
C  C73  1  0.71940000  0.54890000  0.57830000  1.0 -0.2106382911
C  C74  1  0.28060000  0.04890000  0.92170000  1.0 -0.2106382911
C  C75  1  0.28060000  0.45110000  0.42170000  1.0 -0.2106382911
C  C76  1  0.71940000  0.95110000  0.07830000  1.0 -0.2106382911
C  C77  1  0.65050000  0.34670000  0.55920000  1.0 -0.0787338752
C  C78  1  0.34950000  0.84670000  0.94080000  1.0 -0.0787338752
C  C79  1  0.34950000  0.65330000  0.44080000  1.0 -0.0787338752
C  C80  1  0.65050000  0.15330000  0.05920000  1.0 -0.0787338752
C  C81  1  0.71300000  0.53630000  0.97840000  1.0 0.5089014959
C  C82  1  0.28700000  0.03630000  0.52160000  1.0 0.5089014959
C  C83  1  0.28700000  0.46370000  0.02160000  1.0 0.5089014959
C  C84  1  0.71300000  0.96370000  0.47840000  1.0 0.5089014959
C  C85  1  0.82640000  0.58800000  0.71000000  1.0 -0.2106382911
C  C86  1  0.17360000  0.08800000  0.79000000  1.0 -0.2106382911
C  C87  1  0.17360000  0.41200000  0.29000000  1.0 -0.2106382911
C  C88  1  0.82640000  0.91200000  0.21000000  1.0 -0.2106382911
C  C89  1  0.73810000  0.65540000  0.95130000  1.0 -0.094661631
C  C90  1  0.26190000  0.15540000  0.54870000  1.0 -0.094661631
C  C91  1  0.26190000  0.34460000  0.04870000  1.0 -0.094661631
C  C92  1  0.73810000  0.84460000  0.45130000  1.0 -0.094661631
C  C93  1  0.75250000  0.67650000  0.77970000  1.0 -0.1812659023
C  C94  1  0.24750000  0.17650000  0.72030000  1.0 -0.1812659023
C  C95  1  0.24750000  0.32350000  0.22030000  1.0 -0.1812659023
C  C96  1  0.75250000  0.82350000  0.27970000  1.0 -0.1812659023
C  C97  1  0.86030000  0.69360000  0.91130000  1.0 -0.1909851671
C  C98  1  0.13970000  0.19360000  0.58870000  1.0 -0.1909851671
C  C99  1  0.13970000  0.30640000  0.08870000  1.0 -0.1909851671
C  C100  1  0.86030000  0.80640000  0.41130000  1.0 -0.1909851671
C  C101  1  0.86000000  0.60740000  0.80910000  1.0 -0.1812659023
C  C102  1  0.14000000  0.10740000  0.69090000  1.0 -0.1812659023
C  C103  1  0.14000000  0.39260000  0.19090000  1.0 -0.1812659023
C  C104  1  0.86000000  0.89260000  0.30910000  1.0 -0.1812659023
C  C105  1  0.48800000  0.03700000  0.50000000  1.0 0.3361009077
C  C106  1  0.51200000  0.53700000  0.00000000  1.0 0.3361009077
C  C107  1  0.51200000  0.96300000  0.50000000  1.0 0.3361009077
C  C108  1  0.48800000  0.46300000  0.00000000  1.0 0.3361009077
C  C109  1  0.03030000  0.89000000  0.29650000  1.0 0.4995577712
C  C110  1  0.91830000  0.65620000  0.25650000  1.0 0.0627969042
C  C111  1  0.49610000  0.89520000  0.05620000  1.0 0.5089014959
C  C112  1  0.09850000  0.84570000  0.37510000  1.0 0.0192212242
C  C113  1  0.86830000  0.73240000  0.18870000  1.0 0.5266285927
C  C114  1  0.52480000  0.76120000  0.04930000  1.0 0.0409839924
C  C115  1  0.65120000  0.73050000  0.09180000  1.0 0.4995577712
C  C116  1  0.10270000  0.89960000  0.44830000  1.0 0.0020637633
C  C117  1  0.85700000  0.16780000  0.40560000  1.0 0.5089014959
C  C118  1  0.99330000  0.76540000  0.25500000  1.0 0.0627969042
C  C119  1  0.89010000  0.26720000  0.31650000  1.0 0.4995577712
C  C120  1  0.02090000  0.00140000  0.44260000  1.0 0.5209953354
C  C121  1  0.45480000  0.82350000  0.14960000  1.0 0.5266285927
C  C122  1  0.03840000  0.79210000  0.39960000  1.0 0.4375018046
C  C123  1  0.44190000  0.80090000  0.07580000  1.0 0.0815157996
C  C124  1  0.06220000  0.77410000  0.34550000  1.0 0.0627969042
C  C125  1  0.63020000  0.67310000  0.19980000  1.0 0.5089014959
C  C126  1  0.04970000  0.10650000  0.35240000  1.0 0.4995577712
C  C127  1  0.99200000  0.66830000  0.35050000  1.0 0.0020637633
C  C128  1  0.75770000  0.65650000  0.13250000  1.0 0.0099691035
C  C129  1  0.98300000  0.13150000  0.45150000  1.0 0.0192212242
C  C130  1  0.66140000  0.63480000  0.14410000  1.0 0.1111841848
C  C131  1  0.86210000  0.65530000  0.29580000  1.0 0.4995577712
C  C132  1  0.01190000  0.23250000  0.37150000  1.0 0.0283494861
C  C133  1  0.50300000  0.70420000  0.14170000  1.0 0.0627969042
C  C134  1  0.58500000  0.66330000  0.11470000  1.0 0.0815157996
C  C135  1  0.43370000  0.01170000  0.05480000  1.0 0.0192212242
C  C136  1  0.10700000  0.98830000  0.35540000  1.0 0.0192212242
C  C137  1  0.85150000  0.28050000  0.36710000  1.0 0.0998091594
C  C138  1  0.92780000  0.25020000  0.39670000  1.0 0.0815157996
C  C139  1  0.74260000  0.60420000  0.23330000  1.0 0.0283494861
C  C140  1  0.66100000  0.27010000  0.21090000  1.0 0.4891569779
C  C141  1  0.63600000  0.18700000  0.30920000  1.0 0.4891569779
C  C142  1  0.50500000  0.12400000  0.10630000  1.0 0.5089014959
C  C143  1  0.07140000  0.11810000  0.42670000  1.0 0.0884229883
C  C144  1  0.84440000  0.63020000  0.22170000  1.0 0.0998091594
C  C145  1  0.10080000  0.04040000  0.42160000  1.0 0.0736196429
C  C146  1  0.41090000  0.88150000  0.07400000  1.0 0.0884229883
C  C147  1  0.74780000  0.24690000  0.37160000  1.0 0.0020637633
C  C148  1  0.66560000  0.29330000  0.28380000  1.0 0.0627969042
C  C149  1  0.46100000  0.04380000  0.19830000  1.0 0.5089014959
C  C150  1  0.54400000  0.24700000  0.15600000  1.0 0.0192212242
C  C151  1  0.38490000  0.94830000  0.13340000  1.0 0.0192212242
C  C152  1  0.77260000  0.32970000  0.28240000  1.0 0.0192212242
C  C153  1  0.41680000  0.08090000  0.11420000  1.0 0.0884229883
C  C154  1  0.59290000  0.26720000  0.24620000  1.0 0.0884229883
C  C155  1  0.45670000  0.15150000  0.15190000  1.0 0.1111841848
C  C156  1  0.50800000  0.16910000  0.24260000  1.0 0.0020637633
C  C157  1  0.96970000  0.39000000  0.20350000  1.0 0.4995577712
C  C158  1  0.08170000  0.15620000  0.24350000  1.0 0.0627969042
C  C159  1  0.50390000  0.39520000  0.44380000  1.0 0.5089014959
C  C160  1  0.90150000  0.34570000  0.12490000  1.0 0.0192212242
C  C161  1  0.13170000  0.23240000  0.31130000  1.0 0.5266285927
C  C162  1  0.47520000  0.26120000  0.45070000  1.0 0.0409839924
C  C163  1  0.34880000  0.23050000  0.40820000  1.0 0.4995577712
C  C164  1  0.89730000  0.39960000  0.05170000  1.0 0.0020637633
C  C165  1  0.14300000  0.66780000  0.09440000  1.0 0.5089014959
C  C166  1  0.00670000  0.26540000  0.24500000  1.0 0.0627969042
C  C167  1  0.10990000  0.76720000  0.18350000  1.0 0.4995577712
C  C168  1  0.97910000  0.50140000  0.05740000  1.0 0.5209953354
C  C169  1  0.54520000  0.32350000  0.35040000  1.0 0.5266285927
C  C170  1  0.96160000  0.29210000  0.10040000  1.0 0.4375018046
C  C171  1  0.55810000  0.30090000  0.42420000  1.0 0.0884229883
C  C172  1  0.93780000  0.27410000  0.15450000  1.0 0.0627969042
C  C173  1  0.36980000  0.17310000  0.30020000  1.0 0.5089014959
C  C174  1  0.95030000  0.60650000  0.14760000  1.0 0.4995577712
C  C175  1  0.00800000  0.16830000  0.14950000  1.0 0.0020637633
C  C176  1  0.24230000  0.15650000  0.36750000  1.0 0.0099691035
C  C177  1  0.01700000  0.63150000  0.04850000  1.0 0.0192212242
C  C178  1  0.33860000  0.13480000  0.35590000  1.0 0.1111841848
C  C179  1  0.13790000  0.15530000  0.20420000  1.0 0.4995577712
C  C180  1  0.98810000  0.73250000  0.12850000  1.0 0.0283494861
C  C181  1  0.49700000  0.20420000  0.35830000  1.0 0.0627969042
C  C182  1  0.41500000  0.16330000  0.38530000  1.0 0.0815157996
C  C183  1  0.56630000  0.51170000  0.44520000  1.0 0.0099691035
C  C184  1  0.89300000  0.48830000  0.14460000  1.0 0.0192212242
C  C185  1  0.14850000  0.78050000  0.13290000  1.0 0.0998091594
C  C186  1  0.07220000  0.75020000  0.10330000  1.0 0.0736196429
C  C187  1  0.25740000  0.10420000  0.26670000  1.0 0.0283494861
C  C188  1  0.33900000  0.77010000  0.28910000  1.0 0.4891569779
C  C189  1  0.36400000  0.68700000  0.19080000  1.0 0.4891569779
C  C190  1  0.49500000  0.62400000  0.39370000  1.0 0.5089014959
C  C191  1  0.92860000  0.61810000  0.07330000  1.0 0.0884229883
C  C192  1  0.15560000  0.13020000  0.27830000  1.0 0.0998091594
C  C193  1  0.89920000  0.54040000  0.07840000  1.0 0.0736196429
C  C194  1  0.58910000  0.38150000  0.42600000  1.0 0.0884229883
C  C195  1  0.25220000  0.74690000  0.12840000  1.0 0.0099691035
C  C196  1  0.33440000  0.79330000  0.21620000  1.0 0.0627969042
C  C197  1  0.53900000  0.54380000  0.30170000  1.0 0.5089014959
C  C198  1  0.45600000  0.74700000  0.34400000  1.0 0.0099691035
C  C199  1  0.61510000  0.44830000  0.36660000  1.0 0.0283494861
C  C200  1  0.22740000  0.82970000  0.21760000  1.0 0.0192212242
C  C201  1  0.58320000  0.58090000  0.38580000  1.0 0.0884229883
C  C202  1  0.40710000  0.76720000  0.25380000  1.0 0.0884229883
C  C203  1  0.54330000  0.65150000  0.34810000  1.0 0.1111841848
C  C204  1  0.49200000  0.66910000  0.25740000  1.0 0.0020637633
C  C205  1  0.96970000  0.11000000  0.70350000  1.0 0.4995577712
C  C206  1  0.08170000  0.34380000  0.74350000  1.0 0.0627969042
C  C207  1  0.50390000  0.10480000  0.94380000  1.0 0.5089014959
C  C208  1  0.90150000  0.15430000  0.62490000  1.0 0.0192212242
C  C209  1  0.13170000  0.26760000  0.81130000  1.0 0.5266285927
C  C210  1  0.47520000  0.23880000  0.95070000  1.0 0.0409839924
C  C211  1  0.34880000  0.26950000  0.90820000  1.0 0.4995577712
C  C212  1  0.89730000  0.10040000  0.55170000  1.0 0.0020637633
C  C213  1  0.14300000  0.83220000  0.59440000  1.0 0.5089014959
C  C214  1  0.00670000  0.23460000  0.74500000  1.0 0.0627969042
C  C215  1  0.10990000  0.73280000  0.68350000  1.0 0.4995577712
C  C216  1  0.97910000  0.99860000  0.55740000  1.0 0.5209953354
C  C217  1  0.54520000  0.17650000  0.85040000  1.0 0.5266285927
C  C218  1  0.96160000  0.20790000  0.60040000  1.0 0.4375018046
C  C219  1  0.55810000  0.19910000  0.92420000  1.0 0.0815157996
C  C220  1  0.93780000  0.22590000  0.65450000  1.0 0.0627969042
C  C221  1  0.36980000  0.32690000  0.80020000  1.0 0.5089014959
C  C222  1  0.95030000  0.89350000  0.64760000  1.0 0.4995577712
C  C223  1  0.00800000  0.33170000  0.64950000  1.0 0.0020637633
C  C224  1  0.24230000  0.34350000  0.86750000  1.0 0.0099691035
C  C225  1  0.01700000  0.86850000  0.54850000  1.0 0.0192212242
C  C226  1  0.33860000  0.36520000  0.85590000  1.0 0.1111841848
C  C227  1  0.13790000  0.34470000  0.70420000  1.0 0.4995577712
C  C228  1  0.98810000  0.76750000  0.62850000  1.0 0.0283494861
C  C229  1  0.49700000  0.29580000  0.85830000  1.0 0.0627969042
C  C230  1  0.41500000  0.33670000  0.88530000  1.0 0.0815157996
C  C231  1  0.56630000  0.98830000  0.94520000  1.0 0.0099691035
C  C232  1  0.89300000  0.01170000  0.64460000  1.0 0.0192212242
C  C233  1  0.14850000  0.71950000  0.63290000  1.0 0.0998091594
C  C234  1  0.07220000  0.74980000  0.60330000  1.0 0.0736196429
C  C235  1  0.25740000  0.39580000  0.76670000  1.0 0.0283494861
C  C236  1  0.33900000  0.72990000  0.78910000  1.0 0.4891569779
C  C237  1  0.36400000  0.81300000  0.69080000  1.0 0.4891569779
C  C238  1  0.49500000  0.87600000  0.89370000  1.0 0.5089014959
C  C239  1  0.92860000  0.88190000  0.57330000  1.0 0.0884229883
C  C240  1  0.15560000  0.36980000  0.77830000  1.0 0.0998091594
C  C241  1  0.89920000  0.95960000  0.57840000  1.0 0.0736196429
C  C242  1  0.58910000  0.11850000  0.92600000  1.0 0.0884229883
C  C243  1  0.25220000  0.75310000  0.62840000  1.0 0.0099691035
C  C244  1  0.33440000  0.70670000  0.71620000  1.0 0.0627969042
C  C245  1  0.53900000  0.95620000  0.80170000  1.0 0.5089014959
C  C246  1  0.45600000  0.75300000  0.84400000  1.0 0.0192212242
C  C247  1  0.61510000  0.05170000  0.86660000  1.0 0.0283494861
C  C248  1  0.22740000  0.67030000  0.71760000  1.0 0.0192212242
C  C249  1  0.58320000  0.91910000  0.88580000  1.0 0.0884229883
C  C250  1  0.40710000  0.73280000  0.75380000  1.0 0.0884229883
C  C251  1  0.54330000  0.84850000  0.84810000  1.0 0.1111841848
C  C252  1  0.49200000  0.83090000  0.75740000  1.0 0.0020637633
C  C253  1  0.03030000  0.61000000  0.79650000  1.0 0.4995577712
C  C254  1  0.91830000  0.84380000  0.75650000  1.0 0.0627969042
C  C255  1  0.49610000  0.60480000  0.55620000  1.0 0.5089014959
C  C256  1  0.09850000  0.65430000  0.87510000  1.0 0.0192212242
C  C257  1  0.86830000  0.76760000  0.68870000  1.0 0.5266285927
C  C258  1  0.52480000  0.73880000  0.54930000  1.0 0.0409839924
C  C259  1  0.65120000  0.76950000  0.59180000  1.0 0.4995577712
C  C260  1  0.10270000  0.60040000  0.94830000  1.0 0.0020637633
C  C261  1  0.85700000  0.33220000  0.90560000  1.0 0.5089014959
C  C262  1  0.99330000  0.73460000  0.75500000  1.0 0.0627969042
C  C263  1  0.89010000  0.23280000  0.81650000  1.0 0.4995577712
C  C264  1  0.02090000  0.49860000  0.94260000  1.0 0.5209953354
C  C265  1  0.45480000  0.67650000  0.64960000  1.0 0.5266285927
C  C266  1  0.03840000  0.70790000  0.89960000  1.0 0.4375018046
C  C267  1  0.44190000  0.69910000  0.57580000  1.0 0.0815157996
C  C268  1  0.06220000  0.72590000  0.84550000  1.0 0.0627969042
C  C269  1  0.63020000  0.82690000  0.69980000  1.0 0.5089014959
C  C270  1  0.04970000  0.39350000  0.85240000  1.0 0.4995577712
C  C271  1  0.99200000  0.83170000  0.85050000  1.0 0.0020637633
C  C272  1  0.75770000  0.84350000  0.63250000  1.0 0.0099691035
C  C273  1  0.98300000  0.36850000  0.95150000  1.0 0.0192212242
C  C274  1  0.66140000  0.86520000  0.64410000  1.0 0.1111841848
C  C275  1  0.86210000  0.84470000  0.79580000  1.0 0.4995577712
C  C276  1  0.01190000  0.26750000  0.87150000  1.0 0.0283494861
C  C277  1  0.50300000  0.79580000  0.64170000  1.0 0.0627969042
C  C278  1  0.58500000  0.83670000  0.61470000  1.0 0.0815157996
C  C279  1  0.43370000  0.48830000  0.55480000  1.0 0.0099691035
C  C280  1  0.10700000  0.51170000  0.85540000  1.0 0.0192212242
C  C281  1  0.85150000  0.21950000  0.86710000  1.0 0.0998091594
C  C282  1  0.92780000  0.24980000  0.89670000  1.0 0.0736196429
C  C283  1  0.74260000  0.89580000  0.73330000  1.0 0.0283494861
C  C284  1  0.66100000  0.22990000  0.71090000  1.0 0.4891569779
C  C285  1  0.63600000  0.31300000  0.80920000  1.0 0.4891569779
C  C286  1  0.50500000  0.37600000  0.60630000  1.0 0.5089014959
C  C287  1  0.07140000  0.38190000  0.92670000  1.0 0.0884229883
C  C288  1  0.84440000  0.86980000  0.72170000  1.0 0.0998091594
C  C289  1  0.10080000  0.45960000  0.92160000  1.0 0.0736196429
C  C290  1  0.41090000  0.61850000  0.57400000  1.0 0.0884229883
C  C291  1  0.74780000  0.25310000  0.87160000  1.0 0.0099691035
C  C292  1  0.66560000  0.20670000  0.78380000  1.0 0.0627969042
C  C293  1  0.46100000  0.45620000  0.69830000  1.0 0.5089014959
C  C294  1  0.54400000  0.25300000  0.65600000  1.0 0.0192212242
C  C295  1  0.38490000  0.55170000  0.63340000  1.0 0.0283494861
C  C296  1  0.77260000  0.17030000  0.78240000  1.0 0.0192212242
C  C297  1  0.41680000  0.41910000  0.61420000  1.0 0.0884229883
C  C298  1  0.59290000  0.23280000  0.74620000  1.0 0.0884229883
C  C299  1  0.45670000  0.34850000  0.65190000  1.0 0.1111841848
C  C300  1  0.50800000  0.33090000  0.74260000  1.0 0.0020637633
N  N1  1  0.73940000  0.57220000  0.62960000  1.0 0.1180846765
N  N2  1  0.26060000  0.07220000  0.87040000  1.0 0.1180846765
N  N3  1  0.26060000  0.42780000  0.37040000  1.0 0.1180846765
N  N4  1  0.73940000  0.92780000  0.12960000  1.0 0.1180846765
N  N5  1  0.83820000  0.66850000  0.86150000  1.0 0.1180846765
N  N6  1  0.16180000  0.16850000  0.63850000  1.0 0.1180846765
N  N7  1  0.16180000  0.33150000  0.13850000  1.0 0.1180846765
N  N8  1  0.83820000  0.83150000  0.36150000  1.0 0.1180846765
N  N9  1  0.49200000  0.81790000  0.06340000  1.0 -0.2583764792
N  N10  1  0.58550000  0.72570000  0.08630000  1.0 -0.2531427427
N  N11  1  0.07200000  0.91270000  0.34120000  1.0 -0.2013282558
N  N12  1  0.69270000  0.67870000  0.12590000  1.0 -0.2106382911
N  N13  1  0.57380000  0.68620000  0.15210000  1.0 -0.2788274421
N  N14  1  0.08350000  0.04140000  0.37470000  1.0 -0.1573422554
N  N15  1  0.07110000  0.85260000  0.40530000  1.0 -0.1420963204
N  N16  1  0.68160000  0.64590000  0.19310000  1.0 -0.2583764792
N  N17  1  0.03740000  0.15210000  0.38050000  1.0 -0.229271148
N  N18  1  0.01660000  0.81090000  0.29460000  1.0 -0.2185116899
N  N19  1  0.47600000  0.77680000  0.12620000  1.0 -0.1909851671
N  N20  1  0.82040000  0.67590000  0.18120000  1.0 -0.2531427427
N  N21  1  0.45300000  0.93190000  0.06530000  1.0 -0.1909851671
N  N22  1  0.07420000  0.97750000  0.43680000  1.0 -0.2788274421
N  N23  1  0.92170000  0.72700000  0.23520000  1.0 -0.2391375111
N  N24  1  0.92230000  0.17450000  0.41420000  1.0 -0.2106382911
N  N25  1  0.92400000  0.66530000  0.30270000  1.0 -0.2106382911
N  N26  1  0.80980000  0.64330000  0.24800000  1.0 -0.3075404524
N  N27  1  0.94420000  0.24460000  0.36090000  1.0 -0.2106382911
N  N28  1  0.81400000  0.23140000  0.37680000  1.0 -0.2013282558
N  N29  1  0.02380000  0.08210000  0.43920000  1.0 -0.2788274421
N  N30  1  0.41780000  0.88870000  0.12000000  1.0 -0.2979099064
N  N31  1  0.57920000  0.19910000  0.26100000  1.0 -0.2013282558
N  N32  1  0.83370000  0.28870000  0.31780000  1.0 -0.2185116899
N  N33  1  0.02470000  0.74370000  0.36280000  1.0 -0.2013282558
N  N34  1  0.46040000  0.06510000  0.09720000  1.0 -0.1909851671
N  N35  1  0.68810000  0.23720000  0.32230000  1.0 -0.2185116899
N  N36  1  0.70520000  0.28870000  0.26010000  1.0 -0.2391375111
N  N37  1  0.48360000  0.11840000  0.19670000  1.0 -0.2013282558
N  N38  1  0.59960000  0.25290000  0.20410000  1.0 -0.1909851671
N  N39  1  0.50800000  0.17460000  0.14120000  1.0 -0.2583764792
N  N40  1  0.42600000  0.01670000  0.14950000  1.0 -0.229271148
N  N41  1  0.50800000  0.31790000  0.43660000  1.0 -0.2583764792
N  N42  1  0.41450000  0.22570000  0.41370000  1.0 -0.2531427427
N  N43  1  0.92800000  0.41270000  0.15880000  1.0 -0.2013282558
N  N44  1  0.30730000  0.17870000  0.37410000  1.0 -0.2106382911
N  N45  1  0.42620000  0.18620000  0.34790000  1.0 -0.2788274421
N  N46  1  0.91650000  0.54140000  0.12530000  1.0 -0.1573422554
N  N47  1  0.92890000  0.35260000  0.09470000  1.0 -0.1420963204
N  N48  1  0.31840000  0.14590000  0.30690000  1.0 -0.2699390187
N  N49  1  0.96260000  0.65210000  0.11950000  1.0 -0.229271148
N  N50  1  0.98340000  0.31090000  0.20540000  1.0 -0.2106382911
N  N51  1  0.52400000  0.27680000  0.37380000  1.0 -0.1909851671
N  N52  1  0.17960000  0.17590000  0.31880000  1.0 -0.2531427427
N  N53  1  0.54700000  0.43190000  0.43470000  1.0 -0.1909851671
N  N54  1  0.92580000  0.47750000  0.06320000  1.0 -0.2788274421
N  N55  1  0.07830000  0.22700000  0.26480000  1.0 -0.2391375111
N  N56  1  0.07770000  0.67450000  0.08580000  1.0 -0.2185116899
N  N57  1  0.07600000  0.16530000  0.19730000  1.0 -0.2106382911
N  N58  1  0.19020000  0.14330000  0.25200000  1.0 -0.3075404524
N  N59  1  0.05580000  0.74460000  0.13910000  1.0 -0.2106382911
N  N60  1  0.18600000  0.73140000  0.12320000  1.0 -0.2013282558
N  N61  1  0.97620000  0.58210000  0.06080000  1.0 -0.2699390187
N  N62  1  0.58220000  0.38870000  0.38000000  1.0 -0.2979099064
N  N63  1  0.42080000  0.69910000  0.23900000  1.0 -0.2013282558
N  N64  1  0.16630000  0.78870000  0.18220000  1.0 -0.2185116899
N  N65  1  0.97530000  0.24370000  0.13720000  1.0 -0.2013282558
N  N66  1  0.53960000  0.56510000  0.40280000  1.0 -0.1909851671
N  N67  1  0.31190000  0.73720000  0.17770000  1.0 -0.2185116899
N  N68  1  0.29480000  0.78870000  0.23990000  1.0 -0.2391375111
N  N69  1  0.51640000  0.61840000  0.30330000  1.0 -0.2013282558
N  N70  1  0.40040000  0.75290000  0.29590000  1.0 -0.1812659023
N  N71  1  0.49200000  0.67460000  0.35880000  1.0 -0.2583764792
N  N72  1  0.57400000  0.51670000  0.35050000  1.0 -0.2391375111
N  N73  1  0.50800000  0.18210000  0.93660000  1.0 -0.2583764792
N  N74  1  0.41450000  0.27430000  0.91370000  1.0 -0.2531427427
N  N75  1  0.92800000  0.08730000  0.65880000  1.0 -0.2106382911
N  N76  1  0.30730000  0.32130000  0.87410000  1.0 -0.2106382911
N  N77  1  0.42620000  0.31380000  0.84790000  1.0 -0.2857840492
N  N78  1  0.91650000  0.95860000  0.62530000  1.0 -0.1573422554
N  N79  1  0.92890000  0.14740000  0.59470000  1.0 -0.1420963204
N  N80  1  0.31840000  0.35410000  0.80690000  1.0 -0.2699390187
N  N81  1  0.96260000  0.84790000  0.61950000  1.0 -0.229271148
N  N82  1  0.98340000  0.18910000  0.70540000  1.0 -0.2106382911
N  N83  1  0.52400000  0.22320000  0.87380000  1.0 -0.1909851671
N  N84  1  0.17960000  0.32410000  0.81880000  1.0 -0.2531427427
N  N85  1  0.54700000  0.06810000  0.93470000  1.0 -0.1909851671
N  N86  1  0.92580000  0.02250000  0.56320000  1.0 -0.2788274421
N  N87  1  0.07830000  0.27300000  0.76480000  1.0 -0.2391375111
N  N88  1  0.07770000  0.82550000  0.58580000  1.0 -0.2185116899
N  N89  1  0.07600000  0.33470000  0.69730000  1.0 -0.2106382911
N  N90  1  0.19020000  0.35670000  0.75200000  1.0 -0.3075404524
N  N91  1  0.05580000  0.75540000  0.63910000  1.0 -0.2106382911
N  N92  1  0.18600000  0.76860000  0.62320000  1.0 -0.2013282558
N  N93  1  0.97620000  0.91790000  0.56080000  1.0 -0.2699390187
N  N94  1  0.58220000  0.11130000  0.88000000  1.0 -0.2979099064
N  N95  1  0.42080000  0.80090000  0.73900000  1.0 -0.2106382911
N  N96  1  0.16630000  0.71130000  0.68220000  1.0 -0.2185116899
N  N97  1  0.97530000  0.25630000  0.63720000  1.0 -0.2013282558
N  N98  1  0.53960000  0.93490000  0.90280000  1.0 -0.1909851671
N  N99  1  0.31190000  0.76280000  0.67770000  1.0 -0.2185116899
N  N100  1  0.29480000  0.71130000  0.73990000  1.0 -0.2391375111
N  N101  1  0.51640000  0.88160000  0.80330000  1.0 -0.2013282558
N  N102  1  0.40040000  0.74710000  0.79590000  1.0 -0.1812659023
N  N103  1  0.49200000  0.82540000  0.85880000  1.0 -0.2583764792
N  N104  1  0.57400000  0.98330000  0.85050000  1.0 -0.2391375111
N  N105  1  0.49200000  0.68210000  0.56340000  1.0 -0.2583764792
N  N106  1  0.58550000  0.77430000  0.58630000  1.0 -0.2531427427
N  N107  1  0.07200000  0.58730000  0.84120000  1.0 -0.2013282558
N  N108  1  0.69270000  0.82130000  0.62590000  1.0 -0.2106382911
N  N109  1  0.57380000  0.81380000  0.65210000  1.0 -0.2857840492
N  N110  1  0.08350000  0.45860000  0.87470000  1.0 -0.1573422554
N  N111  1  0.07110000  0.64740000  0.90530000  1.0 -0.1420963204
N  N112  1  0.68160000  0.85410000  0.69310000  1.0 -0.2699390187
N  N113  1  0.03740000  0.34790000  0.88050000  1.0 -0.229271148
N  N114  1  0.01660000  0.68910000  0.79460000  1.0 -0.2185116899
N  N115  1  0.47600000  0.72320000  0.62620000  1.0 -0.1909851671
N  N116  1  0.82040000  0.82410000  0.68120000  1.0 -0.2531427427
N  N117  1  0.45300000  0.56810000  0.56530000  1.0 -0.1812659023
N  N118  1  0.07420000  0.52250000  0.93680000  1.0 -0.2788274421
N  N119  1  0.92170000  0.77300000  0.73520000  1.0 -0.2391375111
N  N120  1  0.92230000  0.32550000  0.91420000  1.0 -0.2185116899
N  N121  1  0.92400000  0.83470000  0.80270000  1.0 -0.2106382911
N  N122  1  0.80980000  0.85670000  0.74800000  1.0 -0.3075404524
N  N123  1  0.94420000  0.25540000  0.86090000  1.0 -0.2106382911
N  N124  1  0.81400000  0.26860000  0.87680000  1.0 -0.2013282558
N  N125  1  0.02380000  0.41790000  0.93920000  1.0 -0.2788274421
N  N126  1  0.41780000  0.61130000  0.62000000  1.0 -0.2979099064
N  N127  1  0.57920000  0.30090000  0.76100000  1.0 -0.2106382911
N  N128  1  0.83370000  0.21130000  0.81780000  1.0 -0.2185116899
N  N129  1  0.02470000  0.75630000  0.86280000  1.0 -0.2013282558
N  N130  1  0.46040000  0.43490000  0.59720000  1.0 -0.1909851671
N  N131  1  0.68810000  0.26280000  0.82230000  1.0 -0.2185116899
N  N132  1  0.70520000  0.21130000  0.76010000  1.0 -0.2391375111
N  N133  1  0.48360000  0.38160000  0.69670000  1.0 -0.2013282558
N  N134  1  0.59960000  0.24710000  0.70410000  1.0 -0.1909851671
N  N135  1  0.50800000  0.32540000  0.64120000  1.0 -0.2583764792
N  N136  1  0.42600000  0.48330000  0.64950000  1.0 -0.2391375111
O  O1  1  0.63870000  0.17840000  0.54980000  1.0 -0.5966710198
O  O2  1  0.36130000  0.67840000  0.95020000  1.0 -0.5948898031
O  O3  1  0.36130000  0.82160000  0.45020000  1.0 -0.5966710198
O  O4  1  0.63870000  0.32160000  0.04980000  1.0 -0.5966710198
O  O5  1  0.72750000  0.17450000  0.54310000  1.0 -0.5966710198
O  O6  1  0.27250000  0.67450000  0.95690000  1.0 -0.5966710198
O  O7  1  0.27250000  0.82550000  0.45690000  1.0 -0.5966710198
O  O8  1  0.72750000  0.32550000  0.04310000  1.0 -0.5966710198
O  O9  1  0.73070000  0.45890000  0.99610000  1.0 -0.695379956
O  O10  1  0.26930000  0.95890000  0.50390000  1.0 -0.695379956
O  O11  1  0.26930000  0.54110000  0.00390000  1.0 -0.6944590642
O  O12  1  0.73070000  0.04110000  0.49610000  1.0 -0.6944590642
O  O13  1  0.67180000  0.56590000  0.98850000  1.0 -0.5662016108
O  O14  1  0.32820000  0.06590000  0.51150000  1.0 -0.5662016108
O  O15  1  0.32820000  0.43410000  0.01150000  1.0 -0.5662016108
O  O16  1  0.67180000  0.93410000  0.48850000  1.0 -0.5662016108
O  O17  1  0.43670000  0.05930000  0.50080000  1.0 -0.4832552022
O  O18  1  0.56330000  0.55930000  0.99920000  1.0 -0.4832552022
O  O19  1  0.56330000  0.94070000  0.49920000  1.0 -0.4832552022
O  O20  1  0.43670000  0.44070000  0.00080000  1.0 -0.4832552022
O  O21  1  0.54810000  0.08160000  0.52870000  1.0 -0.6071571543
O  O22  1  0.45190000  0.58160000  0.97130000  1.0 -0.6071571543
O  O23  1  0.45190000  0.91840000  0.47130000  1.0 -0.6071571543
O  O24  1  0.54810000  0.41840000  0.02870000  1.0 -0.6071571543
O  O25  1  0.02640000  0.12830000  0.31080000  1.0 -0.5184704496
O  O26  1  0.98830000  0.96770000  0.45300000  1.0 -0.4514478801
O  O27  1  0.66370000  0.77130000  0.07020000  1.0 -0.4622791245
O  O28  1  0.86300000  0.77680000  0.15860000  1.0 -0.5184704496
O  O29  1  0.00990000  0.76830000  0.42380000  1.0 -0.6341093614
O  O30  1  0.53310000  0.92730000  0.04460000  1.0 -0.5113950505
O  O31  1  0.00370000  0.93230000  0.25970000  1.0 -0.5582856967
O  O32  1  0.84850000  0.65750000  0.32670000  1.0 -0.5292983188
O  O33  1  0.47180000  0.81350000  0.19160000  1.0 -0.5184704496
O  O34  1  0.89130000  0.27340000  0.28210000  1.0 -0.4679010222
O  O35  1  0.63080000  0.68270000  0.23470000  1.0 -0.4832552022
O  O36  1  0.83420000  0.11730000  0.41990000  1.0 -0.5113950505
O  O37  1  0.47300000  0.00790000  0.23230000  1.0 -0.4679010222
O  O38  1  0.63320000  0.13530000  0.33300000  1.0 -0.503186418
O  O39  1  0.54240000  0.13390000  0.09090000  1.0 -0.503186418
O  O40  1  0.68370000  0.26890000  0.18670000  1.0 -0.4679010222
O  O41  1  0.97360000  0.62830000  0.18920000  1.0 -0.5184704496
O  O42  1  0.01170000  0.46770000  0.04700000  1.0 -0.4514478801
O  O43  1  0.33630000  0.27130000  0.42980000  1.0 -0.4622791245
O  O44  1  0.13700000  0.27680000  0.34140000  1.0 -0.5184704496
O  O45  1  0.99010000  0.26830000  0.07620000  1.0 -0.6341093614
O  O46  1  0.46690000  0.42730000  0.45540000  1.0 -0.5113950505
O  O47  1  0.99630000  0.43230000  0.24030000  1.0 -0.5582856967
O  O48  1  0.15150000  0.15750000  0.17330000  1.0 -0.5292983188
O  O49  1  0.52820000  0.31350000  0.30840000  1.0 -0.5184704496
O  O50  1  0.10870000  0.77340000  0.21790000  1.0 -0.4679010222
O  O51  1  0.36920000  0.18270000  0.26530000  1.0 -0.4832552022
O  O52  1  0.16580000  0.61730000  0.08010000  1.0 -0.5113950505
O  O53  1  0.52700000  0.50790000  0.26770000  1.0 -0.4679010222
O  O54  1  0.36680000  0.63530000  0.16700000  1.0 -0.503186418
O  O55  1  0.45760000  0.63390000  0.40910000  1.0 -0.503186418
O  O56  1  0.31630000  0.76890000  0.31330000  1.0 -0.4679010222
O  O57  1  0.97360000  0.87170000  0.68920000  1.0 -0.5184704496
O  O58  1  0.01170000  0.03230000  0.54700000  1.0 -0.4514478801
O  O59  1  0.33630000  0.22870000  0.92980000  1.0 -0.4622791245
O  O60  1  0.13700000  0.22320000  0.84140000  1.0 -0.5184704496
O  O61  1  0.99010000  0.23170000  0.57620000  1.0 -0.6353550388
O  O62  1  0.46690000  0.07270000  0.95540000  1.0 -0.5113950505
O  O63  1  0.99630000  0.06770000  0.74030000  1.0 -0.5582856967
O  O64  1  0.15150000  0.34250000  0.67330000  1.0 -0.5292983188
O  O65  1  0.52820000  0.18650000  0.80840000  1.0 -0.5184704496
O  O66  1  0.10870000  0.72660000  0.71790000  1.0 -0.4679010222
O  O67  1  0.36920000  0.31730000  0.76530000  1.0 -0.4832552022
O  O68  1  0.16580000  0.88270000  0.58010000  1.0 -0.5113950505
O  O69  1  0.52700000  0.99210000  0.76770000  1.0 -0.4679010222
O  O70  1  0.36680000  0.86470000  0.66700000  1.0 -0.503186418
O  O71  1  0.45760000  0.86610000  0.90910000  1.0 -0.503186418
O  O72  1  0.31630000  0.73110000  0.81330000  1.0 -0.4679010222
O  O73  1  0.02640000  0.37170000  0.81080000  1.0 -0.5184704496
O  O74  1  0.98830000  0.53230000  0.95300000  1.0 -0.4514478801
O  O75  1  0.66370000  0.72870000  0.57020000  1.0 -0.4622791245
O  O76  1  0.86300000  0.72320000  0.65860000  1.0 -0.5184704496
O  O77  1  0.00990000  0.73170000  0.92380000  1.0 -0.6341093614
O  O78  1  0.53310000  0.57270000  0.54460000  1.0 -0.5113950505
O  O79  1  0.00370000  0.56770000  0.75970000  1.0 -0.5582856967
O  O80  1  0.84850000  0.84250000  0.82670000  1.0 -0.5292983188
O  O81  1  0.47180000  0.68650000  0.69160000  1.0 -0.5184704496
O  O82  1  0.89130000  0.22660000  0.78210000  1.0 -0.4679010222
O  O83  1  0.63080000  0.81730000  0.73470000  1.0 -0.4832552022
O  O84  1  0.83420000  0.38270000  0.91990000  1.0 -0.5113950505
O  O85  1  0.47300000  0.49210000  0.73230000  1.0 -0.4679010222
O  O86  1  0.63320000  0.36470000  0.83300000  1.0 -0.503186418
O  O87  1  0.54240000  0.36610000  0.59090000  1.0 -0.503186418
O  O88  1  0.68370000  0.23110000  0.68670000  1.0 -0.4679010222
