# DDEC6 charges by PACMAN v1.1 (https://github.com/mtap-research/PACMAN-charge/)
data_LINTOV01_ASR_pacman
_symmetry_space_group_name_H-M   'P 1'
_cell_length_a   22.89480000
_cell_length_b   16.89180000
_cell_length_c   33.12980000
_cell_angle_alpha   90.00000000
_cell_angle_beta   123.73000000
_cell_angle_gamma   90.00000000
_symmetry_Int_Tables_number   1
_chemical_formula_structural   UH68C75(N17O11)2
_chemical_formula_sum   'U4 H272 C300 N136 O88'
_cell_volume   10655.63256492
_cell_formula_units_Z   4
loop_
 _symmetry_equiv_pos_site_id
 _symmetry_equiv_pos_as_xyz
  1  'x, y, z'
loop_
 _atom_site_type_symbol
 _atom_site_label
 _atom_site_symmetry_multiplicity
 _atom_site_fract_x
 _atom_site_fract_y
 _atom_site_fract_z
 _atom_site_occupancy
 _atom_site_charge
U  U1  1  0.85790000  0.05854000  0.48731000  1.0 1.7475590224
U  U2  1  0.14210000  0.55854000  0.01269000  1.0 1.741720807
U  U3  1  0.14210000  0.94146000  0.51269000  1.0 1.741720807
U  U4  1  0.85790000  0.44146000  0.98731000  1.0 1.7475590224
H  H1  1  0.70438000  0.47179000  0.04816000  1.0 0.129499441
H  H2  1  0.29562000  0.97179000  0.45184000  1.0 0.129499441
H  H3  1  0.29562000  0.52821000  0.95184000  1.0 0.129499441
H  H4  1  0.70438000  0.02821000  0.54816000  1.0 0.129499441
H  H5  1  0.63639000  0.54143000  0.06900000  1.0 0.1391862645
H  H6  1  0.36361000  0.04143000  0.43100000  1.0 0.1391862645
H  H7  1  0.36361000  0.45857000  0.93100000  1.0 0.1391862645
H  H8  1  0.63639000  0.95857000  0.56900000  1.0 0.1391862645
H  H9  1  0.57114000  0.60892000  0.11785000  1.0 0.1178718593
H  H10  1  0.42886000  0.10892000  0.38215000  1.0 0.1178718593
H  H11  1  0.42886000  0.39108000  0.88215000  1.0 0.1178718593
H  H12  1  0.57114000  0.89108000  0.61785000  1.0 0.1178718593
H  H13  1  0.60304000  0.57729000  0.19582000  1.0 0.1391862645
H  H14  1  0.39696000  0.07729000  0.30418000  1.0 0.1391862645
H  H15  1  0.39696000  0.42271000  0.80418000  1.0 0.1391862645
H  H16  1  0.60304000  0.92271000  0.69582000  1.0 0.1391862645
H  H17  1  0.88852000  0.31793000  0.44467000  1.0 0.129499441
H  H18  1  0.11148000  0.81793000  0.05533000  1.0 0.129499441
H  H19  1  0.11148000  0.68207000  0.55533000  1.0 0.129499441
H  H20  1  0.88852000  0.18207000  0.94467000  1.0 0.129499441
H  H21  1  0.78557000  0.69412000  0.24845000  1.0 0.1391862645
H  H22  1  0.21443000  0.19412000  0.25155000  1.0 0.1391862645
H  H23  1  0.21443000  0.30588000  0.75155000  1.0 0.1391862645
H  H24  1  0.78557000  0.80588000  0.74845000  1.0 0.1391862645
H  H25  1  0.88057000  0.45522000  0.43666000  1.0 0.1391862645
H  H26  1  0.11943000  0.95522000  0.06334000  1.0 0.1391862645
H  H27  1  0.11943000  0.54478000  0.56334000  1.0 0.1391862645
H  H28  1  0.88057000  0.04478000  0.93666000  1.0 0.1391862645
H  H29  1  0.62314000  0.58929000  0.26653000  1.0 0.1391862645
H  H30  1  0.37686000  0.08929000  0.23347000  1.0 0.1391862645
H  H31  1  0.37686000  0.41071000  0.73347000  1.0 0.1391862645
H  H32  1  0.62314000  0.91071000  0.76653000  1.0 0.1391862645
H  H33  1  0.82501000  0.62961000  0.31393000  1.0 0.1391862645
H  H34  1  0.17499000  0.12961000  0.18607000  1.0 0.1391862645
H  H35  1  0.17499000  0.37039000  0.68607000  1.0 0.1391862645
H  H36  1  0.82501000  0.87039000  0.81393000  1.0 0.1391862645
H  H37  1  0.85732000  0.59637000  0.39134000  1.0 0.1178718593
H  H38  1  0.14268000  0.09637000  0.10866000  1.0 0.1178718593
H  H39  1  0.14268000  0.40363000  0.60866000  1.0 0.1178718593
H  H40  1  0.85732000  0.90363000  0.89134000  1.0 0.1178718593
H  H41  1  0.74887000  0.72501000  0.17011000  1.0 0.129499441
H  H42  1  0.25113000  0.22501000  0.32989000  1.0 0.129499441
H  H43  1  0.25113000  0.27499000  0.82989000  1.0 0.129499441
H  H44  1  0.74887000  0.77499000  0.67011000  1.0 0.129499441
H  H45  1  0.58426000  0.68067000  0.06505000  1.0 0.1391862645
H  H46  1  0.41574000  0.18067000  0.43495000  1.0 0.1391862645
H  H47  1  0.41574000  0.31933000  0.93495000  1.0 0.1391862645
H  H48  1  0.58426000  0.81933000  0.56505000  1.0 0.1391862645
H  H49  1  0.64065000  0.75115000  0.08675000  1.0 0.1391862645
H  H50  1  0.35935000  0.25115000  0.41325000  1.0 0.1391862645
H  H51  1  0.35935000  0.24885000  0.91325000  1.0 0.1391862645
H  H52  1  0.64065000  0.74885000  0.58675000  1.0 0.1391862645
H  H53  1  0.65869000  0.56059000  0.34504000  1.0 0.129499441
H  H54  1  0.34131000  0.06059000  0.15496000  1.0 0.129499441
H  H55  1  0.34131000  0.43941000  0.65496000  1.0 0.129499441
H  H56  1  0.65869000  0.93941000  0.84504000  1.0 0.129499441
H  H57  1  0.79623000  0.67750000  0.04910000  1.0 0.129499441
H  H58  1  0.20377000  0.17750000  0.45090000  1.0 0.129499441
H  H59  1  0.20377000  0.32250000  0.95090000  1.0 0.129499441
H  H60  1  0.79623000  0.82250000  0.54910000  1.0 0.129499441
H  H61  1  0.73007000  0.74558000  0.07190000  1.0 0.129499441
H  H62  1  0.26993000  0.24558000  0.42810000  1.0 0.129499441
H  H63  1  0.26993000  0.25442000  0.92810000  1.0 0.129499441
H  H64  1  0.73007000  0.75442000  0.57190000  1.0 0.129499441
H  H65  1  0.71037000  0.31352000  0.44313000  1.0 0.1178718593
H  H66  1  0.28963000  0.81352000  0.05687000  1.0 0.1178718593
H  H67  1  0.28963000  0.68648000  0.55687000  1.0 0.1178718593
H  H68  1  0.71037000  0.18648000  0.94313000  1.0 0.1178718593
H  H69  1  0.69783000  0.45025000  0.42880000  1.0 0.1178718593
H  H70  1  0.30217000  0.95025000  0.07120000  1.0 0.1178718593
H  H71  1  0.30217000  0.54975000  0.57120000  1.0 0.1178718593
H  H72  1  0.69783000  0.04975000  0.92880000  1.0 0.1178718593
H  H73  1  0.82853000  0.57931000  0.44799000  1.0 0.1391862645
H  H74  1  0.17147000  0.07931000  0.05201000  1.0 0.1391862645
H  H75  1  0.17147000  0.42069000  0.55201000  1.0 0.1391862645
H  H76  1  0.82853000  0.92069000  0.94799000  1.0 0.1391862645
H  H77  1  0.74783000  0.57574000  0.43060000  1.0 0.129499441
H  H78  1  0.25217000  0.07574000  0.06940000  1.0 0.129499441
H  H79  1  0.25217000  0.42426000  0.56940000  1.0 0.129499441
H  H80  1  0.74783000  0.92426000  0.93060000  1.0 0.129499441
H  H81  1  0.34742000  0.83147000  0.60426000  1.0 0.0912080176
H  H82  1  0.33590000  0.03615000  0.55024000  1.0 0.080537645
H  H83  1  0.54781000  0.61082000  0.73538000  1.0 0.0912080176
H  H84  1  0.95558000  0.61615000  0.90317000  1.0 0.0744128304
H  H85  1  0.40364000  0.87437000  0.52477000  1.0 0.1098803511
H  H86  1  0.34171000  0.89661000  0.53156000  1.0 0.1098803511
H  H87  1  0.40747000  0.72696000  0.65485000  1.0 0.0912080176
H  H88  1  0.33538000  0.96888000  0.61983000  1.0 0.1002675627
H  H89  1  0.39215000  0.00066000  0.67327000  1.0 0.1002675627
H  H90  1  0.38595000  0.14857000  0.54270000  1.0 0.080537645
H  H91  1  0.09185000  0.76246000  0.94438000  1.0 0.080537645
H  H92  1  0.96626000  0.78376000  0.97247000  1.0 0.1178718593
H  H93  1  0.01505000  0.71855000  0.97027000  1.0 0.0912080176
H  H94  1  0.52771000  0.28782000  0.57681000  1.0 0.080537645
H  H95  1  0.74414000  0.58389000  0.86748000  1.0 0.080537645
H  H96  1  0.73924000  0.66535000  0.89003000  1.0 0.1098803511
H  H97  1  0.47530000  0.17369000  0.52198000  1.0 0.0912080176
H  H98  1  0.52568000  0.10179000  0.52924000  1.0 0.1178718593
H  H99  1  0.65932000  0.56063000  0.78041000  1.0 0.080537645
H  H100  1  0.48208000  0.61910000  0.64777000  1.0 0.1002675627
H  H101  1  0.52169000  0.64487000  0.62249000  1.0 0.1098803511
H  H102  1  0.44209000  0.26515000  0.59932000  1.0 0.1002675627
H  H103  1  0.47285000  0.25001000  0.65538000  1.0 0.1098803511
H  H104  1  0.84332000  0.56506000  0.85858000  1.0 0.080537645
H  H105  1  0.63773000  0.34001000  0.62052000  1.0 0.080537645
H  H106  1  0.13908000  0.88587000  0.95121000  1.0 0.080537645
H  H107  1  0.48200000  0.71621000  0.74266000  1.0 0.1098803511
H  H108  1  0.52224000  0.79397000  0.77312000  1.0 0.1098803511
H  H109  1  0.99272000  0.69297000  0.82187000  1.0 0.1098803511
H  H110  1  0.03039000  0.66042000  0.87617000  1.0 0.1002675627
H  H111  1  0.15673000  0.96282000  0.89254000  1.0 0.0912080176
H  H112  1  0.11229000  0.93227000  0.83763000  1.0 0.1098803511
H  H113  1  0.75843000  0.54443000  0.77187000  1.0 0.0912080176
H  H114  1  0.76342000  0.60078000  0.73508000  1.0 0.1098803511
H  H115  1  0.12756000  0.09934000  0.90719000  1.0 0.080537645
H  H116  1  0.74633000  0.21682000  0.60710000  1.0 0.1178718593
H  H117  1  0.73768000  0.30610000  0.61892000  1.0 0.0912080176
H  H118  1  0.81809000  0.35259000  0.70553000  1.0 0.080537645
H  H119  1  0.01199000  0.22313000  0.76689000  1.0 0.1098803511
H  H120  1  0.98217000  0.14667000  0.73268000  1.0 0.1178718593
H  H121  1  0.11642000  0.02429000  0.96754000  1.0 0.080537645
H  H122  1  0.04522000  0.03729000  0.96493000  1.0 0.1178718593
H  H123  1  0.92976000  0.31641000  0.76469000  1.0 0.0912080176
H  H124  1  0.06962000  0.20338000  0.85544000  1.0 0.080537645
H  H125  1  0.98360000  0.29519000  0.85223000  1.0 0.1002675627
H  H126  1  0.93523000  0.26329000  0.86960000  1.0 0.1178718593
H  H127  1  0.71888000  0.38212000  0.70748000  1.0 0.0912080176
H  H128  1  0.71018000  0.34025000  0.74714000  1.0 0.1098803511
H  H129  1  0.65258000  0.33147000  0.89574000  1.0 0.0912080176
H  H130  1  0.66410000  0.53615000  0.94976000  1.0 0.080537645
H  H131  1  0.45219000  0.11082000  0.76462000  1.0 0.0912080176
H  H132  1  0.04442000  0.11615000  0.59683000  1.0 0.0744128304
H  H133  1  0.59636000  0.37437000  0.97523000  1.0 0.1098803511
H  H134  1  0.65829000  0.39661000  0.96844000  1.0 0.1098803511
H  H135  1  0.59253000  0.22696000  0.84515000  1.0 0.0912080176
H  H136  1  0.66462000  0.46888000  0.88017000  1.0 0.1002675627
H  H137  1  0.60785000  0.50066000  0.82673000  1.0 0.1002675627
H  H138  1  0.61405000  0.64857000  0.95730000  1.0 0.080537645
H  H139  1  0.90815000  0.26246000  0.55562000  1.0 0.080537645
H  H140  1  0.03374000  0.28376000  0.52753000  1.0 0.1178718593
H  H141  1  0.98495000  0.21855000  0.52973000  1.0 0.0912080176
H  H142  1  0.47229000  0.78782000  0.92319000  1.0 0.080537645
H  H143  1  0.25586000  0.08389000  0.63252000  1.0 0.080537645
H  H144  1  0.26076000  0.16535000  0.60997000  1.0 0.1098803511
H  H145  1  0.52470000  0.67369000  0.97802000  1.0 0.0912080176
H  H146  1  0.47432000  0.60179000  0.97076000  1.0 0.1178718593
H  H147  1  0.34068000  0.06063000  0.71959000  1.0 0.080537645
H  H148  1  0.51792000  0.11910000  0.85223000  1.0 0.1002675627
H  H149  1  0.47831000  0.14487000  0.87751000  1.0 0.1098803511
H  H150  1  0.55791000  0.76515000  0.90068000  1.0 0.1002675627
H  H151  1  0.52715000  0.75001000  0.84462000  1.0 0.1098803511
H  H152  1  0.15668000  0.06506000  0.64142000  1.0 0.080537645
H  H153  1  0.36227000  0.84001000  0.87948000  1.0 0.080537645
H  H154  1  0.86092000  0.38587000  0.54879000  1.0 0.080537645
H  H155  1  0.51800000  0.21621000  0.75734000  1.0 0.1098803511
H  H156  1  0.47776000  0.29397000  0.72688000  1.0 0.1098803511
H  H157  1  0.00728000  0.19297000  0.67813000  1.0 0.1098803511
H  H158  1  0.96961000  0.16042000  0.62383000  1.0 0.1002675627
H  H159  1  0.84327000  0.46282000  0.60746000  1.0 0.0912080176
H  H160  1  0.88771000  0.43227000  0.66237000  1.0 0.1098803511
H  H161  1  0.24157000  0.04443000  0.72813000  1.0 0.0912080176
H  H162  1  0.23658000  0.10078000  0.76492000  1.0 0.1098803511
H  H163  1  0.87244000  0.59934000  0.59281000  1.0 0.080537645
H  H164  1  0.25367000  0.71682000  0.89290000  1.0 0.1178718593
H  H165  1  0.26232000  0.80610000  0.88108000  1.0 0.0912080176
H  H166  1  0.18191000  0.85259000  0.79447000  1.0 0.080537645
H  H167  1  0.98801000  0.72313000  0.73311000  1.0 0.1098803511
H  H168  1  0.01783000  0.64667000  0.76732000  1.0 0.1178718593
H  H169  1  0.88358000  0.52429000  0.53246000  1.0 0.080537645
H  H170  1  0.95478000  0.53729000  0.53507000  1.0 0.1178718593
H  H171  1  0.07024000  0.81641000  0.73531000  1.0 0.0912080176
H  H172  1  0.93038000  0.70338000  0.64456000  1.0 0.080537645
H  H173  1  0.01640000  0.79519000  0.64777000  1.0 0.1002675627
H  H174  1  0.06477000  0.76329000  0.63040000  1.0 0.1178718593
H  H175  1  0.28112000  0.88212000  0.79252000  1.0 0.0912080176
H  H176  1  0.28982000  0.84025000  0.75286000  1.0 0.1098803511
H  H177  1  0.65258000  0.16853000  0.39574000  1.0 0.0912080176
H  H178  1  0.66410000  0.96385000  0.44976000  1.0 0.080537645
H  H179  1  0.45219000  0.38918000  0.26462000  1.0 0.0912080176
H  H180  1  0.04442000  0.38385000  0.09683000  1.0 0.0744128304
H  H181  1  0.59636000  0.12563000  0.47523000  1.0 0.1098803511
H  H182  1  0.65829000  0.10339000  0.46844000  1.0 0.1098803511
H  H183  1  0.59253000  0.27304000  0.34515000  1.0 0.0912080176
H  H184  1  0.66462000  0.03112000  0.38017000  1.0 0.1002675627
H  H185  1  0.60785000  0.99934000  0.32673000  1.0 0.1002675627
H  H186  1  0.61405000  0.85143000  0.45730000  1.0 0.080537645
H  H187  1  0.90815000  0.23754000  0.05562000  1.0 0.080537645
H  H188  1  0.03374000  0.21624000  0.02753000  1.0 0.1178718593
H  H189  1  0.98495000  0.28145000  0.02973000  1.0 0.0912080176
H  H190  1  0.47229000  0.71218000  0.42319000  1.0 0.080537645
H  H191  1  0.25586000  0.41611000  0.13252000  1.0 0.080537645
H  H192  1  0.26076000  0.33465000  0.10997000  1.0 0.1098803511
H  H193  1  0.52470000  0.82631000  0.47802000  1.0 0.0912080176
H  H194  1  0.47432000  0.89821000  0.47076000  1.0 0.1178718593
H  H195  1  0.34068000  0.43937000  0.21959000  1.0 0.080537645
H  H196  1  0.51792000  0.38090000  0.35223000  1.0 0.1002675627
H  H197  1  0.47831000  0.35513000  0.37751000  1.0 0.1098803511
H  H198  1  0.55791000  0.73485000  0.40068000  1.0 0.1002675627
H  H199  1  0.52715000  0.74999000  0.34462000  1.0 0.1098803511
H  H200  1  0.15668000  0.43494000  0.14142000  1.0 0.080537645
H  H201  1  0.36227000  0.65999000  0.37948000  1.0 0.080537645
H  H202  1  0.86092000  0.11413000  0.04879000  1.0 0.080537645
H  H203  1  0.51800000  0.28379000  0.25734000  1.0 0.1098803511
H  H204  1  0.47776000  0.20603000  0.22688000  1.0 0.1098803511
H  H205  1  0.00728000  0.30703000  0.17813000  1.0 0.1098803511
H  H206  1  0.96961000  0.33958000  0.12383000  1.0 0.1002675627
H  H207  1  0.84327000  0.03718000  0.10746000  1.0 0.0912080176
H  H208  1  0.88771000  0.06773000  0.16237000  1.0 0.1098803511
H  H209  1  0.24157000  0.45557000  0.22813000  1.0 0.0912080176
H  H210  1  0.23658000  0.39922000  0.26492000  1.0 0.1098803511
H  H211  1  0.87244000  0.90066000  0.09281000  1.0 0.080537645
H  H212  1  0.25367000  0.78318000  0.39290000  1.0 0.1178718593
H  H213  1  0.26232000  0.69390000  0.38108000  1.0 0.0912080176
H  H214  1  0.18191000  0.64741000  0.29447000  1.0 0.080537645
H  H215  1  0.98801000  0.77687000  0.23311000  1.0 0.1098803511
H  H216  1  0.01783000  0.85333000  0.26732000  1.0 0.1178718593
H  H217  1  0.88358000  0.97571000  0.03246000  1.0 0.080537645
H  H218  1  0.95478000  0.96271000  0.03507000  1.0 0.1178718593
H  H219  1  0.07024000  0.68359000  0.23531000  1.0 0.0912080176
H  H220  1  0.93038000  0.79662000  0.14456000  1.0 0.080537645
H  H221  1  0.01640000  0.70481000  0.14777000  1.0 0.1002675627
H  H222  1  0.06477000  0.73671000  0.13040000  1.0 0.1178718593
H  H223  1  0.28112000  0.61788000  0.29252000  1.0 0.0912080176
H  H224  1  0.28982000  0.65975000  0.25286000  1.0 0.1098803511
H  H225  1  0.34742000  0.66853000  0.10426000  1.0 0.0912080176
H  H226  1  0.33590000  0.46385000  0.05024000  1.0 0.080537645
H  H227  1  0.54781000  0.88918000  0.23538000  1.0 0.0912080176
H  H228  1  0.95558000  0.88385000  0.40317000  1.0 0.0744128304
H  H229  1  0.40364000  0.62563000  0.02477000  1.0 0.1098803511
H  H230  1  0.34171000  0.60339000  0.03156000  1.0 0.1098803511
H  H231  1  0.40747000  0.77304000  0.15485000  1.0 0.0912080176
H  H232  1  0.33538000  0.53112000  0.11983000  1.0 0.1002675627
H  H233  1  0.39215000  0.49934000  0.17327000  1.0 0.1002675627
H  H234  1  0.38595000  0.35143000  0.04270000  1.0 0.080537645
H  H235  1  0.09185000  0.73754000  0.44438000  1.0 0.080537645
H  H236  1  0.96626000  0.71624000  0.47247000  1.0 0.1178718593
H  H237  1  0.01505000  0.78145000  0.47027000  1.0 0.0912080176
H  H238  1  0.52771000  0.21218000  0.07681000  1.0 0.080537645
H  H239  1  0.74414000  0.91611000  0.36748000  1.0 0.080537645
H  H240  1  0.73924000  0.83465000  0.39003000  1.0 0.1098803511
H  H241  1  0.47530000  0.32631000  0.02198000  1.0 0.0912080176
H  H242  1  0.52568000  0.39821000  0.02924000  1.0 0.1178718593
H  H243  1  0.65932000  0.93937000  0.28041000  1.0 0.080537645
H  H244  1  0.48208000  0.88090000  0.14777000  1.0 0.1002675627
H  H245  1  0.52169000  0.85513000  0.12249000  1.0 0.1098803511
H  H246  1  0.44209000  0.23485000  0.09932000  1.0 0.1002675627
H  H247  1  0.47285000  0.24999000  0.15538000  1.0 0.1098803511
H  H248  1  0.84332000  0.93494000  0.35858000  1.0 0.080537645
H  H249  1  0.63773000  0.15999000  0.12052000  1.0 0.080537645
H  H250  1  0.13908000  0.61413000  0.45121000  1.0 0.080537645
H  H251  1  0.48200000  0.78379000  0.24266000  1.0 0.1098803511
H  H252  1  0.52224000  0.70603000  0.27312000  1.0 0.1098803511
H  H253  1  0.99272000  0.80703000  0.32187000  1.0 0.1098803511
H  H254  1  0.03039000  0.83958000  0.37617000  1.0 0.1002675627
H  H255  1  0.15673000  0.53718000  0.39254000  1.0 0.0912080176
H  H256  1  0.11229000  0.56773000  0.33763000  1.0 0.1098803511
H  H257  1  0.75843000  0.95557000  0.27187000  1.0 0.0912080176
H  H258  1  0.76342000  0.89922000  0.23508000  1.0 0.1098803511
H  H259  1  0.12756000  0.40066000  0.40719000  1.0 0.080537645
H  H260  1  0.74633000  0.28318000  0.10710000  1.0 0.1178718593
H  H261  1  0.73768000  0.19390000  0.11892000  1.0 0.0912080176
H  H262  1  0.81809000  0.14741000  0.20553000  1.0 0.080537645
H  H263  1  0.01199000  0.27687000  0.26689000  1.0 0.1098803511
H  H264  1  0.98217000  0.35333000  0.23268000  1.0 0.1178718593
H  H265  1  0.11642000  0.47571000  0.46754000  1.0 0.080537645
H  H266  1  0.04522000  0.46271000  0.46493000  1.0 0.1178718593
H  H267  1  0.92976000  0.18359000  0.26469000  1.0 0.0912080176
H  H268  1  0.06962000  0.29662000  0.35544000  1.0 0.080537645
H  H269  1  0.98360000  0.20481000  0.35223000  1.0 0.1002675627
H  H270  1  0.93523000  0.23671000  0.36960000  1.0 0.1178718593
H  H271  1  0.71888000  0.11788000  0.20748000  1.0 0.0912080176
H  H272  1  0.71018000  0.15975000  0.24714000  1.0 0.1098803511
C  C1  1  0.70913000  0.52760000  0.05250000  1.0 -0.0759678518
C  C2  1  0.29087000  0.02760000  0.44750000  1.0 -0.0759678518
C  C3  1  0.29087000  0.47240000  0.94750000  1.0 -0.0759678518
C  C4  1  0.70913000  0.97240000  0.55250000  1.0 -0.0759678518
C  C5  1  0.69830000  0.63290000  0.23127000  1.0 0.1178718593
C  C6  1  0.30170000  0.13290000  0.26873000  1.0 0.1178718593
C  C7  1  0.30170000  0.36710000  0.76873000  1.0 0.1178718593
C  C8  1  0.69830000  0.86710000  0.73127000  1.0 0.1178718593
C  C9  1  0.71970000  0.61310000  0.28099000  1.0 0.1098803511
C  C10  1  0.28030000  0.11310000  0.21901000  1.0 0.1098803511
C  C11  1  0.28030000  0.38690000  0.71901000  1.0 0.1098803511
C  C12  1  0.71970000  0.88690000  0.78099000  1.0 0.1098803511
C  C13  1  0.75565000  0.56860000  0.04596000  1.0 -0.0369908472
C  C14  1  0.24435000  0.06860000  0.45404000  1.0 -0.0369908472
C  C15  1  0.24435000  0.43140000  0.95404000  1.0 -0.0369908472
C  C16  1  0.75565000  0.93140000  0.54596000  1.0 -0.0369908472
C  C17  1  0.79410000  0.52490000  0.02842000  1.0 0.5378966743
C  C18  1  0.20590000  0.02490000  0.47158000  1.0 0.5378966743
C  C19  1  0.20590000  0.47510000  0.97158000  1.0 0.5378966743
C  C20  1  0.79410000  0.97510000  0.52842000  1.0 0.5378966743
C  C21  1  0.80880000  0.21540000  0.45183000  1.0 0.5378966743
C  C22  1  0.19120000  0.71540000  0.04817000  1.0 0.5378966743
C  C23  1  0.19120000  0.78460000  0.54817000  1.0 0.5378966743
C  C24  1  0.80880000  0.28460000  0.95183000  1.0 0.5378966743
C  C25  1  0.66950000  0.56890000  0.06549000  1.0 -0.1377396619
C  C26  1  0.33050000  0.06890000  0.43451000  1.0 -0.1377396619
C  C27  1  0.33050000  0.43110000  0.93451000  1.0 -0.1377396619
C  C28  1  0.66950000  0.93110000  0.56549000  1.0 -0.1377396619
C  C29  1  0.61480000  0.62690000  0.14504000  1.0 0.0393562189
C  C30  1  0.38520000  0.12690000  0.35496000  1.0 0.0393562189
C  C31  1  0.38520000  0.37310000  0.85496000  1.0 0.0393562189
C  C32  1  0.61480000  0.87310000  0.64504000  1.0 0.0393562189
C  C33  1  0.63380000  0.60770000  0.19123000  1.0 -0.1796391194
C  C34  1  0.36620000  0.10770000  0.30877000  1.0 -0.1796391194
C  C35  1  0.36620000  0.39230000  0.80877000  1.0 -0.1796391194
C  C36  1  0.63380000  0.89230000  0.69123000  1.0 -0.1796391194
C  C37  1  0.79920000  0.30250000  0.44400000  1.0 -0.0369908472
C  C38  1  0.20080000  0.80250000  0.05600000  1.0 -0.0369908472
C  C39  1  0.20080000  0.69750000  0.55600000  1.0 -0.0369908472
C  C40  1  0.79920000  0.19750000  0.94400000  1.0 -0.0369908472
C  C41  1  0.85030000  0.34500000  0.44217000  1.0 -0.0661442911
C  C42  1  0.14970000  0.84500000  0.05783000  1.0 -0.0661442911
C  C43  1  0.14970000  0.65500000  0.55783000  1.0 -0.0661442911
C  C44  1  0.85030000  0.15500000  0.94217000  1.0 -0.0661442911
C  C45  1  0.67790000  0.64950000  0.07334000  1.0 0.1002675627
C  C46  1  0.32210000  0.14950000  0.42666000  1.0 0.1002675627
C  C47  1  0.32210000  0.35050000  0.92666000  1.0 0.1002675627
C  C48  1  0.67790000  0.85050000  0.57334000  1.0 0.1002675627
C  C49  1  0.74090000  0.67660000  0.22218000  1.0 -0.1796391194
C  C50  1  0.25910000  0.17660000  0.27782000  1.0 -0.1796391194
C  C51  1  0.25910000  0.32340000  0.77782000  1.0 -0.1796391194
C  C52  1  0.74090000  0.82340000  0.72218000  1.0 -0.1796391194
C  C53  1  0.84510000  0.42620000  0.43676000  1.0 -0.1341228967
C  C54  1  0.15490000  0.92620000  0.06324000  1.0 -0.1341228967
C  C55  1  0.15490000  0.57380000  0.56324000  1.0 -0.1341228967
C  C56  1  0.84510000  0.07380000  0.93676000  1.0 -0.1341228967
C  C57  1  0.67160000  0.59180000  0.29180000  1.0 -0.1717174461
C  C58  1  0.32840000  0.09180000  0.20820000  1.0 -0.1717174461
C  C59  1  0.32840000  0.40820000  0.70820000  1.0 -0.1717174461
C  C60  1  0.67160000  0.90820000  0.79180000  1.0 -0.1717174461
C  C61  1  0.79000000  0.61490000  0.31955000  1.0 -0.1873877481
C  C62  1  0.21000000  0.11490000  0.18045000  1.0 -0.1873877481
C  C63  1  0.21000000  0.38510000  0.68045000  1.0 -0.1873877481
C  C64  1  0.79000000  0.88510000  0.81955000  1.0 -0.1873877481
C  C65  1  0.80910000  0.59570000  0.36543000  1.0 0.0307002852
C  C66  1  0.19090000  0.09570000  0.13457000  1.0 0.0307002852
C  C67  1  0.19090000  0.40430000  0.63457000  1.0 0.0307002852
C  C68  1  0.80910000  0.90430000  0.86543000  1.0 0.0307002852
C  C69  1  0.71920000  0.69460000  0.17577000  1.0 0.0580583887
C  C70  1  0.28080000  0.19460000  0.32423000  1.0 0.0580583887
C  C71  1  0.28080000  0.30540000  0.82423000  1.0 0.0580583887
C  C72  1  0.71920000  0.80540000  0.67577000  1.0 0.0580583887
C  C73  1  0.63460000  0.69340000  0.08806000  1.0 -0.1873877481
C  C74  1  0.36540000  0.19340000  0.41194000  1.0 -0.1873877481
C  C75  1  0.36540000  0.30660000  0.91194000  1.0 -0.1873877481
C  C76  1  0.63460000  0.80660000  0.58806000  1.0 -0.1873877481
C  C77  1  0.69270000  0.57420000  0.33827000  1.0 0.0529318268
C  C78  1  0.30730000  0.07420000  0.16173000  1.0 0.0529318268
C  C79  1  0.30730000  0.42580000  0.66173000  1.0 0.0529318268
C  C80  1  0.69270000  0.92580000  0.83827000  1.0 0.0529318268
C  C81  1  0.76390000  0.64970000  0.05334000  1.0 -0.1026437727
C  C82  1  0.23610000  0.14970000  0.44666000  1.0 -0.1026437727
C  C83  1  0.23610000  0.35030000  0.94666000  1.0 -0.1026437727
C  C84  1  0.76390000  0.85030000  0.55334000  1.0 -0.1026437727
C  C85  1  0.72480000  0.69000000  0.06694000  1.0 -0.1796391194
C  C86  1  0.27520000  0.19000000  0.43306000  1.0 -0.1796391194
C  C87  1  0.27520000  0.31000000  0.93306000  1.0 -0.1796391194
C  C88  1  0.72480000  0.81000000  0.56694000  1.0 -0.1796391194
C  C89  1  0.74390000  0.34190000  0.44045000  1.0 -0.107873935
C  C90  1  0.25610000  0.84190000  0.05955000  1.0 -0.107873935
C  C91  1  0.25610000  0.65810000  0.55955000  1.0 -0.107873935
C  C92  1  0.74390000  0.15810000  0.94045000  1.0 -0.107873935
C  C93  1  0.78810000  0.46520000  0.43148000  1.0 0.1002675627
C  C94  1  0.21190000  0.96520000  0.06852000  1.0 0.1002675627
C  C95  1  0.21190000  0.53480000  0.56852000  1.0 0.1002675627
C  C96  1  0.78810000  0.03480000  0.93148000  1.0 0.1002675627
C  C97  1  0.73730000  0.42330000  0.43294000  1.0 -0.1796391194
C  C98  1  0.26270000  0.92330000  0.06706000  1.0 -0.1796391194
C  C99  1  0.26270000  0.57670000  0.56706000  1.0 -0.1796391194
C  C100  1  0.73730000  0.07670000  0.93294000  1.0 -0.1796391194
C  C101  1  0.78250000  0.55470000  0.42437000  1.0 -0.1873877481
C  C102  1  0.21750000  0.05470000  0.07563000  1.0 -0.1873877481
C  C103  1  0.21750000  0.44530000  0.57563000  1.0 -0.1873877481
C  C104  1  0.78250000  0.94530000  0.92437000  1.0 -0.1873877481
C  C105  1  0.99890000  0.96340000  0.51260000  1.0 0.4765151257
C  C106  1  0.00110000  0.46340000  0.98740000  1.0 0.4765151257
C  C107  1  0.00110000  0.03660000  0.48740000  1.0 0.4765151257
C  C108  1  0.99890000  0.53660000  0.01260000  1.0 0.4765151257
C  C109  1  0.39940000  0.83880000  0.62210000  1.0 0.1098803511
C  C110  1  0.47089000  0.00410000  0.55563000  1.0 0.5291724438
C  C111  1  0.38820000  0.03620000  0.57320000  1.0 0.1098803511
C  C112  1  0.47100000  0.88160000  0.70251000  1.0 0.5101122026
C  C113  1  0.58350000  0.64970000  0.73924000  1.0 0.1098803511
C  C114  1  0.91990000  0.65740000  0.88251000  1.0 0.1098803511
C  C115  1  0.39340000  0.89510000  0.54816000  1.0 0.0307002852
C  C116  1  0.43990000  0.76690000  0.65511000  1.0 0.1002675627
C  C117  1  0.63670000  0.72220000  0.81051000  1.0 0.5291724438
C  C118  1  0.38610000  0.97860000  0.64348000  1.0 0.0307002852
C  C119  1  0.42150000  0.11350000  0.56955000  1.0 0.1002675627
C  C120  1  0.05530000  0.80140000  0.92164000  1.0 0.1098803511
C  C121  1  0.97820000  0.75870000  0.95094000  1.0 0.0307002852
C  C122  1  0.44510000  0.10340000  0.64786000  1.0 0.5291724438
C  C123  1  0.56150000  0.25170000  0.60373000  1.0 0.0912080176
C  C124  1  0.74370000  0.64220000  0.86440000  1.0 0.0307002852
C  C125  1  0.64190000  0.65080000  0.69972000  1.0 0.5101122026
C  C126  1  0.85340000  0.72060000  0.90701000  1.0 0.5174138511
C  C127  1  0.50940000  0.13480000  0.54584000  1.0 0.0307002852
C  C128  1  0.65860000  0.61870000  0.77427000  1.0 0.1098803511
C  C129  1  0.46500000  0.77900000  0.59564000  1.0 0.5101122026
C  C130  1  0.04200000  0.82870000  0.84774000  1.0 0.5291724438
C  C131  1  0.51290000  0.66000000  0.64752000  1.0 0.0210461636
C  C132  1  0.00230000  0.89760000  0.94183000  1.0 0.5291724438
C  C133  1  0.47490000  0.23200000  0.62776000  1.0 0.0307002852
C  C134  1  0.63430000  0.17000000  0.59383000  1.0 0.5174138511
C  C135  1  0.84360000  0.62320000  0.85311000  1.0 0.1098803511
C  C136  1  0.63630000  0.28610000  0.63238000  1.0 0.0912080176
C  C137  1  0.08810000  0.88380000  0.92451000  1.0 0.1002675627
C  C138  1  0.51530000  0.75820000  0.74715000  1.0 0.0307002852
C  C139  1  0.99660000  0.70020000  0.85294000  1.0 0.0307002852
C  C140  1  0.59930000  0.26880000  0.68463000  1.0 0.5101122026
C  C141  1  0.10850000  0.95230000  0.86419000  1.0 0.0210461636
C  C142  1  0.03160000  0.05170000  0.80190000  1.0 0.5101122026
C  C143  1  0.85680000  0.19200000  0.68981000  1.0 0.5174138511
C  C144  1  0.87070000  0.67130000  0.79949000  1.0 0.5101122026
C  C145  1  0.75870000  0.60030000  0.76302000  1.0 0.0210461636
C  C146  1  0.07720000  0.08650000  0.88242000  1.0 0.0912080176
C  C147  1  0.74090000  0.25040000  0.62929000  1.0 0.0210461636
C  C148  1  0.82000000  0.29660000  0.71608000  1.0 0.0912080176
C  C149  1  0.98990000  0.12800000  0.89402000  1.0 0.5174138511
C  C150  1  0.98070000  0.17670000  0.75780000  1.0 0.0210461636
C  C151  1  0.06470000  0.01940000  0.94623000  1.0 0.0210461636
C  C152  1  0.89550000  0.27280000  0.75701000  1.0 0.1002675627
C  C153  1  0.03730000  0.15810000  0.84870000  1.0 0.0912080176
C  C154  1  0.95050000  0.25280000  0.84740000  1.0 0.0122484467
C  C155  1  0.71580000  0.33020000  0.72000000  1.0 0.0122484467
C  C156  1  0.82420000  0.26750000  0.78740000  1.0 0.5021140689
C  C157  1  0.60060000  0.33880000  0.87790000  1.0 0.1098803511
C  C158  1  0.52911000  0.50410000  0.94437000  1.0 0.5291724438
C  C159  1  0.61180000  0.53620000  0.92680000  1.0 0.1098803511
C  C160  1  0.52900000  0.38160000  0.79749000  1.0 0.5101122026
C  C161  1  0.41650000  0.14970000  0.76076000  1.0 0.1098803511
C  C162  1  0.08010000  0.15740000  0.61749000  1.0 0.1098803511
C  C163  1  0.60660000  0.39510000  0.95184000  1.0 0.0307002852
C  C164  1  0.56010000  0.26690000  0.84489000  1.0 0.1002675627
C  C165  1  0.36330000  0.22220000  0.68949000  1.0 0.5291724438
C  C166  1  0.61390000  0.47860000  0.85652000  1.0 0.0307002852
C  C167  1  0.57850000  0.61350000  0.93045000  1.0 0.1002675627
C  C168  1  0.94470000  0.30140000  0.57836000  1.0 0.1098803511
C  C169  1  0.02180000  0.25870000  0.54906000  1.0 0.0307002852
C  C170  1  0.55490000  0.60340000  0.85214000  1.0 0.5291724438
C  C171  1  0.43850000  0.75170000  0.89627000  1.0 0.0912080176
C  C172  1  0.25630000  0.14220000  0.63560000  1.0 0.0307002852
C  C173  1  0.35810000  0.15080000  0.80028000  1.0 0.5101122026
C  C174  1  0.14660000  0.22060000  0.59299000  1.0 0.5174138511
C  C175  1  0.49060000  0.63480000  0.95416000  1.0 0.0307002852
C  C176  1  0.34140000  0.11870000  0.72573000  1.0 0.1098803511
C  C177  1  0.53500000  0.27900000  0.90436000  1.0 0.5101122026
C  C178  1  0.95800000  0.32870000  0.65226000  1.0 0.5291724438
C  C179  1  0.48710000  0.16000000  0.85248000  1.0 0.0210461636
C  C180  1  0.99770000  0.39760000  0.55817000  1.0 0.5291724438
C  C181  1  0.52510000  0.73200000  0.87224000  1.0 0.0307002852
C  C182  1  0.36570000  0.67000000  0.90617000  1.0 0.5174138511
C  C183  1  0.15640000  0.12320000  0.64689000  1.0 0.1098803511
C  C184  1  0.36370000  0.78610000  0.86762000  1.0 0.0912080176
C  C185  1  0.91190000  0.38380000  0.57549000  1.0 0.1002675627
C  C186  1  0.48470000  0.25820000  0.75285000  1.0 0.0307002852
C  C187  1  0.00340000  0.20020000  0.64706000  1.0 0.0307002852
C  C188  1  0.40070000  0.76880000  0.81537000  1.0 0.5101122026
C  C189  1  0.89150000  0.45230000  0.63581000  1.0 0.0210461636
C  C190  1  0.96840000  0.55170000  0.69810000  1.0 0.5101122026
C  C191  1  0.14320000  0.69200000  0.81019000  1.0 0.5174138511
C  C192  1  0.12930000  0.17130000  0.70051000  1.0 0.5101122026
C  C193  1  0.24130000  0.10030000  0.73698000  1.0 0.0210461636
C  C194  1  0.92280000  0.58650000  0.61758000  1.0 0.0912080176
C  C195  1  0.25910000  0.75040000  0.87071000  1.0 0.0210461636
C  C196  1  0.18000000  0.79660000  0.78392000  1.0 0.0912080176
C  C197  1  0.01010000  0.62800000  0.60598000  1.0 0.5174138511
C  C198  1  0.01930000  0.67670000  0.74220000  1.0 0.0210461636
C  C199  1  0.93530000  0.51940000  0.55377000  1.0 0.0210461636
C  C200  1  0.10450000  0.77280000  0.74299000  1.0 0.1002675627
C  C201  1  0.96270000  0.65810000  0.65130000  1.0 0.0912080176
C  C202  1  0.04950000  0.75280000  0.65260000  1.0 0.0122484467
C  C203  1  0.28420000  0.83020000  0.78000000  1.0 0.0122484467
C  C204  1  0.17580000  0.76750000  0.71260000  1.0 0.5021140689
C  C205  1  0.60060000  0.16120000  0.37790000  1.0 0.1098803511
C  C206  1  0.52911000  0.99590000  0.44437000  1.0 0.5291724438
C  C207  1  0.61180000  0.96380000  0.42680000  1.0 0.1098803511
C  C208  1  0.52900000  0.11840000  0.29749000  1.0 0.5101122026
C  C209  1  0.41650000  0.35030000  0.26076000  1.0 0.1098803511
C  C210  1  0.08010000  0.34260000  0.11749000  1.0 0.1098803511
C  C211  1  0.60660000  0.10490000  0.45184000  1.0 0.0307002852
C  C212  1  0.56010000  0.23310000  0.34489000  1.0 0.1002675627
C  C213  1  0.36330000  0.27780000  0.18949000  1.0 0.5291724438
C  C214  1  0.61390000  0.02140000  0.35652000  1.0 0.0307002852
C  C215  1  0.57850000  0.88650000  0.43045000  1.0 0.1002675627
C  C216  1  0.94470000  0.19860000  0.07836000  1.0 0.1098803511
C  C217  1  0.02180000  0.24130000  0.04906000  1.0 0.0307002852
C  C218  1  0.55490000  0.89660000  0.35214000  1.0 0.5291724438
C  C219  1  0.43850000  0.74830000  0.39627000  1.0 0.0912080176
C  C220  1  0.25630000  0.35780000  0.13560000  1.0 0.0307002852
C  C221  1  0.35810000  0.34920000  0.30028000  1.0 0.5101122026
C  C222  1  0.14660000  0.27940000  0.09299000  1.0 0.5174138511
C  C223  1  0.49060000  0.86520000  0.45416000  1.0 0.0307002852
C  C224  1  0.34140000  0.38130000  0.22573000  1.0 0.1098803511
C  C225  1  0.53500000  0.22100000  0.40436000  1.0 0.5101122026
C  C226  1  0.95800000  0.17130000  0.15226000  1.0 0.5291724438
C  C227  1  0.48710000  0.34000000  0.35248000  1.0 0.0210461636
C  C228  1  0.99770000  0.10240000  0.05817000  1.0 0.5291724438
C  C229  1  0.52510000  0.76800000  0.37224000  1.0 0.0307002852
C  C230  1  0.36570000  0.83000000  0.40617000  1.0 0.5174138511
C  C231  1  0.15640000  0.37680000  0.14689000  1.0 0.1098803511
C  C232  1  0.36370000  0.71390000  0.36762000  1.0 0.0912080176
C  C233  1  0.91190000  0.11620000  0.07549000  1.0 0.1002675627
C  C234  1  0.48470000  0.24180000  0.25285000  1.0 0.0307002852
C  C235  1  0.00340000  0.29980000  0.14706000  1.0 0.0307002852
C  C236  1  0.40070000  0.73120000  0.31537000  1.0 0.5101122026
C  C237  1  0.89150000  0.04770000  0.13581000  1.0 0.0210461636
C  C238  1  0.96840000  0.94830000  0.19810000  1.0 0.5101122026
C  C239  1  0.14320000  0.80800000  0.31019000  1.0 0.5174138511
C  C240  1  0.12930000  0.32870000  0.20051000  1.0 0.5101122026
C  C241  1  0.24130000  0.39970000  0.23698000  1.0 0.0210461636
C  C242  1  0.92280000  0.91350000  0.11758000  1.0 0.0912080176
C  C243  1  0.25910000  0.74960000  0.37071000  1.0 0.0210461636
C  C244  1  0.18000000  0.70340000  0.28392000  1.0 0.0912080176
C  C245  1  0.01010000  0.87200000  0.10598000  1.0 0.5174138511
C  C246  1  0.01930000  0.82330000  0.24220000  1.0 0.0210461636
C  C247  1  0.93530000  0.98060000  0.05377000  1.0 0.0210461636
C  C248  1  0.10450000  0.72720000  0.24299000  1.0 0.1002675627
C  C249  1  0.96270000  0.84190000  0.15130000  1.0 0.0912080176
C  C250  1  0.04950000  0.74720000  0.15260000  1.0 0.0122484467
C  C251  1  0.28420000  0.66980000  0.28000000  1.0 0.0122484467
C  C252  1  0.17580000  0.73250000  0.21260000  1.0 0.5021140689
C  C253  1  0.39940000  0.66120000  0.12210000  1.0 0.1098803511
C  C254  1  0.47089000  0.49590000  0.05563000  1.0 0.5291724438
C  C255  1  0.38820000  0.46380000  0.07320000  1.0 0.1098803511
C  C256  1  0.47100000  0.61840000  0.20251000  1.0 0.5101122026
C  C257  1  0.58350000  0.85030000  0.23924000  1.0 0.1098803511
C  C258  1  0.91990000  0.84260000  0.38251000  1.0 0.1098803511
C  C259  1  0.39340000  0.60490000  0.04816000  1.0 0.0307002852
C  C260  1  0.43990000  0.73310000  0.15511000  1.0 0.1002675627
C  C261  1  0.63670000  0.77780000  0.31051000  1.0 0.5291724438
C  C262  1  0.38610000  0.52140000  0.14348000  1.0 0.0307002852
C  C263  1  0.42150000  0.38650000  0.06955000  1.0 0.1002675627
C  C264  1  0.05530000  0.69860000  0.42164000  1.0 0.1098803511
C  C265  1  0.97820000  0.74130000  0.45094000  1.0 0.0307002852
C  C266  1  0.44510000  0.39660000  0.14786000  1.0 0.5291724438
C  C267  1  0.56150000  0.24830000  0.10373000  1.0 0.0912080176
C  C268  1  0.74370000  0.85780000  0.36440000  1.0 0.0307002852
C  C269  1  0.64190000  0.84920000  0.19972000  1.0 0.5101122026
C  C270  1  0.85340000  0.77940000  0.40701000  1.0 0.5174138511
C  C271  1  0.50940000  0.36520000  0.04584000  1.0 0.0307002852
C  C272  1  0.65860000  0.88130000  0.27427000  1.0 0.1098803511
C  C273  1  0.46500000  0.72100000  0.09564000  1.0 0.5101122026
C  C274  1  0.04200000  0.67130000  0.34774000  1.0 0.5291724438
C  C275  1  0.51290000  0.84000000  0.14752000  1.0 0.0210461636
C  C276  1  0.00230000  0.60240000  0.44183000  1.0 0.5291724438
C  C277  1  0.47490000  0.26800000  0.12776000  1.0 0.0307002852
C  C278  1  0.63430000  0.33000000  0.09383000  1.0 0.5174138511
C  C279  1  0.84360000  0.87680000  0.35311000  1.0 0.1098803511
C  C280  1  0.63630000  0.21390000  0.13238000  1.0 0.0912080176
C  C281  1  0.08810000  0.61620000  0.42451000  1.0 0.1002675627
C  C282  1  0.51530000  0.74180000  0.24715000  1.0 0.0307002852
C  C283  1  0.99660000  0.79980000  0.35294000  1.0 0.0307002852
C  C284  1  0.59930000  0.23120000  0.18463000  1.0 0.5101122026
C  C285  1  0.10850000  0.54770000  0.36419000  1.0 0.0210461636
C  C286  1  0.03160000  0.44830000  0.30190000  1.0 0.5101122026
C  C287  1  0.85680000  0.30800000  0.18981000  1.0 0.5174138511
C  C288  1  0.87070000  0.82870000  0.29949000  1.0 0.5101122026
C  C289  1  0.75870000  0.89970000  0.26302000  1.0 0.0210461636
C  C290  1  0.07720000  0.41350000  0.38242000  1.0 0.0912080176
C  C291  1  0.74090000  0.24960000  0.12929000  1.0 0.0210461636
C  C292  1  0.82000000  0.20340000  0.21608000  1.0 0.0912080176
C  C293  1  0.98990000  0.37200000  0.39402000  1.0 0.5174138511
C  C294  1  0.98070000  0.32330000  0.25780000  1.0 0.0210461636
C  C295  1  0.06470000  0.48060000  0.44623000  1.0 0.0210461636
C  C296  1  0.89550000  0.22720000  0.25701000  1.0 0.1002675627
C  C297  1  0.03730000  0.34190000  0.34870000  1.0 0.0912080176
C  C298  1  0.95050000  0.24720000  0.34740000  1.0 0.0122484467
C  C299  1  0.71580000  0.16980000  0.22000000  1.0 0.0122484467
C  C300  1  0.82420000  0.23250000  0.28740000  1.0 0.5021140689
N  N1  1  0.65705000  0.67040000  0.13815000  1.0 0.1178718593
N  N2  1  0.34295000  0.17040000  0.36185000  1.0 0.1178718593
N  N3  1  0.34295000  0.32960000  0.86185000  1.0 0.1178718593
N  N4  1  0.65705000  0.82960000  0.63815000  1.0 0.1178718593
N  N5  1  0.76050000  0.57604000  0.37417000  1.0 0.1178718593
N  N6  1  0.23950000  0.07604000  0.12583000  1.0 0.1178718593
N  N7  1  0.23950000  0.42396000  0.62583000  1.0 0.1178718593
N  N8  1  0.76050000  0.92396000  0.87417000  1.0 0.1178718593
N  N9  1  0.58217000  0.72198000  0.76233000  1.0 -0.2800414635
N  N10  1  0.42313000  0.90403000  0.65523000  1.0 -0.2397734487
N  N11  1  0.91621000  0.71910000  0.91143000  1.0 -0.2679982667
N  N12  1  0.80963000  0.66730000  0.87229000  1.0 -0.2679982667
N  N13  1  0.40968000  0.03646000  0.62347000  1.0 -0.2397734487
N  N14  1  0.57866000  0.66088000  0.69419000  1.0 -0.2472725523
N  N15  1  0.56884000  0.17709000  0.58513000  1.0 -0.2397734487
N  N16  1  0.42253000  0.84103000  0.58909000  1.0 -0.259133468
N  N17  1  0.48504000  0.80266000  0.70241000  1.0 -0.259133468
N  N18  1  0.47654000  0.73525000  0.63431000  1.0 -0.259133468
N  N19  1  0.68339000  0.66480000  0.81768000  1.0 -0.2472725523
N  N20  1  0.54496000  0.24370000  0.63960000  1.0 -0.2397734487
N  N21  1  0.45190000  0.14985000  0.61691000  1.0 -0.2397734487
N  N22  1  0.42060000  0.97499000  0.56170000  1.0 -0.259133468
N  N23  1  0.92847000  0.68610000  0.84507000  1.0 -0.259133468
N  N24  1  0.00619000  0.81838000  0.93483000  1.0 -0.2472725523
N  N25  1  0.07693000  0.89142000  0.87709000  1.0 -0.2397734487
N  N26  1  0.67600000  0.22940000  0.62431000  1.0 -0.2126511818
N  N27  1  0.69216000  0.63710000  0.74856000  1.0 -0.2800414635
N  N28  1  0.47439000  0.08503000  0.56122000  1.0 -0.259133468
N  N29  1  0.02370000  0.77900000  0.87161000  1.0 -0.259133468
N  N30  1  0.06980000  0.02590000  0.84890000  1.0 -0.2397734487
N  N31  1  0.04662000  0.93724000  0.93337000  1.0 -0.2472725523
N  N32  1  0.03870000  0.07080000  0.90459000  1.0 -0.2397734487
N  N33  1  0.81880000  0.64030000  0.80378000  1.0 -0.2397734487
N  N34  1  0.90920000  0.20400000  0.73736000  1.0 -0.2283737744
N  N35  1  0.80260000  0.24180000  0.67780000  1.0 -0.2472725523
N  N36  1  0.00710000  0.12640000  0.80039000  1.0 -0.2397734487
N  N37  1  0.65410000  0.28830000  0.68162000  1.0 -0.2203711213
N  N38  1  0.78090000  0.28700000  0.73845000  1.0 -0.2283737744
N  N39  1  0.98670000  0.17770000  0.86013000  1.0 -0.2283737744
N  N40  1  0.88980000  0.25600000  0.79791000  1.0 -0.2203711213
N  N41  1  0.41783000  0.22198000  0.73767000  1.0 -0.2800414635
N  N42  1  0.57687000  0.40403000  0.84477000  1.0 -0.2397734487
N  N43  1  0.08379000  0.21910000  0.58857000  1.0 -0.2679982667
N  N44  1  0.19037000  0.16730000  0.62771000  1.0 -0.2679982667
N  N45  1  0.59032000  0.53646000  0.87653000  1.0 -0.2397734487
N  N46  1  0.42134000  0.16088000  0.80581000  1.0 -0.2472725523
N  N47  1  0.43116000  0.67709000  0.91487000  1.0 -0.2397734487
N  N48  1  0.57747000  0.34103000  0.91091000  1.0 -0.259133468
N  N49  1  0.51496000  0.30266000  0.79759000  1.0 -0.259133468
N  N50  1  0.52346000  0.23525000  0.86569000  1.0 -0.259133468
N  N51  1  0.31661000  0.16480000  0.68232000  1.0 -0.2472725523
N  N52  1  0.45504000  0.74370000  0.86040000  1.0 -0.2397734487
N  N53  1  0.54810000  0.64985000  0.88309000  1.0 -0.2397734487
N  N54  1  0.57940000  0.47499000  0.93830000  1.0 -0.259133468
N  N55  1  0.07153000  0.18610000  0.65493000  1.0 -0.259133468
N  N56  1  0.99381000  0.31838000  0.56517000  1.0 -0.2472725523
N  N57  1  0.92307000  0.39142000  0.62291000  1.0 -0.2397734487
N  N58  1  0.32400000  0.72940000  0.87569000  1.0 -0.2126511818
N  N59  1  0.30784000  0.13710000  0.75144000  1.0 -0.2800414635
N  N60  1  0.52561000  0.58503000  0.93878000  1.0 -0.259133468
N  N61  1  0.97630000  0.27900000  0.62839000  1.0 -0.259133468
N  N62  1  0.93020000  0.52590000  0.65110000  1.0 -0.2397734487
N  N63  1  0.95338000  0.43724000  0.56663000  1.0 -0.2472725523
N  N64  1  0.96130000  0.57080000  0.59541000  1.0 -0.2397734487
N  N65  1  0.18120000  0.14030000  0.69622000  1.0 -0.2397734487
N  N66  1  0.09080000  0.70400000  0.76264000  1.0 -0.2283737744
N  N67  1  0.19740000  0.74180000  0.82220000  1.0 -0.2472725523
N  N68  1  0.99290000  0.62640000  0.69961000  1.0 -0.2397734487
N  N69  1  0.34590000  0.78830000  0.81838000  1.0 -0.2203711213
N  N70  1  0.21910000  0.78700000  0.76155000  1.0 -0.2283737744
N  N71  1  0.01330000  0.67770000  0.63987000  1.0 -0.2283737744
N  N72  1  0.11020000  0.75600000  0.70209000  1.0 -0.2203711213
N  N73  1  0.41783000  0.27802000  0.23767000  1.0 -0.2800414635
N  N74  1  0.57687000  0.09597000  0.34477000  1.0 -0.2397734487
N  N75  1  0.08379000  0.28090000  0.08857000  1.0 -0.2679982667
N  N76  1  0.19037000  0.33270000  0.12771000  1.0 -0.2679982667
N  N77  1  0.59032000  0.96354000  0.37653000  1.0 -0.2397734487
N  N78  1  0.42134000  0.33912000  0.30581000  1.0 -0.2472725523
N  N79  1  0.43116000  0.82291000  0.41487000  1.0 -0.2397734487
N  N80  1  0.57747000  0.15897000  0.41091000  1.0 -0.259133468
N  N81  1  0.51496000  0.19734000  0.29759000  1.0 -0.259133468
N  N82  1  0.52346000  0.26475000  0.36569000  1.0 -0.259133468
N  N83  1  0.31661000  0.33520000  0.18232000  1.0 -0.2472725523
N  N84  1  0.45504000  0.75630000  0.36040000  1.0 -0.2397734487
N  N85  1  0.54810000  0.85015000  0.38309000  1.0 -0.2397734487
N  N86  1  0.57940000  0.02501000  0.43830000  1.0 -0.259133468
N  N87  1  0.07153000  0.31390000  0.15493000  1.0 -0.259133468
N  N88  1  0.99381000  0.18162000  0.06517000  1.0 -0.2472725523
N  N89  1  0.92307000  0.10858000  0.12291000  1.0 -0.2397734487
N  N90  1  0.32400000  0.77060000  0.37569000  1.0 -0.2126511818
N  N91  1  0.30784000  0.36290000  0.25144000  1.0 -0.2800414635
N  N92  1  0.52561000  0.91497000  0.43878000  1.0 -0.259133468
N  N93  1  0.97630000  0.22100000  0.12839000  1.0 -0.259133468
N  N94  1  0.93020000  0.97410000  0.15110000  1.0 -0.2397734487
N  N95  1  0.95338000  0.06276000  0.06663000  1.0 -0.2472725523
N  N96  1  0.96130000  0.92920000  0.09541000  1.0 -0.2397734487
N  N97  1  0.18120000  0.35970000  0.19622000  1.0 -0.2397734487
N  N98  1  0.09080000  0.79600000  0.26264000  1.0 -0.2283737744
N  N99  1  0.19740000  0.75820000  0.32220000  1.0 -0.2472725523
N  N100  1  0.99290000  0.87360000  0.19961000  1.0 -0.2397734487
N  N101  1  0.34590000  0.71170000  0.31838000  1.0 -0.2203711213
N  N102  1  0.21910000  0.71300000  0.26155000  1.0 -0.2283737744
N  N103  1  0.01330000  0.82230000  0.13987000  1.0 -0.2283737744
N  N104  1  0.11020000  0.74400000  0.20209000  1.0 -0.2203711213
N  N105  1  0.58217000  0.77802000  0.26233000  1.0 -0.2800414635
N  N106  1  0.42313000  0.59597000  0.15523000  1.0 -0.2397734487
N  N107  1  0.91621000  0.78090000  0.41143000  1.0 -0.2679982667
N  N108  1  0.80963000  0.83270000  0.37229000  1.0 -0.2679982667
N  N109  1  0.40968000  0.46354000  0.12347000  1.0 -0.2397734487
N  N110  1  0.57866000  0.83912000  0.19419000  1.0 -0.2472725523
N  N111  1  0.56884000  0.32291000  0.08513000  1.0 -0.2397734487
N  N112  1  0.42253000  0.65897000  0.08909000  1.0 -0.259133468
N  N113  1  0.48504000  0.69734000  0.20241000  1.0 -0.259133468
N  N114  1  0.47654000  0.76475000  0.13431000  1.0 -0.259133468
N  N115  1  0.68339000  0.83520000  0.31768000  1.0 -0.2472725523
N  N116  1  0.54496000  0.25630000  0.13960000  1.0 -0.2397734487
N  N117  1  0.45190000  0.35015000  0.11691000  1.0 -0.2397734487
N  N118  1  0.42060000  0.52501000  0.06170000  1.0 -0.259133468
N  N119  1  0.92847000  0.81390000  0.34507000  1.0 -0.259133468
N  N120  1  0.00619000  0.68162000  0.43483000  1.0 -0.2472725523
N  N121  1  0.07693000  0.60858000  0.37709000  1.0 -0.2397734487
N  N122  1  0.67600000  0.27060000  0.12431000  1.0 -0.2126511818
N  N123  1  0.69216000  0.86290000  0.24856000  1.0 -0.2800414635
N  N124  1  0.47439000  0.41497000  0.06122000  1.0 -0.259133468
N  N125  1  0.02370000  0.72100000  0.37161000  1.0 -0.259133468
N  N126  1  0.06980000  0.47410000  0.34890000  1.0 -0.2397734487
N  N127  1  0.04662000  0.56276000  0.43337000  1.0 -0.2472725523
N  N128  1  0.03870000  0.42920000  0.40459000  1.0 -0.2397734487
N  N129  1  0.81880000  0.85970000  0.30378000  1.0 -0.2397734487
N  N130  1  0.90920000  0.29600000  0.23736000  1.0 -0.2283737744
N  N131  1  0.80260000  0.25820000  0.17780000  1.0 -0.2472725523
N  N132  1  0.00710000  0.37360000  0.30039000  1.0 -0.2397734487
N  N133  1  0.65410000  0.21170000  0.18162000  1.0 -0.2203711213
N  N134  1  0.78090000  0.21300000  0.23845000  1.0 -0.2283737744
N  N135  1  0.98670000  0.32230000  0.36013000  1.0 -0.2283737744
N  N136  1  0.88980000  0.24400000  0.29791000  1.0 -0.2203711213
O  O1  1  0.77555000  0.45472000  0.01218000  1.0 -0.5902334934
O  O2  1  0.22445000  0.95472000  0.48782000  1.0 -0.5902334934
O  O3  1  0.22445000  0.54528000  0.98782000  1.0 -0.5902334934
O  O4  1  0.77555000  0.04528000  0.51218000  1.0 -0.5902334934
O  O5  1  0.77538000  0.17479000  0.46498000  1.0 -0.5902334934
O  O6  1  0.22462000  0.67479000  0.03502000  1.0 -0.5902334934
O  O7  1  0.22462000  0.82521000  0.53502000  1.0 -0.5902334934
O  O8  1  0.77538000  0.32521000  0.96498000  1.0 -0.5902334934
O  O9  1  0.84430000  0.55645000  0.02885000  1.0 -0.5569779282
O  O10  1  0.15570000  0.05645000  0.47115000  1.0 -0.5569779282
O  O11  1  0.15570000  0.44355000  0.97115000  1.0 -0.5569779282
O  O12  1  0.84430000  0.94355000  0.52885000  1.0 -0.5569779282
O  O13  1  0.85490000  0.18115000  0.44838000  1.0 -0.5569779282
O  O14  1  0.14510000  0.68115000  0.05162000  1.0 -0.5527299131
O  O15  1  0.14510000  0.81885000  0.55162000  1.0 -0.5527299131
O  O16  1  0.85490000  0.31885000  0.94838000  1.0 -0.5569779282
O  O17  1  0.05200000  0.91920000  0.53140000  1.0 -0.5569779282
O  O18  1  0.94800000  0.41920000  0.96860000  1.0 -0.5569779282
O  O19  1  0.94800000  0.08080000  0.46860000  1.0 -0.5569779282
O  O20  1  0.05200000  0.58080000  0.03140000  1.0 -0.5569779282
O  O21  1  0.94570000  0.95260000  0.51400000  1.0 -0.5527299131
O  O22  1  0.05430000  0.45260000  0.98600000  1.0 -0.5527299131
O  O23  1  0.05430000  0.04740000  0.48600000  1.0 -0.5527299131
O  O24  1  0.94570000  0.54740000  0.01400000  1.0 -0.5527299131
O  O25  1  0.50692000  0.96395000  0.54629000  1.0 -0.5206609042
O  O26  1  0.48812000  0.76429000  0.57086000  1.0 -0.5295536553
O  O27  1  0.64293000  0.76661000  0.84181000  1.0 -0.5295536553
O  O28  1  0.83831000  0.76249000  0.92989000  1.0 -0.5295536553
O  O29  1  0.49638000  0.92463000  0.73778000  1.0 -0.5206609042
O  O30  1  0.65283000  0.11826000  0.57714000  1.0 -0.5206609042
O  O31  1  0.96607000  0.92707000  0.95454000  1.0 -0.5136101629
O  O32  1  0.65263000  0.65500000  0.66779000  1.0 -0.5206609042
O  O33  1  0.46543000  0.11987000  0.68943000  1.0 -0.5136101629
O  O34  1  0.02092000  0.01410000  0.76665000  1.0 -0.5136101629
O  O35  1  0.86611000  0.68360000  0.76136000  1.0 -0.5295536553
O  O36  1  0.02936000  0.81910000  0.80700000  1.0 -0.5206609042
O  O37  1  0.59710000  0.27280000  0.72058000  1.0 -0.5206609042
O  O38  1  0.95480000  0.13360000  0.91118000  1.0 -0.5036429798
O  O39  1  0.85800000  0.14480000  0.66208000  1.0 -0.5206609042
O  O40  1  0.80600000  0.26270000  0.81539000  1.0 -0.4916649645
O  O41  1  0.49308000  0.46395000  0.95371000  1.0 -0.5206609042
O  O42  1  0.51188000  0.26429000  0.92914000  1.0 -0.5295536553
O  O43  1  0.35707000  0.26661000  0.65819000  1.0 -0.5295536553
O  O44  1  0.16169000  0.26249000  0.57011000  1.0 -0.5295536553
O  O45  1  0.50362000  0.42463000  0.76222000  1.0 -0.5206609042
O  O46  1  0.34717000  0.61826000  0.92286000  1.0 -0.5206609042
O  O47  1  0.03393000  0.42707000  0.54546000  1.0 -0.5136101629
O  O48  1  0.34737000  0.15500000  0.83221000  1.0 -0.5206609042
O  O49  1  0.53457000  0.61987000  0.81057000  1.0 -0.5136101629
O  O50  1  0.97908000  0.51410000  0.73335000  1.0 -0.5136101629
O  O51  1  0.13389000  0.18360000  0.73864000  1.0 -0.5295536553
O  O52  1  0.97064000  0.31910000  0.69300000  1.0 -0.5206609042
O  O53  1  0.40290000  0.77280000  0.77942000  1.0 -0.5206609042
O  O54  1  0.04520000  0.63360000  0.58882000  1.0 -0.5036429798
O  O55  1  0.14200000  0.64480000  0.83792000  1.0 -0.5206609042
O  O56  1  0.19400000  0.76270000  0.68461000  1.0 -0.4916649645
O  O57  1  0.49308000  0.03605000  0.45371000  1.0 -0.5206609042
O  O58  1  0.51188000  0.23571000  0.42914000  1.0 -0.5295536553
O  O59  1  0.35707000  0.23339000  0.15819000  1.0 -0.5295536553
O  O60  1  0.16169000  0.23751000  0.07011000  1.0 -0.5295536553
O  O61  1  0.50362000  0.07537000  0.26222000  1.0 -0.5206609042
O  O62  1  0.34717000  0.88174000  0.42286000  1.0 -0.5206609042
O  O63  1  0.03393000  0.07293000  0.04546000  1.0 -0.5136101629
O  O64  1  0.34737000  0.34500000  0.33221000  1.0 -0.5206609042
O  O65  1  0.53457000  0.88013000  0.31057000  1.0 -0.5136101629
O  O66  1  0.97908000  0.98590000  0.23335000  1.0 -0.5136101629
O  O67  1  0.13389000  0.31640000  0.23864000  1.0 -0.5295536553
O  O68  1  0.97064000  0.18090000  0.19300000  1.0 -0.5206609042
O  O69  1  0.40290000  0.72720000  0.27942000  1.0 -0.5206609042
O  O70  1  0.04520000  0.86640000  0.08882000  1.0 -0.5036429798
O  O71  1  0.14200000  0.85520000  0.33792000  1.0 -0.5206609042
O  O72  1  0.19400000  0.73730000  0.18461000  1.0 -0.4916649645
O  O73  1  0.50692000  0.53605000  0.04629000  1.0 -0.5206609042
O  O74  1  0.48812000  0.73571000  0.07086000  1.0 -0.5295536553
O  O75  1  0.64293000  0.73339000  0.34181000  1.0 -0.5295536553
O  O76  1  0.83831000  0.73751000  0.42989000  1.0 -0.5295536553
O  O77  1  0.49638000  0.57537000  0.23778000  1.0 -0.5206609042
O  O78  1  0.65283000  0.38174000  0.07714000  1.0 -0.5206609042
O  O79  1  0.96607000  0.57293000  0.45454000  1.0 -0.5136101629
O  O80  1  0.65263000  0.84500000  0.16779000  1.0 -0.5206609042
O  O81  1  0.46543000  0.38013000  0.18943000  1.0 -0.5136101629
O  O82  1  0.02092000  0.48590000  0.26665000  1.0 -0.5136101629
O  O83  1  0.86611000  0.81640000  0.26136000  1.0 -0.5295536553
O  O84  1  0.02936000  0.68090000  0.30700000  1.0 -0.5206609042
O  O85  1  0.59710000  0.22720000  0.22058000  1.0 -0.5206609042
O  O86  1  0.95480000  0.36640000  0.41118000  1.0 -0.5036429798
O  O87  1  0.85800000  0.35520000  0.16208000  1.0 -0.5206609042
O  O88  1  0.80600000  0.23730000  0.31539000  1.0 -0.4916649645
