# DDEC6 charges by PACMAN v1.1 (https://github.com/mtap-research/PACMAN-charge/)
data_LINTOV03_ASR_pacman
_symmetry_space_group_name_H-M   'P 1'
_cell_length_a   22.91700000
_cell_length_b   17.02500000
_cell_length_c   33.14700000
_cell_angle_alpha   90.00000000
_cell_angle_beta   123.74400000
_cell_angle_gamma   90.00000000
_symmetry_Int_Tables_number   1
_chemical_formula_structural   UH68C75(N17O11)2
_chemical_formula_sum   'U4 H272 C300 N136 O88'
_cell_volume   10753.89718807
_cell_formula_units_Z   4
loop_
 _symmetry_equiv_pos_site_id
 _symmetry_equiv_pos_as_xyz
  1  'x, y, z'
loop_
 _atom_site_type_symbol
 _atom_site_label
 _atom_site_symmetry_multiplicity
 _atom_site_fract_x
 _atom_site_fract_y
 _atom_site_fract_z
 _atom_site_occupancy
 _atom_site_charge
U  U1  1  0.64232000  0.94098000  0.51337000  1.0 1.7220936471
U  U2  1  0.35768000  0.44098000  0.98663000  1.0 1.7220936471
U  U3  1  0.35768000  0.05902000  0.48663000  1.0 1.7220936471
U  U4  1  0.64232000  0.55902000  0.01337000  1.0 1.7220936471
H  H1  1  0.79678000  0.52687000  0.95303000  1.0 0.1305329636
H  H2  1  0.20322000  0.02687000  0.54697000  1.0 0.1305329636
H  H3  1  0.20322000  0.47313000  0.04697000  1.0 0.1305329636
H  H4  1  0.79678000  0.97313000  0.45303000  1.0 0.1305329636
H  H5  1  0.86129000  0.45789000  0.93029000  1.0 0.1408693616
H  H6  1  0.13871000  0.95789000  0.56971000  1.0 0.1408693616
H  H7  1  0.13871000  0.54211000  0.06971000  1.0 0.1408693616
H  H8  1  0.86129000  0.04211000  0.43029000  1.0 0.1408693616
H  H9  1  0.71462000  0.30634000  0.74923000  1.0 0.1408693616
H  H10  1  0.28538000  0.80634000  0.75077000  1.0 0.1408693616
H  H11  1  0.28538000  0.69366000  0.25077000  1.0 0.1408693616
H  H12  1  0.71462000  0.19366000  0.24923000  1.0 0.1408693616
H  H13  1  0.67580000  0.36897000  0.68392000  1.0 0.1466153393
H  H14  1  0.32420000  0.86897000  0.81608000  1.0 0.1466153393
H  H15  1  0.32420000  0.63103000  0.31608000  1.0 0.1466153393
H  H16  1  0.67580000  0.13103000  0.18392000  1.0 0.1466153393
H  H17  1  0.89496000  0.42487000  0.80424000  1.0 0.1466153393
H  H18  1  0.10504000  0.92487000  0.69576000  1.0 0.1466153393
H  H19  1  0.10504000  0.57513000  0.19576000  1.0 0.1466153393
H  H20  1  0.89496000  0.07513000  0.30424000  1.0 0.1466153393
H  H21  1  0.62162000  0.54635000  0.56315000  1.0 0.1408693616
H  H22  1  0.37838000  0.04635000  0.93685000  1.0 0.1408693616
H  H23  1  0.37838000  0.45365000  0.43685000  1.0 0.1408693616
H  H24  1  0.62162000  0.95365000  0.06315000  1.0 0.1408693616
H  H25  1  0.61316000  0.68161000  0.55636000  1.0 0.1408693616
H  H26  1  0.38684000  0.18161000  0.94364000  1.0 0.1408693616
H  H27  1  0.38684000  0.31839000  0.44364000  1.0 0.1408693616
H  H28  1  0.61316000  0.81839000  0.05636000  1.0 0.1408693616
H  H29  1  0.92499000  0.39188000  0.88067000  1.0 0.1196896341
H  H30  1  0.07501000  0.89188000  0.61933000  1.0 0.1196896341
H  H31  1  0.07501000  0.60812000  0.11933000  1.0 0.1196896341
H  H32  1  0.92499000  0.10812000  0.38067000  1.0 0.1196896341
H  H33  1  0.64595000  0.40204000  0.60744000  1.0 0.1196896341
H  H34  1  0.35405000  0.90204000  0.89256000  1.0 0.1196896341
H  H35  1  0.35405000  0.59796000  0.39256000  1.0 0.1196896341
H  H36  1  0.64595000  0.09796000  0.10744000  1.0 0.1196896341
H  H37  1  0.87651000  0.41510000  0.73347000  1.0 0.1408693616
H  H38  1  0.12349000  0.91510000  0.76653000  1.0 0.1408693616
H  H39  1  0.12349000  0.58490000  0.26653000  1.0 0.1408693616
H  H40  1  0.87651000  0.08490000  0.23347000  1.0 0.1408693616
H  H41  1  0.74950000  0.27467000  0.82712000  1.0 0.1305329636
H  H42  1  0.25050000  0.77467000  0.67288000  1.0 0.1305329636
H  H43  1  0.25050000  0.72533000  0.17288000  1.0 0.1305329636
H  H44  1  0.74950000  0.22533000  0.32712000  1.0 0.1305329636
H  H45  1  0.70241000  0.32615000  0.95040000  1.0 0.1305329636
H  H46  1  0.29759000  0.82615000  0.54960000  1.0 0.1305329636
H  H47  1  0.29759000  0.67385000  0.04960000  1.0 0.1305329636
H  H48  1  0.70241000  0.17385000  0.45040000  1.0 0.1305329636
H  H49  1  0.76502000  0.25839000  0.92513000  1.0 0.1305329636
H  H50  1  0.23498000  0.75839000  0.57487000  1.0 0.1305329636
H  H51  1  0.23498000  0.74161000  0.07487000  1.0 0.1305329636
H  H52  1  0.76502000  0.24161000  0.42513000  1.0 0.1305329636
H  H53  1  0.85456000  0.25070000  0.91078000  1.0 0.1408693616
H  H54  1  0.14544000  0.75070000  0.58922000  1.0 0.1408693616
H  H55  1  0.14544000  0.74930000  0.08922000  1.0 0.1408693616
H  H56  1  0.85456000  0.24930000  0.41078000  1.0 0.1408693616
H  H57  1  0.91126000  0.31888000  0.93264000  1.0 0.1408693616
H  H58  1  0.08874000  0.81888000  0.56736000  1.0 0.1408693616
H  H59  1  0.08874000  0.68112000  0.06736000  1.0 0.1408693616
H  H60  1  0.91126000  0.18112000  0.43264000  1.0 0.1408693616
H  H61  1  0.84237000  0.44557000  0.65573000  1.0 0.1305329636
H  H62  1  0.15763000  0.94557000  0.84427000  1.0 0.1305329636
H  H63  1  0.15763000  0.55443000  0.34427000  1.0 0.1305329636
H  H64  1  0.84237000  0.05443000  0.15573000  1.0 0.1305329636
H  H65  1  0.75563000  0.42868000  0.57008000  1.0 0.1305329636
H  H66  1  0.24437000  0.92868000  0.92992000  1.0 0.1305329636
H  H67  1  0.24437000  0.57132000  0.42992000  1.0 0.1305329636
H  H68  1  0.75563000  0.07132000  0.07008000  1.0 0.1305329636
H  H69  1  0.67540000  0.42325000  0.55174000  1.0 0.1408693616
H  H70  1  0.32460000  0.92325000  0.94826000  1.0 0.1408693616
H  H71  1  0.32460000  0.57675000  0.44826000  1.0 0.1408693616
H  H72  1  0.67540000  0.07675000  0.05174000  1.0 0.1408693616
H  H73  1  0.80346000  0.55452000  0.57142000  1.0 0.1196896341
H  H74  1  0.19654000  0.05452000  0.92858000  1.0 0.1196896341
H  H75  1  0.19654000  0.44548000  0.42858000  1.0 0.1196896341
H  H76  1  0.80346000  0.94548000  0.07142000  1.0 0.1196896341
H  H77  1  0.78966000  0.68917000  0.55720000  1.0 0.1196896341
H  H78  1  0.21034000  0.18917000  0.94280000  1.0 0.1196896341
H  H79  1  0.21034000  0.31083000  0.44280000  1.0 0.1196896341
H  H80  1  0.78966000  0.81083000  0.05720000  1.0 0.1196896341
H  H81  1  0.54557000  0.38225000  0.09578000  1.0 0.0814202236
H  H82  1  0.15113000  0.16867000  0.39590000  1.0 0.0900893148
H  H83  1  0.10797000  0.00000000  0.32708000  1.0 0.100048
H  H84  1  0.16404000  0.03146000  0.37990000  1.0 0.100048
H  H85  1  0.09203000  0.27131000  0.34494000  1.0 0.0900893148
H  H86  1  0.95151000  0.38651000  0.26314000  1.0 0.100048
H  H87  1  0.40910000  0.23548000  0.05576000  1.0 0.0814202236
H  H88  1  0.16230000  0.96620000  0.44924000  1.0 0.0814202236
H  H89  1  0.09341000  0.12640000  0.47346000  1.0 0.1196896341
H  H90  1  0.15537000  0.10505000  0.46741000  1.0 0.1112309851
H  H91  1  0.11341000  0.85476000  0.45707000  1.0 0.0814202236
H  H92  1  0.65644000  0.43188000  0.13860000  1.0 0.0814202236
H  H93  1  0.97834000  0.20571000  0.22638000  1.0 0.1112309851
H  H94  1  0.01778000  0.28210000  0.25670000  1.0 0.1112309851
H  H95  1  0.76116000  0.32790000  0.10908000  1.0 0.1112309851
H  H96  1  0.75702000  0.40981000  0.12998000  1.0 0.0814202236
H  H97  1  0.86371000  0.66276000  0.38100000  1.0 0.0814202236
H  H98  1  0.84088000  0.43489000  0.21705000  1.0 0.0814202236
H  H99  1  0.01716000  0.37838000  0.35088000  1.0 0.100048
H  H100  1  0.97782000  0.35352000  0.37584000  1.0 0.1112309851
H  H101  1  0.53335000  0.21593000  0.02654000  1.0 0.1196896341
H  H102  1  0.48496000  0.27983000  0.02868000  1.0 0.100048
H  H103  1  0.36343000  0.11319000  0.04988000  1.0 0.0814202236
H  H104  1  0.97406000  0.71549000  0.42420000  1.0 0.0814202236
H  H105  1  0.02523000  0.82894000  0.47849000  1.0 0.0900893148
H  H106  1  0.97484000  0.89907000  0.47111000  1.0 0.1196896341
H  H107  1  0.47059000  0.33788000  0.12265000  1.0 0.100048
H  H108  1  0.50835000  0.30734000  0.17671000  1.0 0.1112309851
H  H109  1  0.37719000  0.90363000  0.09536000  1.0 0.0814202236
H  H110  1  0.02644000  0.75368000  0.34474000  1.0 0.1112309851
H  H111  1  0.05774000  0.73870000  0.40032000  1.0 0.100048
H  H112  1  0.34776000  0.03774000  0.11008000  1.0 0.100048
H  H113  1  0.39282000  0.06885000  0.16415000  1.0 0.1112309851
H  H114  1  0.73603000  0.39951000  0.26232000  1.0 0.1112309851
H  H115  1  0.74121000  0.45384000  0.22566000  1.0 0.0900893148
H  H116  1  0.57202000  0.68676000  0.23645000  1.0 0.100048
H  H117  1  0.68178000  0.65004000  0.29596000  1.0 0.0900893148
H  H118  1  0.75500000  0.78344000  0.39413000  1.0 0.1196896341
H  H119  1  0.76326000  0.69579000  0.38222000  1.0 0.0900893148
H  H120  1  0.48996000  0.78059000  0.23393000  1.0 0.1112309851
H  H121  1  0.52008000  0.85483000  0.26847000  1.0 0.1196896341
H  H122  1  0.45687000  0.96328000  0.03637000  1.0 0.1196896341
H  H123  1  0.38675000  0.97577000  0.03426000  1.0 0.0900893148
H  H124  1  0.56944000  0.74068000  0.13301000  1.0 0.1196896341
H  H125  1  0.52039000  0.70846000  0.14896000  1.0 0.100048
H  H126  1  0.78331000  0.61916000  0.29528000  1.0 0.0900893148
H  H127  1  0.79170000  0.65885000  0.25556000  1.0 0.1196896341
H  H128  1  0.43428000  0.80035000  0.14614000  1.0 0.0814202236
H  H129  1  0.45443000  0.88225000  0.40422000  1.0 0.0814202236
H  H130  1  0.84887000  0.66867000  0.10410000  1.0 0.0900893148
H  H131  1  0.89203000  0.50000000  0.17292000  1.0 0.100048
H  H132  1  0.83596000  0.53146000  0.12010000  1.0 0.100048
H  H133  1  0.90797000  0.77131000  0.15506000  1.0 0.0900893148
H  H134  1  0.04849000  0.88651000  0.23686000  1.0 0.100048
H  H135  1  0.59090000  0.73548000  0.44424000  1.0 0.0814202236
H  H136  1  0.83770000  0.46620000  0.05076000  1.0 0.0814202236
H  H137  1  0.90659000  0.62640000  0.02654000  1.0 0.1196896341
H  H138  1  0.84463000  0.60505000  0.03259000  1.0 0.1112309851
H  H139  1  0.88659000  0.35476000  0.04293000  1.0 0.0814202236
H  H140  1  0.34356000  0.93188000  0.36140000  1.0 0.0814202236
H  H141  1  0.02166000  0.70571000  0.27362000  1.0 0.1112309851
H  H142  1  0.98222000  0.78210000  0.24330000  1.0 0.1112309851
H  H143  1  0.23884000  0.82790000  0.39092000  1.0 0.1112309851
H  H144  1  0.24298000  0.90981000  0.37002000  1.0 0.0814202236
H  H145  1  0.13629000  0.16276000  0.11900000  1.0 0.0814202236
H  H146  1  0.15912000  0.93489000  0.28295000  1.0 0.0814202236
H  H147  1  0.98284000  0.87838000  0.14912000  1.0 0.100048
H  H148  1  0.02218000  0.85352000  0.12416000  1.0 0.1112309851
H  H149  1  0.46665000  0.71593000  0.47346000  1.0 0.1196896341
H  H150  1  0.51504000  0.77983000  0.47132000  1.0 0.100048
H  H151  1  0.63657000  0.61319000  0.45012000  1.0 0.0814202236
H  H152  1  0.02594000  0.21549000  0.07580000  1.0 0.0814202236
H  H153  1  0.97477000  0.32894000  0.02151000  1.0 0.100048
H  H154  1  0.02516000  0.39907000  0.02889000  1.0 0.1196896341
H  H155  1  0.52941000  0.83788000  0.37735000  1.0 0.100048
H  H156  1  0.49165000  0.80734000  0.32329000  1.0 0.1112309851
H  H157  1  0.62281000  0.40363000  0.40464000  1.0 0.0814202236
H  H158  1  0.97356000  0.25368000  0.15526000  1.0 0.1112309851
H  H159  1  0.94226000  0.23870000  0.09968000  1.0 0.100048
H  H160  1  0.65224000  0.53774000  0.38992000  1.0 0.100048
H  H161  1  0.60718000  0.56885000  0.33585000  1.0 0.1112309851
H  H162  1  0.26397000  0.89951000  0.23768000  1.0 0.1112309851
H  H163  1  0.25879000  0.95384000  0.27434000  1.0 0.0900893148
H  H164  1  0.42798000  0.18676000  0.26355000  1.0 0.100048
H  H165  1  0.31822000  0.15004000  0.20404000  1.0 0.0900893148
H  H166  1  0.24500000  0.28344000  0.10587000  1.0 0.1196896341
H  H167  1  0.23674000  0.19579000  0.11778000  1.0 0.0900893148
H  H168  1  0.51004000  0.28059000  0.26607000  1.0 0.1112309851
H  H169  1  0.47992000  0.35483000  0.23153000  1.0 0.1196896341
H  H170  1  0.54313000  0.46328000  0.46363000  1.0 0.1196896341
H  H171  1  0.61325000  0.47577000  0.46574000  1.0 0.0900893148
H  H172  1  0.43056000  0.24068000  0.36699000  1.0 0.1196896341
H  H173  1  0.47961000  0.20846000  0.35104000  1.0 0.100048
H  H174  1  0.21669000  0.11916000  0.20472000  1.0 0.0900893148
H  H175  1  0.20830000  0.15885000  0.24444000  1.0 0.1196896341
H  H176  1  0.56572000  0.30035000  0.35386000  1.0 0.0814202236
H  H177  1  0.45443000  0.61775000  0.90422000  1.0 0.0814202236
H  H178  1  0.84887000  0.83133000  0.60410000  1.0 0.0900893148
H  H179  1  0.89203000  0.00000000  0.67292000  1.0 0.100048
H  H180  1  0.83596000  0.96854000  0.62010000  1.0 0.100048
H  H181  1  0.90797000  0.72869000  0.65506000  1.0 0.0900893148
H  H182  1  0.04849000  0.61349000  0.73686000  1.0 0.100048
H  H183  1  0.59090000  0.76452000  0.94424000  1.0 0.0814202236
H  H184  1  0.83770000  0.03380000  0.55076000  1.0 0.0814202236
H  H185  1  0.90659000  0.87360000  0.52654000  1.0 0.1196896341
H  H186  1  0.84463000  0.89495000  0.53259000  1.0 0.1112309851
H  H187  1  0.88659000  0.14524000  0.54293000  1.0 0.0814202236
H  H188  1  0.34356000  0.56812000  0.86140000  1.0 0.0814202236
H  H189  1  0.02166000  0.79429000  0.77362000  1.0 0.1112309851
H  H190  1  0.98222000  0.71790000  0.74330000  1.0 0.1112309851
H  H191  1  0.23884000  0.67210000  0.89092000  1.0 0.1112309851
H  H192  1  0.24298000  0.59019000  0.87002000  1.0 0.0814202236
H  H193  1  0.13629000  0.33724000  0.61900000  1.0 0.0814202236
H  H194  1  0.15912000  0.56511000  0.78295000  1.0 0.0814202236
H  H195  1  0.98284000  0.62162000  0.64912000  1.0 0.100048
H  H196  1  0.02218000  0.64648000  0.62416000  1.0 0.1112309851
H  H197  1  0.46665000  0.78407000  0.97346000  1.0 0.1196896341
H  H198  1  0.51504000  0.72017000  0.97132000  1.0 0.100048
H  H199  1  0.63657000  0.88681000  0.95012000  1.0 0.0814202236
H  H200  1  0.02594000  0.28451000  0.57580000  1.0 0.0814202236
H  H201  1  0.97477000  0.17106000  0.52151000  1.0 0.100048
H  H202  1  0.02516000  0.10093000  0.52889000  1.0 0.1196896341
H  H203  1  0.52941000  0.66212000  0.87735000  1.0 0.100048
H  H204  1  0.49165000  0.69266000  0.82329000  1.0 0.1112309851
H  H205  1  0.62281000  0.09637000  0.90464000  1.0 0.0814202236
H  H206  1  0.97356000  0.24632000  0.65526000  1.0 0.1112309851
H  H207  1  0.94226000  0.26130000  0.59968000  1.0 0.100048
H  H208  1  0.65224000  0.96226000  0.88992000  1.0 0.100048
H  H209  1  0.60718000  0.93115000  0.83585000  1.0 0.1112309851
H  H210  1  0.26397000  0.60049000  0.73768000  1.0 0.1112309851
H  H211  1  0.25879000  0.54616000  0.77434000  1.0 0.0900893148
H  H212  1  0.42798000  0.31324000  0.76355000  1.0 0.100048
H  H213  1  0.31822000  0.34996000  0.70404000  1.0 0.0900893148
H  H214  1  0.24500000  0.21656000  0.60587000  1.0 0.1196896341
H  H215  1  0.23674000  0.30421000  0.61778000  1.0 0.0900893148
H  H216  1  0.51004000  0.21941000  0.76607000  1.0 0.1112309851
H  H217  1  0.47992000  0.14517000  0.73153000  1.0 0.1196896341
H  H218  1  0.54313000  0.03672000  0.96363000  1.0 0.1196896341
H  H219  1  0.61325000  0.02423000  0.96574000  1.0 0.0900893148
H  H220  1  0.43056000  0.25932000  0.86699000  1.0 0.1196896341
H  H221  1  0.47961000  0.29154000  0.85104000  1.0 0.100048
H  H222  1  0.21669000  0.38084000  0.70472000  1.0 0.0900893148
H  H223  1  0.20830000  0.34115000  0.74444000  1.0 0.1196896341
H  H224  1  0.56572000  0.19965000  0.85386000  1.0 0.0814202236
H  H225  1  0.54557000  0.11775000  0.59578000  1.0 0.0814202236
H  H226  1  0.15113000  0.33133000  0.89590000  1.0 0.0900893148
H  H227  1  0.10797000  0.50000000  0.82708000  1.0 0.100048
H  H228  1  0.16404000  0.46854000  0.87990000  1.0 0.100048
H  H229  1  0.09203000  0.22869000  0.84494000  1.0 0.0900893148
H  H230  1  0.95151000  0.11349000  0.76314000  1.0 0.100048
H  H231  1  0.40910000  0.26452000  0.55576000  1.0 0.0814202236
H  H232  1  0.16230000  0.53380000  0.94924000  1.0 0.0814202236
H  H233  1  0.09341000  0.37360000  0.97346000  1.0 0.1196896341
H  H234  1  0.15537000  0.39495000  0.96741000  1.0 0.1112309851
H  H235  1  0.11341000  0.64524000  0.95707000  1.0 0.0814202236
H  H236  1  0.65644000  0.06812000  0.63860000  1.0 0.0814202236
H  H237  1  0.97834000  0.29429000  0.72638000  1.0 0.1112309851
H  H238  1  0.01778000  0.21790000  0.75670000  1.0 0.1112309851
H  H239  1  0.76116000  0.17210000  0.60908000  1.0 0.1112309851
H  H240  1  0.75702000  0.09019000  0.62998000  1.0 0.0814202236
H  H241  1  0.86371000  0.83724000  0.88100000  1.0 0.0814202236
H  H242  1  0.84088000  0.06511000  0.71705000  1.0 0.0814202236
H  H243  1  0.01716000  0.12162000  0.85088000  1.0 0.100048
H  H244  1  0.97782000  0.14648000  0.87584000  1.0 0.1112309851
H  H245  1  0.53335000  0.28407000  0.52654000  1.0 0.1196896341
H  H246  1  0.48496000  0.22017000  0.52868000  1.0 0.100048
H  H247  1  0.36343000  0.38681000  0.54988000  1.0 0.0814202236
H  H248  1  0.97406000  0.78451000  0.92420000  1.0 0.0814202236
H  H249  1  0.02523000  0.67106000  0.97849000  1.0 0.0900893148
H  H250  1  0.97484000  0.60093000  0.97111000  1.0 0.1196896341
H  H251  1  0.47059000  0.16212000  0.62265000  1.0 0.100048
H  H252  1  0.50835000  0.19266000  0.67671000  1.0 0.1112309851
H  H253  1  0.37719000  0.59637000  0.59536000  1.0 0.0814202236
H  H254  1  0.02644000  0.74632000  0.84474000  1.0 0.1112309851
H  H255  1  0.05774000  0.76130000  0.90032000  1.0 0.100048
H  H256  1  0.34776000  0.46226000  0.61008000  1.0 0.100048
H  H257  1  0.39282000  0.43115000  0.66415000  1.0 0.1112309851
H  H258  1  0.73603000  0.10049000  0.76232000  1.0 0.1112309851
H  H259  1  0.74121000  0.04616000  0.72566000  1.0 0.0900893148
H  H260  1  0.57202000  0.81324000  0.73645000  1.0 0.100048
H  H261  1  0.68178000  0.84996000  0.79596000  1.0 0.0900893148
H  H262  1  0.75500000  0.71656000  0.89413000  1.0 0.1196896341
H  H263  1  0.76326000  0.80421000  0.88222000  1.0 0.0900893148
H  H264  1  0.48996000  0.71941000  0.73393000  1.0 0.1112309851
H  H265  1  0.52008000  0.64517000  0.76847000  1.0 0.1196896341
H  H266  1  0.45687000  0.53672000  0.53637000  1.0 0.1196896341
H  H267  1  0.38675000  0.52423000  0.53426000  1.0 0.0900893148
H  H268  1  0.56944000  0.75932000  0.63301000  1.0 0.1196896341
H  H269  1  0.52039000  0.79154000  0.64896000  1.0 0.100048
H  H270  1  0.78331000  0.88084000  0.79528000  1.0 0.0900893148
H  H271  1  0.79170000  0.84115000  0.75556000  1.0 0.1196896341
H  H272  1  0.43428000  0.69965000  0.64614000  1.0 0.0814202236
C  C1  1  0.79052000  0.47240000  0.94777000  1.0 -0.0710668622
C  C2  1  0.20948000  0.97240000  0.55223000  1.0 -0.0710668622
C  C3  1  0.20948000  0.52760000  0.05223000  1.0 -0.0710668622
C  C4  1  0.79052000  0.02760000  0.44777000  1.0 -0.0710668622
C  C5  1  0.70632000  0.47610000  0.97243000  1.0 0.5379253531
C  C6  1  0.29368000  0.97610000  0.52757000  1.0 0.5379253531
C  C7  1  0.29368000  0.52390000  0.02757000  1.0 0.5379253531
C  C8  1  0.70632000  0.02390000  0.47243000  1.0 0.5379253531
C  C9  1  0.74338000  0.43300000  0.95398000  1.0 -0.03774431
C  C10  1  0.25662000  0.93300000  0.54602000  1.0 -0.03774431
C  C11  1  0.25662000  0.56700000  0.04602000  1.0 -0.03774431
C  C12  1  0.74338000  0.06700000  0.45398000  1.0 -0.03774431
C  C13  1  0.69110000  0.78540000  0.54828000  1.0 0.5310326034
C  C14  1  0.30890000  0.28540000  0.95172000  1.0 0.5310326034
C  C15  1  0.30890000  0.21460000  0.45172000  1.0 0.5310326034
C  C16  1  0.69110000  0.71460000  0.04828000  1.0 0.5310326034
C  C17  1  0.80101000  0.36800000  0.76756000  1.0 0.1112309851
C  C18  1  0.19899000  0.86800000  0.73244000  1.0 0.1112309851
C  C19  1  0.19899000  0.63200000  0.23244000  1.0 0.1112309851
C  C20  1  0.80101000  0.13200000  0.26756000  1.0 0.1112309851
C  C21  1  0.78041000  0.38820000  0.71786000  1.0 0.1112309851
C  C22  1  0.21959000  0.88820000  0.78214000  1.0 0.1112309851
C  C23  1  0.21959000  0.61180000  0.28214000  1.0 0.1112309851
C  C24  1  0.78041000  0.11180000  0.21786000  1.0 0.1112309851
C  C25  1  0.70100000  0.69870000  0.55622000  1.0 -0.0294334583
C  C26  1  0.29900000  0.19870000  0.94378000  1.0 -0.0294334583
C  C27  1  0.29900000  0.30130000  0.44378000  1.0 -0.0294334583
C  C28  1  0.70100000  0.80130000  0.05622000  1.0 -0.0294334583
C  C29  1  0.82840000  0.43120000  0.93375000  1.0 -0.1409014112
C  C30  1  0.17160000  0.93120000  0.56625000  1.0 -0.1409014112
C  C31  1  0.17160000  0.56880000  0.06625000  1.0 -0.1409014112
C  C32  1  0.82840000  0.06880000  0.43375000  1.0 -0.1409014112
C  C33  1  0.75830000  0.32390000  0.77563000  1.0 -0.1804498427
C  C34  1  0.24170000  0.82390000  0.72437000  1.0 -0.1804498427
C  C35  1  0.24170000  0.67610000  0.22437000  1.0 -0.1804498427
C  C36  1  0.75830000  0.17610000  0.27563000  1.0 -0.1804498427
C  C37  1  0.71070000  0.38480000  0.67903000  1.0 -0.1890028674
C  C38  1  0.28930000  0.88480000  0.82097000  1.0 -0.1890028674
C  C39  1  0.28930000  0.61520000  0.32097000  1.0 -0.1890028674
C  C40  1  0.71070000  0.11520000  0.17903000  1.0 -0.1890028674
C  C41  1  0.86450000  0.39390000  0.80814000  1.0 -0.1804498427
C  C42  1  0.13550000  0.89390000  0.69186000  1.0 -0.1804498427
C  C43  1  0.13550000  0.60610000  0.19186000  1.0 -0.1804498427
C  C44  1  0.86450000  0.10610000  0.30814000  1.0 -0.1804498427
C  C45  1  0.65660000  0.57530000  0.56323000  1.0 -0.1349958128
C  C46  1  0.34340000  0.07530000  0.93677000  1.0 -0.1349958128
C  C47  1  0.34340000  0.42470000  0.43677000  1.0 -0.1349958128
C  C48  1  0.65660000  0.92470000  0.06323000  1.0 -0.1349958128
C  C49  1  0.65090000  0.65570000  0.55831000  1.0 -0.0710668622
C  C50  1  0.34910000  0.15570000  0.94169000  1.0 -0.0710668622
C  C51  1  0.34910000  0.34430000  0.44169000  1.0 -0.0710668622
C  C52  1  0.65090000  0.84430000  0.05831000  1.0 -0.0710668622
C  C53  1  0.88220000  0.37410000  0.85349000  1.0 0.0202603528
C  C54  1  0.11780000  0.87410000  0.64651000  1.0 0.0202603528
C  C55  1  0.11780000  0.62590000  0.14651000  1.0 0.0202603528
C  C56  1  0.88220000  0.12590000  0.35349000  1.0 0.0202603528
C  C57  1  0.81880000  0.35150000  0.92475000  1.0 0.100048
C  C58  1  0.18120000  0.85150000  0.57525000  1.0 0.100048
C  C59  1  0.18120000  0.64850000  0.07525000  1.0 0.100048
C  C60  1  0.81880000  0.14850000  0.42475000  1.0 0.100048
C  C61  1  0.69320000  0.40460000  0.63361000  1.0 0.0300640703
C  C62  1  0.30680000  0.90460000  0.86639000  1.0 0.0300640703
C  C63  1  0.30680000  0.59540000  0.36639000  1.0 0.0300640703
C  C64  1  0.69320000  0.09540000  0.13361000  1.0 0.0300640703
C  C65  1  0.50260000  0.03730000  0.48890000  1.0 0.4722686315
C  C66  1  0.49740000  0.53730000  0.01110000  1.0 0.4722686315
C  C67  1  0.49740000  0.96270000  0.51110000  1.0 0.4722686315
C  C68  1  0.50260000  0.46270000  0.98890000  1.0 0.4722686315
C  C69  1  0.82890000  0.41180000  0.70805000  1.0 -0.1736486799
C  C70  1  0.17110000  0.91180000  0.79195000  1.0 -0.1736486799
C  C71  1  0.17110000  0.58820000  0.29195000  1.0 -0.1736486799
C  C72  1  0.82890000  0.08820000  0.20805000  1.0 -0.1736486799
C  C73  1  0.77910000  0.30530000  0.82215000  1.0 0.0577341782
C  C74  1  0.22090000  0.80530000  0.67785000  1.0 0.0577341782
C  C75  1  0.22090000  0.69470000  0.17785000  1.0 0.0577341782
C  C76  1  0.77910000  0.19470000  0.32215000  1.0 0.0577341782
C  C77  1  0.73410000  0.35320000  0.94588000  1.0 -0.0999157524
C  C78  1  0.26590000  0.85320000  0.55412000  1.0 -0.0999157524
C  C79  1  0.26590000  0.64680000  0.05412000  1.0 -0.0999157524
C  C80  1  0.73410000  0.14680000  0.44588000  1.0 -0.0999157524
C  C81  1  0.71340000  0.53680000  0.56829000  1.0 0.100048
C  C82  1  0.28660000  0.03680000  0.93171000  1.0 0.100048
C  C83  1  0.28660000  0.46320000  0.43171000  1.0 0.100048
C  C84  1  0.71340000  0.96320000  0.06829000  1.0 0.100048
C  C85  1  0.77180000  0.31270000  0.93097000  1.0 -0.1804498427
C  C86  1  0.22820000  0.81270000  0.56903000  1.0 -0.1804498427
C  C87  1  0.22820000  0.68730000  0.06903000  1.0 -0.1804498427
C  C88  1  0.77180000  0.18730000  0.43097000  1.0 -0.1804498427
C  C89  1  0.86130000  0.30730000  0.90971000  1.0 -0.1890028674
C  C90  1  0.13870000  0.80730000  0.59029000  1.0 -0.1890028674
C  C91  1  0.13870000  0.69270000  0.09029000  1.0 -0.1890028674
C  C92  1  0.86130000  0.19270000  0.40971000  1.0 -0.1890028674
C  C93  1  0.80860000  0.43040000  0.66187000  1.0 0.0477454465
C  C94  1  0.19140000  0.93040000  0.83813000  1.0 0.0477454465
C  C95  1  0.19140000  0.56960000  0.33813000  1.0 0.0477454465
C  C96  1  0.80860000  0.06960000  0.16187000  1.0 0.0477454465
C  C97  1  0.72030000  0.44830000  0.57549000  1.0 -0.1890028674
C  C98  1  0.27970000  0.94830000  0.92451000  1.0 -0.1890028674
C  C99  1  0.27970000  0.55170000  0.42451000  1.0 -0.1890028674
C  C100  1  0.72030000  0.05170000  0.07549000  1.0 -0.1890028674
C  C101  1  0.76400000  0.58010000  0.56715000  1.0 -0.1804498427
C  C102  1  0.23600000  0.08010000  0.93285000  1.0 -0.1804498427
C  C103  1  0.23600000  0.41990000  0.43285000  1.0 -0.1804498427
C  C104  1  0.76400000  0.91990000  0.06715000  1.0 -0.1804498427
C  C105  1  0.75670000  0.66070000  0.55977000  1.0 -0.1126424933
C  C106  1  0.24330000  0.16070000  0.94023000  1.0 -0.1126424933
C  C107  1  0.24330000  0.33930000  0.44023000  1.0 -0.1126424933
C  C108  1  0.75670000  0.83930000  0.05977000  1.0 -0.1126424933
C  C109  1  0.58069000  0.34160000  0.11615000  1.0 0.100048
C  C110  1  0.02779000  0.99680000  0.44399000  1.0 0.5379253531
C  C111  1  0.09967000  0.16120000  0.37760000  1.0 0.100048
C  C112  1  0.05554000  0.89840000  0.35244000  1.0 0.5310326034
C  C113  1  0.02994000  0.11830000  0.29709000  1.0 0.5109054723
C  C114  1  0.11380000  0.02200000  0.35645000  1.0 0.0202603528
C  C115  1  0.05960000  0.23220000  0.34438000  1.0 0.100048
C  C116  1  0.91615000  0.34840000  0.25934000  1.0 0.1112309851
C  C117  1  0.44580000  0.19770000  0.07831000  1.0 0.1112309851
C  C118  1  0.64610000  0.27740000  0.09144000  1.0 0.5179306173
C  C119  1  0.11063000  0.96570000  0.42630000  1.0 0.1112309851
C  C120  1  0.10420000  0.10590000  0.45068000  1.0 0.0300640703
C  C121  1  0.07800000  0.88890000  0.43045000  1.0 0.100048
C  C122  1  0.65620000  0.37490000  0.14460000  1.0 0.100048
C  C123  1  0.03274000  0.22030000  0.40282000  1.0 0.5109054723
C  C124  1  0.86338000  0.27420000  0.18880000  1.0 0.5310326034
C  C125  1  0.98490000  0.24070000  0.25210000  1.0 0.0300640703
C  C126  1  0.75670000  0.35280000  0.13391000  1.0 0.0202603528
C  C127  1  0.86440000  0.71570000  0.36891000  1.0 0.0900893148
C  C128  1  0.49890000  0.10250000  0.05805000  1.0 0.5310326034
C  C129  1  0.84148000  0.37820000  0.22398000  1.0 0.100048
C  C130  1  0.98660000  0.33840000  0.35111000  1.0 0.0202603528
C  C131  1  0.52160000  0.24070000  0.04785000  1.0 0.0300640703
C  C132  1  0.41390000  0.11590000  0.07613000  1.0 0.100048
C  C133  1  0.85720000  0.34930000  0.29842000  1.0 0.5109054723
C  C134  1  0.94010000  0.75080000  0.39766000  1.0 0.100048
C  C135  1  0.99090000  0.86650000  0.45471000  1.0 0.0300640703
C  C136  1  0.90120000  0.73330000  0.31641000  1.0 0.5109054723
C  C137  1  0.50440000  0.29950000  0.14599000  1.0 0.0361104363
C  C138  1  0.42720000  0.91590000  0.11978000  1.0 0.100048
C  C139  1  0.46090000  0.17150000  0.15273000  1.0 0.5310326034
C  C140  1  0.62990000  0.32880000  0.19909000  1.0 0.5109054723
C  C141  1  0.02480000  0.77120000  0.37227000  1.0 0.0300640703
C  C142  1  0.47180000  0.94970000  0.19972000  1.0 0.5109054723
C  C143  1  0.86660000  0.83020000  0.40761000  1.0 0.5179306173
C  C144  1  0.39570000  0.04860000  0.13762000  1.0 0.0202603528
C  C145  1  0.64570000  0.80920000  0.31154000  1.0 0.5179306173
C  C146  1  0.74100000  0.39910000  0.23481000  1.0 0.0300640703
C  C147  1  0.51410000  0.87400000  0.10801000  1.0 0.5179306173
C  C148  1  0.60650000  0.72920000  0.24463000  1.0 0.100048
C  C149  1  0.68090000  0.70470000  0.28544000  1.0 0.0900893148
C  C150  1  0.76040000  0.75050000  0.37215000  1.0 0.0130580258
C  C151  1  0.52160000  0.82570000  0.24350000  1.0 0.0202603528
C  C152  1  0.43790000  0.98120000  0.05499000  1.0 0.0300640703
C  C153  1  0.55340000  0.75030000  0.15450000  1.0 0.0130580258
C  C154  1  0.78590000  0.66970000  0.28220000  1.0 0.0130580258
C  C155  1  0.46660000  0.84460000  0.15300000  1.0 0.0900893148
C  C156  1  0.67880000  0.73240000  0.21510000  1.0 0.5021497661
C  C157  1  0.41931000  0.84160000  0.38385000  1.0 0.100048
C  C158  1  0.97221000  0.49680000  0.05601000  1.0 0.5379253531
C  C159  1  0.90033000  0.66120000  0.12240000  1.0 0.100048
C  C160  1  0.94446000  0.39840000  0.14756000  1.0 0.5310326034
C  C161  1  0.97006000  0.61830000  0.20291000  1.0 0.5109054723
C  C162  1  0.88620000  0.52200000  0.14355000  1.0 0.0202603528
C  C163  1  0.94040000  0.73220000  0.15562000  1.0 0.100048
C  C164  1  0.08385000  0.84840000  0.24066000  1.0 0.1112309851
C  C165  1  0.55420000  0.69770000  0.42169000  1.0 0.1112309851
C  C166  1  0.35390000  0.77740000  0.40856000  1.0 0.5179306173
C  C167  1  0.88937000  0.46570000  0.07370000  1.0 0.1112309851
C  C168  1  0.89580000  0.60590000  0.04932000  1.0 0.0300640703
C  C169  1  0.92200000  0.38890000  0.06955000  1.0 0.100048
C  C170  1  0.34380000  0.87490000  0.35540000  1.0 0.100048
C  C171  1  0.96726000  0.72030000  0.09718000  1.0 0.5109054723
C  C172  1  0.13662000  0.77420000  0.31120000  1.0 0.5310326034
C  C173  1  0.01510000  0.74070000  0.24790000  1.0 0.0300640703
C  C174  1  0.24330000  0.85280000  0.36609000  1.0 0.0300640703
C  C175  1  0.13560000  0.21570000  0.13109000  1.0 0.0900893148
C  C176  1  0.50110000  0.60250000  0.44195000  1.0 0.5310326034
C  C177  1  0.15852000  0.87820000  0.27602000  1.0 0.100048
C  C178  1  0.01340000  0.83840000  0.14889000  1.0 0.0202603528
C  C179  1  0.47840000  0.74070000  0.45215000  1.0 0.0300640703
C  C180  1  0.58610000  0.61590000  0.42387000  1.0 0.100048
C  C181  1  0.14280000  0.84930000  0.20158000  1.0 0.5109054723
C  C182  1  0.05990000  0.25080000  0.10234000  1.0 0.100048
C  C183  1  0.00910000  0.36650000  0.04529000  1.0 0.0300640703
C  C184  1  0.09880000  0.23330000  0.18359000  1.0 0.5109054723
C  C185  1  0.49560000  0.79950000  0.35401000  1.0 0.0361104363
C  C186  1  0.57280000  0.41590000  0.38022000  1.0 0.100048
C  C187  1  0.53910000  0.67150000  0.34727000  1.0 0.5310326034
C  C188  1  0.37010000  0.82880000  0.30091000  1.0 0.5109054723
C  C189  1  0.97520000  0.27120000  0.12773000  1.0 0.0300640703
C  C190  1  0.52820000  0.44970000  0.30028000  1.0 0.5109054723
C  C191  1  0.13340000  0.33020000  0.09239000  1.0 0.5179306173
C  C192  1  0.60430000  0.54860000  0.36238000  1.0 0.0202603528
C  C193  1  0.35430000  0.30920000  0.18846000  1.0 0.5179306173
C  C194  1  0.25900000  0.89910000  0.26519000  1.0 0.0300640703
C  C195  1  0.48590000  0.37400000  0.39199000  1.0 0.5179306173
C  C196  1  0.39350000  0.22920000  0.25537000  1.0 0.100048
C  C197  1  0.31910000  0.20470000  0.21456000  1.0 0.0900893148
C  C198  1  0.23960000  0.25050000  0.12785000  1.0 0.0130580258
C  C199  1  0.47840000  0.32570000  0.25650000  1.0 0.0202603528
C  C200  1  0.56210000  0.48120000  0.44501000  1.0 0.0300640703
C  C201  1  0.44660000  0.25030000  0.34550000  1.0 0.0130580258
C  C202  1  0.21410000  0.16970000  0.21780000  1.0 0.0130580258
C  C203  1  0.53340000  0.34460000  0.34700000  1.0 0.0900893148
C  C204  1  0.32120000  0.23240000  0.28490000  1.0 0.5021497661
C  C205  1  0.41931000  0.65840000  0.88385000  1.0 0.100048
C  C206  1  0.97221000  0.00320000  0.55601000  1.0 0.5379253531
C  C207  1  0.90033000  0.83880000  0.62240000  1.0 0.100048
C  C208  1  0.94446000  0.10160000  0.64756000  1.0 0.5310326034
C  C209  1  0.97006000  0.88170000  0.70291000  1.0 0.5109054723
C  C210  1  0.88620000  0.97800000  0.64355000  1.0 0.0202603528
C  C211  1  0.94040000  0.76780000  0.65562000  1.0 0.100048
C  C212  1  0.08385000  0.65160000  0.74066000  1.0 0.1112309851
C  C213  1  0.55420000  0.80230000  0.92169000  1.0 0.1112309851
C  C214  1  0.35390000  0.72260000  0.90856000  1.0 0.5179306173
C  C215  1  0.88937000  0.03430000  0.57370000  1.0 0.1112309851
C  C216  1  0.89580000  0.89410000  0.54932000  1.0 0.0300640703
C  C217  1  0.92200000  0.11110000  0.56955000  1.0 0.100048
C  C218  1  0.34380000  0.62510000  0.85540000  1.0 0.100048
C  C219  1  0.96726000  0.77970000  0.59718000  1.0 0.5109054723
C  C220  1  0.13662000  0.72580000  0.81120000  1.0 0.5310326034
C  C221  1  0.01510000  0.75930000  0.74790000  1.0 0.0300640703
C  C222  1  0.24330000  0.64720000  0.86609000  1.0 0.0300640703
C  C223  1  0.13560000  0.28430000  0.63109000  1.0 0.0900893148
C  C224  1  0.50110000  0.89750000  0.94195000  1.0 0.5310326034
C  C225  1  0.15852000  0.62180000  0.77602000  1.0 0.100048
C  C226  1  0.01340000  0.66160000  0.64889000  1.0 0.0202603528
C  C227  1  0.47840000  0.75930000  0.95215000  1.0 0.0300640703
C  C228  1  0.58610000  0.88410000  0.92387000  1.0 0.100048
C  C229  1  0.14280000  0.65070000  0.70158000  1.0 0.5109054723
C  C230  1  0.05990000  0.24920000  0.60234000  1.0 0.100048
C  C231  1  0.00910000  0.13350000  0.54529000  1.0 0.0300640703
C  C232  1  0.09880000  0.26670000  0.68359000  1.0 0.5109054723
C  C233  1  0.49560000  0.70050000  0.85401000  1.0 0.0361104363
C  C234  1  0.57280000  0.08410000  0.88022000  1.0 0.100048
C  C235  1  0.53910000  0.82850000  0.84727000  1.0 0.5310326034
C  C236  1  0.37010000  0.67120000  0.80091000  1.0 0.5109054723
C  C237  1  0.97520000  0.22880000  0.62773000  1.0 0.0300640703
C  C238  1  0.52820000  0.05030000  0.80028000  1.0 0.5109054723
C  C239  1  0.13340000  0.16980000  0.59239000  1.0 0.5179306173
C  C240  1  0.60430000  0.95140000  0.86238000  1.0 0.0202603528
C  C241  1  0.35430000  0.19080000  0.68846000  1.0 0.5179306173
C  C242  1  0.25900000  0.60090000  0.76519000  1.0 0.0300640703
C  C243  1  0.48590000  0.12600000  0.89199000  1.0 0.5179306173
C  C244  1  0.39350000  0.27080000  0.75537000  1.0 0.100048
C  C245  1  0.31910000  0.29530000  0.71456000  1.0 0.0900893148
C  C246  1  0.23960000  0.24950000  0.62785000  1.0 0.0130580258
C  C247  1  0.47840000  0.17430000  0.75650000  1.0 0.0202603528
C  C248  1  0.56210000  0.01880000  0.94501000  1.0 0.0300640703
C  C249  1  0.44660000  0.24970000  0.84550000  1.0 0.0130580258
C  C250  1  0.21410000  0.33030000  0.71780000  1.0 0.0130580258
C  C251  1  0.53340000  0.15540000  0.84700000  1.0 0.0900893148
C  C252  1  0.32120000  0.26760000  0.78490000  1.0 0.5021497661
C  C253  1  0.58069000  0.15840000  0.61615000  1.0 0.100048
C  C254  1  0.02779000  0.50320000  0.94399000  1.0 0.5379253531
C  C255  1  0.09967000  0.33880000  0.87760000  1.0 0.100048
C  C256  1  0.05554000  0.60160000  0.85244000  1.0 0.5310326034
C  C257  1  0.02994000  0.38170000  0.79709000  1.0 0.5109054723
C  C258  1  0.11380000  0.47800000  0.85645000  1.0 0.0202603528
C  C259  1  0.05960000  0.26780000  0.84438000  1.0 0.100048
C  C260  1  0.91615000  0.15160000  0.75934000  1.0 0.1112309851
C  C261  1  0.44580000  0.30230000  0.57831000  1.0 0.1112309851
C  C262  1  0.64610000  0.22260000  0.59144000  1.0 0.5179306173
C  C263  1  0.11063000  0.53430000  0.92630000  1.0 0.1112309851
C  C264  1  0.10420000  0.39410000  0.95068000  1.0 0.0300640703
C  C265  1  0.07800000  0.61110000  0.93045000  1.0 0.100048
C  C266  1  0.65620000  0.12510000  0.64460000  1.0 0.100048
C  C267  1  0.03274000  0.27970000  0.90282000  1.0 0.5109054723
C  C268  1  0.86338000  0.22580000  0.68880000  1.0 0.5310326034
C  C269  1  0.98490000  0.25930000  0.75210000  1.0 0.0300640703
C  C270  1  0.75670000  0.14720000  0.63391000  1.0 0.0300640703
C  C271  1  0.86440000  0.78430000  0.86891000  1.0 0.0900893148
C  C272  1  0.49890000  0.39750000  0.55805000  1.0 0.5310326034
C  C273  1  0.84148000  0.12180000  0.72398000  1.0 0.100048
C  C274  1  0.98660000  0.16160000  0.85111000  1.0 0.0202603528
C  C275  1  0.52160000  0.25930000  0.54785000  1.0 0.0300640703
C  C276  1  0.41390000  0.38410000  0.57613000  1.0 0.100048
C  C277  1  0.85720000  0.15070000  0.79842000  1.0 0.5109054723
C  C278  1  0.94010000  0.74920000  0.89766000  1.0 0.100048
C  C279  1  0.99090000  0.63350000  0.95471000  1.0 0.0300640703
C  C280  1  0.90120000  0.76670000  0.81641000  1.0 0.5109054723
C  C281  1  0.50440000  0.20050000  0.64599000  1.0 0.0361104363
C  C282  1  0.42720000  0.58410000  0.61978000  1.0 0.100048
C  C283  1  0.46090000  0.32850000  0.65273000  1.0 0.5310326034
C  C284  1  0.62990000  0.17120000  0.69909000  1.0 0.5109054723
C  C285  1  0.02480000  0.72880000  0.87227000  1.0 0.0300640703
C  C286  1  0.47180000  0.55030000  0.69972000  1.0 0.5109054723
C  C287  1  0.86660000  0.66980000  0.90761000  1.0 0.5179306173
C  C288  1  0.39570000  0.45140000  0.63762000  1.0 0.0202603528
C  C289  1  0.64570000  0.69080000  0.81154000  1.0 0.5179306173
C  C290  1  0.74100000  0.10090000  0.73481000  1.0 0.0300640703
C  C291  1  0.51410000  0.62600000  0.60801000  1.0 0.5179306173
C  C292  1  0.60650000  0.77080000  0.74463000  1.0 0.100048
C  C293  1  0.68090000  0.79530000  0.78544000  1.0 0.0900893148
C  C294  1  0.76040000  0.74950000  0.87215000  1.0 0.0130580258
C  C295  1  0.52160000  0.67430000  0.74350000  1.0 0.0202603528
C  C296  1  0.43790000  0.51880000  0.55499000  1.0 0.0300640703
C  C297  1  0.55340000  0.74970000  0.65450000  1.0 0.0130580258
C  C298  1  0.78590000  0.83030000  0.78220000  1.0 0.0130580258
C  C299  1  0.46660000  0.65540000  0.65300000  1.0 0.0900893148
C  C300  1  0.67880000  0.76760000  0.71510000  1.0 0.5021497661
N  N1  1  0.83993000  0.32980000  0.86007000  1.0 0.1196896341
N  N2  1  0.16007000  0.82980000  0.63993000  1.0 0.1196896341
N  N3  1  0.16007000  0.67020000  0.13993000  1.0 0.1196896341
N  N4  1  0.83993000  0.17020000  0.36007000  1.0 0.1196896341
N  N5  1  0.74120000  0.42716000  0.62558000  1.0 0.1196896341
N  N6  1  0.25880000  0.92716000  0.87442000  1.0 0.1196896341
N  N7  1  0.25880000  0.57284000  0.37442000  1.0 0.1196896341
N  N8  1  0.74120000  0.07284000  0.12558000  1.0 0.1196896341
N  N9  1  0.07700000  0.09627000  0.34442000  1.0 -0.2394142395
N  N10  1  0.91775000  0.27616000  0.23684000  1.0 -0.2781146066
N  N11  1  0.69041000  0.33020000  0.12615000  1.0 -0.270640502
N  N12  1  0.58314000  0.28010000  0.08694000  1.0 -0.2781146066
N  N13  1  0.07514000  0.15853000  0.40965000  1.0 -0.2605214308
N  N14  1  0.92035000  0.33778000  0.30409000  1.0 -0.2527642118
N  N15  1  0.01506000  0.19625000  0.29674000  1.0 -0.2605214308
N  N16  1  0.09006000  0.96491000  0.37653000  1.0 -0.2394142395
N  N17  1  0.49427000  0.18132000  0.06452000  1.0 -0.2605214308
N  N18  1  0.04750000  0.85261000  0.38298000  1.0 -0.2394142395
N  N19  1  0.93214000  0.82393000  0.41617000  1.0 -0.2394142395
N  N20  1  0.81648000  0.33117000  0.18126000  1.0 -0.2527642118
N  N21  1  0.57195000  0.31358000  0.15350000  1.0 -0.2605214308
N  N22  1  0.02260000  0.26375000  0.36443000  1.0 -0.2605214308
N  N23  1  0.42566000  0.10870000  0.12357000  1.0 -0.2527642118
N  N24  1  0.95532000  0.75916000  0.36099000  1.0 -0.2297062899
N  N25  1  0.02509000  0.91618000  0.43862000  1.0 -0.270640502
N  N26  1  0.07774000  0.02570000  0.43750000  1.0 -0.2527642118
N  N27  1  0.80800000  0.36290000  0.25005000  1.0 -0.2781146066
N  N28  1  0.47800000  0.22100000  0.12820000  1.0 -0.270640502
N  N29  1  0.43490000  0.97560000  0.15310000  1.0 -0.2297062899
N  N30  1  0.45556000  0.06321000  0.06735000  1.0 -0.2527642118
N  N31  1  0.68150000  0.35950000  0.19459000  1.0 -0.2605214308
N  N32  1  0.82517000  0.77100000  0.37742000  1.0 -0.2127034014
N  N33  1  0.59310000  0.79720000  0.26435000  1.0 -0.2297062899
N  N34  1  0.46500000  0.93130000  0.09732000  1.0 -0.2605214308
N  N35  1  0.84670000  0.71250000  0.31990000  1.0 -0.2297062899
N  N36  1  0.61340000  0.74620000  0.20447000  1.0 -0.222608315
N  N37  1  0.72070000  0.71200000  0.26324000  1.0 -0.2297062899
N  N38  1  0.49640000  0.87620000  0.20173000  1.0 -0.2394142395
N  N39  1  0.69880000  0.75950000  0.32356000  1.0 -0.2394142395
N  N40  1  0.51690000  0.82490000  0.14165000  1.0 -0.222608315
N  N41  1  0.92300000  0.59627000  0.15558000  1.0 -0.2394142395
N  N42  1  0.08225000  0.77616000  0.26316000  1.0 -0.2781146066
N  N43  1  0.30959000  0.83020000  0.37385000  1.0 -0.270640502
N  N44  1  0.41686000  0.78010000  0.41306000  1.0 -0.2781146066
N  N45  1  0.92486000  0.65853000  0.09035000  1.0 -0.2605214308
N  N46  1  0.07965000  0.83778000  0.19591000  1.0 -0.2527642118
N  N47  1  0.98494000  0.69625000  0.20326000  1.0 -0.2605214308
N  N48  1  0.90994000  0.46491000  0.12347000  1.0 -0.2394142395
N  N49  1  0.50573000  0.68132000  0.43548000  1.0 -0.2605214308
N  N50  1  0.95250000  0.35261000  0.11702000  1.0 -0.2394142395
N  N51  1  0.06786000  0.32393000  0.08383000  1.0 -0.2394142395
N  N52  1  0.18352000  0.83117000  0.31874000  1.0 -0.2527642118
N  N53  1  0.42805000  0.81358000  0.34650000  1.0 -0.2605214308
N  N54  1  0.97740000  0.76375000  0.13557000  1.0 -0.2605214308
N  N55  1  0.57434000  0.60870000  0.37643000  1.0 -0.2527642118
N  N56  1  0.04468000  0.25916000  0.13901000  1.0 -0.2394142395
N  N57  1  0.97491000  0.41618000  0.06138000  1.0 -0.270640502
N  N58  1  0.92226000  0.52570000  0.06250000  1.0 -0.2527642118
N  N59  1  0.19200000  0.86290000  0.24995000  1.0 -0.2781146066
N  N60  1  0.52200000  0.72100000  0.37180000  1.0 -0.270640502
N  N61  1  0.56510000  0.47560000  0.34690000  1.0 -0.2297062899
N  N62  1  0.54444000  0.56321000  0.43265000  1.0 -0.2527642118
N  N63  1  0.31850000  0.85950000  0.30541000  1.0 -0.2527642118
N  N64  1  0.17483000  0.27100000  0.12258000  1.0 -0.2127034014
N  N65  1  0.40690000  0.29720000  0.23565000  1.0 -0.2297062899
N  N66  1  0.53500000  0.43130000  0.40268000  1.0 -0.2605214308
N  N67  1  0.15330000  0.21250000  0.18010000  1.0 -0.2297062899
N  N68  1  0.38660000  0.24620000  0.29553000  1.0 -0.222608315
N  N69  1  0.27930000  0.21200000  0.23676000  1.0 -0.2297062899
N  N70  1  0.50360000  0.37620000  0.29827000  1.0 -0.2394142395
N  N71  1  0.30120000  0.25950000  0.17644000  1.0 -0.2394142395
N  N72  1  0.48310000  0.32490000  0.35835000  1.0 -0.222608315
N  N73  1  0.92300000  0.90373000  0.65558000  1.0 -0.2394142395
N  N74  1  0.08225000  0.72384000  0.76316000  1.0 -0.2781146066
N  N75  1  0.30959000  0.66980000  0.87385000  1.0 -0.270640502
N  N76  1  0.41686000  0.71990000  0.91306000  1.0 -0.2781146066
N  N77  1  0.92486000  0.84147000  0.59035000  1.0 -0.2605214308
N  N78  1  0.07965000  0.66222000  0.69591000  1.0 -0.2527642118
N  N79  1  0.98494000  0.80375000  0.70326000  1.0 -0.2605214308
N  N80  1  0.90994000  0.03509000  0.62347000  1.0 -0.2394142395
N  N81  1  0.50573000  0.81868000  0.93548000  1.0 -0.2605214308
N  N82  1  0.95250000  0.14739000  0.61702000  1.0 -0.2394142395
N  N83  1  0.06786000  0.17607000  0.58383000  1.0 -0.2394142395
N  N84  1  0.18352000  0.66883000  0.81874000  1.0 -0.2527642118
N  N85  1  0.42805000  0.68642000  0.84650000  1.0 -0.2605214308
N  N86  1  0.97740000  0.73625000  0.63557000  1.0 -0.2605214308
N  N87  1  0.57434000  0.89130000  0.87643000  1.0 -0.2527642118
N  N88  1  0.04468000  0.24084000  0.63901000  1.0 -0.2394142395
N  N89  1  0.97491000  0.08382000  0.56138000  1.0 -0.270640502
N  N90  1  0.92226000  0.97430000  0.56250000  1.0 -0.2605214308
N  N91  1  0.19200000  0.63710000  0.74995000  1.0 -0.2781146066
N  N92  1  0.52200000  0.77900000  0.87180000  1.0 -0.270640502
N  N93  1  0.56510000  0.02440000  0.84690000  1.0 -0.2297062899
N  N94  1  0.54444000  0.93679000  0.93265000  1.0 -0.2527642118
N  N95  1  0.31850000  0.64050000  0.80541000  1.0 -0.2527642118
N  N96  1  0.17483000  0.22900000  0.62258000  1.0 -0.2127034014
N  N97  1  0.40690000  0.20280000  0.73565000  1.0 -0.2297062899
N  N98  1  0.53500000  0.06870000  0.90268000  1.0 -0.2605214308
N  N99  1  0.15330000  0.28750000  0.68010000  1.0 -0.2297062899
N  N100  1  0.38660000  0.25380000  0.79553000  1.0 -0.222608315
N  N101  1  0.27930000  0.28800000  0.73676000  1.0 -0.2297062899
N  N102  1  0.50360000  0.12380000  0.79827000  1.0 -0.2394142395
N  N103  1  0.30120000  0.24050000  0.67644000  1.0 -0.2394142395
N  N104  1  0.48310000  0.17510000  0.85835000  1.0 -0.222608315
N  N105  1  0.07700000  0.40373000  0.84442000  1.0 -0.2394142395
N  N106  1  0.91775000  0.22384000  0.73684000  1.0 -0.2781146066
N  N107  1  0.69041000  0.16980000  0.62615000  1.0 -0.270640502
N  N108  1  0.58314000  0.21990000  0.58694000  1.0 -0.2781146066
N  N109  1  0.07514000  0.34147000  0.90965000  1.0 -0.2605214308
N  N110  1  0.92035000  0.16222000  0.80409000  1.0 -0.2527642118
N  N111  1  0.01506000  0.30375000  0.79674000  1.0 -0.2605214308
N  N112  1  0.09006000  0.53509000  0.87653000  1.0 -0.2394142395
N  N113  1  0.49427000  0.31868000  0.56452000  1.0 -0.2605214308
N  N114  1  0.04750000  0.64739000  0.88298000  1.0 -0.2394142395
N  N115  1  0.93214000  0.67607000  0.91617000  1.0 -0.2394142395
N  N116  1  0.81648000  0.16883000  0.68126000  1.0 -0.2527642118
N  N117  1  0.57195000  0.18642000  0.65350000  1.0 -0.2605214308
N  N118  1  0.02260000  0.23625000  0.86443000  1.0 -0.2605214308
N  N119  1  0.42566000  0.39130000  0.62357000  1.0 -0.2527642118
N  N120  1  0.95532000  0.74084000  0.86099000  1.0 -0.2394142395
N  N121  1  0.02509000  0.58382000  0.93862000  1.0 -0.270640502
N  N122  1  0.07774000  0.47430000  0.93750000  1.0 -0.2605214308
N  N123  1  0.80800000  0.13710000  0.75005000  1.0 -0.2781146066
N  N124  1  0.47800000  0.27900000  0.62820000  1.0 -0.270640502
N  N125  1  0.43490000  0.52440000  0.65310000  1.0 -0.2297062899
N  N126  1  0.45556000  0.43679000  0.56735000  1.0 -0.2527642118
N  N127  1  0.68150000  0.14050000  0.69459000  1.0 -0.2527642118
N  N128  1  0.82517000  0.72900000  0.87742000  1.0 -0.2127034014
N  N129  1  0.59310000  0.70280000  0.76435000  1.0 -0.2297062899
N  N130  1  0.46500000  0.56870000  0.59732000  1.0 -0.2605214308
N  N131  1  0.84670000  0.78750000  0.81990000  1.0 -0.2297062899
N  N132  1  0.61340000  0.75380000  0.70447000  1.0 -0.222608315
N  N133  1  0.72070000  0.78800000  0.76324000  1.0 -0.2297062899
N  N134  1  0.49640000  0.62380000  0.70173000  1.0 -0.2394142395
N  N135  1  0.69880000  0.74050000  0.82356000  1.0 -0.2394142395
N  N136  1  0.51690000  0.67510000  0.64165000  1.0 -0.222608315
O  O1  1  0.72584000  0.54502000  0.98960000  1.0 -0.5894054121
O  O2  1  0.27416000  0.04502000  0.51040000  1.0 -0.5894054121
O  O3  1  0.27416000  0.45498000  0.01040000  1.0 -0.5894054121
O  O4  1  0.72584000  0.95498000  0.48960000  1.0 -0.5894054121
O  O5  1  0.72502000  0.82587000  0.53614000  1.0 -0.5821320957
O  O6  1  0.27498000  0.32587000  0.96386000  1.0 -0.5821320957
O  O7  1  0.27498000  0.17413000  0.46386000  1.0 -0.5821320957
O  O8  1  0.72502000  0.67413000  0.03614000  1.0 -0.5821320957
O  O9  1  0.64452000  0.81841000  0.55162000  1.0 -0.5502469933
O  O10  1  0.35548000  0.31841000  0.94838000  1.0 -0.5502469933
O  O11  1  0.35548000  0.18159000  0.44838000  1.0 -0.5502469933
O  O12  1  0.64452000  0.68159000  0.05162000  1.0 -0.5502469933
O  O13  1  0.65650000  0.44510000  0.97259000  1.0 -0.5581872037
O  O14  1  0.34350000  0.94510000  0.52741000  1.0 -0.5581872037
O  O15  1  0.34350000  0.55490000  0.02741000  1.0 -0.5581872037
O  O16  1  0.65650000  0.05490000  0.47259000  1.0 -0.5581872037
O  O17  1  0.55560000  0.04730000  0.48771000  1.0 -0.5502469933
O  O18  1  0.44440000  0.54730000  0.01229000  1.0 -0.5502469933
O  O19  1  0.44440000  0.95270000  0.51229000  1.0 -0.5502469933
O  O20  1  0.55560000  0.45270000  0.98771000  1.0 -0.5502469933
O  O21  1  0.45030000  0.08210000  0.47068000  1.0 -0.5581872037
O  O22  1  0.54970000  0.58210000  0.02932000  1.0 -0.5581872037
O  O23  1  0.54970000  0.91790000  0.52932000  1.0 -0.5581872037
O  O24  1  0.45030000  0.41790000  0.97068000  1.0 -0.5581872037
O  O25  1  0.99140000  0.03612000  0.45295000  1.0 -0.5196092205
O  O26  1  0.00832000  0.23448000  0.42659000  1.0 -0.5196092205
O  O27  1  0.85748000  0.22947000  0.15789000  1.0 -0.5289099163
O  O28  1  0.00522000  0.07562000  0.26182000  1.0 -0.5289099163
O  O29  1  0.84678000  0.34630000  0.33077000  1.0 -0.5289099163
O  O30  1  0.03547000  0.88131000  0.31071000  1.0 -0.5196092205
O  O31  1  0.66069000  0.23538000  0.06836000  1.0 -0.5289099163
O  O32  1  0.53500000  0.07364000  0.04537000  1.0 -0.5106159991
O  O33  1  0.84789000  0.88170000  0.42425000  1.0 -0.5196092205
O  O34  1  0.90232000  0.72980000  0.27998000  1.0 -0.5196092205
O  O35  1  0.63448000  0.31660000  0.23711000  1.0 -0.5289099163
O  O36  1  0.48163000  0.98700000  0.23478000  1.0 -0.5196092205
O  O37  1  0.47433000  0.18127000  0.19362000  1.0 -0.5196092205
O  O38  1  0.54870000  0.86820000  0.09054000  1.0 -0.4968761673
O  O39  1  0.64420000  0.85710000  0.33886000  1.0 -0.5196092205
O  O40  1  0.69700000  0.73770000  0.18712000  1.0 -0.4968761673
O  O41  1  0.00860000  0.53612000  0.04705000  1.0 -0.5196092205
O  O42  1  0.99168000  0.73448000  0.07341000  1.0 -0.5196092205
O  O43  1  0.14252000  0.72947000  0.34211000  1.0 -0.5289099163
O  O44  1  0.99478000  0.57562000  0.23818000  1.0 -0.5289099163
O  O45  1  0.15322000  0.84630000  0.16923000  1.0 -0.5289099163
O  O46  1  0.96453000  0.38131000  0.18929000  1.0 -0.5196092205
O  O47  1  0.33931000  0.73538000  0.43164000  1.0 -0.5289099163
O  O48  1  0.46500000  0.57364000  0.45463000  1.0 -0.5106159991
O  O49  1  0.15211000  0.38170000  0.07575000  1.0 -0.5196092205
O  O50  1  0.09768000  0.22980000  0.22002000  1.0 -0.5196092205
O  O51  1  0.36552000  0.81660000  0.26289000  1.0 -0.5289099163
O  O52  1  0.51837000  0.48700000  0.26522000  1.0 -0.5196092205
O  O53  1  0.52567000  0.68127000  0.30638000  1.0 -0.5196092205
O  O54  1  0.45130000  0.36820000  0.40946000  1.0 -0.4968761673
O  O55  1  0.35580000  0.35710000  0.16114000  1.0 -0.5196092205
O  O56  1  0.30300000  0.23770000  0.31288000  1.0 -0.4968761673
O  O57  1  0.00860000  0.96388000  0.54705000  1.0 -0.5196092205
O  O58  1  0.99168000  0.76552000  0.57341000  1.0 -0.5196092205
O  O59  1  0.14252000  0.77053000  0.84211000  1.0 -0.5289099163
O  O60  1  0.99478000  0.92438000  0.73818000  1.0 -0.5289099163
O  O61  1  0.15322000  0.65370000  0.66923000  1.0 -0.5289099163
O  O62  1  0.96453000  0.11869000  0.68929000  1.0 -0.5196092205
O  O63  1  0.33931000  0.76462000  0.93164000  1.0 -0.5289099163
O  O64  1  0.46500000  0.92636000  0.95463000  1.0 -0.5106159991
O  O65  1  0.15211000  0.11830000  0.57575000  1.0 -0.5196092205
O  O66  1  0.09768000  0.27020000  0.72002000  1.0 -0.5196092205
O  O67  1  0.36552000  0.68340000  0.76289000  1.0 -0.5289099163
O  O68  1  0.51837000  0.01300000  0.76522000  1.0 -0.5196092205
O  O69  1  0.52567000  0.81873000  0.80638000  1.0 -0.5196092205
O  O70  1  0.45130000  0.13180000  0.90946000  1.0 -0.4968761673
O  O71  1  0.35580000  0.14290000  0.66114000  1.0 -0.5196092205
O  O72  1  0.30300000  0.26230000  0.81288000  1.0 -0.4968761673
O  O73  1  0.99140000  0.46388000  0.95295000  1.0 -0.5196092205
O  O74  1  0.00832000  0.26552000  0.92659000  1.0 -0.5196092205
O  O75  1  0.85748000  0.27053000  0.65789000  1.0 -0.5289099163
O  O76  1  0.00522000  0.42438000  0.76182000  1.0 -0.5289099163
O  O77  1  0.84678000  0.15370000  0.83077000  1.0 -0.5289099163
O  O78  1  0.03547000  0.61869000  0.81071000  1.0 -0.5196092205
O  O79  1  0.66069000  0.26462000  0.56836000  1.0 -0.5289099163
O  O80  1  0.53500000  0.42636000  0.54537000  1.0 -0.5106159991
O  O81  1  0.84789000  0.61830000  0.92425000  1.0 -0.5196092205
O  O82  1  0.90232000  0.77020000  0.77998000  1.0 -0.5196092205
O  O83  1  0.63448000  0.18340000  0.73711000  1.0 -0.5289099163
O  O84  1  0.48163000  0.51300000  0.73478000  1.0 -0.5196092205
O  O85  1  0.47433000  0.31873000  0.69362000  1.0 -0.5196092205
O  O86  1  0.54870000  0.63180000  0.59054000  1.0 -0.4968761673
O  O87  1  0.64420000  0.64290000  0.83886000  1.0 -0.5196092205
O  O88  1  0.69700000  0.76230000  0.68712000  1.0 -0.4968761673
