# DDEC6 charges by PACMAN v1.1 (https://github.com/mtap-research/PACMAN-charge/)
data_LINTOV09_ASR_pacman
_symmetry_space_group_name_H-M   'P 1'
_cell_length_a   22.86040000
_cell_length_b   16.74780000
_cell_length_c   33.24900000
_cell_angle_alpha   90.00000000
_cell_angle_beta   123.82600000
_cell_angle_gamma   90.00000000
_symmetry_Int_Tables_number   1
_chemical_formula_structural   UH68C75(N17O11)2
_chemical_formula_sum   'U4 H272 C300 N136 O88'
_cell_volume   10575.01738864
_cell_formula_units_Z   4
loop_
 _symmetry_equiv_pos_site_id
 _symmetry_equiv_pos_as_xyz
  1  'x, y, z'
loop_
 _atom_site_type_symbol
 _atom_site_label
 _atom_site_symmetry_multiplicity
 _atom_site_fract_x
 _atom_site_fract_y
 _atom_site_fract_z
 _atom_site_occupancy
 _atom_site_charge
U  U1  1  0.14225000  0.55737000  0.01221000  1.0 1.7215537601
U  U2  1  0.85775000  0.05737000  0.48779000  1.0 1.7270800048
U  U3  1  0.85775000  0.44263000  0.98779000  1.0 1.7270800048
U  U4  1  0.14225000  0.94263000  0.51221000  1.0 1.7215537601
H  H1  1  0.29624000  0.97124000  0.45272000  1.0 0.1302191632
H  H2  1  0.70376000  0.47124000  0.04728000  1.0 0.1302191632
H  H3  1  0.70376000  0.02876000  0.54728000  1.0 0.1302191632
H  H4  1  0.29624000  0.52876000  0.95272000  1.0 0.1302191632
H  H5  1  0.43125000  0.11010000  0.38286000  1.0 0.1188490665
H  H6  1  0.56875000  0.61010000  0.11714000  1.0 0.1188490665
H  H7  1  0.56875000  0.88990000  0.61714000  1.0 0.1188490665
H  H8  1  0.43125000  0.38990000  0.88286000  1.0 0.1188490665
H  H9  1  0.37655000  0.09593000  0.23350000  1.0 0.1384305237
H  H10  1  0.62345000  0.59593000  0.26650000  1.0 0.1384305237
H  H11  1  0.62345000  0.90407000  0.76650000  1.0 0.1384305237
H  H12  1  0.37655000  0.40407000  0.73350000  1.0 0.1384305237
H  H13  1  0.17351000  0.12424000  0.18898000  1.0 0.1460748338
H  H14  1  0.82649000  0.62424000  0.31102000  1.0 0.1460748338
H  H15  1  0.82649000  0.87576000  0.81102000  1.0 0.1460748338
H  H16  1  0.17351000  0.37576000  0.68898000  1.0 0.1460748338
H  H17  1  0.39850000  0.07908000  0.30505000  1.0 0.1460748338
H  H18  1  0.60150000  0.57908000  0.19495000  1.0 0.1460748338
H  H19  1  0.60150000  0.92092000  0.69495000  1.0 0.1460748338
H  H20  1  0.39850000  0.42092000  0.80505000  1.0 0.1460748338
H  H21  1  0.20659000  0.18139000  0.45227000  1.0 0.1302191632
H  H22  1  0.79341000  0.68139000  0.04773000  1.0 0.1302191632
H  H23  1  0.79341000  0.81861000  0.54773000  1.0 0.1302191632
H  H24  1  0.20659000  0.31861000  0.95227000  1.0 0.1302191632
H  H25  1  0.27396000  0.24876000  0.42972000  1.0 0.1302191632
H  H26  1  0.72604000  0.74876000  0.07028000  1.0 0.1302191632
H  H27  1  0.72604000  0.75124000  0.57028000  1.0 0.1302191632
H  H28  1  0.27396000  0.25124000  0.92972000  1.0 0.1302191632
H  H29  1  0.33970000  0.06822000  0.15468000  1.0 0.1302191632
H  H30  1  0.66030000  0.56822000  0.34532000  1.0 0.1302191632
H  H31  1  0.66030000  0.93178000  0.84532000  1.0 0.1302191632
H  H32  1  0.33970000  0.43178000  0.65468000  1.0 0.1302191632
H  H33  1  0.36366000  0.04060000  0.43068000  1.0 0.1384305237
H  H34  1  0.63634000  0.54060000  0.06932000  1.0 0.1384305237
H  H35  1  0.63634000  0.95940000  0.56932000  1.0 0.1384305237
H  H36  1  0.36366000  0.45940000  0.93068000  1.0 0.1384305237
H  H37  1  0.11106000  0.81578000  0.05615000  1.0 0.1384305237
H  H38  1  0.88894000  0.31578000  0.44385000  1.0 0.1384305237
H  H39  1  0.88894000  0.18422000  0.94385000  1.0 0.1384305237
H  H40  1  0.11106000  0.68422000  0.55615000  1.0 0.1384305237
H  H41  1  0.28927000  0.81619000  0.05758000  1.0 0.1188490665
H  H42  1  0.71073000  0.31619000  0.44242000  1.0 0.1188490665
H  H43  1  0.71073000  0.18381000  0.94242000  1.0 0.1188490665
H  H44  1  0.28927000  0.68381000  0.55758000  1.0 0.1188490665
H  H45  1  0.13976000  0.09180000  0.11105000  1.0 0.1188490665
H  H46  1  0.86024000  0.59180000  0.38895000  1.0 0.1188490665
H  H47  1  0.86024000  0.90820000  0.88895000  1.0 0.1188490665
H  H48  1  0.13976000  0.40820000  0.61105000  1.0 0.1188490665
H  H49  1  0.11586000  0.95506000  0.06338000  1.0 0.1384305237
H  H50  1  0.88414000  0.45506000  0.43662000  1.0 0.1384305237
H  H51  1  0.88414000  0.04494000  0.93662000  1.0 0.1384305237
H  H52  1  0.11586000  0.54494000  0.56338000  1.0 0.1384305237
H  H53  1  0.29962000  0.95406000  0.07128000  1.0 0.1188490665
H  H54  1  0.70038000  0.45406000  0.42872000  1.0 0.1188490665
H  H55  1  0.70038000  0.04594000  0.92872000  1.0 0.1188490665
H  H56  1  0.29962000  0.54594000  0.57128000  1.0 0.1188490665
H  H57  1  0.21339000  0.19252000  0.25350000  1.0 0.1384305237
H  H58  1  0.78661000  0.69252000  0.24650000  1.0 0.1384305237
H  H59  1  0.78661000  0.80748000  0.74650000  1.0 0.1384305237
H  H60  1  0.21339000  0.30748000  0.75350000  1.0 0.1384305237
H  H61  1  0.41910000  0.18163000  0.43656000  1.0 0.1384305237
H  H62  1  0.58090000  0.68163000  0.06344000  1.0 0.1384305237
H  H63  1  0.58090000  0.81837000  0.56344000  1.0 0.1384305237
H  H64  1  0.41910000  0.31837000  0.93656000  1.0 0.1384305237
H  H65  1  0.36326000  0.25343000  0.41520000  1.0 0.1384305237
H  H66  1  0.63674000  0.75343000  0.08480000  1.0 0.1384305237
H  H67  1  0.63674000  0.74657000  0.58480000  1.0 0.1384305237
H  H68  1  0.36326000  0.24657000  0.91520000  1.0 0.1384305237
H  H69  1  0.25153000  0.22322000  0.33219000  1.0 0.1302191632
H  H70  1  0.74847000  0.72322000  0.16781000  1.0 0.1302191632
H  H71  1  0.74847000  0.77678000  0.66781000  1.0 0.1302191632
H  H72  1  0.25153000  0.27678000  0.83219000  1.0 0.1302191632
H  H73  1  0.16701000  0.08128000  0.05298000  1.0 0.1384305237
H  H74  1  0.83299000  0.58128000  0.44702000  1.0 0.1384305237
H  H75  1  0.83299000  0.91872000  0.94702000  1.0 0.1384305237
H  H76  1  0.16701000  0.41872000  0.55298000  1.0 0.1384305237
H  H77  1  0.24763000  0.07926000  0.06968000  1.0 0.1302191632
H  H78  1  0.75237000  0.57926000  0.43032000  1.0 0.1302191632
H  H79  1  0.75237000  0.92074000  0.93032000  1.0 0.1302191632
H  H80  1  0.24763000  0.42074000  0.56968000  1.0 0.1302191632
H  H81  1  0.65402000  0.33115000  0.89571000  1.0 0.0901589101
H  H82  1  0.66478000  0.53861000  0.94883000  1.0 0.0814288114
H  H83  1  0.90549000  0.26143000  0.55536000  1.0 0.0814288114
H  H84  1  0.85690000  0.38558000  0.54770000  1.0 0.0814288114
H  H85  1  0.59354000  0.22455000  0.84569000  1.0 0.0901589101
H  H86  1  0.66121000  0.39652000  0.96838000  1.0 0.1104479201
H  H87  1  0.60019000  0.37421000  0.97618000  1.0 0.1188490665
H  H88  1  0.47078000  0.78980000  0.92177000  1.0 0.0814288114
H  H89  1  0.61380000  0.65130000  0.95602000  1.0 0.0814288114
H  H90  1  0.45137000  0.10577000  0.76682000  1.0 0.1003428566
H  H91  1  0.66464000  0.46902000  0.87930000  1.0 0.1003428566
H  H92  1  0.60690000  0.50075000  0.82605000  1.0 0.1003428566
H  H93  1  0.25368000  0.07750000  0.63518000  1.0 0.0814288114
H  H94  1  0.25952000  0.15809000  0.61188000  1.0 0.1104479201
H  H95  1  0.03483000  0.28509000  0.53017000  1.0 0.1188490665
H  H96  1  0.98492000  0.21882000  0.53070000  1.0 0.0901589101
H  H97  1  0.86649000  0.60179000  0.59110000  1.0 0.0814288114
H  H98  1  0.35910000  0.84131000  0.87730000  1.0 0.0814288114
H  H99  1  0.04294000  0.11500000  0.59844000  1.0 0.0814288114
H  H100  1  0.33909000  0.05626000  0.72270000  1.0 0.0901589101
H  H101  1  0.52419000  0.67664000  0.97668000  1.0 0.0901589101
H  H102  1  0.47497000  0.60329000  0.97043000  1.0 0.1188490665
H  H103  1  0.55678000  0.76739000  0.89963000  1.0 0.1003428566
H  H104  1  0.52636000  0.75181000  0.84384000  1.0 0.1104479201
H  H105  1  0.15431000  0.06246000  0.64395000  1.0 0.0814288114
H  H106  1  0.51802000  0.11579000  0.85350000  1.0 0.1003428566
H  H107  1  0.47905000  0.14279000  0.87897000  1.0 0.1104479201
H  H108  1  0.96607000  0.15967000  0.62349000  1.0 0.1003428566
H  H109  1  0.00230000  0.19195000  0.67762000  1.0 0.1104479201
H  H110  1  0.83750000  0.46433000  0.60579000  1.0 0.0901589101
H  H111  1  0.88191000  0.43356000  0.66056000  1.0 0.1104479201
H  H112  1  0.47789000  0.28965000  0.72793000  1.0 0.1104479201
H  H113  1  0.51818000  0.21178000  0.75909000  1.0 0.1104479201
H  H114  1  0.23587000  0.10250000  0.76759000  1.0 0.1104479201
H  H115  1  0.24016000  0.04371000  0.73141000  1.0 0.0901589101
H  H116  1  0.92431000  0.70700000  0.64326000  1.0 0.0814288114
H  H117  1  0.06735000  0.81886000  0.73483000  1.0 0.0901589101
H  H118  1  0.94899000  0.53954000  0.53378000  1.0 0.1188490665
H  H119  1  0.87822000  0.52558000  0.53181000  1.0 0.0814288114
H  H120  1  0.26072000  0.80634000  0.88066000  1.0 0.0901589101
H  H121  1  0.25195000  0.71572000  0.89160000  1.0 0.1188490665
H  H122  1  0.01382000  0.64707000  0.76570000  1.0 0.1104479201
H  H123  1  0.98459000  0.72504000  0.73228000  1.0 0.1104479201
H  H124  1  0.18005000  0.85502000  0.79325000  1.0 0.0814288114
H  H125  1  0.01130000  0.80058000  0.64705000  1.0 0.1003428566
H  H126  1  0.05933000  0.76888000  0.62928000  1.0 0.1188490665
H  H127  1  0.28710000  0.83971000  0.75059000  1.0 0.1104479201
H  H128  1  0.27826000  0.88364000  0.78963000  1.0 0.0901589101
H  H129  1  0.34598000  0.83115000  0.60429000  1.0 0.0901589101
H  H130  1  0.33522000  0.03861000  0.55117000  1.0 0.0814288114
H  H131  1  0.09451000  0.76143000  0.94464000  1.0 0.0814288114
H  H132  1  0.14310000  0.88558000  0.95230000  1.0 0.0814288114
H  H133  1  0.40646000  0.72455000  0.65431000  1.0 0.0901589101
H  H134  1  0.33879000  0.89652000  0.53162000  1.0 0.1104479201
H  H135  1  0.39981000  0.87421000  0.52382000  1.0 0.1188490665
H  H136  1  0.52922000  0.28980000  0.57823000  1.0 0.0814288114
H  H137  1  0.38620000  0.15130000  0.54398000  1.0 0.0814288114
H  H138  1  0.54863000  0.60577000  0.73318000  1.0 0.1003428566
H  H139  1  0.33536000  0.96902000  0.62070000  1.0 0.1003428566
H  H140  1  0.39310000  0.00075000  0.67395000  1.0 0.1003428566
H  H141  1  0.74632000  0.57750000  0.86482000  1.0 0.0814288114
H  H142  1  0.74048000  0.65809000  0.88812000  1.0 0.1104479201
H  H143  1  0.96517000  0.78509000  0.96983000  1.0 0.1188490665
H  H144  1  0.01508000  0.71882000  0.96930000  1.0 0.0901589101
H  H145  1  0.13351000  0.10179000  0.90890000  1.0 0.0814288114
H  H146  1  0.64090000  0.34131000  0.62270000  1.0 0.0814288114
H  H147  1  0.95706000  0.61500000  0.90156000  1.0 0.0814288114
H  H148  1  0.66091000  0.55626000  0.77730000  1.0 0.0901589101
H  H149  1  0.47581000  0.17664000  0.52332000  1.0 0.0901589101
H  H150  1  0.52503000  0.10329000  0.52957000  1.0 0.1188490665
H  H151  1  0.44322000  0.26739000  0.60037000  1.0 0.1003428566
H  H152  1  0.47364000  0.25181000  0.65616000  1.0 0.1104479201
H  H153  1  0.84569000  0.56246000  0.85605000  1.0 0.0814288114
H  H154  1  0.48198000  0.61579000  0.64650000  1.0 0.1003428566
H  H155  1  0.52095000  0.64279000  0.62103000  1.0 0.1104479201
H  H156  1  0.03393000  0.65967000  0.87651000  1.0 0.1003428566
H  H157  1  0.99770000  0.69195000  0.82238000  1.0 0.1104479201
H  H158  1  0.16250000  0.96433000  0.89421000  1.0 0.0901589101
H  H159  1  0.11809000  0.93356000  0.83944000  1.0 0.1104479201
H  H160  1  0.52211000  0.78965000  0.77207000  1.0 0.1104479201
H  H161  1  0.48182000  0.71178000  0.74091000  1.0 0.1104479201
H  H162  1  0.76413000  0.60250000  0.73241000  1.0 0.1104479201
H  H163  1  0.75984000  0.54371000  0.76859000  1.0 0.0901589101
H  H164  1  0.07569000  0.20700000  0.85674000  1.0 0.0814288114
H  H165  1  0.93265000  0.31886000  0.76517000  1.0 0.0901589101
H  H166  1  0.05101000  0.03954000  0.96622000  1.0 0.1188490665
H  H167  1  0.12178000  0.02558000  0.96819000  1.0 0.0814288114
H  H168  1  0.73928000  0.30634000  0.61934000  1.0 0.0901589101
H  H169  1  0.74805000  0.21572000  0.60840000  1.0 0.1188490665
H  H170  1  0.98618000  0.14707000  0.73430000  1.0 0.1104479201
H  H171  1  0.01541000  0.22504000  0.76772000  1.0 0.1104479201
H  H172  1  0.81995000  0.35502000  0.70675000  1.0 0.0814288114
H  H173  1  0.98870000  0.30058000  0.85295000  1.0 0.1003428566
H  H174  1  0.94067000  0.26888000  0.87072000  1.0 0.1188490665
H  H175  1  0.71290000  0.33971000  0.74941000  1.0 0.1104479201
H  H176  1  0.72174000  0.38364000  0.71037000  1.0 0.0901589101
H  H177  1  0.34598000  0.66885000  0.10429000  1.0 0.0901589101
H  H178  1  0.33522000  0.46139000  0.05117000  1.0 0.0814288114
H  H179  1  0.09451000  0.73857000  0.44464000  1.0 0.0814288114
H  H180  1  0.14310000  0.61442000  0.45230000  1.0 0.0814288114
H  H181  1  0.40646000  0.77545000  0.15431000  1.0 0.0901589101
H  H182  1  0.33879000  0.60348000  0.03162000  1.0 0.1104479201
H  H183  1  0.39981000  0.62579000  0.02382000  1.0 0.1188490665
H  H184  1  0.52922000  0.21020000  0.07823000  1.0 0.0814288114
H  H185  1  0.38620000  0.34870000  0.04398000  1.0 0.0814288114
H  H186  1  0.54863000  0.89423000  0.23318000  1.0 0.1003428566
H  H187  1  0.33536000  0.53098000  0.12070000  1.0 0.1003428566
H  H188  1  0.39310000  0.49925000  0.17395000  1.0 0.1003428566
H  H189  1  0.74632000  0.92250000  0.36482000  1.0 0.0814288114
H  H190  1  0.74048000  0.84191000  0.38812000  1.0 0.1104479201
H  H191  1  0.96517000  0.71491000  0.46983000  1.0 0.1188490665
H  H192  1  0.01508000  0.78118000  0.46930000  1.0 0.0901589101
H  H193  1  0.13351000  0.39821000  0.40890000  1.0 0.0814288114
H  H194  1  0.64090000  0.15869000  0.12270000  1.0 0.0814288114
H  H195  1  0.95706000  0.88500000  0.40156000  1.0 0.0814288114
H  H196  1  0.66091000  0.94374000  0.27730000  1.0 0.0901589101
H  H197  1  0.47581000  0.32336000  0.02332000  1.0 0.0901589101
H  H198  1  0.52503000  0.39671000  0.02957000  1.0 0.1188490665
H  H199  1  0.44322000  0.23261000  0.10037000  1.0 0.1003428566
H  H200  1  0.47364000  0.24819000  0.15616000  1.0 0.1104479201
H  H201  1  0.84569000  0.93754000  0.35605000  1.0 0.0814288114
H  H202  1  0.48198000  0.88421000  0.14650000  1.0 0.1003428566
H  H203  1  0.52095000  0.85721000  0.12103000  1.0 0.1104479201
H  H204  1  0.03393000  0.84033000  0.37651000  1.0 0.1003428566
H  H205  1  0.99770000  0.80805000  0.32238000  1.0 0.1104479201
H  H206  1  0.16250000  0.53567000  0.39421000  1.0 0.0901589101
H  H207  1  0.11809000  0.56644000  0.33944000  1.0 0.1104479201
H  H208  1  0.52211000  0.71035000  0.27207000  1.0 0.1104479201
H  H209  1  0.48182000  0.78822000  0.24091000  1.0 0.1104479201
H  H210  1  0.76413000  0.89750000  0.23241000  1.0 0.1104479201
H  H211  1  0.75984000  0.95629000  0.26859000  1.0 0.0901589101
H  H212  1  0.07569000  0.29300000  0.35674000  1.0 0.0814288114
H  H213  1  0.93265000  0.18114000  0.26517000  1.0 0.0901589101
H  H214  1  0.05101000  0.46046000  0.46622000  1.0 0.1188490665
H  H215  1  0.12178000  0.47442000  0.46819000  1.0 0.0814288114
H  H216  1  0.73928000  0.19366000  0.11934000  1.0 0.0901589101
H  H217  1  0.74805000  0.28428000  0.10840000  1.0 0.1188490665
H  H218  1  0.98618000  0.35293000  0.23430000  1.0 0.1104479201
H  H219  1  0.01541000  0.27496000  0.26772000  1.0 0.1104479201
H  H220  1  0.81995000  0.14498000  0.20675000  1.0 0.0814288114
H  H221  1  0.98870000  0.19942000  0.35295000  1.0 0.1003428566
H  H222  1  0.94067000  0.23112000  0.37072000  1.0 0.1188490665
H  H223  1  0.71290000  0.16029000  0.24941000  1.0 0.1104479201
H  H224  1  0.72174000  0.11636000  0.21037000  1.0 0.0901589101
H  H225  1  0.65402000  0.16885000  0.39571000  1.0 0.0901589101
H  H226  1  0.66478000  0.96139000  0.44883000  1.0 0.0814288114
H  H227  1  0.90549000  0.23857000  0.05536000  1.0 0.0814288114
H  H228  1  0.85690000  0.11442000  0.04770000  1.0 0.0814288114
H  H229  1  0.59354000  0.27545000  0.34569000  1.0 0.0901589101
H  H230  1  0.66121000  0.10348000  0.46838000  1.0 0.1104479201
H  H231  1  0.60019000  0.12579000  0.47618000  1.0 0.1188490665
H  H232  1  0.47078000  0.71020000  0.42177000  1.0 0.0814288114
H  H233  1  0.61380000  0.84870000  0.45602000  1.0 0.0814288114
H  H234  1  0.45137000  0.39423000  0.26682000  1.0 0.1003428566
H  H235  1  0.66464000  0.03098000  0.37930000  1.0 0.1003428566
H  H236  1  0.60690000  0.99925000  0.32605000  1.0 0.1003428566
H  H237  1  0.25368000  0.42250000  0.13518000  1.0 0.0814288114
H  H238  1  0.25952000  0.34191000  0.11188000  1.0 0.1104479201
H  H239  1  0.03483000  0.21491000  0.03017000  1.0 0.1188490665
H  H240  1  0.98492000  0.28118000  0.03070000  1.0 0.0901589101
H  H241  1  0.86649000  0.89821000  0.09110000  1.0 0.0814288114
H  H242  1  0.35910000  0.65869000  0.37730000  1.0 0.0814288114
H  H243  1  0.04294000  0.38500000  0.09844000  1.0 0.0814288114
H  H244  1  0.33909000  0.44374000  0.22270000  1.0 0.0901589101
H  H245  1  0.52419000  0.82336000  0.47668000  1.0 0.0901589101
H  H246  1  0.47497000  0.89671000  0.47043000  1.0 0.1188490665
H  H247  1  0.55678000  0.73261000  0.39963000  1.0 0.1003428566
H  H248  1  0.52636000  0.74819000  0.34384000  1.0 0.1104479201
H  H249  1  0.15431000  0.43754000  0.14395000  1.0 0.0814288114
H  H250  1  0.51802000  0.38421000  0.35350000  1.0 0.1003428566
H  H251  1  0.47905000  0.35721000  0.37897000  1.0 0.1104479201
H  H252  1  0.96607000  0.34033000  0.12349000  1.0 0.1003428566
H  H253  1  0.00230000  0.30805000  0.17762000  1.0 0.1104479201
H  H254  1  0.83750000  0.03567000  0.10579000  1.0 0.0901589101
H  H255  1  0.88191000  0.06644000  0.16056000  1.0 0.1104479201
H  H256  1  0.47789000  0.21035000  0.22793000  1.0 0.1104479201
H  H257  1  0.51818000  0.28822000  0.25909000  1.0 0.1104479201
H  H258  1  0.23587000  0.39750000  0.26759000  1.0 0.1104479201
H  H259  1  0.24016000  0.45629000  0.23141000  1.0 0.0901589101
H  H260  1  0.92431000  0.79300000  0.14326000  1.0 0.0814288114
H  H261  1  0.06735000  0.68114000  0.23483000  1.0 0.0901589101
H  H262  1  0.94899000  0.96046000  0.03378000  1.0 0.1188490665
H  H263  1  0.87822000  0.97442000  0.03181000  1.0 0.0814288114
H  H264  1  0.26072000  0.69366000  0.38066000  1.0 0.0901589101
H  H265  1  0.25195000  0.78428000  0.39160000  1.0 0.1188490665
H  H266  1  0.01382000  0.85293000  0.26570000  1.0 0.1104479201
H  H267  1  0.98459000  0.77496000  0.23228000  1.0 0.1104479201
H  H268  1  0.18005000  0.64498000  0.29325000  1.0 0.0814288114
H  H269  1  0.01130000  0.69942000  0.14705000  1.0 0.1003428566
H  H270  1  0.05933000  0.73112000  0.12928000  1.0 0.1188490665
H  H271  1  0.28710000  0.66029000  0.25059000  1.0 0.1104479201
H  H272  1  0.27826000  0.61636000  0.28963000  1.0 0.0901589101
C  C1  1  0.30270000  0.13390000  0.27051000  1.0 0.1188490665
C  C2  1  0.69730000  0.63390000  0.22949000  1.0 0.1188490665
C  C3  1  0.69730000  0.86610000  0.72949000  1.0 0.1188490665
C  C4  1  0.30270000  0.36610000  0.77051000  1.0 0.1188490665
C  C5  1  0.19160000  0.71540000  0.04837000  1.0 0.5298696519
C  C6  1  0.80840000  0.21540000  0.45163000  1.0 0.5298696519
C  C7  1  0.80840000  0.28460000  0.95163000  1.0 0.5298696519
C  C8  1  0.19160000  0.78460000  0.54837000  1.0 0.5298696519
C  C9  1  0.27920000  0.11410000  0.21995000  1.0 0.1104479201
C  C10  1  0.72080000  0.61410000  0.28005000  1.0 0.1104479201
C  C11  1  0.72080000  0.88590000  0.78005000  1.0 0.1104479201
C  C12  1  0.27920000  0.38590000  0.71995000  1.0 0.1104479201
C  C13  1  0.19940000  0.80280000  0.05604000  1.0 -0.0435738857
C  C14  1  0.80060000  0.30280000  0.44396000  1.0 -0.0435738857
C  C15  1  0.80060000  0.19720000  0.94396000  1.0 -0.0435738857
C  C16  1  0.19940000  0.69720000  0.55604000  1.0 -0.0435738857
C  C17  1  0.29180000  0.02750000  0.44815000  1.0 -0.0795454509
C  C18  1  0.70820000  0.52750000  0.05185000  1.0 -0.0795454509
C  C19  1  0.70820000  0.97250000  0.55185000  1.0 -0.0795454509
C  C20  1  0.29180000  0.47250000  0.94815000  1.0 -0.0795454509
C  C21  1  0.38720000  0.12810000  0.35593000  1.0 0.0401209474
C  C22  1  0.61280000  0.62810000  0.14407000  1.0 0.0401209474
C  C23  1  0.61280000  0.87190000  0.64407000  1.0 0.0401209474
C  C24  1  0.38720000  0.37190000  0.85593000  1.0 0.0401209474
C  C25  1  0.32770000  0.09630000  0.20862000  1.0 -0.1627251035
C  C26  1  0.67230000  0.59630000  0.29138000  1.0 -0.1627251035
C  C27  1  0.67230000  0.90370000  0.79138000  1.0 -0.1627251035
C  C28  1  0.32770000  0.40370000  0.70862000  1.0 -0.1627251035
C  C29  1  0.20500000  0.02580000  0.47022000  1.0 0.539872604
C  C30  1  0.79500000  0.52580000  0.02978000  1.0 0.539872604
C  C31  1  0.79500000  0.97420000  0.52978000  1.0 0.539872604
C  C32  1  0.20500000  0.47420000  0.97022000  1.0 0.539872604
C  C33  1  0.24530000  0.07070000  0.45424000  1.0 -0.033215756
C  C34  1  0.75470000  0.57070000  0.04576000  1.0 -0.033215756
C  C35  1  0.75470000  0.92930000  0.54576000  1.0 -0.033215756
C  C36  1  0.24530000  0.42930000  0.95424000  1.0 -0.033215756
C  C37  1  0.20820000  0.11250000  0.18258000  1.0 -0.1883356597
C  C38  1  0.79180000  0.61250000  0.31742000  1.0 -0.1883356597
C  C39  1  0.79180000  0.88750000  0.81742000  1.0 -0.1883356597
C  C40  1  0.20820000  0.38750000  0.68258000  1.0 -0.1883356597
C  C41  1  0.36770000  0.10910000  0.30993000  1.0 -0.1791171222
C  C42  1  0.63230000  0.60910000  0.19007000  1.0 -0.1791171222
C  C43  1  0.63230000  0.89090000  0.69007000  1.0 -0.1791171222
C  C44  1  0.36770000  0.39090000  0.80993000  1.0 -0.1791171222
C  C45  1  0.23840000  0.15280000  0.44779000  1.0 -0.1035472057
C  C46  1  0.76160000  0.65280000  0.05221000  1.0 -0.1035472057
C  C47  1  0.76160000  0.84720000  0.55221000  1.0 -0.1035472057
C  C48  1  0.23840000  0.34720000  0.94779000  1.0 -0.1035472057
C  C49  1  0.27880000  0.19260000  0.43463000  1.0 -0.1791171222
C  C50  1  0.72120000  0.69260000  0.06537000  1.0 -0.1791171222
C  C51  1  0.72120000  0.80740000  0.56537000  1.0 -0.1791171222
C  C52  1  0.27880000  0.30740000  0.93463000  1.0 -0.1791171222
C  C53  1  0.30600000  0.07930000  0.16216000  1.0 0.0401209474
C  C54  1  0.69400000  0.57930000  0.33784000  1.0 0.0401209474
C  C55  1  0.69400000  0.92070000  0.83784000  1.0 0.0401209474
C  C56  1  0.30600000  0.42070000  0.66216000  1.0 0.0401209474
C  C57  1  0.32560000  0.15190000  0.42866000  1.0 0.1003428566
C  C58  1  0.67440000  0.65190000  0.07134000  1.0 0.1003428566
C  C59  1  0.67440000  0.84810000  0.57134000  1.0 0.1003428566
C  C60  1  0.32560000  0.34810000  0.92866000  1.0 0.1003428566
C  C61  1  0.33170000  0.06900000  0.43518000  1.0 -0.13704781
C  C62  1  0.66830000  0.56900000  0.06482000  1.0 -0.13704781
C  C63  1  0.66830000  0.93100000  0.56482000  1.0 -0.13704781
C  C64  1  0.33170000  0.43100000  0.93518000  1.0 -0.13704781
C  C65  1  0.14860000  0.84420000  0.05828000  1.0 -0.0652718223
C  C66  1  0.85140000  0.34420000  0.44172000  1.0 -0.0652718223
C  C67  1  0.85140000  0.15580000  0.94172000  1.0 -0.0652718223
C  C68  1  0.14860000  0.65580000  0.55828000  1.0 -0.0652718223
C  C69  1  0.25510000  0.84400000  0.05996000  1.0 -0.1066256682
C  C70  1  0.74490000  0.34400000  0.44004000  1.0 -0.1066256682
C  C71  1  0.74490000  0.15600000  0.94004000  1.0 -0.1066256682
C  C72  1  0.25510000  0.65600000  0.55996000  1.0 -0.1066256682
C  C73  1  0.18830000  0.09370000  0.13637000  1.0 0.0401209474
C  C74  1  0.81170000  0.59370000  0.36363000  1.0 0.0401209474
C  C75  1  0.81170000  0.90630000  0.86363000  1.0 0.0401209474
C  C76  1  0.18830000  0.40630000  0.63637000  1.0 0.0401209474
C  C77  1  0.15210000  0.92690000  0.06358000  1.0 -0.13704781
C  C78  1  0.84790000  0.42690000  0.43642000  1.0 -0.13704781
C  C79  1  0.84790000  0.07310000  0.93642000  1.0 -0.13704781
C  C80  1  0.15210000  0.57310000  0.56358000  1.0 -0.13704781
C  C81  1  0.20900000  0.96790000  0.06917000  1.0 0.1003428566
C  C82  1  0.79100000  0.46790000  0.43083000  1.0 0.1003428566
C  C83  1  0.79100000  0.03210000  0.93083000  1.0 0.1003428566
C  C84  1  0.20900000  0.53210000  0.56917000  1.0 0.1003428566
C  C85  1  0.26060000  0.92610000  0.06739000  1.0 -0.1791171222
C  C86  1  0.73940000  0.42610000  0.43261000  1.0 -0.1791171222
C  C87  1  0.73940000  0.07390000  0.93261000  1.0 -0.1791171222
C  C88  1  0.26060000  0.57390000  0.56739000  1.0 -0.1791171222
C  C89  1  0.25880000  0.17620000  0.27956000  1.0 -0.1791171222
C  C90  1  0.74120000  0.67620000  0.22044000  1.0 -0.1791171222
C  C91  1  0.74120000  0.82380000  0.72044000  1.0 -0.1791171222
C  C92  1  0.25880000  0.32380000  0.77956000  1.0 -0.1791171222
C  C93  1  0.36870000  0.19500000  0.41380000  1.0 -0.1883356597
C  C94  1  0.63130000  0.69500000  0.08620000  1.0 -0.1883356597
C  C95  1  0.63130000  0.80500000  0.58620000  1.0 -0.1883356597
C  C96  1  0.36870000  0.30500000  0.91380000  1.0 -0.1883356597
C  C97  1  0.28150000  0.19410000  0.32612000  1.0 0.0575411604
C  C98  1  0.71850000  0.69410000  0.17388000  1.0 0.0575411604
C  C99  1  0.71850000  0.80590000  0.67388000  1.0 0.0575411604
C  C100  1  0.28150000  0.30590000  0.82612000  1.0 0.0575411604
C  C101  1  0.21360000  0.05710000  0.07627000  1.0 -0.1883356597
C  C102  1  0.78640000  0.55710000  0.42373000  1.0 -0.1883356597
C  C103  1  0.78640000  0.94290000  0.92373000  1.0 -0.1883356597
C  C104  1  0.21360000  0.44290000  0.57627000  1.0 -0.1883356597
C  C105  1  0.99910000  0.46420000  0.98540000  1.0 0.4778126949
C  C106  1  0.00090000  0.96420000  0.51460000  1.0 0.4778126949
C  C107  1  0.00090000  0.53580000  0.01460000  1.0 0.4778126949
C  C108  1  0.99910000  0.03580000  0.48540000  1.0 0.4778126949
C  C109  1  0.60190000  0.33780000  0.87839000  1.0 0.1104479201
C  C110  1  0.61230000  0.53750000  0.92614000  1.0 0.1188490665
C  C111  1  0.94150000  0.30120000  0.57814000  1.0 0.1003428566
C  C112  1  0.90780000  0.38400000  0.57476000  1.0 0.1104479201
C  C113  1  0.14660000  0.21900000  0.59565000  1.0 0.5219838866
C  C114  1  0.56120000  0.26470000  0.84567000  1.0 0.1003428566
C  C115  1  0.53060000  0.50480000  0.94506000  1.0 0.5298696519
C  C116  1  0.60950000  0.39470000  0.95234000  1.0 0.0298097722
C  C117  1  0.43730000  0.75310000  0.89491000  1.0 0.1003428566
C  C118  1  0.57830000  0.61550000  0.92949000  1.0 0.1003428566
C  C119  1  0.41600000  0.14580000  0.76272000  1.0 0.1104479201
C  C120  1  0.61370000  0.47880000  0.85602000  1.0 0.0298097722
C  C121  1  0.55450000  0.60430000  0.85149000  1.0 0.5298696519
C  C122  1  0.95350000  0.32910000  0.65169000  1.0 0.5298696519
C  C123  1  0.25500000  0.13650000  0.63775000  1.0 0.0207862167
C  C124  1  0.52790000  0.38000000  0.79795000  1.0 0.5102938543
C  C125  1  0.99500000  0.39950000  0.55868000  1.0 0.5219838866
C  C126  1  0.02150000  0.25920000  0.55073000  1.0 0.0298097722
C  C127  1  0.53820000  0.27710000  0.90637000  1.0 0.5102938543
C  C128  1  0.36310000  0.21760000  0.69050000  1.0 0.5219838866
C  C129  1  0.36470000  0.67000000  0.90502000  1.0 0.5102938543
C  C130  1  0.91700000  0.58910000  0.61600000  1.0 0.0901589101
C  C131  1  0.36120000  0.78700000  0.86565000  1.0 0.0901589101
C  C132  1  0.07870000  0.15640000  0.61942000  1.0 0.1104479201
C  C133  1  0.34030000  0.11520000  0.72800000  1.0 0.1104479201
C  C134  1  0.49050000  0.63650000  0.95341000  1.0 0.0298097722
C  C135  1  0.52410000  0.73380000  0.87129000  1.0 0.0298097722
C  C136  1  0.15450000  0.12140000  0.64887000  1.0 0.1104479201
C  C137  1  0.96410000  0.55250000  0.69641000  1.0 0.5102938543
C  C138  1  0.35730000  0.15060000  0.80187000  1.0 0.5034343475
C  C139  1  0.48780000  0.15760000  0.85393000  1.0 0.0207862167
C  C140  1  0.99960000  0.19950000  0.64711000  1.0 0.0298097722
C  C141  1  0.39980000  0.77090000  0.81404000  1.0 0.5102938543
C  C142  1  0.88580000  0.45380000  0.63415000  1.0 0.0207862167
C  C143  1  0.48460000  0.25420000  0.75403000  1.0 0.0298097722
C  C144  1  0.24030000  0.10050000  0.73960000  1.0 0.0298097722
C  C145  1  0.95680000  0.66170000  0.64950000  1.0 0.1003428566
C  C146  1  0.12700000  0.17150000  0.70251000  1.0 0.5102938543
C  C147  1  0.13990000  0.69280000  0.80900000  1.0 0.5219838866
C  C148  1  0.00500000  0.63160000  0.60450000  1.0 0.5102938543
C  C149  1  0.10140000  0.77490000  0.74183000  1.0 0.1003428566
C  C150  1  0.93020000  0.52150000  0.55282000  1.0 0.0207862167
C  C151  1  0.25720000  0.75050000  0.86970000  1.0 0.0207862167
C  C152  1  0.01550000  0.67780000  0.74090000  1.0 0.0207862167
C  C153  1  0.17720000  0.79840000  0.78270000  1.0 0.1003428566
C  C154  1  0.04400000  0.75760000  0.65130000  1.0 0.0109907784
C  C155  1  0.28170000  0.83080000  0.77780000  1.0 0.0109907784
C  C156  1  0.17210000  0.77060000  0.71160000  1.0 0.5034343475
C  C157  1  0.39810000  0.83780000  0.62161000  1.0 0.1104479201
C  C158  1  0.38770000  0.03750000  0.57386000  1.0 0.1188490665
C  C159  1  0.05850000  0.80120000  0.92186000  1.0 0.1003428566
C  C160  1  0.09220000  0.88400000  0.92524000  1.0 0.1104479201
C  C161  1  0.85340000  0.71900000  0.90435000  1.0 0.5219838866
C  C162  1  0.43880000  0.76470000  0.65433000  1.0 0.1003428566
C  C163  1  0.46940000  0.00480000  0.55494000  1.0 0.5298696519
C  C164  1  0.39050000  0.89470000  0.54766000  1.0 0.0298097722
C  C165  1  0.56270000  0.25310000  0.60509000  1.0 0.1003428566
C  C166  1  0.42170000  0.11550000  0.57051000  1.0 0.1003428566
C  C167  1  0.58400000  0.64580000  0.73728000  1.0 0.1104479201
C  C168  1  0.38630000  0.97880000  0.64398000  1.0 0.0298097722
C  C169  1  0.44550000  0.10430000  0.64851000  1.0 0.5298696519
C  C170  1  0.04650000  0.82910000  0.84831000  1.0 0.5298696519
C  C171  1  0.74500000  0.63650000  0.86225000  1.0 0.0207862167
C  C172  1  0.47210000  0.88000000  0.70205000  1.0 0.5102938543
C  C173  1  0.00500000  0.89950000  0.94132000  1.0 0.5219838866
C  C174  1  0.97850000  0.75920000  0.94927000  1.0 0.0298097722
C  C175  1  0.46180000  0.77710000  0.59363000  1.0 0.5102938543
C  C176  1  0.63690000  0.71760000  0.80950000  1.0 0.5219838866
C  C177  1  0.63530000  0.17000000  0.59498000  1.0 0.5102938543
C  C178  1  0.08300000  0.08910000  0.88400000  1.0 0.0901589101
C  C179  1  0.63880000  0.28700000  0.63435000  1.0 0.0901589101
C  C180  1  0.92130000  0.65640000  0.88058000  1.0 0.1104479201
C  C181  1  0.65970000  0.61520000  0.77200000  1.0 0.1104479201
C  C182  1  0.50950000  0.13650000  0.54659000  1.0 0.0298097722
C  C183  1  0.47590000  0.23380000  0.62871000  1.0 0.0298097722
C  C184  1  0.84550000  0.62140000  0.85113000  1.0 0.1104479201
C  C185  1  0.03590000  0.05250000  0.80359000  1.0 0.5102938543
C  C186  1  0.64270000  0.65060000  0.69813000  1.0 0.5034343475
C  C187  1  0.51220000  0.65760000  0.64607000  1.0 0.0207862167
C  C188  1  0.00040000  0.69950000  0.85289000  1.0 0.0298097722
C  C189  1  0.60020000  0.27090000  0.68596000  1.0 0.5102938543
C  C190  1  0.11420000  0.95380000  0.86585000  1.0 0.0207862167
C  C191  1  0.51540000  0.75420000  0.74597000  1.0 0.0298097722
C  C192  1  0.75970000  0.60050000  0.76040000  1.0 0.0298097722
C  C193  1  0.04320000  0.16170000  0.85050000  1.0 0.0901589101
C  C194  1  0.87300000  0.67150000  0.79749000  1.0 0.5102938543
C  C195  1  0.86010000  0.19280000  0.69100000  1.0 0.5219838866
C  C196  1  0.99500000  0.13160000  0.89550000  1.0 0.5102938543
C  C197  1  0.89860000  0.27490000  0.75817000  1.0 0.1003428566
C  C198  1  0.06980000  0.02150000  0.94718000  1.0 0.0207862167
C  C199  1  0.74280000  0.25050000  0.63030000  1.0 0.0207862167
C  C200  1  0.98450000  0.17780000  0.75910000  1.0 0.0207862167
C  C201  1  0.82280000  0.29840000  0.71730000  1.0 0.1003428566
C  C202  1  0.95600000  0.25760000  0.84870000  1.0 0.0109907784
C  C203  1  0.71830000  0.33080000  0.72220000  1.0 0.0109907784
C  C204  1  0.82790000  0.27060000  0.78840000  1.0 0.5034343475
C  C205  1  0.39810000  0.66220000  0.12161000  1.0 0.1104479201
C  C206  1  0.38770000  0.46250000  0.07386000  1.0 0.1188490665
C  C207  1  0.05850000  0.69880000  0.42186000  1.0 0.1003428566
C  C208  1  0.09220000  0.61600000  0.42524000  1.0 0.1104479201
C  C209  1  0.85340000  0.78100000  0.40435000  1.0 0.5219838866
C  C210  1  0.43880000  0.73530000  0.15433000  1.0 0.1003428566
C  C211  1  0.46940000  0.49520000  0.05494000  1.0 0.5298696519
C  C212  1  0.39050000  0.60530000  0.04766000  1.0 0.0298097722
C  C213  1  0.56270000  0.24690000  0.10509000  1.0 0.1003428566
C  C214  1  0.42170000  0.38450000  0.07051000  1.0 0.1003428566
C  C215  1  0.58400000  0.85420000  0.23728000  1.0 0.1104479201
C  C216  1  0.38630000  0.52120000  0.14398000  1.0 0.0298097722
C  C217  1  0.44550000  0.39570000  0.14851000  1.0 0.5298696519
C  C218  1  0.04650000  0.67090000  0.34831000  1.0 0.5298696519
C  C219  1  0.74500000  0.86350000  0.36225000  1.0 0.0207862167
C  C220  1  0.47210000  0.62000000  0.20205000  1.0 0.5102938543
C  C221  1  0.00500000  0.60050000  0.44132000  1.0 0.5219838866
C  C222  1  0.97850000  0.74080000  0.44927000  1.0 0.0298097722
C  C223  1  0.46180000  0.72290000  0.09363000  1.0 0.5102938543
C  C224  1  0.63690000  0.78240000  0.30950000  1.0 0.5219838866
C  C225  1  0.63530000  0.33000000  0.09498000  1.0 0.5102938543
C  C226  1  0.08300000  0.41090000  0.38400000  1.0 0.0901589101
C  C227  1  0.63880000  0.21300000  0.13435000  1.0 0.0901589101
C  C228  1  0.92130000  0.84360000  0.38058000  1.0 0.1104479201
C  C229  1  0.65970000  0.88480000  0.27200000  1.0 0.1104479201
C  C230  1  0.50950000  0.36350000  0.04659000  1.0 0.0298097722
C  C231  1  0.47590000  0.26620000  0.12871000  1.0 0.0298097722
C  C232  1  0.84550000  0.87860000  0.35113000  1.0 0.1104479201
C  C233  1  0.03590000  0.44750000  0.30359000  1.0 0.5102938543
C  C234  1  0.64270000  0.84940000  0.19813000  1.0 0.5034343475
C  C235  1  0.51220000  0.84240000  0.14607000  1.0 0.0207862167
C  C236  1  0.00040000  0.80050000  0.35289000  1.0 0.0298097722
C  C237  1  0.60020000  0.22910000  0.18596000  1.0 0.5102938543
C  C238  1  0.11420000  0.54620000  0.36585000  1.0 0.0207862167
C  C239  1  0.51540000  0.74580000  0.24597000  1.0 0.0298097722
C  C240  1  0.75970000  0.89950000  0.26040000  1.0 0.0298097722
C  C241  1  0.04320000  0.33830000  0.35050000  1.0 0.0901589101
C  C242  1  0.87300000  0.82850000  0.29749000  1.0 0.5102938543
C  C243  1  0.86010000  0.30720000  0.19100000  1.0 0.5219838866
C  C244  1  0.99500000  0.36840000  0.39550000  1.0 0.5102938543
C  C245  1  0.89860000  0.22510000  0.25817000  1.0 0.1003428566
C  C246  1  0.06980000  0.47850000  0.44718000  1.0 0.0207862167
C  C247  1  0.74280000  0.24950000  0.13030000  1.0 0.0207862167
C  C248  1  0.98450000  0.32220000  0.25910000  1.0 0.0207862167
C  C249  1  0.82280000  0.20160000  0.21730000  1.0 0.1003428566
C  C250  1  0.95600000  0.24240000  0.34870000  1.0 0.0109907784
C  C251  1  0.71830000  0.16920000  0.22220000  1.0 0.0109907784
C  C252  1  0.82790000  0.22940000  0.28840000  1.0 0.5034343475
C  C253  1  0.60190000  0.16220000  0.37839000  1.0 0.1104479201
C  C254  1  0.61230000  0.96250000  0.42614000  1.0 0.1188490665
C  C255  1  0.94150000  0.19880000  0.07814000  1.0 0.1003428566
C  C256  1  0.90780000  0.11600000  0.07476000  1.0 0.1104479201
C  C257  1  0.14660000  0.28100000  0.09565000  1.0 0.5219838866
C  C258  1  0.56120000  0.23530000  0.34567000  1.0 0.1003428566
C  C259  1  0.53060000  0.99520000  0.44506000  1.0 0.5298696519
C  C260  1  0.60950000  0.10530000  0.45234000  1.0 0.0298097722
C  C261  1  0.43730000  0.74690000  0.39491000  1.0 0.1003428566
C  C262  1  0.57830000  0.88450000  0.42949000  1.0 0.1003428566
C  C263  1  0.41600000  0.35420000  0.26272000  1.0 0.1104479201
C  C264  1  0.61370000  0.02120000  0.35602000  1.0 0.0298097722
C  C265  1  0.55450000  0.89570000  0.35149000  1.0 0.5298696519
C  C266  1  0.95350000  0.17090000  0.15169000  1.0 0.5298696519
C  C267  1  0.25500000  0.36350000  0.13775000  1.0 0.0207862167
C  C268  1  0.52790000  0.12000000  0.29795000  1.0 0.5102938543
C  C269  1  0.99500000  0.10050000  0.05868000  1.0 0.5219838866
C  C270  1  0.02150000  0.24080000  0.05073000  1.0 0.0298097722
C  C271  1  0.53820000  0.22290000  0.40637000  1.0 0.5102938543
C  C272  1  0.36310000  0.28240000  0.19050000  1.0 0.5219838866
C  C273  1  0.36470000  0.83000000  0.40502000  1.0 0.5102938543
C  C274  1  0.91700000  0.91090000  0.11600000  1.0 0.0901589101
C  C275  1  0.36120000  0.71300000  0.36565000  1.0 0.0901589101
C  C276  1  0.07870000  0.34360000  0.11942000  1.0 0.1104479201
C  C277  1  0.34030000  0.38480000  0.22800000  1.0 0.1104479201
C  C278  1  0.49050000  0.86350000  0.45341000  1.0 0.0298097722
C  C279  1  0.52410000  0.76620000  0.37129000  1.0 0.0298097722
C  C280  1  0.15450000  0.37860000  0.14887000  1.0 0.1104479201
C  C281  1  0.96410000  0.94750000  0.19641000  1.0 0.5102938543
C  C282  1  0.35730000  0.34940000  0.30187000  1.0 0.5034343475
C  C283  1  0.48780000  0.34240000  0.35393000  1.0 0.0207862167
C  C284  1  0.99960000  0.30050000  0.14711000  1.0 0.0298097722
C  C285  1  0.39980000  0.72910000  0.31404000  1.0 0.5102938543
C  C286  1  0.88580000  0.04620000  0.13415000  1.0 0.0207862167
C  C287  1  0.48460000  0.24580000  0.25403000  1.0 0.0298097722
C  C288  1  0.24030000  0.39950000  0.23960000  1.0 0.0298097722
C  C289  1  0.95680000  0.83830000  0.14950000  1.0 0.0901589101
C  C290  1  0.12700000  0.32850000  0.20251000  1.0 0.5102938543
C  C291  1  0.13990000  0.80720000  0.30900000  1.0 0.5219838866
C  C292  1  0.00500000  0.86840000  0.10450000  1.0 0.5102938543
C  C293  1  0.10140000  0.72510000  0.24183000  1.0 0.1003428566
C  C294  1  0.93020000  0.97850000  0.05282000  1.0 0.0207862167
C  C295  1  0.25720000  0.74950000  0.36970000  1.0 0.0207862167
C  C296  1  0.01550000  0.82220000  0.24090000  1.0 0.0207862167
C  C297  1  0.17720000  0.70160000  0.28270000  1.0 0.1003428566
C  C298  1  0.04400000  0.74240000  0.15130000  1.0 0.0109907784
C  C299  1  0.28170000  0.66920000  0.27780000  1.0 0.0109907784
C  C300  1  0.17210000  0.72940000  0.21160000  1.0 0.5034343475
N  N1  1  0.34510000  0.17150000  0.36335000  1.0 0.1188490665
N  N2  1  0.65490000  0.67150000  0.13665000  1.0 0.1188490665
N  N3  1  0.65490000  0.82850000  0.63665000  1.0 0.1188490665
N  N4  1  0.34510000  0.32850000  0.86335000  1.0 0.1188490665
N  N5  1  0.23650000  0.07830000  0.12673000  1.0 0.1188490665
N  N6  1  0.76350000  0.57830000  0.37327000  1.0 0.1188490665
N  N7  1  0.76350000  0.92170000  0.87327000  1.0 0.1188490665
N  N8  1  0.23650000  0.42170000  0.62673000  1.0 0.1188490665
N  N9  1  0.08300000  0.21900000  0.59081000  1.0 -0.2725215158
N  N10  1  0.42960000  0.67770000  0.91326000  1.0 -0.2304449952
N  N11  1  0.57973000  0.33970000  0.91190000  1.0 -0.2491512433
N  N12  1  0.52530000  0.23300000  0.86729000  1.0 -0.2592548373
N  N13  1  0.99173000  0.31900000  0.56592000  1.0 -0.2491512433
N  N14  1  0.45360000  0.74570000  0.85909000  1.0 -0.2304449952
N  N15  1  0.97300000  0.27890000  0.62859000  1.0 -0.2491512433
N  N16  1  0.18920000  0.16390000  0.62965000  1.0 -0.2592548373
N  N17  1  0.57630000  0.40350000  0.84483000  1.0 -0.2491512433
N  N18  1  0.41765000  0.21800000  0.73878000  1.0 -0.2799542113
N  N19  1  0.58168000  0.47570000  0.93861000  1.0 -0.2799542113
N  N20  1  0.31647000  0.15940000  0.68420000  1.0 -0.2592548373
N  N21  1  0.59060000  0.53740000  0.87629000  1.0 -0.2392221244
N  N22  1  0.51450000  0.30030000  0.79832000  1.0 -0.2592548373
N  N23  1  0.06880000  0.18510000  0.65622000  1.0 -0.2592548373
N  N24  1  0.91750000  0.39200000  0.62136000  1.0 -0.2491512433
N  N25  1  0.52602000  0.58660000  0.93844000  1.0 -0.2592548373
N  N26  1  0.42140000  0.15910000  0.80736000  1.0 -0.2592548373
N  N27  1  0.54740000  0.65150000  0.88233000  1.0 -0.2392221244
N  N28  1  0.30730000  0.13640000  0.75362000  1.0 -0.2725215158
N  N29  1  0.32190000  0.72960000  0.87372000  1.0 -0.2210229686
N  N30  1  0.92440000  0.52790000  0.64944000  1.0 -0.2304449952
N  N31  1  0.94960000  0.43860000  0.56634000  1.0 -0.2491512433
N  N32  1  0.95620000  0.57370000  0.59403000  1.0 -0.2392221244
N  N33  1  0.98850000  0.62820000  0.69800000  1.0 -0.2491512433
N  N34  1  0.17950000  0.14040000  0.69840000  1.0 -0.2592548373
N  N35  1  0.08780000  0.70480000  0.76156000  1.0 -0.2304449952
N  N36  1  0.19470000  0.74280000  0.82086000  1.0 -0.2491512433
N  N37  1  0.00710000  0.68230000  0.63789000  1.0 -0.2304449952
N  N38  1  0.34390000  0.78950000  0.81665000  1.0 -0.2210229686
N  N39  1  0.10480000  0.75880000  0.70066000  1.0 -0.2304449952
N  N40  1  0.21640000  0.78620000  0.76004000  1.0 -0.2304449952
N  N41  1  0.91700000  0.71900000  0.90919000  1.0 -0.2725215158
N  N42  1  0.57040000  0.17770000  0.58674000  1.0 -0.2304449952
N  N43  1  0.42027000  0.83970000  0.58810000  1.0 -0.2491512433
N  N44  1  0.47470000  0.73300000  0.63271000  1.0 -0.2592548373
N  N45  1  0.00827000  0.81900000  0.93408000  1.0 -0.2491512433
N  N46  1  0.54640000  0.24570000  0.64091000  1.0 -0.2304449952
N  N47  1  0.02700000  0.77890000  0.87141000  1.0 -0.2491512433
N  N48  1  0.81080000  0.66390000  0.87035000  1.0 -0.2592548373
N  N49  1  0.42370000  0.90350000  0.65517000  1.0 -0.2491512433
N  N50  1  0.58235000  0.71800000  0.76122000  1.0 -0.2799542113
N  N51  1  0.41832000  0.97570000  0.56139000  1.0 -0.2799542113
N  N52  1  0.68353000  0.65940000  0.81580000  1.0 -0.2592548373
N  N53  1  0.40940000  0.03740000  0.62371000  1.0 -0.2392221244
N  N54  1  0.48550000  0.80030000  0.70168000  1.0 -0.2592548373
N  N55  1  0.93120000  0.68510000  0.84378000  1.0 -0.2592548373
N  N56  1  0.08250000  0.89200000  0.87864000  1.0 -0.2491512433
N  N57  1  0.47398000  0.08660000  0.56156000  1.0 -0.2592548373
N  N58  1  0.57860000  0.65910000  0.69264000  1.0 -0.2592548373
N  N59  1  0.45260000  0.15150000  0.61767000  1.0 -0.2392221244
N  N60  1  0.69270000  0.63640000  0.74638000  1.0 -0.2725215158
N  N61  1  0.67810000  0.22960000  0.62628000  1.0 -0.2210229686
N  N62  1  0.07560000  0.02790000  0.85056000  1.0 -0.2304449952
N  N63  1  0.05040000  0.93860000  0.93366000  1.0 -0.2491512433
N  N64  1  0.04380000  0.07370000  0.90597000  1.0 -0.2392221244
N  N65  1  0.01150000  0.12820000  0.80200000  1.0 -0.2491512433
N  N66  1  0.82050000  0.64040000  0.80160000  1.0 -0.2592548373
N  N67  1  0.91220000  0.20480000  0.73844000  1.0 -0.2304449952
N  N68  1  0.80530000  0.24280000  0.67914000  1.0 -0.2491512433
N  N69  1  0.99290000  0.18230000  0.86211000  1.0 -0.2304449952
N  N70  1  0.65610000  0.28950000  0.68335000  1.0 -0.2210229686
N  N71  1  0.89520000  0.25880000  0.79934000  1.0 -0.2304449952
N  N72  1  0.78360000  0.28620000  0.73996000  1.0 -0.2304449952
N  N73  1  0.91700000  0.78100000  0.40919000  1.0 -0.2725215158
N  N74  1  0.57040000  0.32230000  0.08674000  1.0 -0.2304449952
N  N75  1  0.42027000  0.66030000  0.08810000  1.0 -0.2491512433
N  N76  1  0.47470000  0.76700000  0.13271000  1.0 -0.2592548373
N  N77  1  0.00827000  0.68100000  0.43408000  1.0 -0.2491512433
N  N78  1  0.54640000  0.25430000  0.14091000  1.0 -0.2304449952
N  N79  1  0.02700000  0.72110000  0.37141000  1.0 -0.2491512433
N  N80  1  0.81080000  0.83610000  0.37035000  1.0 -0.2592548373
N  N81  1  0.42370000  0.59650000  0.15517000  1.0 -0.2491512433
N  N82  1  0.58235000  0.78200000  0.26122000  1.0 -0.2799542113
N  N83  1  0.41832000  0.52430000  0.06139000  1.0 -0.2799542113
N  N84  1  0.68353000  0.84060000  0.31580000  1.0 -0.2592548373
N  N85  1  0.40940000  0.46260000  0.12371000  1.0 -0.2392221244
N  N86  1  0.48550000  0.69970000  0.20168000  1.0 -0.2592548373
N  N87  1  0.93120000  0.81490000  0.34378000  1.0 -0.2592548373
N  N88  1  0.08250000  0.60800000  0.37864000  1.0 -0.2491512433
N  N89  1  0.47398000  0.41340000  0.06156000  1.0 -0.2592548373
N  N90  1  0.57860000  0.84090000  0.19264000  1.0 -0.2592548373
N  N91  1  0.45260000  0.34850000  0.11767000  1.0 -0.2392221244
N  N92  1  0.69270000  0.86360000  0.24638000  1.0 -0.2725215158
N  N93  1  0.67810000  0.27040000  0.12628000  1.0 -0.2210229686
N  N94  1  0.07560000  0.47210000  0.35056000  1.0 -0.2304449952
N  N95  1  0.05040000  0.56140000  0.43366000  1.0 -0.2491512433
N  N96  1  0.04380000  0.42630000  0.40597000  1.0 -0.2392221244
N  N97  1  0.01150000  0.37180000  0.30200000  1.0 -0.2491512433
N  N98  1  0.82050000  0.85960000  0.30160000  1.0 -0.2592548373
N  N99  1  0.91220000  0.29520000  0.23844000  1.0 -0.2304449952
N  N100  1  0.80530000  0.25720000  0.17914000  1.0 -0.2491512433
N  N101  1  0.99290000  0.31770000  0.36211000  1.0 -0.2304449952
N  N102  1  0.65610000  0.21050000  0.18335000  1.0 -0.2210229686
N  N103  1  0.89520000  0.24120000  0.29934000  1.0 -0.2304449952
N  N104  1  0.78360000  0.21380000  0.23996000  1.0 -0.2304449952
N  N105  1  0.08300000  0.28100000  0.09081000  1.0 -0.2725215158
N  N106  1  0.42960000  0.82230000  0.41326000  1.0 -0.2304449952
N  N107  1  0.57973000  0.16030000  0.41190000  1.0 -0.2491512433
N  N108  1  0.52530000  0.26700000  0.36729000  1.0 -0.2592548373
N  N109  1  0.99173000  0.18100000  0.06592000  1.0 -0.2491512433
N  N110  1  0.45360000  0.75430000  0.35909000  1.0 -0.2304449952
N  N111  1  0.97300000  0.22110000  0.12859000  1.0 -0.2491512433
N  N112  1  0.18920000  0.33610000  0.12965000  1.0 -0.2592548373
N  N113  1  0.57630000  0.09650000  0.34483000  1.0 -0.2491512433
N  N114  1  0.41765000  0.28200000  0.23878000  1.0 -0.2799542113
N  N115  1  0.58168000  0.02430000  0.43861000  1.0 -0.2799542113
N  N116  1  0.31647000  0.34060000  0.18420000  1.0 -0.2592548373
N  N117  1  0.59060000  0.96260000  0.37629000  1.0 -0.2392221244
N  N118  1  0.51450000  0.19970000  0.29832000  1.0 -0.2592548373
N  N119  1  0.06880000  0.31490000  0.15622000  1.0 -0.2592548373
N  N120  1  0.91750000  0.10800000  0.12136000  1.0 -0.2491512433
N  N121  1  0.52602000  0.91340000  0.43844000  1.0 -0.2592548373
N  N122  1  0.42140000  0.34090000  0.30736000  1.0 -0.2491512433
N  N123  1  0.54740000  0.84850000  0.38233000  1.0 -0.2392221244
N  N124  1  0.30730000  0.36360000  0.25362000  1.0 -0.2725215158
N  N125  1  0.32190000  0.77040000  0.37372000  1.0 -0.2210229686
N  N126  1  0.92440000  0.97210000  0.14944000  1.0 -0.2304449952
N  N127  1  0.94960000  0.06140000  0.06634000  1.0 -0.2491512433
N  N128  1  0.95620000  0.92630000  0.09403000  1.0 -0.2392221244
N  N129  1  0.98850000  0.87180000  0.19800000  1.0 -0.2491512433
N  N130  1  0.17950000  0.35960000  0.19840000  1.0 -0.2592548373
N  N131  1  0.08780000  0.79520000  0.26156000  1.0 -0.2304449952
N  N132  1  0.19470000  0.75720000  0.32086000  1.0 -0.2491512433
N  N133  1  0.00710000  0.81770000  0.13789000  1.0 -0.2304449952
N  N134  1  0.34390000  0.71050000  0.31665000  1.0 -0.2210229686
N  N135  1  0.10480000  0.74120000  0.20066000  1.0 -0.2304449952
N  N136  1  0.21640000  0.71380000  0.26004000  1.0 -0.2304449952
O  O1  1  0.22479000  0.67526000  0.03447000  1.0 -0.5963974944
O  O2  1  0.77521000  0.17526000  0.46553000  1.0 -0.5963974944
O  O3  1  0.77521000  0.32474000  0.96553000  1.0 -0.5963974944
O  O4  1  0.22479000  0.82474000  0.53447000  1.0 -0.5963974944
O  O5  1  0.22272000  0.95476000  0.48617000  1.0 -0.5963974944
O  O6  1  0.77728000  0.45476000  0.01383000  1.0 -0.5963974944
O  O7  1  0.77728000  0.04524000  0.51383000  1.0 -0.5963974944
O  O8  1  0.22272000  0.54524000  0.98617000  1.0 -0.5963974944
O  O9  1  0.15517000  0.05920000  0.47017000  1.0 -0.5694103366
O  O10  1  0.84483000  0.55920000  0.02983000  1.0 -0.5694103366
O  O11  1  0.84483000  0.94080000  0.52983000  1.0 -0.5694103366
O  O12  1  0.15517000  0.44080000  0.97017000  1.0 -0.5694103366
O  O13  1  0.14720000  0.67940000  0.05319000  1.0 -0.5580955869
O  O14  1  0.85280000  0.17940000  0.44681000  1.0 -0.5580955869
O  O15  1  0.85280000  0.32060000  0.94681000  1.0 -0.5580955869
O  O16  1  0.14720000  0.82060000  0.55319000  1.0 -0.5580955869
O  O17  1  0.05070000  0.45310000  0.98250000  1.0 -0.5458489335
O  O18  1  0.94930000  0.95310000  0.51750000  1.0 -0.5458489335
O  O19  1  0.94930000  0.54690000  0.01750000  1.0 -0.5458489335
O  O20  1  0.05070000  0.04690000  0.48250000  1.0 -0.5458489335
O  O21  1  0.94540000  0.42200000  0.96670000  1.0 -0.5405701822
O  O22  1  0.05460000  0.92200000  0.53330000  1.0 -0.5405701822
O  O23  1  0.05460000  0.57800000  0.03330000  1.0 -0.5405701822
O  O24  1  0.94540000  0.07800000  0.46670000  1.0 -0.5405701822
O  O25  1  0.49560000  0.46414000  0.95454000  1.0 -0.5106151727
O  O26  1  0.51557000  0.26252000  0.93139000  1.0 -0.5327710337
O  O27  1  0.16152000  0.26060000  0.57202000  1.0 -0.5405701822
O  O28  1  0.50149000  0.42310000  0.76250000  1.0 -0.5201922823
O  O29  1  0.35642000  0.26090000  0.65878000  1.0 -0.5201922823
O  O30  1  0.03149000  0.42980000  0.54649000  1.0 -0.5106151727
O  O31  1  0.34578000  0.61750000  0.92114000  1.0 -0.5201922823
O  O32  1  0.97510000  0.51410000  0.73124000  1.0 -0.5106151727
O  O33  1  0.53210000  0.61940000  0.80964000  1.0 -0.5106151727
O  O34  1  0.34739000  0.15600000  0.83398000  1.0 -0.5201922823
O  O35  1  0.13050000  0.18410000  0.73955000  1.0 -0.5201922823
O  O36  1  0.03970000  0.63810000  0.58764000  1.0 -0.4953827983
O  O37  1  0.96557000  0.32030000  0.69204000  1.0 -0.5201922823
O  O38  1  0.13880000  0.64540000  0.83669000  1.0 -0.5201922823
O  O39  1  0.40230000  0.77610000  0.77874000  1.0 -0.5106151727
O  O40  1  0.18830000  0.76660000  0.68200000  1.0 -0.5106151727
O  O41  1  0.50440000  0.96414000  0.54546000  1.0 -0.5106151727
O  O42  1  0.48443000  0.76252000  0.56861000  1.0 -0.5327710337
O  O43  1  0.83848000  0.76060000  0.92798000  1.0 -0.5405701822
O  O44  1  0.49851000  0.92310000  0.73750000  1.0 -0.5201922823
O  O45  1  0.64358000  0.76090000  0.84122000  1.0 -0.5201922823
O  O46  1  0.96851000  0.92980000  0.95351000  1.0 -0.5106151727
O  O47  1  0.65422000  0.11750000  0.57886000  1.0 -0.5201922823
O  O48  1  0.02490000  0.01410000  0.76876000  1.0 -0.5106151727
O  O49  1  0.46790000  0.11940000  0.69036000  1.0 -0.5106151727
O  O50  1  0.65261000  0.65600000  0.66602000  1.0 -0.5201922823
O  O51  1  0.86950000  0.68410000  0.76045000  1.0 -0.5201922823
O  O52  1  0.96030000  0.13810000  0.91236000  1.0 -0.4953827983
O  O53  1  0.03443000  0.82030000  0.80796000  1.0 -0.5201922823
O  O54  1  0.86120000  0.14540000  0.66331000  1.0 -0.5201922823
O  O55  1  0.59770000  0.27610000  0.72126000  1.0 -0.5106151727
O  O56  1  0.81170000  0.26660000  0.81800000  1.0 -0.5106151727
O  O57  1  0.50440000  0.53586000  0.04546000  1.0 -0.5106151727
O  O58  1  0.48443000  0.73748000  0.06861000  1.0 -0.5327710337
O  O59  1  0.83848000  0.73940000  0.42798000  1.0 -0.5405701822
O  O60  1  0.49851000  0.57690000  0.23750000  1.0 -0.5201922823
O  O61  1  0.64358000  0.73910000  0.34122000  1.0 -0.5201922823
O  O62  1  0.96851000  0.57020000  0.45351000  1.0 -0.5106151727
O  O63  1  0.65422000  0.38250000  0.07886000  1.0 -0.5201922823
O  O64  1  0.02490000  0.48590000  0.26876000  1.0 -0.5106151727
O  O65  1  0.46790000  0.38060000  0.19036000  1.0 -0.5106151727
O  O66  1  0.65261000  0.84400000  0.16602000  1.0 -0.5201922823
O  O67  1  0.86950000  0.81590000  0.26045000  1.0 -0.5201922823
O  O68  1  0.96030000  0.36190000  0.41236000  1.0 -0.4953827983
O  O69  1  0.03443000  0.67970000  0.30796000  1.0 -0.5201922823
O  O70  1  0.86120000  0.35460000  0.16331000  1.0 -0.5201922823
O  O71  1  0.59770000  0.22390000  0.22126000  1.0 -0.5106151727
O  O72  1  0.81170000  0.23340000  0.31800000  1.0 -0.5106151727
O  O73  1  0.49560000  0.03586000  0.45454000  1.0 -0.5106151727
O  O74  1  0.51557000  0.23748000  0.43139000  1.0 -0.5327710337
O  O75  1  0.16152000  0.23940000  0.07202000  1.0 -0.5405701822
O  O76  1  0.50149000  0.07690000  0.26250000  1.0 -0.5201922823
O  O77  1  0.35642000  0.23910000  0.15878000  1.0 -0.5201922823
O  O78  1  0.03149000  0.07020000  0.04649000  1.0 -0.5106151727
O  O79  1  0.34578000  0.88250000  0.42114000  1.0 -0.5201922823
O  O80  1  0.97510000  0.98590000  0.23124000  1.0 -0.5106151727
O  O81  1  0.53210000  0.88060000  0.30964000  1.0 -0.5106151727
O  O82  1  0.34739000  0.34400000  0.33398000  1.0 -0.5201922823
O  O83  1  0.13050000  0.31590000  0.23955000  1.0 -0.5201922823
O  O84  1  0.03970000  0.86190000  0.08764000  1.0 -0.4953827983
O  O85  1  0.96557000  0.17970000  0.19204000  1.0 -0.5201922823
O  O86  1  0.13880000  0.85460000  0.33669000  1.0 -0.5201922823
O  O87  1  0.40230000  0.72390000  0.27874000  1.0 -0.5106151727
O  O88  1  0.18830000  0.73340000  0.18200000  1.0 -0.5106151727
