# DDEC6 charges by PACMAN v1.1 (https://github.com/mtap-research/PACMAN-charge/)
data_LIQTUC_ASR_pacman
_symmetry_space_group_name_H-M   'P 1'
_cell_length_a   23.14150000
_cell_length_b   23.14150000
_cell_length_c   15.14630000
_cell_angle_alpha   90.00000000
_cell_angle_beta   90.00000000
_cell_angle_gamma   120.00000000
_symmetry_Int_Tables_number   1
_chemical_formula_structural   AgH43C35(S2N)2
_chemical_formula_sum   'Ag6 H258 C210 S24 N12'
_cell_volume   7024.57733422
_cell_formula_units_Z   6
loop_
 _symmetry_equiv_pos_site_id
 _symmetry_equiv_pos_as_xyz
  1  'x, y, z'
loop_
 _atom_site_type_symbol
 _atom_site_label
 _atom_site_symmetry_multiplicity
 _atom_site_fract_x
 _atom_site_fract_y
 _atom_site_fract_z
 _atom_site_occupancy
 _atom_site_charge
Ag  Ag1  1  0.04915000  0.54333000  0.16442000  1.0 0.1932009623
Ag  Ag2  1  0.45667000  0.50582000  0.83109000  1.0 0.1932009623
Ag  Ag3  1  0.49418000  0.95085000  0.49775000  1.0 0.1932009623
Ag  Ag4  1  0.54333000  0.04915000  0.83558000  1.0 0.1932009623
Ag  Ag5  1  0.50582000  0.45667000  0.16891000  1.0 0.1932009623
Ag  Ag6  1  0.95085000  0.49418000  0.50225000  1.0 0.1932009623
H  H1  1  0.09820000  0.60260000  0.00250000  1.0 0.0996388702
H  H2  1  0.39740000  0.49560000  0.66917000  1.0 0.0996388702
H  H3  1  0.50440000  0.90180000  0.33583000  1.0 0.0996388702
H  H4  1  0.60260000  0.09820000  0.99750000  1.0 0.0996388702
H  H5  1  0.49560000  0.39740000  0.33083000  1.0 0.0996388702
H  H6  1  0.90180000  0.50440000  0.66417000  1.0 0.0996388702
H  H7  1  0.15860000  0.62860000  0.75560000  1.0 0.1104885949
H  H8  1  0.37140000  0.53000000  0.42227000  1.0 0.1104885949
H  H9  1  0.47000000  0.84140000  0.08893000  1.0 0.1104885949
H  H10  1  0.62860000  0.15860000  0.24440000  1.0 0.1104885949
H  H11  1  0.53000000  0.37140000  0.57773000  1.0 0.1104885949
H  H12  1  0.84140000  0.47000000  0.91107000  1.0 0.1104885949
H  H13  1  0.24040000  0.51140000  0.94380000  1.0 0.1104885949
H  H14  1  0.48860000  0.72900000  0.61047000  1.0 0.1104885949
H  H15  1  0.27100000  0.75960000  0.27713000  1.0 0.1104885949
H  H16  1  0.51140000  0.24040000  0.05620000  1.0 0.1104885949
H  H17  1  0.72900000  0.48860000  0.38953000  1.0 0.1104885949
H  H18  1  0.75960000  0.27100000  0.72287000  1.0 0.1104885949
H  H19  1  0.19990000  0.45420000  0.01640000  1.0 0.1209762035
H  H20  1  0.54580000  0.74570000  0.68307000  1.0 0.1209762035
H  H21  1  0.25430000  0.80010000  0.34973000  1.0 0.1209762035
H  H22  1  0.45420000  0.19990000  0.98360000  1.0 0.1209762035
H  H23  1  0.74570000  0.54580000  0.31693000  1.0 0.1209762035
H  H24  1  0.80010000  0.25430000  0.65027000  1.0 0.1209762035
H  H25  1  0.33090000  0.50930000  0.88890000  1.0 0.1104885949
H  H26  1  0.49070000  0.82160000  0.55557000  1.0 0.1104885949
H  H27  1  0.17840000  0.66910000  0.22223000  1.0 0.1104885949
H  H28  1  0.50930000  0.33090000  0.11110000  1.0 0.1104885949
H  H29  1  0.82160000  0.49070000  0.44443000  1.0 0.1104885949
H  H30  1  0.66910000  0.17840000  0.77777000  1.0 0.1104885949
H  H31  1  0.34540000  0.34400000  0.84750000  1.0 0.0894863671
H  H32  1  0.65600000  0.00140000  0.51417000  1.0 0.0894863671
H  H33  1  0.99860000  0.65460000  0.18083000  1.0 0.0894863671
H  H34  1  0.34400000  0.34540000  0.15250000  1.0 0.0894863671
H  H35  1  0.00140000  0.65600000  0.48583000  1.0 0.0894863671
H  H36  1  0.65460000  0.99860000  0.81917000  1.0 0.0894863671
H  H37  1  0.23510000  0.27700000  0.89480000  1.0 0.1363555482
H  H38  1  0.72300000  0.95810000  0.56147000  1.0 0.1363555482
H  H39  1  0.04190000  0.76490000  0.22813000  1.0 0.1363555482
H  H40  1  0.27700000  0.23510000  0.10520000  1.0 0.1363555482
H  H41  1  0.95810000  0.72300000  0.43853000  1.0 0.1363555482
H  H42  1  0.76490000  0.04190000  0.77187000  1.0 0.1363555482
H  H43  1  0.17270000  0.32620000  0.93910000  1.0 0.130740064
H  H44  1  0.67380000  0.84650000  0.60577000  1.0 0.130740064
H  H45  1  0.15350000  0.82730000  0.27243000  1.0 0.130740064
H  H46  1  0.32620000  0.17270000  0.06090000  1.0 0.130740064
H  H47  1  0.84650000  0.67380000  0.39423000  1.0 0.130740064
H  H48  1  0.82730000  0.15350000  0.72757000  1.0 0.130740064
H  H49  1  0.10650000  0.68920000  0.74740000  1.0 0.1209762035
H  H50  1  0.31080000  0.41730000  0.41407000  1.0 0.1209762035
H  H51  1  0.58270000  0.89350000  0.08073000  1.0 0.1209762035
H  H52  1  0.68920000  0.10650000  0.25260000  1.0 0.1209762035
H  H53  1  0.41730000  0.31080000  0.58593000  1.0 0.1209762035
H  H54  1  0.89350000  0.58270000  0.91927000  1.0 0.1209762035
H  H55  1  0.08590000  0.73460000  0.80350000  1.0 0.130740064
H  H56  1  0.26540000  0.35130000  0.47017000  1.0 0.130740064
H  H57  1  0.64870000  0.91410000  0.13683000  1.0 0.130740064
H  H58  1  0.73460000  0.08590000  0.19650000  1.0 0.130740064
H  H59  1  0.35130000  0.26540000  0.52983000  1.0 0.130740064
H  H60  1  0.91410000  0.64870000  0.86317000  1.0 0.130740064
H  H61  1  0.04320000  0.65510000  0.81160000  1.0 0.1209762035
H  H62  1  0.34490000  0.38810000  0.47827000  1.0 0.1209762035
H  H63  1  0.61190000  0.95680000  0.14493000  1.0 0.1209762035
H  H64  1  0.65510000  0.04320000  0.18840000  1.0 0.1209762035
H  H65  1  0.38810000  0.34490000  0.52173000  1.0 0.1209762035
H  H66  1  0.95680000  0.61190000  0.85507000  1.0 0.1209762035
H  H67  1  0.23890000  0.75670000  0.90970000  1.0 0.1209762035
H  H68  1  0.24330000  0.48220000  0.57637000  1.0 0.1209762035
H  H69  1  0.51780000  0.76110000  0.24303000  1.0 0.1209762035
H  H70  1  0.75670000  0.23890000  0.09030000  1.0 0.1209762035
H  H71  1  0.48220000  0.24330000  0.42363000  1.0 0.1209762035
H  H72  1  0.76110000  0.51780000  0.75697000  1.0 0.1209762035
H  H73  1  0.21230000  0.79510000  0.84930000  1.0 0.130740064
H  H74  1  0.20490000  0.41720000  0.51597000  1.0 0.130740064
H  H75  1  0.58280000  0.78770000  0.18263000  1.0 0.130740064
H  H76  1  0.79510000  0.21230000  0.15070000  1.0 0.130740064
H  H77  1  0.41720000  0.20490000  0.48403000  1.0 0.130740064
H  H78  1  0.78770000  0.58280000  0.81737000  1.0 0.130740064
H  H79  1  0.22560000  0.73950000  0.80680000  1.0 0.1209762035
H  H80  1  0.26050000  0.48610000  0.47347000  1.0 0.1209762035
H  H81  1  0.51390000  0.77440000  0.14013000  1.0 0.1209762035
H  H82  1  0.73950000  0.22560000  0.19320000  1.0 0.1209762035
H  H83  1  0.48610000  0.26050000  0.52653000  1.0 0.1209762035
H  H84  1  0.77440000  0.51390000  0.85987000  1.0 0.1209762035
H  H85  1  0.08070000  0.73380000  0.94940000  1.0 0.1209762035
H  H86  1  0.26620000  0.34690000  0.61607000  1.0 0.1209762035
H  H87  1  0.65310000  0.91930000  0.28273000  1.0 0.1209762035
H  H88  1  0.73380000  0.08070000  0.05060000  1.0 0.1209762035
H  H89  1  0.34690000  0.26620000  0.38393000  1.0 0.1209762035
H  H90  1  0.91930000  0.65310000  0.71727000  1.0 0.1209762035
H  H91  1  0.12810000  0.72100000  0.01360000  1.0 0.130740064
H  H92  1  0.27900000  0.40710000  0.68027000  1.0 0.130740064
H  H93  1  0.59290000  0.87190000  0.34693000  1.0 0.130740064
H  H94  1  0.72100000  0.12810000  0.98640000  1.0 0.130740064
H  H95  1  0.40710000  0.27900000  0.31973000  1.0 0.130740064
H  H96  1  0.87190000  0.59290000  0.65307000  1.0 0.130740064
H  H97  1  0.05940000  0.65940000  0.97940000  1.0 0.1104885949
H  H98  1  0.34060000  0.40000000  0.64607000  1.0 0.1104885949
H  H99  1  0.60000000  0.94060000  0.31273000  1.0 0.1104885949
H  H100  1  0.65940000  0.05940000  0.02060000  1.0 0.1104885949
H  H101  1  0.40000000  0.34060000  0.35393000  1.0 0.1104885949
H  H102  1  0.94060000  0.60000000  0.68727000  1.0 0.1104885949
H  H103  1  0.86350000  0.25320000  0.98470000  1.0 0.130740064
H  H104  1  0.74680000  0.61030000  0.65137000  1.0 0.130740064
H  H105  1  0.38970000  0.13650000  0.31803000  1.0 0.130740064
H  H106  1  0.25320000  0.86350000  0.01530000  1.0 0.130740064
H  H107  1  0.61030000  0.74680000  0.34863000  1.0 0.130740064
H  H108  1  0.13650000  0.38970000  0.68197000  1.0 0.130740064
H  H109  1  0.05750000  0.35360000  0.05970000  1.0 0.1104885949
H  H110  1  0.64640000  0.70390000  0.72637000  1.0 0.1104885949
H  H111  1  0.29610000  0.94250000  0.39303000  1.0 0.1104885949
H  H112  1  0.35360000  0.05750000  0.94030000  1.0 0.1104885949
H  H113  1  0.70390000  0.64640000  0.27363000  1.0 0.1104885949
H  H114  1  0.94250000  0.29610000  0.60697000  1.0 0.1104885949
H  H115  1  0.87270000  0.48220000  0.15130000  1.0 0.1363555482
H  H116  1  0.51780000  0.39050000  0.81797000  1.0 0.1363555482
H  H117  1  0.60950000  0.12730000  0.48463000  1.0 0.1363555482
H  H118  1  0.48220000  0.87270000  0.84870000  1.0 0.1363555482
H  H119  1  0.39050000  0.51780000  0.18203000  1.0 0.1363555482
H  H120  1  0.12730000  0.60950000  0.51537000  1.0 0.1363555482
H  H121  1  0.84340000  0.41020000  0.10830000  1.0 0.1209762035
H  H122  1  0.58980000  0.43320000  0.77497000  1.0 0.1209762035
H  H123  1  0.56680000  0.15660000  0.44163000  1.0 0.1209762035
H  H124  1  0.41020000  0.84340000  0.89170000  1.0 0.1209762035
H  H125  1  0.43320000  0.58980000  0.22503000  1.0 0.1209762035
H  H126  1  0.15660000  0.56680000  0.55837000  1.0 0.1209762035
H  H127  1  0.92550000  0.50480000  0.29090000  1.0 0.0996388702
H  H128  1  0.49520000  0.42070000  0.95757000  1.0 0.0996388702
H  H129  1  0.57930000  0.07450000  0.62423000  1.0 0.0996388702
H  H130  1  0.50480000  0.92550000  0.70910000  1.0 0.0996388702
H  H131  1  0.42070000  0.49520000  0.04243000  1.0 0.0996388702
H  H132  1  0.07450000  0.57930000  0.37577000  1.0 0.0996388702
H  H133  1  0.93510000  0.35790000  0.42370000  1.0 0.0996388702
H  H134  1  0.64210000  0.57720000  0.09037000  1.0 0.0996388702
H  H135  1  0.42280000  0.06490000  0.75703000  1.0 0.0996388702
H  H136  1  0.35790000  0.93510000  0.57630000  1.0 0.0996388702
H  H137  1  0.57720000  0.64210000  0.90963000  1.0 0.0996388702
H  H138  1  0.06490000  0.42280000  0.24297000  1.0 0.0996388702
H  H139  1  0.90420000  0.29350000  0.29510000  1.0 0.1452610186
H  H140  1  0.70650000  0.61070000  0.96177000  1.0 0.1452610186
H  H141  1  0.38930000  0.09580000  0.62843000  1.0 0.1452610186
H  H142  1  0.29350000  0.90420000  0.70490000  1.0 0.1452610186
H  H143  1  0.61070000  0.70650000  0.03823000  1.0 0.1452610186
H  H144  1  0.09580000  0.38930000  0.37157000  1.0 0.1452610186
H  H145  1  0.87770000  0.32880000  0.16610000  1.0 0.1209762035
H  H146  1  0.67120000  0.54890000  0.83277000  1.0 0.1209762035
H  H147  1  0.45110000  0.12230000  0.49943000  1.0 0.1209762035
H  H148  1  0.32880000  0.87770000  0.83390000  1.0 0.1209762035
H  H149  1  0.54890000  0.67120000  0.16723000  1.0 0.1209762035
H  H150  1  0.12230000  0.45110000  0.50057000  1.0 0.1209762035
H  H151  1  0.02940000  0.19300000  0.98080000  1.0 0.0894863671
H  H152  1  0.80700000  0.83640000  0.64747000  1.0 0.0894863671
H  H153  1  0.16360000  0.97060000  0.31413000  1.0 0.0894863671
H  H154  1  0.19300000  0.02940000  0.01920000  1.0 0.0894863671
H  H155  1  0.83640000  0.80700000  0.35253000  1.0 0.0894863671
H  H156  1  0.97060000  0.16360000  0.68587000  1.0 0.0894863671
H  H157  1  0.06300000  0.25630000  0.04510000  1.0 0.0202068152
H  H158  1  0.74370000  0.80670000  0.71177000  1.0 0.0202068152
H  H159  1  0.19330000  0.93700000  0.37843000  1.0 0.0202068152
H  H160  1  0.25630000  0.06300000  0.95490000  1.0 0.0202068152
H  H161  1  0.80670000  0.74370000  0.28823000  1.0 0.0202068152
H  H162  1  0.93700000  0.19330000  0.62157000  1.0 0.0202068152
H  H163  1  0.04890000  0.26530000  0.94400000  1.0 0.0719328332
H  H164  1  0.73470000  0.78360000  0.61067000  1.0 0.0719328332
H  H165  1  0.21640000  0.95110000  0.27733000  1.0 0.0719328332
H  H166  1  0.26530000  0.04890000  0.05600000  1.0 0.0719328332
H  H167  1  0.78360000  0.73470000  0.38933000  1.0 0.0719328332
H  H168  1  0.95110000  0.21640000  0.72267000  1.0 0.0719328332
H  H169  1  0.93220000  0.15230000  0.92100000  1.0 0.0303464293
H  H170  1  0.84770000  0.77990000  0.58767000  1.0 0.0303464293
H  H171  1  0.22010000  0.06780000  0.25433000  1.0 0.0303464293
H  H172  1  0.15230000  0.93220000  0.07900000  1.0 0.0303464293
H  H173  1  0.77990000  0.84770000  0.41233000  1.0 0.0303464293
H  H174  1  0.06780000  0.22010000  0.74567000  1.0 0.0303464293
H  H175  1  0.89640000  0.19600000  0.91440000  1.0 0.0813040086
H  H176  1  0.80400000  0.70040000  0.58107000  1.0 0.0813040086
H  H177  1  0.29960000  0.10360000  0.24773000  1.0 0.0813040086
H  H178  1  0.19600000  0.89640000  0.08560000  1.0 0.0813040086
H  H179  1  0.70040000  0.80400000  0.41893000  1.0 0.0813040086
H  H180  1  0.10360000  0.29960000  0.75227000  1.0 0.0813040086
H  H181  1  0.87250000  0.13820000  0.98690000  1.0 0.0894863671
H  H182  1  0.86180000  0.73430000  0.65357000  1.0 0.0813040086
H  H183  1  0.26570000  0.12750000  0.32023000  1.0 0.0894863671
H  H184  1  0.13820000  0.87250000  0.01310000  1.0 0.0813040086
H  H185  1  0.73430000  0.86180000  0.34643000  1.0 0.0894863671
H  H186  1  0.12750000  0.26570000  0.67977000  1.0 0.0894863671
H  H187  1  0.89970000  0.19230000  0.13150000  1.0 0.0600114279
H  H188  1  0.80770000  0.70740000  0.79817000  1.0 0.0600114279
H  H189  1  0.29260000  0.10030000  0.46483000  1.0 0.0600114279
H  H190  1  0.19230000  0.89970000  0.86850000  1.0 0.0600114279
H  H191  1  0.70740000  0.80770000  0.20183000  1.0 0.0600114279
H  H192  1  0.10030000  0.29260000  0.53517000  1.0 0.0600114279
H  H193  1  0.97710000  0.22680000  0.15710000  1.0 0.0894863671
H  H194  1  0.77320000  0.75030000  0.82377000  1.0 0.0894863671
H  H195  1  0.24970000  0.02290000  0.49043000  1.0 0.0894863671
H  H196  1  0.22680000  0.97710000  0.84290000  1.0 0.0894863671
H  H197  1  0.75030000  0.77320000  0.17623000  1.0 0.0894863671
H  H198  1  0.02290000  0.24970000  0.50957000  1.0 0.0894863671
H  H199  1  0.93890000  0.15210000  0.11960000  1.0 0.0202068152
H  H200  1  0.84790000  0.78680000  0.78627000  1.0 0.0202068152
H  H201  1  0.21320000  0.06110000  0.45293000  1.0 0.0202068152
H  H202  1  0.15210000  0.93890000  0.88040000  1.0 0.0202068152
H  H203  1  0.78680000  0.84790000  0.21373000  1.0 0.0202068152
H  H204  1  0.06110000  0.21320000  0.54707000  1.0 0.0202068152
H  H205  1  0.95420000  0.15500000  0.92690000  1.0 0.0719328332
H  H206  1  0.84500000  0.79920000  0.59357000  1.0 0.0719328332
H  H207  1  0.20080000  0.04580000  0.26023000  1.0 0.0719328332
H  H208  1  0.15500000  0.95420000  0.07310000  1.0 0.0719328332
H  H209  1  0.79920000  0.84500000  0.40643000  1.0 0.0719328332
H  H210  1  0.04580000  0.20080000  0.73977000  1.0 0.0719328332
H  H211  1  0.98070000  0.22800000  0.88690000  1.0 0.0894863671
H  H212  1  0.77200000  0.75270000  0.55357000  1.0 0.0894863671
H  H213  1  0.24730000  0.01930000  0.22023000  1.0 0.0894863671
H  H214  1  0.22800000  0.98070000  0.11310000  1.0 0.0894863671
H  H215  1  0.75270000  0.77200000  0.44643000  1.0 0.0894863671
H  H216  1  0.01930000  0.24730000  0.77977000  1.0 0.0894863671
H  H217  1  0.90330000  0.18170000  0.91000000  1.0 0.0600114279
H  H218  1  0.81830000  0.72160000  0.57667000  1.0 0.0600114279
H  H219  1  0.27840000  0.09670000  0.24333000  1.0 0.0600114279
H  H220  1  0.18170000  0.90330000  0.09000000  1.0 0.0600114279
H  H221  1  0.72160000  0.81830000  0.42333000  1.0 0.0600114279
H  H222  1  0.09670000  0.27840000  0.75667000  1.0 0.0600114279
H  H223  1  0.04490000  0.20960000  0.03730000  1.0 0.0303464293
H  H224  1  0.79040000  0.83530000  0.70397000  1.0 0.0303464293
H  H225  1  0.16470000  0.95510000  0.37063000  1.0 0.0303464293
H  H226  1  0.20960000  0.04490000  0.96270000  1.0 0.0303464293
H  H227  1  0.83530000  0.79040000  0.29603000  1.0 0.0303464293
H  H228  1  0.95510000  0.16470000  0.62937000  1.0 0.0303464293
H  H229  1  0.04210000  0.25770000  0.11110000  1.0 0.0719328332
H  H230  1  0.74230000  0.78440000  0.77777000  1.0 0.0719328332
H  H231  1  0.21560000  0.95790000  0.44443000  1.0 0.0719328332
H  H232  1  0.25770000  0.04210000  0.88890000  1.0 0.0719328332
H  H233  1  0.78440000  0.74230000  0.22223000  1.0 0.0719328332
H  H234  1  0.95790000  0.21560000  0.55557000  1.0 0.0719328332
H  H235  1  0.06650000  0.28510000  0.01320000  1.0 0.0382841742
H  H236  1  0.71490000  0.78140000  0.67987000  1.0 0.0382841742
H  H237  1  0.21860000  0.93350000  0.34653000  1.0 0.0382841742
H  H238  1  0.28510000  0.06650000  0.98680000  1.0 0.0382841742
H  H239  1  0.78140000  0.71490000  0.32013000  1.0 0.0382841742
H  H240  1  0.93350000  0.21860000  0.65347000  1.0 0.0382841742
H  H241  1  0.92780000  0.18810000  0.14930000  1.0 0.010277261
H  H242  1  0.81190000  0.73970000  0.81597000  1.0 0.010277261
H  H243  1  0.26030000  0.07220000  0.48263000  1.0 0.010277261
H  H244  1  0.18810000  0.92780000  0.85070000  1.0 0.010277261
H  H245  1  0.73970000  0.81190000  0.18403000  1.0 0.010277261
H  H246  1  0.07220000  0.26030000  0.51737000  1.0 0.010277261
H  H247  1  0.92180000  0.13050000  0.08490000  1.0 0.0996388702
H  H248  1  0.86950000  0.79130000  0.75157000  1.0 0.0996388702
H  H249  1  0.20870000  0.07820000  0.41823000  1.0 0.0894863671
H  H250  1  0.13050000  0.92180000  0.91510000  1.0 0.0996388702
H  H251  1  0.79130000  0.86950000  0.24843000  1.0 0.0996388702
H  H252  1  0.07820000  0.20870000  0.58177000  1.0 0.0996388702
H  H253  1  0.86920000  0.15590000  0.07770000  1.0 0.0600114279
H  H254  1  0.84410000  0.71330000  0.74437000  1.0 0.0600114279
H  H255  1  0.28670000  0.13080000  0.41103000  1.0 0.0719328332
H  H256  1  0.15590000  0.86920000  0.92230000  1.0 0.0600114279
H  H257  1  0.71330000  0.84410000  0.25563000  1.0 0.0600114279
H  H258  1  0.13080000  0.28670000  0.58897000  1.0 0.0719328332
C  C1  1  0.14630000  0.54330000  0.80420000  1.0 0.0202068152
C  C2  1  0.45670000  0.60300000  0.47087000  1.0 0.0202068152
C  C3  1  0.39700000  0.85370000  0.13753000  1.0 0.0202068152
C  C4  1  0.54330000  0.14630000  0.19580000  1.0 0.0202068152
C  C5  1  0.60300000  0.45670000  0.52913000  1.0 0.0202068152
C  C6  1  0.85370000  0.39700000  0.86247000  1.0 0.0202068152
C  C7  1  0.13130000  0.50280000  0.88350000  1.0 0.000931337
C  C8  1  0.49720000  0.62850000  0.55017000  1.0 0.000931337
C  C9  1  0.37150000  0.86870000  0.21683000  1.0 0.000931337
C  C10  1  0.50280000  0.13130000  0.11650000  1.0 0.000931337
C  C11  1  0.62850000  0.49720000  0.44983000  1.0 0.000931337
C  C12  1  0.86870000  0.37150000  0.78317000  1.0 0.000931337
C  C13  1  0.11070000  0.52600000  0.96070000  1.0 0.0202068152
C  C14  1  0.47400000  0.58470000  0.62737000  1.0 0.0202068152
C  C15  1  0.41530000  0.88930000  0.29403000  1.0 0.0202068152
C  C16  1  0.52600000  0.11070000  0.03930000  1.0 0.0202068152
C  C17  1  0.58470000  0.47400000  0.37263000  1.0 0.0202068152
C  C18  1  0.88930000  0.41530000  0.70597000  1.0 0.0202068152
C  C19  1  0.11250000  0.58740000  0.95340000  1.0 -0.1811743032
C  C20  1  0.41260000  0.52510000  0.62007000  1.0 -0.1811743032
C  C21  1  0.47490000  0.88750000  0.28673000  1.0 -0.1811743032
C  C22  1  0.58740000  0.11250000  0.04660000  1.0 -0.1811743032
C  C23  1  0.52510000  0.41260000  0.37993000  1.0 -0.1811743032
C  C24  1  0.88750000  0.47490000  0.71327000  1.0 -0.1811743032
C  C25  1  0.13280000  0.62490000  0.88200000  1.0 0.0719328332
C  C26  1  0.37510000  0.50790000  0.54867000  1.0 0.0719328332
C  C27  1  0.49210000  0.86720000  0.21533000  1.0 0.0719328332
C  C28  1  0.62490000  0.13280000  0.11800000  1.0 0.0719328332
C  C29  1  0.50790000  0.37510000  0.45133000  1.0 0.0719328332
C  C30  1  0.86720000  0.49210000  0.78467000  1.0 0.0719328332
C  C31  1  0.14730000  0.60210000  0.80750000  1.0 -0.1811743032
C  C32  1  0.39790000  0.54520000  0.47417000  1.0 -0.1811743032
C  C33  1  0.45480000  0.85270000  0.14083000  1.0 -0.1811743032
C  C34  1  0.60210000  0.14730000  0.19250000  1.0 -0.1811743032
C  C35  1  0.54520000  0.39790000  0.52583000  1.0 -0.1811743032
C  C36  1  0.85270000  0.45480000  0.85917000  1.0 -0.1811743032
C  C37  1  0.21120000  0.46280000  0.95290000  1.0 -0.2615261087
C  C38  1  0.53720000  0.74840000  0.61957000  1.0 -0.2615261087
C  C39  1  0.25160000  0.78880000  0.28623000  1.0 -0.2615261087
C  C40  1  0.46280000  0.21120000  0.04710000  1.0 -0.2615261087
C  C41  1  0.74840000  0.53720000  0.38043000  1.0 -0.2615261087
C  C42  1  0.78880000  0.25160000  0.71377000  1.0 -0.2615261087
C  C43  1  0.24590000  0.42240000  0.91820000  1.0 0.0996388702
C  C44  1  0.57760000  0.82350000  0.58487000  1.0 0.0996388702
C  C45  1  0.17650000  0.75410000  0.25153000  1.0 0.0996388702
C  C46  1  0.42240000  0.24590000  0.08180000  1.0 0.0996388702
C  C47  1  0.82350000  0.57760000  0.41513000  1.0 0.0996388702
C  C48  1  0.75410000  0.17650000  0.74847000  1.0 0.0996388702
C  C49  1  0.31150000  0.46220000  0.89010000  1.0 -0.0392497091
C  C50  1  0.53780000  0.84930000  0.55677000  1.0 -0.0392497091
C  C51  1  0.15070000  0.68850000  0.22343000  1.0 -0.0392497091
C  C52  1  0.46220000  0.31150000  0.10990000  1.0 -0.0392497091
C  C53  1  0.84930000  0.53780000  0.44323000  1.0 -0.0392497091
C  C54  1  0.68850000  0.15070000  0.77657000  1.0 -0.0392497091
C  C55  1  0.32010000  0.36390000  0.86550000  1.0 0.0202068152
C  C56  1  0.63610000  0.95620000  0.53217000  1.0 0.0202068152
C  C57  1  0.04380000  0.67990000  0.19883000  1.0 0.0202068152
C  C58  1  0.36390000  0.32010000  0.13450000  1.0 0.0202068152
C  C59  1  0.95620000  0.63610000  0.46783000  1.0 0.0202068152
C  C60  1  0.67990000  0.04380000  0.80117000  1.0 0.0202068152
C  C61  1  0.25450000  0.32420000  0.89360000  1.0 -0.136603933
C  C62  1  0.67580000  0.93030000  0.56027000  1.0 -0.136603933
C  C63  1  0.06970000  0.74550000  0.22693000  1.0 -0.136603933
C  C64  1  0.32420000  0.25450000  0.10640000  1.0 -0.136603933
C  C65  1  0.93030000  0.67580000  0.43973000  1.0 -0.136603933
C  C66  1  0.74550000  0.06970000  0.77307000  1.0 -0.136603933
C  C67  1  0.21750000  0.35340000  0.91990000  1.0 -0.1120413625
C  C68  1  0.64660000  0.86410000  0.58657000  1.0 -0.1120413625
C  C69  1  0.13590000  0.78250000  0.25323000  1.0 -0.1120413625
C  C70  1  0.35340000  0.21750000  0.08010000  1.0 -0.1120413625
C  C71  1  0.86410000  0.64660000  0.41343000  1.0 -0.1120413625
C  C72  1  0.78250000  0.13590000  0.74677000  1.0 -0.1120413625
C  C73  1  0.13420000  0.69580000  0.88130000  1.0 0.305576103
C  C74  1  0.30420000  0.43840000  0.54797000  1.0 0.305576103
C  C75  1  0.56160000  0.86580000  0.21463000  1.0 0.305576103
C  C76  1  0.69580000  0.13420000  0.11870000  1.0 0.3047153345
C  C77  1  0.43840000  0.30420000  0.45203000  1.0 0.305576103
C  C78  1  0.86580000  0.56160000  0.78537000  1.0 0.305576103
C  C79  1  0.08810000  0.69350000  0.80370000  1.0 -0.4818500786
C  C80  1  0.30650000  0.39460000  0.47037000  1.0 -0.4818500786
C  C81  1  0.60540000  0.91190000  0.13703000  1.0 -0.4818500786
C  C82  1  0.69350000  0.08810000  0.19630000  1.0 -0.4818500786
C  C83  1  0.39460000  0.30650000  0.52963000  1.0 -0.4818500786
C  C84  1  0.91190000  0.60540000  0.86297000  1.0 -0.4818500786
C  C85  1  0.21020000  0.75230000  0.85970000  1.0 -0.4959279687
C  C86  1  0.24770000  0.45790000  0.52637000  1.0 -0.4959279687
C  C87  1  0.54210000  0.78980000  0.19303000  1.0 -0.4959279687
C  C88  1  0.75230000  0.21020000  0.14030000  1.0 -0.4959279687
C  C89  1  0.45790000  0.24770000  0.47363000  1.0 -0.4949021646
C  C90  1  0.78980000  0.54210000  0.80697000  1.0 -0.4959279687
C  C91  1  0.09710000  0.70320000  0.96370000  1.0 -0.4959279687
C  C92  1  0.29680000  0.39390000  0.63037000  1.0 -0.4959279687
C  C93  1  0.60610000  0.90290000  0.29703000  1.0 -0.4959279687
C  C94  1  0.70320000  0.09710000  0.03630000  1.0 -0.4959279687
C  C95  1  0.39390000  0.29680000  0.36963000  1.0 -0.4959279687
C  C96  1  0.90290000  0.60610000  0.70297000  1.0 -0.4959279687
C  C97  1  0.01590000  0.41030000  0.04110000  1.0 0.0202068152
C  C98  1  0.58970000  0.60560000  0.70777000  1.0 0.0202068152
C  C99  1  0.39440000  0.98410000  0.37443000  1.0 0.0202068152
C  C100  1  0.41030000  0.01590000  0.95890000  1.0 0.0202068152
C  C101  1  0.60560000  0.58970000  0.29223000  1.0 0.0202068152
C  C102  1  0.98410000  0.39440000  0.62557000  1.0 0.0202068152
C  C103  1  0.95940000  0.41290000  0.02730000  1.0 -0.0544196227
C  C104  1  0.58710000  0.54650000  0.69397000  1.0 -0.056584681
C  C105  1  0.45350000  0.04060000  0.36063000  1.0 -0.056584681
C  C106  1  0.41290000  0.95940000  0.97270000  1.0 -0.056584681
C  C107  1  0.54650000  0.58710000  0.30603000  1.0 -0.056584681
C  C108  1  0.04060000  0.45350000  0.63937000  1.0 -0.056584681
C  C109  1  0.90160000  0.35110000  0.99560000  1.0 0.0303464293
C  C110  1  0.64890000  0.55050000  0.66227000  1.0 0.0303464293
C  C111  1  0.44950000  0.09840000  0.32893000  1.0 0.0303464293
C  C112  1  0.35110000  0.90160000  0.00440000  1.0 0.0303464293
C  C113  1  0.55050000  0.64890000  0.33773000  1.0 0.0303464293
C  C114  1  0.09840000  0.44950000  0.67107000  1.0 0.0303464293
C  C115  1  0.90360000  0.29330000  0.99830000  1.0 -0.2800540834
C  C116  1  0.70670000  0.61030000  0.66497000  1.0 -0.2800540834
C  C117  1  0.38970000  0.09640000  0.33163000  1.0 -0.2800540834
C  C118  1  0.29330000  0.90360000  0.00170000  1.0 -0.2800540834
C  C119  1  0.61030000  0.70670000  0.33503000  1.0 -0.2800540834
C  C120  1  0.09640000  0.38970000  0.66837000  1.0 -0.2800540834
C  C121  1  0.95980000  0.28790000  0.01960000  1.0 0.0719328332
C  C122  1  0.71210000  0.67190000  0.68627000  1.0 0.0719328332
C  C123  1  0.32810000  0.04020000  0.35293000  1.0 0.0719328332
C  C124  1  0.28790000  0.95980000  0.98040000  1.0 0.0719328332
C  C125  1  0.67190000  0.71210000  0.31373000  1.0 0.0719328332
C  C126  1  0.04020000  0.32810000  0.64707000  1.0 0.0719328332
C  C127  1  0.01730000  0.35220000  0.04270000  1.0 -0.2496273229
C  C128  1  0.64780000  0.66510000  0.70937000  1.0 -0.2496273229
C  C129  1  0.33490000  0.98270000  0.37603000  1.0 -0.2496273229
C  C130  1  0.35220000  0.01730000  0.95730000  1.0 -0.2496273229
C  C131  1  0.66510000  0.64780000  0.29063000  1.0 -0.2496273229
C  C132  1  0.98270000  0.33490000  0.62397000  1.0 -0.2496273229
C  C133  1  0.88360000  0.44710000  0.13630000  1.0 -0.3067465136
C  C134  1  0.55290000  0.43650000  0.80297000  1.0 -0.3067465136
C  C135  1  0.56350000  0.11640000  0.46963000  1.0 -0.3067465136
C  C136  1  0.44710000  0.88360000  0.86370000  1.0 -0.3067465136
C  C137  1  0.43650000  0.55290000  0.19703000  1.0 -0.3067465136
C  C138  1  0.11640000  0.56350000  0.53037000  1.0 -0.3067465136
C  C139  1  0.89370000  0.42220000  0.21740000  1.0 0.0813040086
C  C140  1  0.57780000  0.47150000  0.88407000  1.0 0.0813040086
C  C141  1  0.52850000  0.10630000  0.55073000  1.0 0.0813040086
C  C142  1  0.42220000  0.89370000  0.78260000  1.0 0.0813040086
C  C143  1  0.47150000  0.57780000  0.11593000  1.0 0.0813040086
C  C144  1  0.10630000  0.52850000  0.44927000  1.0 0.0813040086
C  C145  1  0.91670000  0.46010000  0.29260000  1.0 -0.0172652002
C  C146  1  0.53990000  0.45660000  0.95927000  1.0 -0.0172652002
C  C147  1  0.54340000  0.08330000  0.62593000  1.0 -0.0172652002
C  C148  1  0.46010000  0.91670000  0.70740000  1.0 -0.0172652002
C  C149  1  0.45660000  0.53990000  0.04073000  1.0 -0.0172652002
C  C150  1  0.08330000  0.54340000  0.37407000  1.0 -0.0172652002
C  C151  1  0.92460000  0.37340000  0.37140000  1.0 0.010277261
C  C152  1  0.62660000  0.55120000  0.03807000  1.0 0.010277261
C  C153  1  0.44880000  0.07540000  0.70473000  1.0 0.010277261
C  C154  1  0.37340000  0.92460000  0.62860000  1.0 0.010277261
C  C155  1  0.55120000  0.62660000  0.96193000  1.0 0.010277261
C  C156  1  0.07540000  0.44880000  0.29527000  1.0 0.010277261
C  C157  1  0.90610000  0.33540000  0.29440000  1.0 -0.1231831321
C  C158  1  0.66460000  0.57070000  0.96107000  1.0 -0.1231831321
C  C159  1  0.42930000  0.09390000  0.62773000  1.0 -0.1231831321
C  C160  1  0.33540000  0.90610000  0.70560000  1.0 -0.1231831321
C  C161  1  0.57070000  0.66460000  0.03893000  1.0 -0.1231831321
C  C162  1  0.09390000  0.42930000  0.37227000  1.0 -0.1231831321
C  C163  1  0.89030000  0.35590000  0.21750000  1.0 -0.0893307921
C  C164  1  0.64410000  0.53440000  0.88417000  1.0 -0.0893307921
C  C165  1  0.46560000  0.10970000  0.55083000  1.0 -0.0893307921
C  C166  1  0.35590000  0.89030000  0.78250000  1.0 -0.0893307921
C  C167  1  0.53440000  0.64410000  0.11583000  1.0 -0.0893307921
C  C168  1  0.10970000  0.46560000  0.44917000  1.0 -0.0893307921
C  C169  1  0.96180000  0.22330000  0.02110000  1.0 0.2479661247
C  C170  1  0.77670000  0.73850000  0.68777000  1.0 0.2479661247
C  C171  1  0.26150000  0.03820000  0.35443000  1.0 0.2479661247
C  C172  1  0.22330000  0.96180000  0.97890000  1.0 0.2479661247
C  C173  1  0.73850000  0.77670000  0.31223000  1.0 0.2479661247
C  C174  1  0.03820000  0.26150000  0.64557000  1.0 0.2479661247
C  C175  1  0.03230000  0.23560000  0.99500000  1.0 -0.2172672981
C  C176  1  0.76440000  0.79670000  0.66167000  1.0 -0.2172672981
C  C177  1  0.20330000  0.96770000  0.32833000  1.0 -0.2172672981
C  C178  1  0.23560000  0.03230000  0.00500000  1.0 -0.2172672981
C  C179  1  0.79670000  0.76440000  0.33833000  1.0 -0.2172672981
C  C180  1  0.96770000  0.20330000  0.67167000  1.0 -0.2172672981
C  C181  1  0.91110000  0.17290000  0.95500000  1.0 -0.2402532532
C  C182  1  0.82710000  0.73820000  0.62167000  1.0 -0.2402532532
C  C183  1  0.26180000  0.08890000  0.28833000  1.0 -0.2402532532
C  C184  1  0.17290000  0.91110000  0.04500000  1.0 -0.2402532532
C  C185  1  0.73820000  0.82710000  0.37833000  1.0 -0.2402532532
C  C186  1  0.08890000  0.26180000  0.71167000  1.0 -0.2402532532
C  C187  1  0.94260000  0.19620000  0.11600000  1.0 -0.1924550331
C  C188  1  0.80380000  0.74640000  0.78267000  1.0 -0.1924550331
C  C189  1  0.25360000  0.05740000  0.44933000  1.0 -0.1924550331
C  C190  1  0.19620000  0.94260000  0.88400000  1.0 -0.1924550331
C  C191  1  0.74640000  0.80380000  0.21733000  1.0 -0.1924550331
C  C192  1  0.05740000  0.25360000  0.55067000  1.0 -0.1924550331
C  C193  1  0.94900000  0.19400000  0.92790000  1.0 -0.2344104731
C  C194  1  0.80600000  0.75500000  0.59457000  1.0 -0.2344104731
C  C195  1  0.24500000  0.05100000  0.26123000  1.0 -0.2344104731
C  C196  1  0.19400000  0.94900000  0.07210000  1.0 -0.2344104731
C  C197  1  0.75500000  0.80600000  0.40543000  1.0 -0.2344104731
C  C198  1  0.05100000  0.24500000  0.73877000  1.0 -0.2344104731
C  C199  1  0.03580000  0.24600000  0.04800000  1.0 -0.1811743032
C  C200  1  0.75400000  0.78980000  0.71467000  1.0 -0.1811743032
C  C201  1  0.21020000  0.96420000  0.38133000  1.0 -0.1811743032
C  C202  1  0.24600000  0.03580000  0.95200000  1.0 -0.1811743032
C  C203  1  0.78980000  0.75400000  0.28533000  1.0 -0.1811743032
C  C204  1  0.96420000  0.21020000  0.61867000  1.0 -0.1811743032
C  C205  1  0.91600000  0.16900000  0.09000000  1.0 -0.206658841
C  C206  1  0.83100000  0.74700000  0.75667000  1.0 -0.206658841
C  C207  1  0.25300000  0.08400000  0.42333000  1.0 -0.206658841
C  C208  1  0.16900000  0.91600000  0.91000000  1.0 -0.206658841
C  C209  1  0.74700000  0.83100000  0.24333000  1.0 -0.206658841
C  C210  1  0.08400000  0.25300000  0.57667000  1.0 -0.206658841
S  S1  1  0.17439000  0.52070000  0.71010000  1.0 0.010277261
S  S2  1  0.47930000  0.65369000  0.37677000  1.0 0.010277261
S  S3  1  0.34631000  0.82561000  0.04343000  1.0 0.010277261
S  S4  1  0.52070000  0.17439000  0.28990000  1.0 0.010277261
S  S5  1  0.65369000  0.47930000  0.62323000  1.0 0.010277261
S  S6  1  0.82561000  0.34631000  0.95657000  1.0 0.010277261
S  S7  1  0.13570000  0.42990000  0.88490000  1.0 -0.1342767784
S  S8  1  0.57010000  0.70580000  0.55157000  1.0 -0.136603933
S  S9  1  0.29420000  0.86430000  0.21823000  1.0 -0.136603933
S  S10  1  0.42990000  0.13570000  0.11510000  1.0 -0.1342767784
S  S11  1  0.70580000  0.57010000  0.44843000  1.0 -0.136603933
S  S12  1  0.86430000  0.29420000  0.78177000  1.0 -0.136603933
S  S13  1  0.09397000  0.48380000  0.06120000  1.0 0.0202068152
S  S14  1  0.51620000  0.61017000  0.72787000  1.0 0.0202068152
S  S15  1  0.38983000  0.90603000  0.39453000  1.0 0.0202068152
S  S16  1  0.48380000  0.09397000  0.93880000  1.0 0.0202068152
S  S17  1  0.61017000  0.51620000  0.27213000  1.0 0.0202068152
S  S18  1  0.90603000  0.38983000  0.60547000  1.0 0.0202068152
S  S19  1  0.94920000  0.48190000  0.05200000  1.0 0.0202068152
S  S20  1  0.51810000  0.46730000  0.71867000  1.0 0.0202068152
S  S21  1  0.53270000  0.05080000  0.38533000  1.0 0.0202068152
S  S22  1  0.48190000  0.94920000  0.94800000  1.0 0.0202068152
S  S23  1  0.46730000  0.51810000  0.28133000  1.0 0.0202068152
S  S24  1  0.05080000  0.53270000  0.61467000  1.0 0.0202068152
N  N1  1  0.34850000  0.43290000  0.86370000  1.0 -0.2005146875
N  N2  1  0.56710000  0.91560000  0.53037000  1.0 -0.2005146875
N  N3  1  0.08440000  0.65150000  0.19703000  1.0 -0.2005146875
N  N4  1  0.43290000  0.34850000  0.13630000  1.0 -0.2005146875
N  N5  1  0.91560000  0.56710000  0.46963000  1.0 -0.2005146875
N  N6  1  0.65150000  0.08440000  0.80297000  1.0 -0.2005146875
N  N7  1  0.92740000  0.43680000  0.36910000  1.0 -0.1924550331
N  N8  1  0.56320000  0.49060000  0.03577000  1.0 -0.1924550331
N  N9  1  0.50940000  0.07260000  0.70243000  1.0 -0.1924550331
N  N10  1  0.43680000  0.92740000  0.63090000  1.0 -0.1924550331
N  N11  1  0.49060000  0.56320000  0.96423000  1.0 -0.1924550331
N  N12  1  0.07260000  0.50940000  0.29757000  1.0 -0.1924550331
