# DDEC6 charges by PACMAN v1.1 (https://github.com/mtap-research/PACMAN-charge/)
data_LIRKOQ_ASR_pacman
_symmetry_space_group_name_H-M   'P 1'
_cell_length_a   14.81890000
_cell_length_b   19.10260000
_cell_length_c   31.81400000
_cell_angle_alpha   101.55700000
_cell_angle_beta   92.34000000
_cell_angle_gamma   110.82600000
_symmetry_Int_Tables_number   1
_chemical_formula_structural   Zn17H52C76(I17N12)2
_chemical_formula_sum   'Zn34 H104 C152 I68 N48'
_cell_volume   8184.84951917
_cell_formula_units_Z   2
loop_
 _symmetry_equiv_pos_site_id
 _symmetry_equiv_pos_as_xyz
  1  'x, y, z'
loop_
 _atom_site_type_symbol
 _atom_site_label
 _atom_site_symmetry_multiplicity
 _atom_site_fract_x
 _atom_site_fract_y
 _atom_site_fract_z
 _atom_site_occupancy
 _atom_site_charge
Zn  Zn1  1  0.79940000  0.84820000  0.89809000  1.0 0.3880443517
Zn  Zn2  1  0.20060000  0.15180000  0.10191000  1.0 0.3880443517
Zn  Zn3  1  0.71160000  0.23760000  0.06837000  1.0 0.2995606405
Zn  Zn4  1  0.28840000  0.76240000  0.93163000  1.0 0.2995606405
Zn  Zn5  1  0.17620000  0.64860000  0.21840000  1.0 0.327613209
Zn  Zn6  1  0.82380000  0.35140000  0.78160000  1.0 0.3390109908
Zn  Zn7  1  0.52430000  0.23900000  0.56720000  1.0 0.1986664514
Zn  Zn8  1  0.47570000  0.76100000  0.43280000  1.0 0.1986664514
Zn  Zn9  1  0.46600000  0.65890000  0.73180000  1.0 0.4038046244
Zn  Zn10  1  0.53400000  0.34110000  0.26820000  1.0 0.4038046244
Zn  Zn11  1  0.02020000  0.80060000  0.42100000  1.0 0.0814796308
Zn  Zn12  1  0.97980000  0.19940000  0.57900000  1.0 0.0814796308
Zn  Zn13  1  0.02800000  0.82800000  0.41020000  1.0 -0.0608037171
Zn  Zn14  1  0.97200000  0.17200000  0.58980000  1.0 -0.0608037171
Zn  Zn15  1  0.00940000  0.77450000  0.42380000  1.0 0.0193649458
Zn  Zn16  1  0.99060000  0.22550000  0.57620000  1.0 0.0318116694
Zn  Zn17  1  0.71500000  0.23780000  0.07300000  1.0 0.289948413
Zn  Zn18  1  0.28500000  0.76220000  0.92700000  1.0 0.289948413
Zn  Zn19  1  0.80270000  0.84980000  0.89560000  1.0 0.3880443517
Zn  Zn20  1  0.19730000  0.15020000  0.10440000  1.0 0.3880443517
Zn  Zn21  1  0.16260000  0.63760000  0.20860000  1.0 0.289948413
Zn  Zn22  1  0.83740000  0.36240000  0.79140000  1.0 0.289948413
Zn  Zn23  1  0.17000000  0.61100000  0.23700000  1.0 -0.0165262417
Zn  Zn24  1  0.83000000  0.38900000  0.76300000  1.0 -0.0165262417
Zn  Zn25  1  0.53720000  0.24450000  0.55930000  1.0 0.1529303981
Zn  Zn26  1  0.46280000  0.75550000  0.44070000  1.0 0.1529303981
Zn  Zn27  1  0.50600000  0.24700000  0.57800000  1.0 0.0318116694
Zn  Zn28  1  0.49400000  0.75300000  0.42200000  1.0 0.0318116694
Zn  Zn29  1  0.52600000  0.24900000  0.52800000  1.0 -0.2972766218
Zn  Zn30  1  0.47400000  0.75100000  0.47200000  1.0 -0.2972766218
Zn  Zn31  1  0.69400000  0.24300000  0.04390000  1.0 -0.1287255139
Zn  Zn32  1  0.30600000  0.75700000  0.95610000  1.0 -0.1287255139
Zn  Zn33  1  0.46660000  0.65040000  0.72500000  1.0 0.4272678587
Zn  Zn34  1  0.53340000  0.34960000  0.27500000  1.0 0.4272678587
H  H1  1  0.68965000  0.69026000  0.83470000  1.0 0.1002447958
H  H2  1  0.31035000  0.30974000  0.16530000  1.0 0.1002447958
H  H3  1  0.27808000  0.52974000  0.68334000  1.0 0.1002447958
H  H4  1  0.72192000  0.47026000  0.31666000  1.0 0.1002447958
H  H5  1  0.72188000  0.60493000  0.78049000  1.0 0.1321184976
H  H6  1  0.27812000  0.39507000  0.21951000  1.0 0.1321184976
H  H7  1  0.54566000  0.35472000  0.64900000  1.0 0.1375325787
H  H8  1  0.45434000  0.64528000  0.35100000  1.0 0.1375325787
H  H9  1  0.11032000  0.49779000  0.67919000  1.0 0.1375325787
H  H10  1  0.88968000  0.50221000  0.32081000  1.0 0.1375325787
H  H11  1  0.66258000  0.45287000  0.69867000  1.0 0.1104055325
H  H12  1  0.33742000  0.54713000  0.30133000  1.0 0.1104055325
H  H13  1  0.86865000  0.40598000  0.63120000  1.0 0.1375325787
H  H14  1  0.13135000  0.59402000  0.36880000  1.0 0.1375325787
H  H15  1  0.96445000  0.83025000  0.85668000  1.0 0.090560038
H  H16  1  0.03555000  0.16975000  0.14332000  1.0 0.090560038
H  H17  1  0.74276000  0.30731000  0.58349000  1.0 0.1694429386
H  H18  1  0.25724000  0.69269000  0.41651000  1.0 0.1694429386
H  H19  1  0.16087000  0.69824000  0.76491000  1.0 0.1321184976
H  H20  1  0.83913000  0.30176000  0.23509000  1.0 0.1321184976
H  H21  1  0.00662000  0.74185000  0.80667000  1.0 0.1207136987
H  H22  1  0.99338000  0.25815000  0.19333000  1.0 0.1207136987
H  H23  1  0.32946000  0.72395000  0.76623000  1.0 0.090560038
H  H24  1  0.67054000  0.27605000  0.23377000  1.0 0.090560038
H  H25  1  0.13845000  0.98856000  0.97946000  1.0 0.1375325787
H  H26  1  0.86155000  0.01144000  0.02054000  1.0 0.1375325787
H  H27  1  0.54368000  0.13056000  0.00317000  1.0 0.0814796308
H  H28  1  0.45632000  0.86944000  0.99683000  1.0 0.0814796308
H  H29  1  0.59168000  0.15086000  0.12838000  1.0 0.090560038
H  H30  1  0.40832000  0.84914000  0.87162000  1.0 0.090560038
H  H31  1  0.45111000  0.04699000  0.12709000  1.0 0.1207136987
H  H32  1  0.54889000  0.95301000  0.87291000  1.0 0.1207136987
H  H33  1  0.39538000  0.03114000  0.99945000  1.0 0.1321184976
H  H34  1  0.60462000  0.96886000  0.00055000  1.0 0.1321184976
H  H35  1  0.00605000  0.97132000  0.93220000  1.0 0.0814796308
H  H36  1  0.99395000  0.02868000  0.06780000  1.0 0.0814796308
H  H37  1  0.98521000  0.78595000  0.00852000  1.0 0.1375325787
H  H38  1  0.01479000  0.21405000  0.99148000  1.0 0.1375325787
H  H39  1  0.85579000  0.77715000  0.96169000  1.0 0.090560038
H  H40  1  0.14421000  0.22285000  0.03831000  1.0 0.090560038
H  H41  1  0.08202000  0.72771000  0.08523000  1.0 0.1207136987
H  H42  1  0.91798000  0.27229000  0.91477000  1.0 0.1207136987
H  H43  1  0.07106000  0.64709000  0.12998000  1.0 0.0814796308
H  H44  1  0.92894000  0.35291000  0.87002000  1.0 0.0814796308
H  H45  1  0.30559000  0.79835000  0.20496000  1.0 0.0814796308
H  H46  1  0.69441000  0.20165000  0.79504000  1.0 0.0814796308
H  H47  1  0.33249000  0.87519000  0.15716000  1.0 0.1207136987
H  H48  1  0.66751000  0.12481000  0.84284000  1.0 0.1207136987
H  H49  1  0.56577000  0.31180000  0.08144000  1.0 0.1002447958
H  H50  1  0.43423000  0.68820000  0.91856000  1.0 0.1002447958
H  H51  1  0.53805000  0.41081000  0.12582000  1.0 0.1207136987
H  H52  1  0.46195000  0.58919000  0.87418000  1.0 0.1207136987
H  H53  1  0.39343000  0.50298000  0.17168000  1.0 0.1207136987
H  H54  1  0.60657000  0.49702000  0.82832000  1.0 0.1207136987
H  H55  1  0.37777000  0.72237000  0.25868000  1.0 0.090560038
H  H56  1  0.62223000  0.27763000  0.74132000  1.0 0.090560038
H  H57  1  0.89218000  0.61871000  0.27452000  1.0 0.1104055325
H  H58  1  0.10782000  0.38129000  0.72548000  1.0 0.1104055325
H  H59  1  0.24951000  0.52643000  0.17267000  1.0 0.0717302963
H  H60  1  0.75049000  0.47357000  0.82733000  1.0 0.0717302963
H  H61  1  0.00125000  0.68885000  0.33555000  1.0 0.1207136987
H  H62  1  0.99875000  0.31115000  0.66445000  1.0 0.1207136987
H  H63  1  0.52516000  0.70284000  0.26093000  1.0 0.1375325787
H  H64  1  0.47484000  0.29716000  0.73907000  1.0 0.1375325787
H  H65  1  0.80004000  0.46432000  0.19444000  1.0 0.1002447958
H  H66  1  0.19996000  0.53568000  0.80556000  1.0 0.1002447958
H  H67  1  0.81861000  0.36396000  0.14723000  1.0 0.0814796308
H  H68  1  0.18139000  0.63604000  0.85277000  1.0 0.0814796308
H  H69  1  0.80177000  0.74690000  0.39454000  1.0 0.1002447958
H  H70  1  0.19823000  0.25310000  0.60546000  1.0 0.1002447958
H  H71  1  0.69066000  0.68390000  0.33226000  1.0 0.1002447958
H  H72  1  0.30934000  0.31610000  0.66774000  1.0 0.1002447958
H  H73  1  0.83936000  0.95804000  0.49359000  1.0 0.1579062236
H  H74  1  0.16064000  0.04196000  0.50641000  1.0 0.1579062236
H  H75  1  0.67207000  0.04393000  0.50792000  1.0 0.1694429386
H  H76  1  0.32793000  0.95607000  0.49208000  1.0 0.1694429386
H  H77  1  0.76725000  0.75187000  0.52367000  1.0 0.1579062236
H  H78  1  0.23275000  0.24813000  0.47633000  1.0 0.1579062236
H  H79  1  0.63353000  0.15031000  0.50978000  1.0 0.1529303981
H  H80  1  0.36647000  0.84969000  0.49022000  1.0 0.1529303981
H  H81  1  0.95072000  0.92772000  0.45019000  1.0 0.1104055325
H  H82  1  0.04928000  0.07228000  0.54981000  1.0 0.1104055325
H  H83  1  0.88113000  0.72604000  0.48281000  1.0 0.1002447958
H  H84  1  0.11887000  0.27396000  0.51719000  1.0 0.1002447958
H  H85  1  0.62059000  0.71154000  0.59889000  1.0 0.1579062236
H  H86  1  0.37941000  0.28846000  0.40111000  1.0 0.1579062236
H  H87  1  0.56492000  0.64515000  0.64982000  1.0 0.090560038
H  H88  1  0.43508000  0.35485000  0.35018000  1.0 0.090560038
H  H89  1  0.53050000  0.00844000  0.61045000  1.0 0.1529303981
H  H90  1  0.46950000  0.99156000  0.38955000  1.0 0.1529303981
H  H91  1  0.48549000  0.10971000  0.60678000  1.0 0.1002447958
H  H92  1  0.51451000  0.89029000  0.39322000  1.0 0.1002447958
H  H93  1  0.54531000  0.88445000  0.66505000  1.0 0.090560038
H  H94  1  0.45469000  0.11555000  0.33495000  1.0 0.090560038
H  H95  1  0.47666000  0.80272000  0.71038000  1.0 0.0414580797
H  H96  1  0.52334000  0.19728000  0.28962000  1.0 0.0414580797
H  H97  1  0.41151000  0.76160000  0.68558000  1.0 0.0501131683
H  H98  1  0.58849000  0.23840000  0.31442000  1.0 0.0501131683
H  H99  1  0.74594000  0.75200000  0.30213000  1.0 0.1002447958
H  H100  1  0.25406000  0.24800000  0.69787000  1.0 0.1002447958
H  H101  1  0.84325000  0.80651000  0.37058000  1.0 0.0717302963
H  H102  1  0.15675000  0.19349000  0.62942000  1.0 0.0717302963
H  H103  1  0.46765000  0.83931000  0.63761000  1.0 0.1002447958
H  H104  1  0.53235000  0.16069000  0.36239000  1.0 0.1002447958
C  C1  1  0.89490000  0.61100000  0.75510000  1.0 0.3390109908
C  C2  1  0.10510000  0.38900000  0.24490000  1.0 0.3390109908
C  C3  1  0.85560000  0.50760000  0.70110000  1.0 0.2995606405
C  C4  1  0.14440000  0.49240000  0.29890000  1.0 0.2995606405
C  C5  1  0.11860000  0.59490000  0.72250000  1.0 0.0597697039
C  C6  1  0.88140000  0.40510000  0.27750000  1.0 0.0597697039
C  C7  1  0.78000000  0.44130000  0.67020000  1.0 0.0103763008
C  C8  1  0.22000000  0.55870000  0.32980000  1.0 0.0045867642
C  C9  1  0.75480000  0.70110000  0.82860000  1.0 0.0814796308
C  C10  1  0.24520000  0.29890000  0.17140000  1.0 0.0814796308
C  C11  1  0.25380000  0.56420000  0.70060000  1.0 0.0597697039
C  C12  1  0.74620000  0.43580000  0.29940000  1.0 0.0597697039
C  C13  1  0.86870000  0.66550000  0.78870000  1.0 0.0814796308
C  C14  1  0.13130000  0.33450000  0.21130000  1.0 0.0814796308
C  C15  1  0.77310000  0.64980000  0.79660000  1.0 -0.1287255139
C  C16  1  0.22690000  0.35020000  0.20340000  1.0 -0.1287255139
C  C17  1  0.01290000  0.57960000  0.72370000  1.0 0.327613209
C  C18  1  0.98710000  0.42040000  0.27630000  1.0 0.327613209
C  C19  1  0.61220000  0.36520000  0.64550000  1.0 -0.0013547552
C  C20  1  0.38780000  0.63480000  0.35450000  1.0 -0.0013547552
C  C21  1  0.15340000  0.54440000  0.69770000  1.0 -0.1198927821
C  C22  1  0.84660000  0.45560000  0.30230000  1.0 -0.1198927821
C  C23  1  0.68130000  0.42400000  0.67510000  1.0 -0.106616607
C  C24  1  0.31870000  0.57600000  0.32490000  1.0 -0.106616607
C  C25  1  0.80280000  0.39670000  0.63570000  1.0 -0.1565991995
C  C26  1  0.19720000  0.60330000  0.36430000  1.0 -0.1565991995
C  C27  1  0.91570000  0.78250000  0.84220000  1.0 0.0501131683
C  C28  1  0.08430000  0.21750000  0.15780000  1.0 0.0501131683
C  C29  1  0.72700000  0.33770000  0.60740000  1.0 0.0318116694
C  C30  1  0.27300000  0.66230000  0.39260000  1.0 0.0318116694
C  C31  1  0.18320000  0.66220000  0.74800000  1.0 -0.1198927821
C  C32  1  0.81680000  0.33780000  0.25200000  1.0 -0.1198927821
C  C33  1  0.94070000  0.73120000  0.81150000  1.0 -0.1287255139
C  C34  1  0.05930000  0.26880000  0.18850000  1.0 -0.1287255139
C  C35  1  0.28410000  0.67720000  0.74880000  1.0 0.0597697039
C  C36  1  0.71590000  0.32280000  0.25120000  1.0 0.0597697039
C  C37  1  0.40850000  0.02710000  0.06260000  1.0 0.0414580797
C  C38  1  0.59150000  0.97290000  0.93740000  1.0 0.0414580797
C  C39  1  0.15950000  0.89780000  0.03090000  1.0 0.2808606866
C  C40  1  0.84050000  0.10220000  0.96910000  1.0 0.2808606866
C  C41  1  0.08090000  0.94410000  0.97620000  1.0 -0.149844112
C  C42  1  0.91910000  0.05590000  0.02380000  1.0 -0.149844112
C  C43  1  0.52390000  0.11370000  0.02860000  1.0 -0.0013547552
C  C44  1  0.47610000  0.88630000  0.97140000  1.0 -0.0013547552
C  C45  1  0.55210000  0.12430000  0.10160000  1.0 0.0318116694
C  C46  1  0.44790000  0.87570000  0.89840000  1.0 0.0318116694
C  C47  1  0.46820000  0.06370000  0.10130000  1.0 -0.149844112
C  C48  1  0.53180000  0.93630000  0.89870000  1.0 -0.149844112
C  C49  1  0.43640000  0.05390000  0.02620000  1.0 -0.1198927821
C  C50  1  0.56360000  0.94610000  0.97380000  1.0 -0.1198927821
C  C51  1  0.00180000  0.93360000  0.94830000  1.0 0.0103763008
C  C52  1  0.99820000  0.06640000  0.05170000  1.0 0.0103763008
C  C53  1  0.99100000  0.82540000  0.99360000  1.0 -0.1400459484
C  C54  1  0.00900000  0.17460000  0.00640000  1.0 -0.1400459484
C  C55  1  0.31420000  0.96280000  0.06020000  1.0 0.3138334396
C  C56  1  0.68580000  0.03720000  0.93980000  1.0 0.3138334396
C  C57  1  0.21900000  0.86330000  0.08600000  1.0 0.2995606405
C  C58  1  0.78100000  0.13670000  0.91400000  1.0 0.2995606405
C  C59  1  0.20790000  0.81220000  0.11570000  1.0 0.0501131683
C  C60  1  0.79210000  0.18780000  0.88430000  1.0 0.0414580797
C  C61  1  0.91470000  0.82060000  0.96510000  1.0 0.0717302963
C  C62  1  0.08530000  0.17940000  0.03490000  1.0 0.0717302963
C  C63  1  0.07610000  0.88950000  0.99950000  1.0 0.0597697039
C  C64  1  0.92390000  0.11050000  0.00050000  1.0 0.0597697039
C  C65  1  0.13060000  0.74260000  0.10920000  1.0 -0.149844112
C  C66  1  0.86940000  0.25740000  0.89080000  1.0 -0.149844112
C  C67  1  0.12330000  0.69570000  0.13650000  1.0 0.0318116694
C  C68  1  0.87670000  0.30430000  0.86350000  1.0 0.0318116694
C  C69  1  0.26110000  0.78260000  0.17940000  1.0 0.0318116694
C  C70  1  0.73890000  0.21740000  0.82060000  1.0 0.0318116694
C  C71  1  0.27570000  0.82970000  0.15190000  1.0 -0.149844112
C  C72  1  0.72430000  0.17030000  0.84810000  1.0 -0.149844112
C  C73  1  0.61380000  0.34350000  0.10500000  1.0 0.0193649458
C  C74  1  0.38620000  0.65650000  0.89500000  1.0 0.0193649458
C  C75  1  0.47460000  0.60010000  0.21580000  1.0 0.0414580797
C  C76  1  0.52540000  0.39990000  0.78420000  1.0 0.0414580797
C  C77  1  0.59650000  0.40230000  0.13090000  1.0 -0.1287255139
C  C78  1  0.40350000  0.59770000  0.86910000  1.0 -0.1287255139
C  C79  1  0.65490000  0.51490000  0.19610000  1.0 0.3495335224
C  C80  1  0.34510000  0.48510000  0.80390000  1.0 0.3495335224
C  C81  1  0.71250000  0.61140000  0.25500000  1.0 0.3390109908
C  C82  1  0.28750000  0.38860000  0.74500000  1.0 0.3390109908
C  C83  1  0.39210000  0.54840000  0.19000000  1.0 -0.1400459484
C  C84  1  0.60790000  0.45160000  0.81000000  1.0 -0.1400459484
C  C85  1  0.66710000  0.44940000  0.16520000  1.0 0.0501131683
C  C86  1  0.33290000  0.55060000  0.83480000  1.0 0.0501131683
C  C87  1  0.38130000  0.67720000  0.24110000  1.0 0.0318116694
C  C88  1  0.61870000  0.32280000  0.75890000  1.0 0.0318116694
C  C89  1  0.87360000  0.64980000  0.29700000  1.0 -0.1565991995
C  C90  1  0.12640000  0.35020000  0.70300000  1.0 -0.1565991995
C  C91  1  0.30620000  0.56270000  0.19070000  1.0 0.0414580797
C  C92  1  0.69380000  0.43730000  0.80930000  1.0 0.0414580797
C  C93  1  0.56700000  0.58610000  0.21830000  1.0 0.3390109908
C  C94  1  0.43300000  0.41390000  0.78170000  1.0 0.3390109908
C  C95  1  0.93820000  0.69110000  0.33410000  1.0 -0.0013547552
C  C96  1  0.06180000  0.30890000  0.66590000  1.0 -0.0013547552
C  C97  1  0.78510000  0.65340000  0.29290000  1.0 0.0501131683
C  C98  1  0.21490000  0.34660000  0.70710000  1.0 0.0501131683
C  C99  1  0.46960000  0.66610000  0.24240000  1.0 -0.0907136905
C  C100  1  0.53040000  0.33390000  0.75760000  1.0 -0.0907136905
C  C101  1  0.75070000  0.43370000  0.17120000  1.0 -0.1565991995
C  C102  1  0.24930000  0.56630000  0.82880000  1.0 -0.1565991995
C  C103  1  0.76060000  0.37360000  0.14320000  1.0 -0.0302262763
C  C104  1  0.23940000  0.62640000  0.85680000  1.0 -0.0302262763
C  C105  1  0.82170000  0.72580000  0.36860000  1.0 -0.0013547552
C  C106  1  0.17830000  0.27420000  0.63140000  1.0 -0.0013547552
C  C107  1  0.75630000  0.68760000  0.33180000  1.0 -0.0302262763
C  C108  1  0.24370000  0.31240000  0.66820000  1.0 -0.0302262763
C  C109  1  0.60350000  0.01340000  0.55780000  1.0 0.0318116694
C  C110  1  0.39650000  0.98660000  0.44220000  1.0 0.0318116694
C  C111  1  0.62930000  0.94440000  0.55920000  1.0 0.2239374461
C  C112  1  0.37070000  0.05560000  0.44080000  1.0 0.2239374461
C  C113  1  0.79350000  0.85800000  0.51280000  1.0 0.0414580797
C  C114  1  0.20650000  0.14200000  0.48720000  1.0 0.0414580797
C  C115  1  0.71770000  0.87180000  0.53900000  1.0 0.1986664514
C  C116  1  0.28230000  0.12820000  0.46100000  1.0 0.1986664514
C  C117  1  0.62260000  0.84960000  0.59050000  1.0 0.2470259312
C  C118  1  0.37740000  0.15040000  0.40950000  1.0 0.2470259312
C  C119  1  0.84710000  0.91020000  0.49130000  1.0 -0.0989955823
C  C120  1  0.15290000  0.08980000  0.50870000  1.0 -0.0989955823
C  C121  1  0.63420000  0.05720000  0.52920000  1.0 -0.0795186349
C  C122  1  0.36580000  0.94280000  0.47080000  1.0 -0.0795186349
C  C123  1  0.58130000  0.80180000  0.62170000  1.0 0.090560038
C  C124  1  0.41870000  0.19820000  0.37830000  1.0 0.090560038
C  C125  1  0.80560000  0.78880000  0.50910000  1.0 -0.0608037171
C  C126  1  0.19440000  0.21120000  0.49090000  1.0 -0.0608037171
C  C127  1  0.61130000  0.12080000  0.53070000  1.0 0.0193649458
C  C128  1  0.38870000  0.87920000  0.46930000  1.0 0.0193649458
C  C129  1  0.91380000  0.89210000  0.46580000  1.0 -0.0099896691
C  C130  1  0.08620000  0.10790000  0.53420000  1.0 -0.0165262417
C  C131  1  0.87240000  0.77340000  0.48470000  1.0 0.0318116694
C  C132  1  0.12760000  0.22660000  0.51530000  1.0 0.0318116694
C  C133  1  0.58980000  0.73200000  0.62110000  1.0 -0.0989955823
C  C134  1  0.41020000  0.26800000  0.37890000  1.0 -0.0989955823
C  C135  1  0.55560000  0.69220000  0.65110000  1.0 0.0045867642
C  C136  1  0.44440000  0.30780000  0.34890000  1.0 0.0045867642
C  C137  1  0.55050000  0.03600000  0.58860000  1.0 -0.1198927821
C  C138  1  0.44950000  0.96400000  0.41140000  1.0 -0.1198927821
C  C139  1  0.52730000  0.09750000  0.58720000  1.0 0.0414580797
C  C140  1  0.47270000  0.90250000  0.41280000  1.0 0.0414580797
C  C141  1  0.54400000  0.83330000  0.65950000  1.0 -0.0099896691
C  C142  1  0.45600000  0.16670000  0.34050000  1.0 -0.0099896691
C  C143  1  0.50650000  0.78510000  0.68680000  1.0 0.0414580797
C  C144  1  0.49350000  0.21490000  0.31320000  1.0 0.0414580797
C  C145  1  0.46700000  0.76000000  0.67210000  1.0 0.0501131683
C  C146  1  0.53300000  0.24000000  0.32790000  1.0 0.0501131683
C  C147  1  0.78460000  0.72830000  0.31370000  1.0 -0.0608037171
C  C148  1  0.21540000  0.27170000  0.68630000  1.0 -0.0608037171
C  C149  1  0.84720000  0.76190000  0.35250000  1.0 0.0318116694
C  C150  1  0.15280000  0.23810000  0.64750000  1.0 0.0318116694
C  C151  1  0.49900000  0.80600000  0.64320000  1.0 0.0103763008
C  C152  1  0.50100000  0.19400000  0.35680000  1.0 0.0103763008
I  I1  1  0.65251000  0.78460000  0.93233000  1.0 -0.2972766218
I  I2  1  0.34749000  0.21540000  0.06767000  1.0 -0.2947242317
I  I3  1  0.82844000  0.96319000  0.86307000  1.0 0.0318116694
I  I4  1  0.17156000  0.03681000  0.13693000  1.0 0.0318116694
I  I5  1  0.18920000  0.73590000  0.29195000  1.0 -0.0515882251
I  I6  1  0.81080000  0.26410000  0.70805000  1.0 -0.0515882251
I  I7  1  0.03220000  0.52441000  0.18722000  1.0 -0.0989955823
I  I8  1  0.96780000  0.47559000  0.81278000  1.0 -0.0989955823
I  I9  1  0.55280000  0.28550000  0.49829000  1.0 -0.2218685331
I  I10  1  0.44720000  0.71450000  0.50171000  1.0 -0.2218685331
I  I11  1  0.36680000  0.20540000  0.60171000  1.0 -0.1198927821
I  I12  1  0.63320000  0.79460000  0.39829000  1.0 -0.1198927821
I  I13  1  0.53510000  0.75908000  0.80262000  1.0 -0.3137841505
I  I14  1  0.46490000  0.24092000  0.19738000  1.0 -0.3137841505
I  I15  1  0.50200000  0.53260000  0.70690000  1.0 -0.3137841505
I  I16  1  0.49800000  0.46740000  0.29310000  1.0 -0.3137841505
I  I17  1  0.72180000  0.26990000  0.99342000  1.0 -0.0715412452
I  I18  1  0.27820000  0.73010000  0.00658000  1.0 -0.0715412452
I  I19  1  0.84540000  0.20920000  0.10420000  1.0 -0.0515882251
I  I20  1  0.15460000  0.79080000  0.89580000  1.0 -0.0515882251
I  I21  1  0.12170000  0.91810000  0.39734000  1.0 -0.0989955823
I  I22  1  0.87830000  0.08190000  0.60266000  1.0 -0.0989955823
I  I23  1  0.08770000  0.71690000  0.45334000  1.0 -0.0795186349
I  I24  1  0.91230000  0.28310000  0.54666000  1.0 -0.0795186349
I  I25  1  0.10800000  0.75170000  0.44080000  1.0 -0.0907136905
I  I26  1  0.89200000  0.24830000  0.55920000  1.0 -0.0907136905
I  I27  1  0.10770000  0.94570000  0.38101000  1.0 -0.0099896691
I  I28  1  0.89230000  0.05430000  0.61899000  1.0 -0.0099896691
I  I29  1  0.04550000  0.66970000  0.44912000  1.0 -0.0608037171
I  I30  1  0.95450000  0.33030000  0.55088000  1.0 -0.0608037171
I  I31  1  0.13570000  0.89470000  0.40760000  1.0 -0.1198927821
I  I32  1  0.86430000  0.10530000  0.59240000  1.0 -0.1198927821
I  I33  1  0.83160000  0.19220000  0.11200000  1.0 -0.0608037171
I  I34  1  0.16840000  0.80780000  0.88800000  1.0 -0.0515882251
I  I35  1  0.72520000  0.26830000  0.00250000  1.0 -0.1287255139
I  I36  1  0.27480000  0.73170000  0.99750000  1.0 -0.1287255139
I  I37  1  0.65050000  0.77820000  0.93370000  1.0 -0.3400046435
I  I38  1  0.34950000  0.22180000  0.06630000  1.0 -0.3400046435
I  I39  1  0.84740000  0.95930000  0.86730000  1.0 -0.0099896691
I  I40  1  0.15260000  0.04070000  0.13270000  1.0 -0.0099896691
I  I41  1  0.96950000  0.49460000  0.82300000  1.0 -0.0099896691
I  I42  1  0.03050000  0.50540000  0.17700000  1.0 -0.0099896691
I  I43  1  0.16330000  0.71720000  0.28190000  1.0 -0.106616607
I  I44  1  0.83670000  0.28280000  0.71810000  1.0 -0.106616607
I  I45  1  0.19900000  0.71000000  0.31350000  1.0 0.0103763008
I  I46  1  0.80100000  0.29000000  0.68650000  1.0 0.0103763008
I  I47  1  0.95500000  0.50100000  0.77810000  1.0 -0.0302262763
I  I48  1  0.04500000  0.49900000  0.22190000  1.0 -0.0302262763
I  I49  1  0.37300000  0.21790000  0.58940000  1.0 -0.149844112
I  I50  1  0.62700000  0.78210000  0.41060000  1.0 -0.149844112
I  I51  1  0.57140000  0.28730000  0.48950000  1.0 -0.149844112
I  I52  1  0.42860000  0.71270000  0.51050000  1.0 -0.149844112
I  I53  1  0.51500000  0.29000000  0.50570000  1.0 -0.2218685331
I  I54  1  0.48500000  0.71000000  0.49430000  1.0 -0.2218685331
I  I55  1  0.37700000  0.18950000  0.62170000  1.0 -0.0907136905
I  I56  1  0.62300000  0.81050000  0.37830000  1.0 -0.0907136905
I  I57  1  0.55300000  0.28800000  0.45730000  1.0 -0.1987204832
I  I58  1  0.44700000  0.71200000  0.54270000  1.0 -0.1987204832
I  I59  1  0.37700000  0.24100000  0.56810000  1.0 -0.0715412452
I  I60  1  0.62300000  0.75900000  0.43190000  1.0 -0.0715412452
I  I61  1  0.83700000  0.22700000  0.07900000  1.0 -0.1287255139
I  I62  1  0.16300000  0.77300000  0.92100000  1.0 -0.1287255139
I  I63  1  0.71000000  0.28840000  0.97330000  1.0 -0.106616607
I  I64  1  0.29000000  0.71160000  0.02670000  1.0 -0.106616607
I  I65  1  0.51040000  0.54032000  0.71239000  1.0 -0.2790515181
I  I66  1  0.48960000  0.45968000  0.28761000  1.0 -0.2790515181
I  I67  1  0.53390000  0.74710000  0.79670000  1.0 -0.2399824169
I  I68  1  0.46610000  0.25290000  0.20330000  1.0 -0.2399824169
N  N1  1  0.99030000  0.62950000  0.75210000  1.0 -0.3593320084
N  N2  1  0.00970000  0.37050000  0.24790000  1.0 -0.3593320084
N  N3  1  0.94790000  0.51730000  0.69600000  1.0 -0.3593320084
N  N4  1  0.05210000  0.48270000  0.30400000  1.0 -0.3593320084
N  N5  1  0.31650000  0.62730000  0.72560000  1.0 -0.1987204832
N  N6  1  0.68350000  0.37270000  0.27440000  1.0 -0.1987204832
N  N7  1  0.82460000  0.54980000  0.73090000  1.0 -0.3496074435
N  N8  1  0.17540000  0.45020000  0.26910000  1.0 -0.3496074435
N  N9  1  0.63350000  0.32200000  0.61240000  1.0 -0.1198927821
N  N10  1  0.36650000  0.67800000  0.38760000  1.0 -0.1198927821
N  N11  1  0.82390000  0.76530000  0.85140000  1.0 -0.1987204832
N  N12  1  0.17610000  0.23470000  0.14860000  1.0 -0.1987204832
N  N13  1  0.14350000  0.85090000  0.05750000  1.0 -0.4131100458
N  N14  1  0.85650000  0.14910000  0.94250000  1.0 -0.4131100458
N  N15  1  0.58160000  0.14840000  0.06590000  1.0 -0.2100533701
N  N16  1  0.41840000  0.85160000  0.93410000  1.0 -0.2100533701
N  N17  1  0.24480000  0.95380000  0.03001000  1.0 -0.4131100458
N  N18  1  0.75520000  0.04620000  0.96999000  1.0 -0.4131100458
N  N19  1  0.91780000  0.87150000  0.94270000  1.0 -0.2100533701
N  N20  1  0.08220000  0.12850000  0.05730000  1.0 -0.2100533701
N  N21  1  0.30810000  0.92130000  0.08990000  1.0 -0.4021202979
N  N22  1  0.69190000  0.07870000  0.91010000  1.0 -0.4021202979
N  N23  1  0.18560000  0.71350000  0.17230000  1.0 -0.2218685331
N  N24  1  0.81440000  0.28650000  0.82770000  1.0 -0.2218685331
N  N25  1  0.30120000  0.62550000  0.21560000  1.0 -0.1845171061
N  N26  1  0.69880000  0.37450000  0.78440000  1.0 -0.1845171061
N  N27  1  0.69350000  0.32760000  0.11040000  1.0 -0.2100533701
N  N28  1  0.30650000  0.67240000  0.88960000  1.0 -0.2100533701
N  N29  1  0.63440000  0.63200000  0.25070000  1.0 -0.3400046435
N  N30  1  0.36560000  0.36800000  0.74930000  1.0 -0.3400046435
N  N31  1  0.57330000  0.52810000  0.18910000  1.0 -0.3747676966
N  N32  1  0.42670000  0.47190000  0.81090000  1.0 -0.3747676966
N  N33  1  0.72560000  0.55330000  0.22910000  1.0 -0.3496074435
N  N34  1  0.27440000  0.44670000  0.77090000  1.0 -0.3496074435
N  N35  1  0.91720000  0.73230000  0.36650000  1.0 -0.1198927821
N  N36  1  0.08280000  0.26770000  0.63350000  1.0 -0.1198927821
N  N37  1  0.68730000  0.83110000  0.56730000  1.0 -0.3294399288
N  N38  1  0.31270000  0.16890000  0.43270000  1.0 -0.3294399288
N  N39  1  0.56080000  0.14310000  0.55900000  1.0 -0.1198927821
N  N40  1  0.43920000  0.85690000  0.44100000  1.0 -0.1198927821
N  N41  1  0.51010000  0.71520000  0.68180000  1.0 -0.1565991995
N  N42  1  0.48990000  0.28480000  0.31820000  1.0 -0.1565991995
N  N43  1  0.69070000  0.93110000  0.53240000  1.0 -0.2790515181
N  N44  1  0.30930000  0.06890000  0.46760000  1.0 -0.2790515181
N  N45  1  0.59290000  0.90580000  0.58850000  1.0 -0.3294399288
N  N46  1  0.40710000  0.09420000  0.41150000  1.0 -0.3294399288
N  N47  1  0.92690000  0.82500000  0.46290000  1.0 -0.1198927821
N  N48  1  0.07310000  0.17500000  0.53710000  1.0 -0.1198927821
