# DDEC6 charges by PACMAN v1.1 (https://github.com/mtap-research/PACMAN-charge/)
data_LIRKEG_ASR_pacman
_symmetry_space_group_name_H-M   'P 1'
_cell_length_a   19.26280000
_cell_length_b   19.26280000
_cell_length_c   30.92200000
_cell_angle_alpha   78.58020000
_cell_angle_beta   101.42000000
_cell_angle_gamma   134.45400000
_symmetry_Int_Tables_number   1
_chemical_formula_structural   Zn9H72C74I18(N6O)2
_chemical_formula_sum   'Zn36 H288 C296 I72 N48 O8'
_cell_volume   7999.06955943
_cell_formula_units_Z   4
loop_
 _symmetry_equiv_pos_site_id
 _symmetry_equiv_pos_as_xyz
  1  'x, y, z'
loop_
 _atom_site_type_symbol
 _atom_site_label
 _atom_site_symmetry_multiplicity
 _atom_site_fract_x
 _atom_site_fract_y
 _atom_site_fract_z
 _atom_site_occupancy
 _atom_site_charge
Zn  Zn1  1  0.97324000  0.21756000  0.93217000  1.0 0.4475731294
Zn  Zn2  1  0.78244000  0.02676000  0.43217000  1.0 0.4475731294
Zn  Zn3  1  0.69850000  0.54070000  0.59440000  1.0 0.1502916406
Zn  Zn4  1  0.45930000  0.30150000  0.09440000  1.0 0.1502916406
Zn  Zn5  1  0.02957000  0.67503000  0.77720000  1.0 0.2016343849
Zn  Zn6  1  0.32497000  0.97043000  0.27720000  1.0 0.2016343849
Zn  Zn7  1  0.68970000  0.54570000  0.59950000  1.0 0.058477945
Zn  Zn8  1  0.45430000  0.31030000  0.09950000  1.0 0.058477945
Zn  Zn9  1  0.71600000  0.51600000  0.58240000  1.0 0.0303199421
Zn  Zn10  1  0.48400000  0.28400000  0.08240000  1.0 0.0303199421
Zn  Zn11  1  0.02960000  0.68520000  0.77350000  1.0 0.1588950346
Zn  Zn12  1  0.31480000  0.97040000  0.27350000  1.0 0.1588950346
Zn  Zn13  1  0.05800000  0.65600000  0.80400000  1.0 -0.1025809494
Zn  Zn14  1  0.34400000  0.94200000  0.30400000  1.0 -0.1025809494
Zn  Zn15  1  0.96540000  0.21560000  0.93550000  1.0 0.4379689733
Zn  Zn16  1  0.78440000  0.03460000  0.43550000  1.0 0.4379689733
Zn  Zn17  1  0.97110000  0.22690000  0.93800000  1.0 0.3769339512
Zn  Zn18  1  0.77310000  0.02890000  0.43800000  1.0 0.3769339512
Zn  Zn19  1  0.21756000  0.97324000  0.56783000  1.0 0.4475731294
Zn  Zn20  1  0.02676000  0.78244000  0.06783000  1.0 0.4475731294
Zn  Zn21  1  0.54070000  0.69850000  0.90560000  1.0 0.1502916406
Zn  Zn22  1  0.30150000  0.45930000  0.40560000  1.0 0.1502916406
Zn  Zn23  1  0.67503000  0.02957000  0.72280000  1.0 0.2016343849
Zn  Zn24  1  0.97043000  0.32497000  0.22280000  1.0 0.2016343849
Zn  Zn25  1  0.54570000  0.68970000  0.90050000  1.0 0.058477945
Zn  Zn26  1  0.31030000  0.45430000  0.40050000  1.0 0.058477945
Zn  Zn27  1  0.51600000  0.71600000  0.91760000  1.0 0.0303199421
Zn  Zn28  1  0.28400000  0.48400000  0.41760000  1.0 0.0303199421
Zn  Zn29  1  0.68520000  0.02960000  0.72650000  1.0 0.1588950346
Zn  Zn30  1  0.97040000  0.31480000  0.22650000  1.0 0.1588950346
Zn  Zn31  1  0.65600000  0.05800000  0.69600000  1.0 -0.1025809494
Zn  Zn32  1  0.94200000  0.34400000  0.19600000  1.0 -0.1025809494
Zn  Zn33  1  0.21560000  0.96540000  0.56450000  1.0 0.4346997778
Zn  Zn34  1  0.03460000  0.78440000  0.06450000  1.0 0.4346997778
Zn  Zn35  1  0.22690000  0.97110000  0.56200000  1.0 0.3738382648
Zn  Zn36  1  0.02890000  0.77310000  0.06200000  1.0 0.3738382648
H  H1  1  0.76788000  0.37886000  0.71760000  1.0 0.1205684421
H  H2  1  0.62114000  0.23212000  0.21760000  1.0 0.1205684421
H  H3  1  0.82818000  0.29938000  0.80467000  1.0 0.1205684421
H  H4  1  0.70062000  0.17182000  0.30467000  1.0 0.1205684421
H  H5  1  0.94967000  0.31973000  0.85170000  1.0 0.0712885056
H  H6  1  0.68027000  0.05033000  0.35170000  1.0 0.0712885056
H  H7  1  0.80215000  0.49565000  0.66095000  1.0 0.080055238
H  H8  1  0.50435000  0.19785000  0.16095000  1.0 0.080055238
H  H9  1  0.53946000  0.51000000  0.06376000  1.0 0.080055238
H  H10  1  0.49000000  0.46054000  0.56376000  1.0 0.080055238
H  H11  1  0.75392000  0.06558000  0.91705000  1.0 0.080055238
H  H12  1  0.93442000  0.24608000  0.41705000  1.0 0.080055238
H  H13  1  0.65922000  0.64516000  0.01881000  1.0 0.1205684421
H  H14  1  0.35484000  0.34078000  0.51881000  1.0 0.1205684421
H  H15  1  0.62789000  0.03943000  0.87150000  1.0 0.1205684421
H  H16  1  0.96057000  0.37211000  0.37150000  1.0 0.1205684421
H  H17  1  0.15980000  0.88400000  0.73728000  1.0 0.080055238
H  H18  1  0.11600000  0.84020000  0.23728000  1.0 0.080055238
H  H19  1  0.93415000  0.57827000  0.86300000  1.0 0.0883050799
H  H20  1  0.42173000  0.06585000  0.36300000  1.0 0.0883050799
H  H21  1  0.85898000  0.89684000  0.00230000  1.0 0.1367511752
H  H22  1  0.10316000  0.14102000  0.50230000  1.0 0.1367511752
H  H23  1  0.90369000  0.04529000  0.99952000  1.0 0.0712885056
H  H24  1  0.95471000  0.09631000  0.49952000  1.0 0.0712885056
H  H25  1  0.22369000  0.74929000  0.81999000  1.0 0.080055238
H  H26  1  0.25071000  0.77631000  0.31999000  1.0 0.080055238
H  H27  1  0.69876000  0.48390000  0.98500000  1.0 0.1277197267
H  H28  1  0.51610000  0.30124000  0.48500000  1.0 0.1277197267
H  H29  1  0.38877000  0.89261000  0.82534000  1.0 0.1367511752
H  H30  1  0.10739000  0.61123000  0.32534000  1.0 0.1367511752
H  H31  1  0.48373000  0.23483000  0.69311000  1.0 0.1095645256
H  H32  1  0.76517000  0.51627000  0.19311000  1.0 0.1095645256
H  H33  1  0.32340000  0.02742000  0.73628000  1.0 0.1205684421
H  H34  1  0.97258000  0.67660000  0.23628000  1.0 0.1205684421
H  H35  1  0.57860000  0.35436000  0.03119000  1.0 0.080055238
H  H36  1  0.64564000  0.42140000  0.53119000  1.0 0.080055238
H  H37  1  0.86700000  0.58936000  0.91165000  1.0 0.1277197267
H  H38  1  0.41064000  0.13300000  0.41165000  1.0 0.1277197267
H  H39  1  0.95284000  0.09972000  0.87457000  1.0 0.0883050799
H  H40  1  0.90028000  0.04716000  0.37457000  1.0 0.0883050799
H  H41  1  0.52498000  0.36058000  0.64088000  1.0 0.0883050799
H  H42  1  0.63942000  0.47502000  0.14088000  1.0 0.0883050799
H  H43  1  0.91377000  0.95617000  0.87528000  1.0 0.1095645256
H  H44  1  0.04383000  0.08623000  0.37528000  1.0 0.1095645256
H  H45  1  0.01618000  0.81399000  0.79288000  1.0 0.0883050799
H  H46  1  0.18600000  0.98381000  0.29288000  1.0 0.0883050799
H  H47  1  0.95187000  0.83203000  0.83932000  1.0 0.1205684421
H  H48  1  0.16797000  0.04813000  0.33932000  1.0 0.1205684421
H  H49  1  0.37886000  0.76788000  0.78240000  1.0 0.1205684421
H  H50  1  0.23212000  0.62114000  0.28240000  1.0 0.1205684421
H  H51  1  0.29938000  0.82818000  0.69533000  1.0 0.1205684421
H  H52  1  0.17182000  0.70062000  0.19533000  1.0 0.1205684421
H  H53  1  0.31973000  0.94967000  0.64830000  1.0 0.0712885056
H  H54  1  0.05033000  0.68027000  0.14830000  1.0 0.0712885056
H  H55  1  0.49565000  0.80215000  0.83905000  1.0 0.080055238
H  H56  1  0.19785000  0.50435000  0.33905000  1.0 0.080055238
H  H57  1  0.51000000  0.53946000  0.43624000  1.0 0.080055238
H  H58  1  0.46054000  0.49000000  0.93624000  1.0 0.080055238
H  H59  1  0.06558000  0.75392000  0.58295000  1.0 0.080055238
H  H60  1  0.24608000  0.93442000  0.08295000  1.0 0.080055238
H  H61  1  0.64516000  0.65922000  0.48119000  1.0 0.1205684421
H  H62  1  0.34078000  0.35484000  0.98119000  1.0 0.1205684421
H  H63  1  0.03943000  0.62789000  0.62850000  1.0 0.1205684421
H  H64  1  0.37211000  0.96057000  0.12850000  1.0 0.1205684421
H  H65  1  0.88400000  0.15980000  0.76272000  1.0 0.080055238
H  H66  1  0.84020000  0.11600000  0.26272000  1.0 0.080055238
H  H67  1  0.57827000  0.93415000  0.63700000  1.0 0.0883050799
H  H68  1  0.06585000  0.42173000  0.13700000  1.0 0.0883050799
H  H69  1  0.89684000  0.85898000  0.49770000  1.0 0.1367511752
H  H70  1  0.14102000  0.10316000  0.99770000  1.0 0.1367511752
H  H71  1  0.04529000  0.90369000  0.50048000  1.0 0.0712885056
H  H72  1  0.09631000  0.95471000  0.00048000  1.0 0.0712885056
H  H73  1  0.74929000  0.22369000  0.68001000  1.0 0.080055238
H  H74  1  0.77631000  0.25071000  0.18001000  1.0 0.080055238
H  H75  1  0.48390000  0.69876000  0.51500000  1.0 0.1277197267
H  H76  1  0.30124000  0.51610000  0.01500000  1.0 0.1277197267
H  H77  1  0.89261000  0.38877000  0.67466000  1.0 0.1367511752
H  H78  1  0.61123000  0.10739000  0.17466000  1.0 0.1367511752
H  H79  1  0.23483000  0.48373000  0.80689000  1.0 0.1095645256
H  H80  1  0.51627000  0.76517000  0.30689000  1.0 0.1095645256
H  H81  1  0.02742000  0.32340000  0.76372000  1.0 0.1205684421
H  H82  1  0.67660000  0.97258000  0.26372000  1.0 0.1205684421
H  H83  1  0.35436000  0.57860000  0.46881000  1.0 0.080055238
H  H84  1  0.42140000  0.64564000  0.96881000  1.0 0.080055238
H  H85  1  0.58936000  0.86700000  0.58835000  1.0 0.1277197267
H  H86  1  0.13300000  0.41064000  0.08835000  1.0 0.1277197267
H  H87  1  0.09972000  0.95284000  0.62543000  1.0 0.0883050799
H  H88  1  0.04716000  0.90028000  0.12543000  1.0 0.0883050799
H  H89  1  0.36058000  0.52498000  0.85912000  1.0 0.0883050799
H  H90  1  0.47502000  0.63942000  0.35912000  1.0 0.0883050799
H  H91  1  0.95617000  0.91377000  0.62472000  1.0 0.1095645256
H  H92  1  0.08623000  0.04383000  0.12472000  1.0 0.1095645256
H  H93  1  0.81400000  0.01618000  0.70712000  1.0 0.0883050799
H  H94  1  0.98381000  0.18600000  0.20712000  1.0 0.0883050799
H  H95  1  0.83203000  0.95187000  0.66068000  1.0 0.1205684421
H  H96  1  0.04813000  0.16797000  0.16068000  1.0 0.1205684421
H  H97  1  0.46099000  0.62207000  0.15164000  1.0 0.0086843572
H  H98  1  0.62207000  0.46099000  0.34836000  1.0 0.0086843572
H  H99  1  0.39039000  0.53713000  0.11884000  1.0 0.080055238
H  H100  1  0.53713000  0.39039000  0.38116000  1.0 0.080055238
H  H101  1  0.38342000  0.47590000  0.19473000  1.0 0.0514748571
H  H102  1  0.47590000  0.38342000  0.30527000  1.0 0.0514748571
H  H103  1  0.27839000  0.42969000  0.17134000  1.0 0.058477945
H  H104  1  0.42969000  0.27839000  0.32866000  1.0 0.058477945
H  H105  1  0.28914000  0.47050000  0.23945000  1.0 0.0514748571
H  H106  1  0.47050000  0.28914000  0.26055000  1.0 0.0514748571
H  H107  1  0.39592000  0.57666000  0.23286000  1.0 0.0883050799
H  H108  1  0.57666000  0.39592000  0.26714000  1.0 0.0883050799
H  H109  1  0.21612000  0.51220000  0.18984000  1.0 0.0514748571
H  H110  1  0.51220000  0.21612000  0.31016000  1.0 0.0514748571
H  H111  1  0.29162000  0.59962000  0.22115000  1.0 0.080055238
H  H112  1  0.59962000  0.29161000  0.27885000  1.0 0.080055238
H  H113  1  0.39509000  0.70265000  0.16687000  1.0 0.080055238
H  H114  1  0.70265000  0.39509000  0.33313000  1.0 0.080055238
H  H115  1  0.28833000  0.65133000  0.14413000  1.0 0.058477945
H  H116  1  0.65133000  0.28833000  0.35587000  1.0 0.058477945
H  H117  1  0.28110000  0.55474000  0.10648000  1.0 0.0883050799
H  H118  1  0.55474000  0.28110000  0.39352000  1.0 0.080055238
H  H119  1  0.38719000  0.66185000  0.10014000  1.0 0.058477945
H  H120  1  0.66185000  0.38719000  0.39986000  1.0 0.058477945
H  H121  1  0.11931000  0.03675000  0.21686000  1.0 0.0883050799
H  H122  1  0.03675000  0.11931000  0.28314000  1.0 0.0883050799
H  H123  1  0.22154000  0.18572000  0.24811000  1.0 0.0712885056
H  H124  1  0.18572000  0.22154000  0.25189000  1.0 0.0712885056
H  H125  1  0.15658000  0.21698000  0.28865000  1.0 0.0883050799
H  H126  1  0.21698000  0.15658000  0.21135000  1.0 0.0883050799
H  H127  1  0.98939000  0.09927000  0.29795000  1.0 0.0712885056
H  H128  1  0.09927000  0.98939000  0.20205000  1.0 0.0712885056
H  H129  1  0.58415000  0.71137000  0.28825000  1.0 0.1277197267
H  H130  1  0.71137000  0.58415000  0.21175000  1.0 0.1277197267
H  H131  1  0.63366000  0.81356000  0.22246000  1.0 0.0883050799
H  H132  1  0.81356000  0.63366000  0.27754000  1.0 0.0883050799
H  H133  1  0.91688000  0.78100000  0.21538000  1.0 0.2053850482
H  H134  1  0.78100000  0.91688000  0.28462000  1.0 0.2053850482
H  H135  1  0.24513000  0.59131000  0.17110000  1.0 0.058477945
H  H136  1  0.59131000  0.24513000  0.32890000  1.0 0.058477945
H  H137  1  0.23968000  0.48092000  0.22252000  1.0 0.0514748571
H  H138  1  0.48092000  0.23968000  0.27748000  1.0 0.0514748571
H  H139  1  0.33187000  0.43983000  0.26813000  1.0 0.058477945
H  H140  1  0.43983000  0.33187000  0.23187000  1.0 0.058477945
H  H141  1  0.41803000  0.46957000  0.24516000  1.0 0.0712885056
H  H142  1  0.46957000  0.41803000  0.25484000  1.0 0.0712885056
H  H143  1  0.30891000  0.39831000  0.22217000  1.0 0.0712885056
H  H144  1  0.39831000  0.30891000  0.27783000  1.0 0.0712885056
H  H145  1  0.43787000  0.80947000  0.13119000  1.0 0.1095645256
H  H146  1  0.80947000  0.43787000  0.36881000  1.0 0.1095645256
H  H147  1  0.32237000  0.72531000  0.12013000  1.0 0.080055238
H  H148  1  0.72531000  0.32237000  0.37987000  1.0 0.080055238
H  H149  1  0.39511000  0.74185000  0.09212000  1.0 0.080055238
H  H150  1  0.74185000  0.39511000  0.40788000  1.0 0.080055238
H  H151  1  0.49008000  0.63252000  0.10254000  1.0 0.0712885056
H  H152  1  0.63252000  0.49008000  0.39746000  1.0 0.0712885056
H  H153  1  0.47649000  0.68379000  0.05820000  1.0 0.0883050799
H  H154  1  0.68379000  0.47649000  0.44180000  1.0 0.0883050799
H  H155  1  0.55724000  0.61684000  0.17436000  1.0 0.1095645256
H  H156  1  0.61684000  0.55724000  0.32564000  1.0 0.1095645256
H  H157  1  0.53071000  0.57361000  0.22446000  1.0 0.0997392302
H  H158  1  0.57361000  0.53071000  0.27554000  1.0 0.0997392302
H  H159  1  0.60339000  0.68887000  0.21186000  1.0 0.1205684421
H  H160  1  0.68887000  0.60339000  0.28814000  1.0 0.1205684421
H  H161  1  0.68888000  0.87546000  0.05951000  1.0 0.1205684421
H  H162  1  0.87546000  0.68888000  0.44049000  1.0 0.1205684421
H  H163  1  0.79509000  0.01259000  0.10023000  1.0 0.0997392302
H  H164  1  0.01259000  0.79509000  0.39977000  1.0 0.0997392302
H  H165  1  0.75627000  0.00377000  0.16941000  1.0 0.0883050799
H  H166  1  0.00377000  0.75627000  0.33059000  1.0 0.0883050799
H  H167  1  0.61125000  0.85783000  0.19787000  1.0 0.080055238
H  H168  1  0.85783000  0.61125000  0.30213000  1.0 0.080055238
H  H169  1  0.57082000  0.66716000  0.04293000  1.0 0.3284920494
H  H170  1  0.66716000  0.57082000  0.45707000  1.0 0.3284920494
H  H171  1  0.85678000  0.03604000  0.20488000  1.0 0.0997392302
H  H172  1  0.03604000  0.85678000  0.29512000  1.0 0.0997392302
H  H173  1  0.76331000  0.94969000  0.17603000  1.0 0.058477945
H  H174  1  0.94969000  0.76331000  0.32397000  1.0 0.058477945
H  H175  1  0.85941000  0.96767000  0.18465000  1.0 0.0712885056
H  H176  1  0.96767000  0.85941000  0.31535000  1.0 0.0712885056
H  H177  1  0.93174000  0.86126000  0.33711000  1.0 0.0712885056
H  H178  1  0.86126000  0.93174000  0.16289000  1.0 0.0712885056
H  H179  1  0.85658000  0.81714000  0.37263000  1.0 0.1277197267
H  H180  1  0.81714000  0.85658000  0.12737000  1.0 0.1277197267
H  H181  1  0.93555000  0.93225000  0.35938000  1.0 0.1095645256
H  H182  1  0.93225000  0.93555000  0.14062000  1.0 0.1095645256
H  H183  1  0.73513000  0.69591000  0.36474000  1.0 0.1277197267
H  H184  1  0.69591000  0.73513000  0.13526000  1.0 0.1277197267
H  H185  1  0.62573000  0.65033000  0.35673000  1.0 0.1205684421
H  H186  1  0.65033000  0.62573000  0.14327000  1.0 0.1205684421
H  H187  1  0.70692000  0.74310000  0.38490000  1.0 0.1095645256
H  H188  1  0.74310000  0.70692000  0.11510000  1.0 0.1095645256
H  H189  1  0.86368000  0.83486000  0.23817000  1.0 0.080055238
H  H190  1  0.83486000  0.86368000  0.26183000  1.0 0.080055238
H  H191  1  0.90088000  0.88486000  0.18993000  1.0 0.080055238
H  H192  1  0.88486000  0.90088000  0.31007000  1.0 0.080055238
H  H193  1  0.53901000  0.37793000  0.84836000  1.0 0.0086843572
H  H194  1  0.37793000  0.53901000  0.65164000  1.0 0.0086843572
H  H195  1  0.60961000  0.46287000  0.88116000  1.0 0.080055238
H  H196  1  0.46287000  0.60961000  0.61884000  1.0 0.080055238
H  H197  1  0.61658000  0.52410000  0.80527000  1.0 0.0514748571
H  H198  1  0.52410000  0.61658000  0.69473000  1.0 0.0514748571
H  H199  1  0.72161000  0.57031000  0.82866000  1.0 0.058477945
H  H200  1  0.57031000  0.72161000  0.67134000  1.0 0.058477945
H  H201  1  0.71086000  0.52950000  0.76055000  1.0 0.0514748571
H  H202  1  0.52950000  0.71086000  0.73945000  1.0 0.0514748571
H  H203  1  0.60408000  0.42334000  0.76714000  1.0 0.0883050799
H  H204  1  0.42334000  0.60408000  0.73286000  1.0 0.0883050799
H  H205  1  0.78388000  0.48780000  0.81016000  1.0 0.0514748571
H  H206  1  0.48780000  0.78388000  0.68984000  1.0 0.0514748571
H  H207  1  0.70839000  0.40038000  0.77885000  1.0 0.080055238
H  H208  1  0.40038000  0.70839000  0.72115000  1.0 0.080055238
H  H209  1  0.60491000  0.29735000  0.83313000  1.0 0.080055238
H  H210  1  0.29735000  0.60491000  0.66687000  1.0 0.080055238
H  H211  1  0.71167000  0.34867000  0.85587000  1.0 0.058477945
H  H212  1  0.34867000  0.71167000  0.64413000  1.0 0.058477945
H  H213  1  0.71890000  0.44526000  0.89352000  1.0 0.080055238
H  H214  1  0.44526000  0.71890000  0.60648000  1.0 0.080055238
H  H215  1  0.61281000  0.33815000  0.89986000  1.0 0.058477945
H  H216  1  0.33815000  0.61281000  0.60014000  1.0 0.058477945
H  H217  1  0.88069000  0.96325000  0.78314000  1.0 0.0883050799
H  H218  1  0.96325000  0.88069000  0.71686000  1.0 0.0883050799
H  H219  1  0.77846000  0.81428000  0.75189000  1.0 0.0712885056
H  H220  1  0.81428000  0.77846000  0.74811000  1.0 0.0712885056
H  H221  1  0.84342000  0.78302000  0.71135000  1.0 0.0883050799
H  H222  1  0.78302000  0.84342000  0.78865000  1.0 0.0883050799
H  H223  1  0.01061000  0.90073000  0.70205000  1.0 0.0712885056
H  H224  1  0.90073000  0.01061000  0.79795000  1.0 0.0712885056
H  H225  1  0.41585000  0.28863000  0.71175000  1.0 0.1277197267
H  H226  1  0.28863000  0.41585000  0.78825000  1.0 0.1277197267
H  H227  1  0.36634000  0.18644000  0.77754000  1.0 0.0883050799
H  H228  1  0.18644000  0.36634000  0.72246000  1.0 0.0883050799
H  H229  1  0.08312000  0.21900000  0.78462000  1.0 0.2053850482
H  H230  1  0.21900000  0.08312000  0.71538000  1.0 0.2053850482
H  H231  1  0.75487000  0.40869000  0.82890000  1.0 0.058477945
H  H232  1  0.40869000  0.75487000  0.67110000  1.0 0.058477945
H  H233  1  0.76032000  0.51908000  0.77748000  1.0 0.0514748571
H  H234  1  0.51908000  0.76032000  0.72252000  1.0 0.0514748571
H  H235  1  0.66813000  0.56017000  0.73187000  1.0 0.058477945
H  H236  1  0.56017000  0.66813000  0.76813000  1.0 0.058477945
H  H237  1  0.58197000  0.53043000  0.75484000  1.0 0.0712885056
H  H238  1  0.53043000  0.58197000  0.74516000  1.0 0.0712885056
H  H239  1  0.69109000  0.60169000  0.77783000  1.0 0.0712885056
H  H240  1  0.60169000  0.69109000  0.72217000  1.0 0.0712885056
H  H241  1  0.56213000  0.19053000  0.86881000  1.0 0.1095645256
H  H242  1  0.19053000  0.56213000  0.63119000  1.0 0.1095645256
H  H243  1  0.67763000  0.27469000  0.87987000  1.0 0.080055238
H  H244  1  0.27469000  0.67763000  0.62013000  1.0 0.080055238
H  H245  1  0.60489000  0.25815000  0.90788000  1.0 0.080055238
H  H246  1  0.25815000  0.60489000  0.59212000  1.0 0.080055238
H  H247  1  0.50992000  0.36748000  0.89746000  1.0 0.0712885056
H  H248  1  0.36748000  0.50992000  0.60254000  1.0 0.0712885056
H  H249  1  0.52351000  0.31621000  0.94180000  1.0 0.0883050799
H  H250  1  0.31621000  0.52351000  0.55820000  1.0 0.0883050799
H  H251  1  0.44276000  0.38316000  0.82564000  1.0 0.1095645256
H  H252  1  0.38316000  0.44276000  0.67436000  1.0 0.1095645256
H  H253  1  0.46929000  0.42639000  0.77554000  1.0 0.0997392302
H  H254  1  0.42639000  0.46929000  0.72446000  1.0 0.0997392302
H  H255  1  0.39661000  0.31113000  0.78814000  1.0 0.1205684421
H  H256  1  0.31113000  0.39661000  0.71186000  1.0 0.1205684421
H  H257  1  0.31112000  0.12454000  0.94049000  1.0 0.1205684421
H  H258  1  0.12454000  0.31112000  0.55951000  1.0 0.1205684421
H  H259  1  0.20491000  0.98741000  0.89977000  1.0 0.0997392302
H  H260  1  0.98741000  0.20491000  0.60023000  1.0 0.0997392302
H  H261  1  0.24373000  0.99623000  0.83059000  1.0 0.0883050799
H  H262  1  0.99623000  0.24373000  0.66941000  1.0 0.0883050799
H  H263  1  0.38875000  0.14217000  0.80213000  1.0 0.080055238
H  H264  1  0.14217000  0.38875000  0.69787000  1.0 0.080055238
H  H265  1  0.42918000  0.33284000  0.95707000  1.0 0.3284920494
H  H266  1  0.33284000  0.42918000  0.54293000  1.0 0.3284920494
H  H267  1  0.14322000  0.96396000  0.79512000  1.0 0.0997392302
H  H268  1  0.96396000  0.14322000  0.70488000  1.0 0.0997392302
H  H269  1  0.23669000  0.05031000  0.82397000  1.0 0.058477945
H  H270  1  0.05031000  0.23669000  0.67603000  1.0 0.058477945
H  H271  1  0.14059000  0.03233000  0.81535000  1.0 0.0712885056
H  H272  1  0.03233000  0.14059000  0.68465000  1.0 0.0712885056
H  H273  1  0.06826000  0.13874000  0.66289000  1.0 0.0712885056
H  H274  1  0.13874000  0.06826000  0.83711000  1.0 0.0712885056
H  H275  1  0.14342000  0.18286000  0.62737000  1.0 0.1277197267
H  H276  1  0.18286000  0.14342000  0.87263000  1.0 0.1277197267
H  H277  1  0.06445000  0.06775000  0.64062000  1.0 0.1095645256
H  H278  1  0.06775000  0.06445000  0.85938000  1.0 0.1095645256
H  H279  1  0.26487000  0.30409000  0.63526000  1.0 0.1277197267
H  H280  1  0.30409000  0.26487000  0.86474000  1.0 0.1277197267
H  H281  1  0.37427000  0.34967000  0.64327000  1.0 0.1205684421
H  H282  1  0.34967000  0.37427000  0.85673000  1.0 0.1205684421
H  H283  1  0.29308000  0.25690000  0.61510000  1.0 0.1095645256
H  H284  1  0.25690000  0.29308000  0.88490000  1.0 0.1095645256
H  H285  1  0.13632000  0.16514000  0.76183000  1.0 0.080055238
H  H286  1  0.16514000  0.13632000  0.73817000  1.0 0.080055238
H  H287  1  0.09912000  0.11514000  0.81007000  1.0 0.080055238
H  H288  1  0.11514000  0.09912000  0.68993000  1.0 0.080055238
C  C1  1  0.76800000  0.66220000  0.96772000  1.0 0.3119418835
C  C2  1  0.33780000  0.23200000  0.46772000  1.0 0.3119418835
C  C3  1  0.85760000  0.81940000  0.94037000  1.0 0.3206477205
C  C4  1  0.18060000  0.14240000  0.44037000  1.0 0.3206477205
C  C5  1  0.59431000  0.21569000  0.74676000  1.0 0.2923392693
C  C6  1  0.78431000  0.40569000  0.24676000  1.0 0.2923392693
C  C7  1  0.71531000  0.16769000  0.83313000  1.0 0.0514748571
C  C8  1  0.83231000  0.28469000  0.33313000  1.0 0.0514748571
C  C9  1  0.63720000  0.15460000  0.80278000  1.0 0.3119418835
C  C10  1  0.84540000  0.36280000  0.30278000  1.0 0.3119418835
C  C11  1  0.62132000  0.29468000  0.71182000  1.0 0.058477945
C  C12  1  0.70532000  0.37868000  0.21182000  1.0 0.058477945
C  C13  1  0.69229000  0.57811000  0.99703000  1.0 0.0303199421
C  C14  1  0.42189000  0.30771000  0.49703000  1.0 0.0303199421
C  C15  1  0.88482000  0.91238000  0.93990000  1.0 0.0514748571
C  C16  1  0.08762000  0.11518000  0.43990000  1.0 0.0514748571
C  C17  1  0.47872000  0.06728000  0.78019000  1.0 0.2954988818
C  C18  1  0.93272000  0.52128000  0.28019000  1.0 0.2954988818
C  C19  1  0.71664000  0.37296000  0.70169000  1.0 -0.1901349435
C  C20  1  0.62704000  0.28336000  0.20169000  1.0 -0.1901349435
C  C21  1  0.81132000  0.25028000  0.82770000  1.0 -0.1592849344
C  C22  1  0.74972000  0.18868000  0.32770000  1.0 -0.1592849344
C  C23  1  0.90288000  0.71272000  0.88100000  1.0 0.058477945
C  C24  1  0.28728000  0.09712000  0.38100000  1.0 0.058477945
C  C25  1  0.86279000  0.72421000  0.91251000  1.0 0.3119418835
C  C26  1  0.27579000  0.13721000  0.41251000  1.0 0.3119418835
C  C27  1  0.37388000  0.97592000  0.78080000  1.0 0.0514748571
C  C28  1  0.02408000  0.62612000  0.28080000  1.0 0.0514748571
C  C29  1  0.88336000  0.26204000  0.85580000  1.0 -0.0871434372
C  C30  1  0.73796000  0.11664000  0.35580000  1.0 -0.0871434372
C  C31  1  0.73656000  0.44264000  0.66812000  1.0 -0.0703342007
C  C32  1  0.55736000  0.26344000  0.16812000  1.0 -0.0703342007
C  C33  1  0.57300000  0.50500000  0.04779000  1.0 0.0194443017
C  C34  1  0.49500000  0.42700000  0.54779000  1.0 0.0194443017
C  C35  1  0.76914000  0.11386000  0.89380000  1.0 -0.0323958445
C  C36  1  0.88614000  0.23086000  0.39380000  1.0 -0.0323958445
C  C37  1  0.64406000  0.58594000  0.02086000  1.0 -0.1727225621
C  C38  1  0.41406000  0.35594000  0.52086000  1.0 -0.1592849344
C  C39  1  0.69371000  0.09769000  0.86690000  1.0 -0.1592849344
C  C40  1  0.90231000  0.30629000  0.36690000  1.0 -0.1592849344
C  C41  1  0.20730000  0.88550000  0.75470000  1.0 -0.0186047445
C  C42  1  0.11450000  0.79270000  0.25470000  1.0 -0.0186047445
C  C43  1  0.93720000  0.63060000  0.85800000  1.0 -0.0323958445
C  C44  1  0.36940000  0.06280000  0.35800000  1.0 -0.0323958445
C  C45  1  0.88003000  0.93877000  0.97570000  1.0 -0.1312686687
C  C46  1  0.06123000  0.11997000  0.47570000  1.0 -0.1312686687
C  C47  1  0.90572000  0.02688000  0.97380000  1.0 0.0086843572
C  C48  1  0.97312000  0.09428000  0.47380000  1.0 0.0086843572
C  C49  1  0.24442000  0.80738000  0.80340000  1.0 0.058477945
C  C50  1  0.19262000  0.75558000  0.30340000  1.0 0.058477945
C  C51  1  0.66750000  0.49170000  0.00100000  1.0 -0.148437429
C  C52  1  0.50830000  0.33250000  0.50100000  1.0 -0.148437429
C  C53  1  0.34325000  0.89215000  0.80630000  1.0 -0.1393131983
C  C54  1  0.10785000  0.65675000  0.30630000  1.0 -0.1393131983
C  C55  1  0.55020000  0.28940000  0.68780000  1.0 -0.212453417
C  C56  1  0.71060000  0.44980000  0.18780000  1.0 -0.212453417
C  C57  1  0.30451000  0.97149000  0.75450000  1.0 -0.1727225621
C  C58  1  0.02851000  0.69549000  0.25450000  1.0 -0.1727225621
C  C59  1  0.59590000  0.41470000  0.02870000  1.0 0.0086843572
C  C60  1  0.58530000  0.40410000  0.52870000  1.0 0.0086843572
C  C61  1  0.89770000  0.63690000  0.88730000  1.0 -0.1592849344
C  C62  1  0.36310000  0.10230000  0.38730000  1.0 -0.1592849344
C  C63  1  0.93470000  0.05850000  0.90130000  1.0 -0.0703342007
C  C64  1  0.94150000  0.06530000  0.40130000  1.0 -0.0703342007
C  C65  1  0.57470000  0.36310000  0.65580000  1.0 -0.0186047445
C  C66  1  0.63690000  0.42530000  0.15580000  1.0 -0.0186047445
C  C67  1  0.91150000  0.97330000  0.90140000  1.0 -0.1836968471
C  C68  1  0.02670000  0.08850000  0.40140000  1.0 -0.1836968471
C  C69  1  0.98470000  0.76710000  0.81740000  1.0 -0.0811157606
C  C70  1  0.23290000  0.01530000  0.31740000  1.0 -0.0811157606
C  C71  1  0.94730000  0.77870000  0.84490000  1.0 -0.2390894329
C  C72  1  0.22130000  0.05270000  0.34490000  1.0 -0.2390894329
C  C73  1  0.66220000  0.76800000  0.53228000  1.0 0.3119418835
C  C74  1  0.23200000  0.33780000  0.03228000  1.0 0.3119418835
C  C75  1  0.81940000  0.85760000  0.55963000  1.0 0.3206477205
C  C76  1  0.14240000  0.18060000  0.05963000  1.0 0.3206477205
C  C77  1  0.21569000  0.59431000  0.75324000  1.0 0.2923392693
C  C78  1  0.40569000  0.78431000  0.25324000  1.0 0.2923392693
C  C79  1  0.16769000  0.71531000  0.66687000  1.0 0.0514748571
C  C80  1  0.28469000  0.83231000  0.16687000  1.0 0.0514748571
C  C81  1  0.15460000  0.63720000  0.69722000  1.0 0.3119418835
C  C82  1  0.36280000  0.84540000  0.19722000  1.0 0.3119418835
C  C83  1  0.29468000  0.62132000  0.78818000  1.0 0.058477945
C  C84  1  0.37868000  0.70532000  0.28818000  1.0 0.058477945
C  C85  1  0.57811000  0.69229000  0.50297000  1.0 0.0303199421
C  C86  1  0.30771000  0.42189000  0.00297000  1.0 0.0303199421
C  C87  1  0.91238000  0.88482000  0.56010000  1.0 0.0514748571
C  C88  1  0.11518000  0.08762000  0.06010000  1.0 0.0514748571
C  C89  1  0.06728000  0.47872000  0.71981000  1.0 0.2954988818
C  C90  1  0.52128000  0.93272000  0.21981000  1.0 0.2954988818
C  C91  1  0.37296000  0.71664000  0.79831000  1.0 -0.1901349435
C  C92  1  0.28336000  0.62704000  0.29831000  1.0 -0.1901349435
C  C93  1  0.25028000  0.81132000  0.67230000  1.0 -0.1592849344
C  C94  1  0.18868000  0.74972000  0.17230000  1.0 -0.1592849344
C  C95  1  0.71272000  0.90288000  0.61900000  1.0 0.058477945
C  C96  1  0.09712000  0.28728000  0.11900000  1.0 0.058477945
C  C97  1  0.72421000  0.86279000  0.58749000  1.0 0.3119418835
C  C98  1  0.13721000  0.27579000  0.08749000  1.0 0.3119418835
C  C99  1  0.97592000  0.37388000  0.71920000  1.0 0.0514748571
C  C100  1  0.62612000  0.02408000  0.21920000  1.0 0.0514748571
C  C101  1  0.26204000  0.88336000  0.64420000  1.0 -0.0871434372
C  C102  1  0.11664000  0.73796000  0.14420000  1.0 -0.0871434372
C  C103  1  0.44264000  0.73656000  0.83188000  1.0 -0.0703342007
C  C104  1  0.26344000  0.55736000  0.33188000  1.0 -0.0703342007
C  C105  1  0.50500000  0.57300000  0.45221000  1.0 0.0194443017
C  C106  1  0.42700000  0.49500000  0.95221000  1.0 0.0194443017
C  C107  1  0.11386000  0.76914000  0.60620000  1.0 -0.0323958445
C  C108  1  0.23086000  0.88614000  0.10620000  1.0 -0.0323958445
C  C109  1  0.58594000  0.64406000  0.47914000  1.0 -0.1592849344
C  C110  1  0.35594000  0.41406000  0.97914000  1.0 -0.1592849344
C  C111  1  0.09769000  0.69371000  0.63310000  1.0 -0.1592849344
C  C112  1  0.30629000  0.90231000  0.13310000  1.0 -0.1592849344
C  C113  1  0.88550000  0.20730000  0.74530000  1.0 -0.0186047445
C  C114  1  0.79270000  0.11450000  0.24530000  1.0 -0.0186047445
C  C115  1  0.63060000  0.93720000  0.64200000  1.0 -0.0323958445
C  C116  1  0.06280000  0.36940000  0.14200000  1.0 -0.0323958445
C  C117  1  0.93877000  0.88003000  0.52430000  1.0 -0.1312686687
C  C118  1  0.11997000  0.06123000  0.02430000  1.0 -0.1312686687
C  C119  1  0.02688000  0.90572000  0.52620000  1.0 0.0086843572
C  C120  1  0.09428000  0.97312000  0.02620000  1.0 0.0086843572
C  C121  1  0.80738000  0.24442000  0.69660000  1.0 0.058477945
C  C122  1  0.75558000  0.19262000  0.19660000  1.0 0.058477945
C  C123  1  0.49170000  0.66750000  0.49900000  1.0 -0.148437429
C  C124  1  0.33250000  0.50830000  0.99900000  1.0 -0.148437429
C  C125  1  0.89215000  0.34325000  0.69370000  1.0 -0.1393131983
C  C126  1  0.65675000  0.10785000  0.19370000  1.0 -0.1393131983
C  C127  1  0.28940000  0.55020000  0.81220000  1.0 -0.2154108097
C  C128  1  0.44980000  0.71060000  0.31220000  1.0 -0.212453417
C  C129  1  0.97149000  0.30451000  0.74550000  1.0 -0.1727225621
C  C130  1  0.69549000  0.02851000  0.24550000  1.0 -0.1727225621
C  C131  1  0.41470000  0.59590000  0.47130000  1.0 0.0086843572
C  C132  1  0.40410000  0.58530000  0.97130000  1.0 0.0086843572
C  C133  1  0.63690000  0.89770000  0.61270000  1.0 -0.1592849344
C  C134  1  0.10230000  0.36310000  0.11270000  1.0 -0.1592849344
C  C135  1  0.05850000  0.93470000  0.59870000  1.0 -0.0703342007
C  C136  1  0.06530000  0.94150000  0.09870000  1.0 -0.0703342007
C  C137  1  0.36310000  0.57470000  0.84420000  1.0 -0.0186047445
C  C138  1  0.42530000  0.63690000  0.34420000  1.0 -0.0186047445
C  C139  1  0.97330000  0.91150000  0.59860000  1.0 -0.1836968471
C  C140  1  0.08850000  0.02670000  0.09860000  1.0 -0.1836968471
C  C141  1  0.76710000  0.98470000  0.68260000  1.0 -0.0811157606
C  C142  1  0.01530000  0.23290000  0.18260000  1.0 -0.0811157606
C  C143  1  0.77870000  0.94730000  0.65510000  1.0 -0.2390894329
C  C144  1  0.05270000  0.22130000  0.15510000  1.0 -0.2390894329
C  C145  1  0.39150000  0.56650000  0.14220000  1.0 -0.1312686687
C  C146  1  0.56650000  0.39150000  0.35780000  1.0 -0.1312686687
C  C147  1  0.34330000  0.49070000  0.18170000  1.0 -0.060160722
C  C148  1  0.49070000  0.34330000  0.31830000  1.0 -0.060160722
C  C149  1  0.33170000  0.52630000  0.21740000  1.0 -0.0186047445
C  C150  1  0.52630000  0.33170000  0.28260000  1.0 -0.0186047445
C  C151  1  0.28660000  0.56740000  0.19780000  1.0 -0.1025809494
C  C152  1  0.56740000  0.28660000  0.30220000  1.0 -0.1025809494
C  C153  1  0.33060000  0.63940000  0.15740000  1.0 -0.0396893154
C  C154  1  0.63940000  0.33060000  0.34260000  1.0 -0.0396893154
C  C155  1  0.34550000  0.60650000  0.12210000  1.0 -0.1312686687
C  C156  1  0.60650000  0.34550000  0.37790000  1.0 -0.1312686687
C  C157  1  0.95510000  0.99810000  0.26290000  1.0 0.0194443017
C  C158  1  0.99810000  0.95510000  0.23710000  1.0 0.0194443017
C  C159  1  0.99370000  0.97950000  0.23880000  1.0 0.0303199421
C  C160  1  0.97950000  0.99370000  0.26120000  1.0 0.0303199421
C  C161  1  0.09290000  0.04950000  0.23330000  1.0 0.0016253787
C  C162  1  0.04950000  0.09290000  0.26670000  1.0 0.0016253787
C  C163  1  0.15370000  0.13790000  0.25190000  1.0 -0.0186047445
C  C164  1  0.13790000  0.15370000  0.24810000  1.0 -0.0186047445
C  C165  1  0.11510000  0.15650000  0.27600000  1.0 -0.1025809494
C  C166  1  0.15650000  0.11510000  0.22400000  1.0 -0.1025809494
C  C167  1  0.01580000  0.08660000  0.28150000  1.0 -0.0703342007
C  C168  1  0.08660000  0.01580000  0.21850000  1.0 -0.0703342007
C  C169  1  0.84920000  0.91640000  0.27180000  1.0 0.0390168866
C  C170  1  0.91640000  0.84920000  0.22820000  1.0 0.0390168866
C  C171  1  0.81980000  0.85580000  0.31090000  1.0 0.0086843572
C  C172  1  0.85580000  0.81980000  0.18910000  1.0 0.0086843572
C  C173  1  0.72110000  0.77930000  0.31700000  1.0 0.0303199421
C  C174  1  0.77930000  0.72110000  0.18300000  1.0 0.0303199421
C  C175  1  0.65160000  0.76360000  0.28410000  1.0 -0.2543066514
C  C176  1  0.76360000  0.65160000  0.21590000  1.0 -0.2543066514
C  C177  1  0.68110000  0.82430000  0.24500000  1.0 -0.212453417
C  C178  1  0.82430000  0.68110000  0.25500000  1.0 -0.212453417
C  C179  1  0.77990000  0.90070000  0.23890000  1.0 0.1277197267
C  C180  1  0.90070000  0.77990000  0.26110000  1.0 0.1277197267
C  C181  1  0.46210000  0.68150000  0.16200000  1.0 -0.0396893154
C  C182  1  0.68150000  0.46210000  0.33800000  1.0 -0.0396893154
C  C183  1  0.38240000  0.67240000  0.15400000  1.0 0.0016253787
C  C184  1  0.67240000  0.38240000  0.34600000  1.0 0.0016253787
C  C185  1  0.29960000  0.59760000  0.17650000  1.0 -0.0811157606
C  C186  1  0.59760000  0.29960000  0.32350000  1.0 -0.0811157606
C  C187  1  0.29630000  0.53210000  0.20710000  1.0 -0.0703342007
C  C188  1  0.53210000  0.29630000  0.29290000  1.0 -0.0703342007
C  C189  1  0.37600000  0.54120000  0.21510000  1.0 -0.0114311107
C  C190  1  0.54120000  0.37600000  0.28490000  1.0 -0.0114311107
C  C191  1  0.45880000  0.61600000  0.19250000  1.0 0.0303199421
C  C192  1  0.61600000  0.45880000  0.30750000  1.0 0.0303199421
C  C193  1  0.35720000  0.45480000  0.23980000  1.0 -0.212453417
C  C194  1  0.45480000  0.35720000  0.26020000  1.0 -0.212453417
C  C195  1  0.38460000  0.74340000  0.12150000  1.0 -0.258611228
C  C196  1  0.74340000  0.38460000  0.37850000  1.0 -0.258611228
C  C197  1  0.52480000  0.69120000  0.08110000  1.0 -0.060160722
C  C198  1  0.69120000  0.52480000  0.41890000  1.0 -0.060160722
C  C199  1  0.54530000  0.62470000  0.20160000  1.0 -0.4215982367
C  C200  1  0.62470000  0.54530000  0.29840000  1.0 -0.4215982367
C  C201  1  0.56390000  0.77990000  0.14560000  1.0 0.0016253787
C  C202  1  0.77990000  0.56390000  0.35440000  1.0 0.0016253787
C  C203  1  0.58700000  0.78520000  0.10450000  1.0 0.0390168866
C  C204  1  0.78520000  0.58700000  0.39550000  1.0 0.0390168866
C  C205  1  0.67360000  0.87240000  0.08760000  1.0 -0.1393131983
C  C206  1  0.87240000  0.67360000  0.41240000  1.0 -0.1393131983
C  C207  1  0.73620000  0.95340000  0.11180000  1.0 -0.0396893154
C  C208  1  0.95340000  0.73620000  0.38820000  1.0 -0.0396893154
C  C209  1  0.71310000  0.94810000  0.15290000  1.0 -0.0871434372
C  C210  1  0.94810000  0.71310000  0.34710000  1.0 -0.0871434372
C  C211  1  0.62700000  0.86140000  0.16980000  1.0 -0.1312686687
C  C212  1  0.86140000  0.62700000  0.33020000  1.0 -0.1312686687
C  C213  1  0.81830000  0.96970000  0.19750000  1.0 -0.4299949616
C  C214  1  0.96970000  0.81830000  0.30250000  1.0 -0.4299949616
C  C215  1  0.89240000  0.86760000  0.34840000  1.0 -0.3597765376
C  C216  1  0.86760000  0.89240000  0.15160000  1.0 -0.3597765376
C  C217  1  0.69490000  0.71110000  0.35970000  1.0 -0.4442977388
C  C218  1  0.71110000  0.69490000  0.14030000  1.0 -0.4442977388
C  C219  1  0.92240000  0.87960000  0.22120000  1.0 -0.0114311107
C  C220  1  0.87960000  0.92240000  0.27880000  1.0 -0.0114311107
C  C221  1  0.60850000  0.43350000  0.85780000  1.0 -0.1312686687
C  C222  1  0.43350000  0.60850000  0.64220000  1.0 -0.1312686687
C  C223  1  0.65670000  0.50930000  0.81830000  1.0 -0.060160722
C  C224  1  0.50930000  0.65670000  0.68170000  1.0 -0.060160722
C  C225  1  0.66830000  0.47370000  0.78260000  1.0 -0.0186047445
C  C226  1  0.47370000  0.66830000  0.71740000  1.0 -0.0186047445
C  C227  1  0.71340000  0.43260000  0.80220000  1.0 -0.1025809494
C  C228  1  0.43260000  0.71340000  0.69780000  1.0 -0.1025809494
C  C229  1  0.66940000  0.36060000  0.84260000  1.0 -0.0396893154
C  C230  1  0.36060000  0.66940000  0.65740000  1.0 -0.0396893154
C  C231  1  0.65450000  0.39350000  0.87790000  1.0 -0.1312686687
C  C232  1  0.39350000  0.65450000  0.62210000  1.0 -0.1312686687
C  C233  1  0.04490000  0.00190000  0.73710000  1.0 0.0194443017
C  C234  1  0.00190000  0.04490000  0.76290000  1.0 0.0194443017
C  C235  1  0.00630000  0.02050000  0.76120000  1.0 0.0303199421
C  C236  1  0.02050000  0.00630000  0.73880000  1.0 0.0303199421
C  C237  1  0.90710000  0.95050000  0.76670000  1.0 0.0016253787
C  C238  1  0.95050000  0.90710000  0.73330000  1.0 0.0016253787
C  C239  1  0.84630000  0.86210000  0.74810000  1.0 -0.0186047445
C  C240  1  0.86210000  0.84630000  0.75190000  1.0 -0.0186047445
C  C241  1  0.88490000  0.84350000  0.72400000  1.0 -0.1025809494
C  C242  1  0.84350000  0.88490000  0.77600000  1.0 -0.1025809494
C  C243  1  0.98420000  0.91340000  0.71850000  1.0 -0.0703342007
C  C244  1  0.91340000  0.98420000  0.78150000  1.0 -0.0703342007
C  C245  1  0.15080000  0.08360000  0.72820000  1.0 0.0390168866
C  C246  1  0.08360000  0.15080000  0.77180000  1.0 0.0390168866
C  C247  1  0.18020000  0.14420000  0.68910000  1.0 0.0086843572
C  C248  1  0.14420000  0.18020000  0.81090000  1.0 0.0086843572
C  C249  1  0.27890000  0.22070000  0.68300000  1.0 0.0303199421
C  C250  1  0.22070000  0.27890000  0.81700000  1.0 0.0303199421
C  C251  1  0.34840000  0.23640000  0.71590000  1.0 -0.2543066514
C  C252  1  0.23640000  0.34840000  0.78410000  1.0 -0.2543066514
C  C253  1  0.31890000  0.17570000  0.75500000  1.0 -0.212453417
C  C254  1  0.17570000  0.31890000  0.74500000  1.0 -0.212453417
C  C255  1  0.22010000  0.09930000  0.76110000  1.0 0.1277197267
C  C256  1  0.09930000  0.22010000  0.73890000  1.0 0.1277197267
C  C257  1  0.53790000  0.31850000  0.83800000  1.0 -0.0396893154
C  C258  1  0.31850000  0.53790000  0.66200000  1.0 -0.0396893154
C  C259  1  0.61760000  0.32760000  0.84600000  1.0 0.0016253787
C  C260  1  0.32760000  0.61760000  0.65400000  1.0 0.0016253787
C  C261  1  0.70040000  0.40240000  0.82350000  1.0 -0.0811157606
C  C262  1  0.40240000  0.70040000  0.67650000  1.0 -0.0811157606
C  C263  1  0.70370000  0.46790000  0.79290000  1.0 -0.0703342007
C  C264  1  0.46790000  0.70370000  0.70710000  1.0 -0.0703342007
C  C265  1  0.62400000  0.45880000  0.78490000  1.0 -0.0114311107
C  C266  1  0.45880000  0.62400000  0.71510000  1.0 -0.0114311107
C  C267  1  0.54120000  0.38400000  0.80750000  1.0 0.0303199421
C  C268  1  0.38400000  0.54120000  0.69250000  1.0 0.0303199421
C  C269  1  0.64280000  0.54520000  0.76020000  1.0 -0.212453417
C  C270  1  0.54520000  0.64280000  0.73980000  1.0 -0.212453417
C  C271  1  0.61540000  0.25660000  0.87850000  1.0 -0.258611228
C  C272  1  0.25660000  0.61540000  0.62150000  1.0 -0.258611228
C  C273  1  0.47520000  0.30880000  0.91890000  1.0 -0.060160722
C  C274  1  0.30880000  0.47520000  0.58110000  1.0 -0.060160722
C  C275  1  0.45470000  0.37530000  0.79840000  1.0 -0.4215982367
C  C276  1  0.37530000  0.45470000  0.70160000  1.0 -0.4215982367
C  C277  1  0.43610000  0.22010000  0.85440000  1.0 0.0016253787
C  C278  1  0.22010000  0.43610000  0.64560000  1.0 0.0016253787
C  C279  1  0.41300000  0.21480000  0.89550000  1.0 0.0390168866
C  C280  1  0.21480000  0.41300000  0.60450000  1.0 0.0390168866
C  C281  1  0.32640000  0.12760000  0.91240000  1.0 -0.1393131983
C  C282  1  0.12760000  0.32640000  0.58760000  1.0 -0.1393131983
C  C283  1  0.26380000  0.04660000  0.88820000  1.0 -0.0396893154
C  C284  1  0.04660000  0.26380000  0.61180000  1.0 -0.0396893154
C  C285  1  0.28690000  0.05190000  0.84710000  1.0 -0.0871434372
C  C286  1  0.05190000  0.28690000  0.65290000  1.0 -0.0871434372
C  C287  1  0.37300000  0.13860000  0.83020000  1.0 -0.1312686687
C  C288  1  0.13860000  0.37300000  0.66980000  1.0 -0.1312686687
C  C289  1  0.18170000  0.03030000  0.80250000  1.0 -0.4215982367
C  C290  1  0.03030000  0.18170000  0.69750000  1.0 -0.4215982367
C  C291  1  0.10760000  0.13240000  0.65160000  1.0 -0.3597765376
C  C292  1  0.13240000  0.10760000  0.84840000  1.0 -0.3597765376
C  C293  1  0.30510000  0.28890000  0.64030000  1.0 -0.4442977388
C  C294  1  0.28890000  0.30510000  0.85970000  1.0 -0.4442977388
C  C295  1  0.07760000  0.12040000  0.77880000  1.0 -0.0114311107
C  C296  1  0.12040000  0.07760000  0.72120000  1.0 -0.0114311107
I  I1  1  0.13098000  0.34884000  0.89610000  1.0 0.0194443017
I  I2  1  0.65116000  0.86902000  0.39610000  1.0 0.0194443017
I  I3  1  0.94568000  0.22528000  0.00837000  1.0 -0.0396893154
I  I4  1  0.77472000  0.05432000  0.50837000  1.0 -0.0500281488
I  I5  1  0.84583000  0.63477000  0.56588000  1.0 -0.0871434372
I  I6  1  0.36523000  0.15417000  0.06588000  1.0 -0.0871434372
I  I7  1  0.64490000  0.61750000  0.63265000  1.0 0.0303199421
I  I8  1  0.38250000  0.35510000  0.13265000  1.0 0.0303199421
I  I9  1  0.95701000  0.69219000  0.70234000  1.0 0.0514748571
I  I10  1  0.30781000  0.04299000  0.20234000  1.0 0.0514748571
I  I11  1  0.01462000  0.53278000  0.80676000  1.0 -0.0396893154
I  I12  1  0.46722000  0.98538000  0.30676000  1.0 -0.0396893154
I  I13  1  0.84819000  0.61921000  0.55776000  1.0 -0.0703342007
I  I14  1  0.38079000  0.15181000  0.05776000  1.0 -0.0703342007
I  I15  1  0.66863000  0.62717000  0.62741000  1.0 0.0390168866
I  I16  1  0.37283000  0.33137000  0.12741000  1.0 0.0390168866
I  I17  1  0.12484000  0.34136000  0.90080000  1.0 -0.0114311107
I  I18  1  0.65864000  0.87516000  0.40080000  1.0 -0.0114311107
I  I19  1  0.94090000  0.23570000  0.00830000  1.0 -0.0186047445
I  I20  1  0.76430000  0.05910000  0.50830000  1.0 -0.0186047445
I  I21  1  0.12700000  0.33480000  0.87570000  1.0 0.0514748571
I  I22  1  0.66520000  0.87300000  0.37570000  1.0 0.0514748571
I  I23  1  0.97710000  0.26570000  0.99610000  1.0 -0.1592849344
I  I24  1  0.73430000  0.02290000  0.49610000  1.0 -0.1592849344
I  I25  1  0.86430000  0.58210000  0.55070000  1.0 -0.0114311107
I  I26  1  0.41790000  0.13570000  0.05070000  1.0 -0.0114311107
I  I27  1  0.72040000  0.63180000  0.61140000  1.0 -0.060160722
I  I28  1  0.36820000  0.27960000  0.11140000  1.0 -0.060160722
I  I29  1  0.95760000  0.70860000  0.70010000  1.0 -0.0323958445
I  I30  1  0.29140000  0.04240000  0.20010000  1.0 -0.0323958445
I  I31  1  0.99330000  0.52830000  0.79620000  1.0 -0.0871434372
I  I32  1  0.47170000  0.00670000  0.29620000  1.0 -0.0871434372
I  I33  1  0.04480000  0.53020000  0.83370000  1.0 -0.0049281863
I  I34  1  0.46980000  0.95520000  0.33370000  1.0 -0.0049281863
I  I35  1  0.95780000  0.63680000  0.72010000  1.0 -0.0396893154
I  I36  1  0.36320000  0.04220000  0.22010000  1.0 -0.0396893154
I  I37  1  0.34884000  0.13098000  0.60390000  1.0 0.0194443017
I  I38  1  0.86902000  0.65116000  0.10390000  1.0 0.0194443017
I  I39  1  0.22528000  0.94568000  0.49163000  1.0 -0.0396893154
I  I40  1  0.05432000  0.77472000  0.99163000  1.0 -0.0396893154
I  I41  1  0.63477000  0.84583000  0.93412000  1.0 -0.0871434372
I  I42  1  0.15417000  0.36523000  0.43412000  1.0 -0.0871434372
I  I43  1  0.61750000  0.64490000  0.86735000  1.0 0.0303199421
I  I44  1  0.35510000  0.38250000  0.36735000  1.0 0.0303199421
I  I45  1  0.69219000  0.95701000  0.79766000  1.0 0.0514748571
I  I46  1  0.04299000  0.30781000  0.29766000  1.0 0.0514748571
I  I47  1  0.53278000  0.01462000  0.69324000  1.0 -0.0396893154
I  I48  1  0.98538000  0.46722000  0.19324000  1.0 -0.0396893154
I  I49  1  0.61921000  0.84819000  0.94224000  1.0 -0.0703342007
I  I50  1  0.15181000  0.38079000  0.44224000  1.0 -0.0703342007
I  I51  1  0.62717000  0.66863000  0.87259000  1.0 0.0390168866
I  I52  1  0.33137000  0.37283000  0.37259000  1.0 0.0390168866
I  I53  1  0.34136000  0.12484000  0.59920000  1.0 -0.0114311107
I  I54  1  0.87516000  0.65864000  0.09920000  1.0 -0.0114311107
I  I55  1  0.23570000  0.94090000  0.49170000  1.0 -0.0186047445
I  I56  1  0.05910000  0.76430000  0.99170000  1.0 -0.0186047445
I  I57  1  0.33480000  0.12700000  0.62430000  1.0 0.0514748571
I  I58  1  0.87300000  0.66520000  0.12430000  1.0 0.0514748571
I  I59  1  0.26570000  0.97710000  0.50390000  1.0 -0.1592849344
I  I60  1  0.02290000  0.73430000  0.00390000  1.0 -0.1592849344
I  I61  1  0.58210000  0.86430000  0.94930000  1.0 -0.0114311107
I  I62  1  0.13570000  0.41790000  0.44930000  1.0 -0.0114311107
I  I63  1  0.63180000  0.72040000  0.88860000  1.0 -0.060160722
I  I64  1  0.27960000  0.36820000  0.38860000  1.0 -0.060160722
I  I65  1  0.70860000  0.95760000  0.79990000  1.0 -0.0323958445
I  I66  1  0.04240000  0.29140000  0.29990000  1.0 -0.0323958445
I  I67  1  0.52830000  0.99330000  0.70380000  1.0 -0.0871434372
I  I68  1  0.00670000  0.47170000  0.20380000  1.0 -0.0871434372
I  I69  1  0.53020000  0.04480000  0.66630000  1.0 -0.0114311107
I  I70  1  0.95520000  0.46980000  0.16630000  1.0 -0.0114311107
I  I71  1  0.63680000  0.95780000  0.77990000  1.0 -0.0396893154
I  I72  1  0.04220000  0.36320000  0.27990000  1.0 -0.0396893154
N  N1  1  0.66638000  0.22722000  0.77153000  1.0 -0.4215982367
N  N2  1  0.77278000  0.33362000  0.27153000  1.0 -0.4215982367
N  N3  1  0.79742000  0.74818000  0.97095000  1.0 -0.447240719
N  N4  1  0.25182000  0.20258000  0.47095000  1.0 -0.447240719
N  N5  1  0.54426000  0.07194000  0.80818000  1.0 -0.4119188038
N  N6  1  0.92806000  0.45574000  0.30818000  1.0 -0.4119188038
N  N7  1  0.79948000  0.64672000  0.93996000  1.0 -0.4299949616
N  N8  1  0.35328000  0.20052000  0.43996000  1.0 -0.4299949616
N  N9  1  0.86297000  0.19463000  0.88872000  1.0 -0.212453417
N  N10  1  0.80537000  0.13703000  0.38872000  1.0 -0.212453417
N  N11  1  0.50017000  0.13883000  0.74980000  1.0 -0.4215982367
N  N12  1  0.86117000  0.49983000  0.24980000  1.0 -0.4215982367
N  N13  1  0.89135000  0.81045000  0.91026000  1.0 -0.4119188038
N  N14  1  0.18955000  0.10865000  0.41026000  1.0 -0.4119188038
N  N15  1  0.55069000  0.42251000  0.05194000  1.0 -0.148437429
N  N16  1  0.57749000  0.44931000  0.55194000  1.0 -0.148437429
N  N17  1  0.66715000  0.43825000  0.64540000  1.0 -0.1202604209
N  N18  1  0.56175000  0.33285000  0.14540000  1.0 -0.1202604209
N  N19  1  0.97949000  0.69351000  0.82289000  1.0 -0.1901349435
N  N20  1  0.30649000  0.02051000  0.32289000  1.0 -0.1901349435
N  N21  1  0.17812000  0.80408000  0.77858000  1.0 -0.1901349435
N  N22  1  0.19592000  0.82188000  0.27858000  1.0 -0.1901349435
N  N23  1  0.93327000  0.08633000  0.93677000  1.0 -0.2543066514
N  N24  1  0.91367000  0.06673000  0.43677000  1.0 -0.2543066514
N  N25  1  0.22722000  0.66638000  0.72847000  1.0 -0.4215982367
N  N26  1  0.33362000  0.77278000  0.22847000  1.0 -0.4215982367
N  N27  1  0.74818000  0.79742000  0.52905000  1.0 -0.447240719
N  N28  1  0.20258000  0.25182000  0.02905000  1.0 -0.447240719
N  N29  1  0.07194000  0.54426000  0.69182000  1.0 -0.4119188038
N  N30  1  0.45574000  0.92806000  0.19182000  1.0 -0.4119188038
N  N31  1  0.64672000  0.79948000  0.56004000  1.0 -0.4299949616
N  N32  1  0.20052000  0.35328000  0.06004000  1.0 -0.4299949616
N  N33  1  0.19463000  0.86297000  0.61128000  1.0 -0.212453417
N  N34  1  0.13703000  0.80537000  0.11128000  1.0 -0.212453417
N  N35  1  0.13883000  0.50017000  0.75020000  1.0 -0.4215982367
N  N36  1  0.49983000  0.86117000  0.25020000  1.0 -0.4215982367
N  N37  1  0.81045000  0.89135000  0.58974000  1.0 -0.4119188038
N  N38  1  0.10865000  0.18955000  0.08974000  1.0 -0.4119188038
N  N39  1  0.42251000  0.55069000  0.44806000  1.0 -0.148437429
N  N40  1  0.44931000  0.57749000  0.94806000  1.0 -0.148437429
N  N41  1  0.43825000  0.66715000  0.85460000  1.0 -0.1202604209
N  N42  1  0.33285000  0.56175000  0.35460000  1.0 -0.1202604209
N  N43  1  0.69351000  0.97949000  0.67711000  1.0 -0.1901349435
N  N44  1  0.02051000  0.30649000  0.17711000  1.0 -0.1901349435
N  N45  1  0.80408000  0.17812000  0.72142000  1.0 -0.1901349435
N  N46  1  0.82188000  0.19592000  0.22142000  1.0 -0.1901349435
N  N47  1  0.08633000  0.93327000  0.56323000  1.0 -0.2543066514
N  N48  1  0.06673000  0.91367000  0.06323000  1.0 -0.2543066514
O  O1  1  0.96060000  0.83740000  0.22390000  1.0 -0.1202604209
O  O2  1  0.83740000  0.96060000  0.27610000  1.0 -0.1202604209
O  O3  1  0.59820000  0.70780000  0.06170000  1.0 -0.447240719
O  O4  1  0.70780000  0.59820000  0.43830000  1.0 -0.4442977388
O  O5  1  0.03940000  0.16260000  0.77610000  1.0 -0.1202604209
O  O6  1  0.16260000  0.03940000  0.72390000  1.0 -0.1202604209
O  O7  1  0.40180000  0.29220000  0.93830000  1.0 -0.447240719
O  O8  1  0.29220000  0.40180000  0.56170000  1.0 -0.447240719
