# DDEC6 charges by PACMAN v1.1 (https://github.com/mtap-research/PACMAN-charge/)
data_LIRKUW_FSR_pacman
_symmetry_space_group_name_H-M   'P 1'
_cell_length_a   19.31640000
_cell_length_b   19.31640000
_cell_length_c   30.99450000
_cell_angle_alpha   78.12220000
_cell_angle_beta   101.87800000
_cell_angle_gamma   134.44500000
_symmetry_Int_Tables_number   1
_chemical_formula_structural   Zn8H51C58I16N13O
_chemical_formula_sum   'Zn32 H204 C232 I64 N52 O4'
_cell_volume   8048.00162046
_cell_formula_units_Z   4
loop_
 _symmetry_equiv_pos_site_id
 _symmetry_equiv_pos_as_xyz
  1  'x, y, z'
loop_
 _atom_site_type_symbol
 _atom_site_label
 _atom_site_symmetry_multiplicity
 _atom_site_fract_x
 _atom_site_fract_y
 _atom_site_fract_z
 _atom_site_occupancy
 _atom_site_charge
Zn  Zn1  1  0.68150000  0.03930000  0.21780000  1.0 0.0812191065
Zn  Zn2  1  0.96070000  0.31850000  0.71780000  1.0 0.0888715425
Zn  Zn3  1  0.21650000  0.97510000  0.06620000  1.0 0.4013104967
Zn  Zn4  1  0.02490000  0.78350000  0.56620000  1.0 0.4013104967
Zn  Zn5  1  0.54220000  0.69500000  0.40580000  1.0 0.2492397568
Zn  Zn6  1  0.30500000  0.45780000  0.90580000  1.0 0.2492397568
Zn  Zn7  1  0.21430000  0.97170000  0.06440000  1.0 0.3943406037
Zn  Zn8  1  0.02830000  0.78570000  0.56440000  1.0 0.3943406037
Zn  Zn9  1  0.54960000  0.70260000  0.40260000  1.0 0.1999109118
Zn  Zn10  1  0.29740000  0.45040000  0.90260000  1.0 0.1999109118
Zn  Zn11  1  0.68730000  0.02210000  0.22820000  1.0 -0.0594853722
Zn  Zn12  1  0.97790000  0.31270000  0.72820000  1.0 -0.0594853722
Zn  Zn13  1  0.66300000  0.06300000  0.20100000  1.0 -0.0327073277
Zn  Zn14  1  0.93700000  0.33700000  0.70100000  1.0 -0.0195638166
Zn  Zn15  1  0.51890000  0.71570000  0.39630000  1.0 0.0696954411
Zn  Zn16  1  0.28430000  0.48110000  0.89630000  1.0 0.0812191065
Zn  Zn17  1  0.03930000  0.68150000  0.28220000  1.0 0.0888715425
Zn  Zn18  1  0.31850000  0.96070000  0.78220000  1.0 0.0888715425
Zn  Zn19  1  0.97510000  0.21650000  0.43380000  1.0 0.4013104967
Zn  Zn20  1  0.78350000  0.02490000  0.93380000  1.0 0.4013104967
Zn  Zn21  1  0.69500000  0.54220000  0.09420000  1.0 0.2492397568
Zn  Zn22  1  0.45780000  0.30500000  0.59420000  1.0 0.2492397568
Zn  Zn23  1  0.97170000  0.21430000  0.43560000  1.0 0.3943406037
Zn  Zn24  1  0.78570000  0.02830000  0.93560000  1.0 0.4013104967
Zn  Zn25  1  0.70260000  0.54960000  0.09740000  1.0 0.1999109118
Zn  Zn26  1  0.45040000  0.29740000  0.59740000  1.0 0.1999109118
Zn  Zn27  1  0.02210000  0.68730000  0.27180000  1.0 -0.0594853722
Zn  Zn28  1  0.31270000  0.97790000  0.77180000  1.0 -0.0594853722
Zn  Zn29  1  0.06300000  0.66300000  0.29900000  1.0 -0.0327073277
Zn  Zn30  1  0.33700000  0.93700000  0.79900000  1.0 -0.0195638166
Zn  Zn31  1  0.71570000  0.51890000  0.10370000  1.0 0.0812191065
Zn  Zn32  1  0.48110000  0.28430000  0.60370000  1.0 0.0812191065
H  H1  1  0.74916000  0.27536000  0.04733000  1.0 0.030877684
H  H2  1  0.72464000  0.25084000  0.54733000  1.0 0.030877684
H  H3  1  0.68284000  0.31366000  0.08120000  1.0 0.0888715425
H  H4  1  0.68634000  0.31716000  0.58120000  1.0 0.0888715425
H  H5  1  0.64620000  0.22786000  0.11974000  1.0 0.0493383221
H  H6  1  0.77214000  0.35380000  0.61974000  1.0 0.0493383221
H  H7  1  0.60475000  0.09869000  0.02267000  1.0 0.1201668053
H  H8  1  0.90131000  0.39525000  0.52267000  1.0 0.1201668053
H  H9  1  0.79043000  0.28703000  0.09834000  1.0 0.0888715425
H  H10  1  0.71297000  0.20957000  0.59834000  1.0 0.0888715425
H  H11  1  0.51099000  0.17473000  0.06938000  1.0 0.0696954411
H  H12  1  0.82527000  0.48901000  0.56938000  1.0 0.0696954411
H  H13  1  0.56724000  0.20062000  0.02866000  1.0 0.0812191065
H  H14  1  0.79938000  0.43276000  0.52866000  1.0 0.0812191065
H  H15  1  0.73849000  0.14525000  0.07397000  1.0 0.059649975
H  H16  1  0.85475000  0.26151000  0.57397000  1.0 0.059649975
H  H17  1  0.68036000  0.11690000  0.11442000  1.0 0.0812191065
H  H18  1  0.88310000  0.31964000  0.61442000  1.0 0.0812191065
H  H19  1  0.50597000  0.04745000  0.09817000  1.0 0.0696954411
H  H20  1  0.95255000  0.49403000  0.59817000  1.0 0.0696954411
H  H21  1  0.45730000  0.03004000  0.04818000  1.0 0.0888715425
H  H22  1  0.96996000  0.54270000  0.54818000  1.0 0.0888715425
H  H23  1  0.56774000  0.00872000  0.05874000  1.0 0.0812191065
H  H24  1  0.99128000  0.43226000  0.55874000  1.0 0.0812191065
H  H25  1  0.49765000  0.80705000  0.33669000  1.0 0.0812191065
H  H26  1  0.19296000  0.50235000  0.83669000  1.0 0.0888715425
H  H27  1  0.38631000  0.77373000  0.27877000  1.0 0.1201668053
H  H28  1  0.22627000  0.61369000  0.77877000  1.0 0.1201668053
H  H29  1  0.50536000  0.54058000  0.93511000  1.0 0.0996869645
H  H30  1  0.45942000  0.49464000  0.43511000  1.0 0.0996869645
H  H31  1  0.57588000  0.93076000  0.13570000  1.0 0.0888715425
H  H32  1  0.06924000  0.42412000  0.63570000  1.0 0.0888715425
H  H33  1  0.89125000  0.85137000  0.99815000  1.0 0.1396538756
H  H34  1  0.14863000  0.10875000  0.49815000  1.0 0.1396538756
H  H35  1  0.22589000  0.48845000  0.31452000  1.0 0.1201668053
H  H36  1  0.51155000  0.77411000  0.81452000  1.0 0.1201668053
H  H37  1  0.75428000  0.22854000  0.17698000  1.0 0.0888715425
H  H38  1  0.77146000  0.24572000  0.67698000  1.0 0.0888715425
H  H39  1  0.64338000  0.66080000  0.97891000  1.0 0.1308676114
H  H40  1  0.33920000  0.35662000  0.47891000  1.0 0.1308676114
H  H41  1  0.31683000  0.95393000  0.14983000  1.0 0.0888715425
H  H42  1  0.04607000  0.68317000  0.64983000  1.0 0.0888715425
H  H43  1  0.29641000  0.83571000  0.19615000  1.0 0.1201668053
H  H44  1  0.16429000  0.70359000  0.69615000  1.0 0.1201668053
H  H45  1  0.58794000  0.86244000  0.08724000  1.0 0.1201668053
H  H46  1  0.13756000  0.41206000  0.58724000  1.0 0.1201668053
H  H47  1  0.34582000  0.52716000  0.36641000  1.0 0.0996869645
H  H48  1  0.47284000  0.65418000  0.86641000  1.0 0.0996869645
H  H49  1  0.95955000  0.92449000  0.12272000  1.0 0.1396538756
H  H50  1  0.07551000  0.04045000  0.62272000  1.0 0.1396538756
H  H51  1  0.04096000  0.90220000  0.99916000  1.0 0.0812191065
H  H52  1  0.09780000  0.95904000  0.49916000  1.0 0.0812191065
H  H53  1  0.88684000  0.16494000  0.25666000  1.0 0.0888715425
H  H54  1  0.83506000  0.11316000  0.75666000  1.0 0.0888715425
H  H55  1  0.03925000  0.63539000  0.12785000  1.0 0.1201668053
H  H56  1  0.36461000  0.96075000  0.62785000  1.0 0.1201668053
H  H57  1  0.09912000  0.95502000  0.12364000  1.0 0.0996869645
H  H58  1  0.04498000  0.90088000  0.62364000  1.0 0.0996869645
H  H59  1  0.07029000  0.76165000  0.08373000  1.0 0.0812191065
H  H60  1  0.23835000  0.92971000  0.58373000  1.0 0.0812191065
H  H61  1  0.89250000  0.39248000  0.17479000  1.0 0.1308676114
H  H62  1  0.60752000  0.10750000  0.67479000  1.0 0.1308676114
H  H63  1  0.02652000  0.32728000  0.26234000  1.0 0.1308676114
H  H64  1  0.67272000  0.97348000  0.76234000  1.0 0.1308676114
H  H65  1  0.47780000  0.69126000  0.01862000  1.0 0.1308676114
H  H66  1  0.30874000  0.52220000  0.51862000  1.0 0.1308676114
H  H67  1  0.83452000  0.95786000  0.15794000  1.0 0.1308676114
H  H68  1  0.04214000  0.16548000  0.65794000  1.0 0.1308676114
H  H69  1  0.34407000  0.55799000  0.97738000  1.0 0.0696954411
H  H70  1  0.44201000  0.65593000  0.47738000  1.0 0.0696954411
H  H71  1  0.81758000  0.03104000  0.20164000  1.0 0.0888715425
H  H72  1  0.96896000  0.18242000  0.70164000  1.0 0.0888715425
H  H73  1  0.43414000  0.04494000  0.97452000  1.0 0.0812191065
H  H74  1  0.95506000  0.56586000  0.47452000  1.0 0.0812191065
H  H75  1  0.46448000  0.12560000  0.03278000  1.0 0.0696954411
H  H76  1  0.87440000  0.53552000  0.53278000  1.0 0.0696954411
H  H77  1  0.75309000  0.15819000  0.05939000  1.0 0.0696954411
H  H78  1  0.84181000  0.24691000  0.55939000  1.0 0.0696954411
H  H79  1  0.82849000  0.19617000  0.10264000  1.0 0.0888715425
H  H80  1  0.80383000  0.17151000  0.60264000  1.0 0.0888715425
H  H81  1  0.56410000  0.09256000  0.94340000  1.0 0.1201668053
H  H82  1  0.90744000  0.43590000  0.44340000  1.0 0.1201668053
H  H83  1  0.59107000  0.18619000  0.12781000  1.0 0.1396538756
H  H84  1  0.81381000  0.40893000  0.62781000  1.0 0.1396538756
H  H85  1  0.72438000  0.22086000  0.97053000  1.0 0.1201668053
H  H86  1  0.77914000  0.27562000  0.47053000  1.0 0.1201668053
H  H87  1  0.97513000  0.56459000  0.02422000  1.0 0.1201668053
H  H88  1  0.43541000  0.02487000  0.52422000  1.0 0.1201668053
H  H89  1  0.96693000  0.36317000  0.10220000  1.0 0.1201668053
H  H90  1  0.63683000  0.03307000  0.60220000  1.0 0.1201668053
H  H91  1  0.73300000  0.17712000  0.10116000  1.0 0.0493383221
H  H92  1  0.82288000  0.26700000  0.60116000  1.0 0.0493383221
H  H93  1  0.55339000  0.24275000  0.07512000  1.0 0.0812191065
H  H94  1  0.75725000  0.44661000  0.57512000  1.0 0.0812191065
H  H95  1  0.66700000  0.33632000  0.06988000  1.0 0.0696954411
H  H96  1  0.66368000  0.33300000  0.56988000  1.0 0.0696954411
H  H97  1  0.76778000  0.46722000  0.00143000  1.0 0.1133363611
H  H98  1  0.53278000  0.23222000  0.50143000  1.0 0.1133363611
H  H99  1  0.84744000  0.51652000  0.96780000  1.0 0.1308676114
H  H100  1  0.48348000  0.15256000  0.46780000  1.0 0.1308676114
H  H101  1  0.74738000  0.40490000  0.96538000  1.0 0.1396538756
H  H102  1  0.59510000  0.25262000  0.46538000  1.0 0.1396538756
H  H103  1  0.27536000  0.74916000  0.45267000  1.0 0.030877684
H  H104  1  0.25084000  0.72464000  0.95267000  1.0 0.030877684
H  H105  1  0.31366000  0.68284000  0.41880000  1.0 0.0888715425
H  H106  1  0.31716000  0.68634000  0.91880000  1.0 0.0888715425
H  H107  1  0.22786000  0.64620000  0.38026000  1.0 0.0493383221
H  H108  1  0.35380000  0.77214000  0.88026000  1.0 0.0493383221
H  H109  1  0.09869000  0.60475000  0.47733000  1.0 0.1201668053
H  H110  1  0.39525000  0.90131000  0.97733000  1.0 0.1201668053
H  H111  1  0.28703000  0.79043000  0.40166000  1.0 0.0888715425
H  H112  1  0.20957000  0.71297000  0.90166000  1.0 0.0888715425
H  H113  1  0.17473000  0.51099000  0.43062000  1.0 0.0696954411
H  H114  1  0.48901000  0.82527000  0.93062000  1.0 0.0696954411
H  H115  1  0.20062000  0.56724000  0.47134000  1.0 0.0812191065
H  H116  1  0.43276000  0.79938000  0.97134000  1.0 0.0812191065
H  H117  1  0.14525000  0.73849000  0.42603000  1.0 0.059649975
H  H118  1  0.26151000  0.85475000  0.92603000  1.0 0.059649975
H  H119  1  0.11690000  0.68036000  0.38558000  1.0 0.0812191065
H  H120  1  0.31964000  0.88310000  0.88558000  1.0 0.0812191065
H  H121  1  0.04745000  0.50597000  0.40183000  1.0 0.0696954411
H  H122  1  0.49403000  0.95255000  0.90183000  1.0 0.0696954411
H  H123  1  0.03004000  0.45730000  0.45182000  1.0 0.0888715425
H  H124  1  0.54270000  0.96996000  0.95182000  1.0 0.0888715425
H  H125  1  0.00872000  0.56774000  0.44126000  1.0 0.0812191065
H  H126  1  0.43226000  0.99128000  0.94126000  1.0 0.0812191065
H  H127  1  0.80705000  0.49765000  0.16331000  1.0 0.0812191065
H  H128  1  0.50236000  0.19295000  0.66331000  1.0 0.0812191065
H  H129  1  0.77373000  0.38631000  0.22123000  1.0 0.1201668053
H  H130  1  0.61369000  0.22627000  0.72123000  1.0 0.1201668053
H  H131  1  0.54058000  0.50536000  0.56489000  1.0 0.0996869645
H  H132  1  0.49464000  0.45942000  0.06489000  1.0 0.0996869645
H  H133  1  0.93076000  0.57588000  0.36430000  1.0 0.0888715425
H  H134  1  0.42412000  0.06924000  0.86430000  1.0 0.0888715425
H  H135  1  0.85137000  0.89125000  0.50185000  1.0 0.1396538756
H  H136  1  0.10875000  0.14863000  0.00185000  1.0 0.1396538756
H  H137  1  0.48845000  0.22589000  0.18548000  1.0 0.1201668053
H  H138  1  0.77411000  0.51155000  0.68548000  1.0 0.1201668053
H  H139  1  0.22854000  0.75428000  0.32302000  1.0 0.0888715425
H  H140  1  0.24572000  0.77146000  0.82302000  1.0 0.0888715425
H  H141  1  0.66080000  0.64338000  0.52109000  1.0 0.1308676114
H  H142  1  0.35662000  0.33920000  0.02109000  1.0 0.1308676114
H  H143  1  0.95393000  0.31683000  0.35017000  1.0 0.0888715425
H  H144  1  0.68317000  0.04607000  0.85017000  1.0 0.0888715425
H  H145  1  0.83571000  0.29641000  0.30385000  1.0 0.1201668053
H  H146  1  0.70359000  0.16429000  0.80385000  1.0 0.1201668053
H  H147  1  0.86244000  0.58794000  0.41276000  1.0 0.1201668053
H  H148  1  0.41206000  0.13756000  0.91276000  1.0 0.1201668053
H  H149  1  0.52716000  0.34582000  0.13359000  1.0 0.0996869645
H  H150  1  0.65418000  0.47284000  0.63359000  1.0 0.0996869645
H  H151  1  0.92449000  0.95955000  0.37728000  1.0 0.1396538756
H  H152  1  0.04045000  0.07551000  0.87728000  1.0 0.1396538756
H  H153  1  0.90220000  0.04096000  0.50084000  1.0 0.0812191065
H  H154  1  0.95904000  0.09780000  0.00084000  1.0 0.0812191065
H  H155  1  0.16494000  0.88684000  0.24334000  1.0 0.0888715425
H  H156  1  0.11316000  0.83506000  0.74334000  1.0 0.0888715425
H  H157  1  0.63539000  0.03925000  0.37215000  1.0 0.1201668053
H  H158  1  0.96075000  0.36461000  0.87215000  1.0 0.1201668053
H  H159  1  0.95502000  0.09912000  0.37636000  1.0 0.0996869645
H  H160  1  0.90088000  0.04498000  0.87636000  1.0 0.0996869645
H  H161  1  0.76165000  0.07029000  0.41627000  1.0 0.0812191065
H  H162  1  0.92971000  0.23835000  0.91627000  1.0 0.0812191065
H  H163  1  0.39248000  0.89250000  0.32521000  1.0 0.1308676114
H  H164  1  0.10750000  0.60752000  0.82521000  1.0 0.1308676114
H  H165  1  0.32728000  0.02652000  0.23766000  1.0 0.1308676114
H  H166  1  0.97348000  0.67272000  0.73766000  1.0 0.1308676114
H  H167  1  0.69126000  0.47780000  0.48138000  1.0 0.1308676114
H  H168  1  0.52220000  0.30874000  0.98138000  1.0 0.1308676114
H  H169  1  0.95786000  0.83452000  0.34206000  1.0 0.1308676114
H  H170  1  0.16548000  0.04214000  0.84206000  1.0 0.1308676114
H  H171  1  0.55799000  0.34407000  0.52262000  1.0 0.0696954411
H  H172  1  0.65593000  0.44201000  0.02262000  1.0 0.0696954411
H  H173  1  0.03104000  0.81758000  0.29836000  1.0 0.0888715425
H  H174  1  0.18242000  0.96896000  0.79836000  1.0 0.0888715425
H  H175  1  0.04494000  0.43414000  0.52548000  1.0 0.0812191065
H  H176  1  0.56586000  0.95506000  0.02548000  1.0 0.0812191065
H  H177  1  0.12560000  0.46448000  0.46722000  1.0 0.0696954411
H  H178  1  0.53552000  0.87440000  0.96722000  1.0 0.0696954411
H  H179  1  0.15819000  0.75309000  0.44061000  1.0 0.0696954411
H  H180  1  0.24691000  0.84181000  0.94061000  1.0 0.0696954411
H  H181  1  0.19617000  0.82849000  0.39736000  1.0 0.0888715425
H  H182  1  0.17151000  0.80383000  0.89736000  1.0 0.0888715425
H  H183  1  0.09256000  0.56410000  0.55660000  1.0 0.1201668053
H  H184  1  0.43590000  0.90744000  0.05660000  1.0 0.1201668053
H  H185  1  0.18619000  0.59107000  0.37219000  1.0 0.1396538756
H  H186  1  0.40893000  0.81381000  0.87219000  1.0 0.1396538756
H  H187  1  0.22086000  0.72438000  0.52947000  1.0 0.1201668053
H  H188  1  0.27562000  0.77914000  0.02947000  1.0 0.1201668053
H  H189  1  0.56459000  0.97513000  0.47578000  1.0 0.1201668053
H  H190  1  0.02487000  0.43541000  0.97578000  1.0 0.1201668053
H  H191  1  0.36317000  0.96693000  0.39780000  1.0 0.1201668053
H  H192  1  0.03307000  0.63683000  0.89780000  1.0 0.1201668053
H  H193  1  0.17712000  0.73300000  0.39884000  1.0 0.0493383221
H  H194  1  0.26700000  0.82288000  0.89884000  1.0 0.0493383221
H  H195  1  0.24275000  0.55339000  0.42488000  1.0 0.0812191065
H  H196  1  0.44661000  0.75725000  0.92488000  1.0 0.0812191065
H  H197  1  0.33632000  0.66700000  0.43012000  1.0 0.0696954411
H  H198  1  0.33300000  0.66368000  0.93012000  1.0 0.0696954411
H  H199  1  0.46722000  0.76778000  0.49857000  1.0 0.1133363611
H  H200  1  0.23222000  0.53278000  0.99857000  1.0 0.1133363611
H  H201  1  0.51652000  0.84744000  0.53220000  1.0 0.1308676114
H  H202  1  0.15256000  0.48348000  0.03220000  1.0 0.1308676114
H  H203  1  0.40490000  0.74738000  0.53462000  1.0 0.1396538756
H  H204  1  0.25262000  0.59510000  0.03462000  1.0 0.1396538756
C  C1  1  0.73130000  0.24670000  0.07800000  1.0 -0.0327073277
C  C2  1  0.75330000  0.26870000  0.57800000  1.0 -0.0327073277
C  C3  1  0.65680000  0.24720000  0.08800000  1.0 0.0696954411
C  C4  1  0.75280000  0.34320000  0.58800000  1.0 0.0696954411
C  C5  1  0.69080000  0.14320000  0.08300000  1.0 -0.1097154328
C  C6  1  0.85680000  0.30920000  0.58300000  1.0 -0.1097154328
C  C7  1  0.55900000  0.17700000  0.06000000  1.0 -0.0327073277
C  C8  1  0.82300000  0.44100000  0.56000000  1.0 -0.0327073277
C  C9  1  0.59410000  0.07590000  0.05400000  1.0 -0.2211355874
C  C10  1  0.92410000  0.40590000  0.55400000  1.0 -0.2211355874
C  C11  1  0.51890000  0.07310000  0.06700000  1.0 -0.1894216602
C  C12  1  0.92690000  0.48110000  0.56700000  1.0 -0.1894216602
C  C13  1  0.21450000  0.59890000  0.25490000  1.0 0.3561475417
C  C14  1  0.40110000  0.78550000  0.75490000  1.0 0.3561475417
C  C15  1  0.65840000  0.76660000  0.03250000  1.0 0.3283829233
C  C16  1  0.23340000  0.34160000  0.53250000  1.0 0.3283829233
C  C17  1  0.81630000  0.85630000  0.05900000  1.0 0.337101168
C  C18  1  0.14370000  0.18370000  0.55900000  1.0 0.337101168
C  C19  1  0.29202000  0.62538000  0.29120000  1.0 0.0493383221
C  C20  1  0.37462000  0.70798000  0.79120000  1.0 0.0493383221
C  C21  1  0.71190000  0.90190000  0.11660000  1.0 0.030877684
C  C22  1  0.09810000  0.28810000  0.61660000  1.0 0.030877684
C  C23  1  0.57390000  0.68770000  0.00410000  1.0 0.0493383221
C  C24  1  0.31230000  0.42610000  0.50410000  1.0 0.0493383221
C  C25  1  0.91090000  0.88430000  0.05910000  1.0 0.059649975
C  C26  1  0.11570000  0.08910000  0.55910000  1.0 0.059649975
C  C27  1  0.15270000  0.64210000  0.19870000  1.0 0.3502594224
C  C28  1  0.35790000  0.84730000  0.69870000  1.0 0.3502594224
C  C29  1  0.72260000  0.86160000  0.08660000  1.0 0.3107833555
C  C30  1  0.13840000  0.27740000  0.58660000  1.0 0.3107833555
C  C31  1  0.44290000  0.74110000  0.33090000  1.0 -0.1097154328
C  C32  1  0.25890000  0.55710000  0.83090000  1.0 -0.1097154328
C  C33  1  0.06740000  0.48540000  0.21910000  1.0 0.3502594224
C  C34  1  0.51460000  0.93260000  0.71910000  1.0 0.3502594224
C  C35  1  0.37630000  0.72230000  0.29750000  1.0 -0.1512532909
C  C36  1  0.27770000  0.62370000  0.79750000  1.0 -0.1512532909
C  C37  1  0.16790000  0.72070000  0.16740000  1.0 0.0696954411
C  C38  1  0.27930000  0.83210000  0.66740000  1.0 0.0696954411
C  C39  1  0.50010000  0.57190000  0.95230000  1.0 0.059649975
C  C40  1  0.42810000  0.49990000  0.45230000  1.0 0.059649975
C  C41  1  0.63040000  0.93740000  0.14020000  1.0 -0.009630391
C  C42  1  0.06260000  0.36960000  0.64020000  1.0 -0.009630391
C  C43  1  0.97650000  0.37810000  0.21810000  1.0 0.0493383221
C  C44  1  0.62190000  0.02350000  0.71810000  1.0 0.0493383221
C  C45  1  0.93540000  0.87640000  0.02400000  1.0 -0.1512532909
C  C46  1  0.12360000  0.06460000  0.52400000  1.0 -0.1512532909
C  C47  1  0.28300000  0.55500000  0.31790000  1.0 -0.1512532909
C  C48  1  0.44500000  0.71700000  0.81790000  1.0 -0.1512532909
C  C49  1  0.81150000  0.24890000  0.19440000  1.0 -0.0327073277
C  C50  1  0.75110000  0.18850000  0.69440000  1.0 -0.0327073277
C  C51  1  0.58350000  0.64330000  0.97850000  1.0 -0.1411584617
C  C52  1  0.35670000  0.41650000  0.47850000  1.0 -0.1411584617
C  C53  1  0.26030000  0.88790000  0.14510000  1.0 0.030877684
C  C54  1  0.11210000  0.73970000  0.64510000  1.0 0.030877684
C  C55  1  0.24820000  0.81800000  0.17240000  1.0 -0.1411584617
C  C56  1  0.18200000  0.75180000  0.67240000  1.0 -0.1411584617
C  C57  1  0.63680000  0.89540000  0.11100000  1.0 -0.1512532909
C  C58  1  0.10460000  0.36320000  0.61100000  1.0 -0.1512532909
C  C59  1  0.35380000  0.57860000  0.34890000  1.0 -0.009630391
C  C60  1  0.42140000  0.64620000  0.84890000  1.0 -0.009630391
C  C61  1  0.97370000  0.91670000  0.09750000  1.0 -0.1411584617
C  C62  1  0.08330000  0.02630000  0.59750000  1.0 -0.1411584617
C  C63  1  0.02300000  0.90380000  0.02500000  1.0 0.0493383221
C  C64  1  0.09620000  0.97700000  0.52500000  1.0 0.0493383221
C  C65  1  0.88730000  0.21290000  0.24070000  1.0 0.0395176331
C  C66  1  0.78710000  0.11270000  0.74070000  1.0 0.0395176331
C  C67  1  0.09820000  0.70040000  0.13290000  1.0 -0.158651479
C  C68  1  0.29960000  0.90180000  0.63290000  1.0 -0.158651479
C  C69  1  0.05730000  0.93690000  0.09710000  1.0 0.059649975
C  C70  1  0.06310000  0.94270000  0.59710000  1.0 0.0493383221
C  C71  1  0.11790000  0.77610000  0.10730000  1.0 0.0395176331
C  C72  1  0.22390000  0.88210000  0.60730000  1.0 0.0395176331
C  C73  1  0.89350000  0.34710000  0.19290000  1.0 -0.158651479
C  C74  1  0.65290000  0.10650000  0.69290000  1.0 -0.158651479
C  C75  1  0.97190000  0.30930000  0.24320000  1.0 -0.1321798106
C  C76  1  0.69070000  0.02810000  0.74320000  1.0 -0.1321798106
C  C77  1  0.48570000  0.66030000  0.00270000  1.0 -0.158651479
C  C78  1  0.33970000  0.51430000  0.50270000  1.0 -0.158651479
C  C79  1  0.78020000  0.95180000  0.15180000  1.0 -0.1216930356
C  C80  1  0.04820000  0.21980000  0.65180000  1.0 -0.1216930356
C  C81  1  0.40730000  0.58350000  0.97620000  1.0 -0.0516687569
C  C82  1  0.41650000  0.59270000  0.47620000  1.0 -0.0516687569
C  C83  1  0.76850000  0.99410000  0.17860000  1.0 0.059649975
C  C84  1  0.00590000  0.23150000  0.67860000  1.0 0.059649975
C  C85  1  0.78400000  0.20000000  0.08400000  1.0 -0.2019652286
C  C86  1  0.80000000  0.21600000  0.58400000  1.0 -0.2019652286
C  C87  1  0.69010000  0.24990000  0.01780000  1.0 -0.0327073277
C  C88  1  0.75010000  0.30990000  0.51780000  1.0 -0.0358275475
C  C89  1  0.67210000  0.20190000  0.98320000  1.0 -0.1512532909
C  C90  1  0.79810000  0.32790000  0.48320000  1.0 -0.1512532909
C  C91  1  0.57650000  0.12550000  0.96700000  1.0 -0.1216930356
C  C92  1  0.87450000  0.42350000  0.46700000  1.0 -0.1216930356
C  C93  1  0.61270000  0.22130000  0.03630000  1.0 -0.009630391
C  C94  1  0.77870000  0.38730000  0.53630000  1.0 -0.009630391
C  C95  1  0.61740000  0.26460000  0.07420000  1.0 -0.0806672686
C  C96  1  0.73540000  0.38260000  0.57420000  1.0 -0.0806672686
C  C97  1  0.49910000  0.09690000  0.98550000  1.0 -0.1411584617
C  C98  1  0.90310000  0.50090000  0.48550000  1.0 -0.1411584617
C  C99  1  0.51720000  0.14480000  0.02010000  1.0 -0.0706303724
C  C100  1  0.85520000  0.48280000  0.52010000  1.0 -0.0706303724
C  C101  1  0.79390000  0.32810000  0.03340000  1.0 -0.0516687569
C  C102  1  0.67190000  0.20610000  0.53340000  1.0 -0.0516687569
C  C103  1  0.84480000  0.42520000  0.01830000  1.0 0.0888715425
C  C104  1  0.57480000  0.15520000  0.51830000  1.0 0.0888715425
C  C105  1  0.94100000  0.49900000  0.03450000  1.0 -0.2211355874
C  C106  1  0.50100000  0.05900000  0.53450000  1.0 -0.2211355874
C  C107  1  0.98640000  0.47560000  0.06580000  1.0 0.0493383221
C  C108  1  0.52440000  0.01360000  0.56580000  1.0 0.0493383221
C  C109  1  0.93540000  0.37860000  0.08080000  1.0 -0.1822968184
C  C110  1  0.62140000  0.06460000  0.58080000  1.0 -0.1822968184
C  C111  1  0.84020000  0.30580000  0.06460000  1.0 0.0493383221
C  C112  1  0.69420000  0.15980000  0.56460000  1.0 0.0493383221
C  C113  1  0.08750000  0.55250000  0.08320000  1.0 0.2492397568
C  C114  1  0.44750000  0.91250000  0.58320000  1.0 0.2492397568
C  C115  1  0.79760000  0.45640000  0.98520000  1.0 -0.4779270673
C  C116  1  0.54360000  0.20240000  0.48520000  1.0 -0.4779270673
C  C117  1  0.24670000  0.73130000  0.42200000  1.0 -0.0327073277
C  C118  1  0.26870000  0.75330000  0.92200000  1.0 -0.0327073277
C  C119  1  0.24720000  0.65680000  0.41200000  1.0 0.0696954411
C  C120  1  0.34320000  0.75280000  0.91200000  1.0 0.0696954411
C  C121  1  0.14320000  0.69080000  0.41700000  1.0 -0.1097154328
C  C122  1  0.30920000  0.85680000  0.91700000  1.0 -0.1097154328
C  C123  1  0.17700000  0.55900000  0.44000000  1.0 -0.0327073277
C  C124  1  0.44100000  0.82300000  0.94000000  1.0 -0.0327073277
C  C125  1  0.07590000  0.59410000  0.44600000  1.0 -0.2273026317
C  C126  1  0.40590000  0.92410000  0.94600000  1.0 -0.2273026317
C  C127  1  0.07310000  0.51890000  0.43300000  1.0 -0.1894216602
C  C128  1  0.48110000  0.92690000  0.93300000  1.0 -0.1894216602
C  C129  1  0.59890000  0.21450000  0.24510000  1.0 0.3561475417
C  C130  1  0.78550000  0.40110000  0.74510000  1.0 0.3561475417
C  C131  1  0.76660000  0.65840000  0.46750000  1.0 0.3283829233
C  C132  1  0.34160000  0.23340000  0.96750000  1.0 0.3283829233
C  C133  1  0.85630000  0.81630000  0.44100000  1.0 0.337101168
C  C134  1  0.18370000  0.14370000  0.94100000  1.0 0.337101168
C  C135  1  0.62538000  0.29202000  0.20880000  1.0 0.0493383221
C  C136  1  0.70798000  0.37462000  0.70880000  1.0 0.0493383221
C  C137  1  0.90190000  0.71190000  0.38340000  1.0 0.030877684
C  C138  1  0.28810000  0.09810000  0.88340000  1.0 0.030877684
C  C139  1  0.68770000  0.57390000  0.49590000  1.0 0.0493383221
C  C140  1  0.42610000  0.31230000  0.99590000  1.0 0.0493383221
C  C141  1  0.88430000  0.91090000  0.44090000  1.0 0.059649975
C  C142  1  0.08910000  0.11570000  0.94090000  1.0 0.059649975
C  C143  1  0.64210000  0.15270000  0.30130000  1.0 0.3502594224
C  C144  1  0.84730000  0.35790000  0.80130000  1.0 0.3502594224
C  C145  1  0.86160000  0.72260000  0.41340000  1.0 0.3107833555
C  C146  1  0.27740000  0.13840000  0.91340000  1.0 0.3107833555
C  C147  1  0.74110000  0.44290000  0.16910000  1.0 -0.1097154328
C  C148  1  0.55710000  0.25890000  0.66910000  1.0 -0.1097154328
C  C149  1  0.48540000  0.06740000  0.28090000  1.0 0.3502594224
C  C150  1  0.93260000  0.51460000  0.78090000  1.0 0.3502594224
C  C151  1  0.72230000  0.37630000  0.20250000  1.0 -0.1512532909
C  C152  1  0.62370000  0.27770000  0.70250000  1.0 -0.1512532909
C  C153  1  0.72070000  0.16790000  0.33260000  1.0 0.0696954411
C  C154  1  0.83210000  0.27930000  0.83260000  1.0 0.0696954411
C  C155  1  0.57190000  0.50010000  0.54770000  1.0 0.059649975
C  C156  1  0.49990000  0.42810000  0.04770000  1.0 0.059649975
C  C157  1  0.93740000  0.63040000  0.35980000  1.0 -0.009630391
C  C158  1  0.36960000  0.06260000  0.85980000  1.0 -0.009630391
C  C159  1  0.37810000  0.97650000  0.28190000  1.0 0.0493383221
C  C160  1  0.02350000  0.62190000  0.78190000  1.0 0.0493383221
C  C161  1  0.87640000  0.93540000  0.47600000  1.0 -0.1512532909
C  C162  1  0.06460000  0.12360000  0.97600000  1.0 -0.1512532909
C  C163  1  0.55500000  0.28300000  0.18210000  1.0 -0.1512532909
C  C164  1  0.71700000  0.44500000  0.68210000  1.0 -0.158651479
C  C165  1  0.24890000  0.81150000  0.30560000  1.0 -0.0327073277
C  C166  1  0.18850000  0.75110000  0.80560000  1.0 -0.0327073277
C  C167  1  0.64330000  0.58350000  0.52150000  1.0 -0.1411584617
C  C168  1  0.41650000  0.35670000  0.02150000  1.0 -0.1411584617
C  C169  1  0.88790000  0.26030000  0.35490000  1.0 0.030877684
C  C170  1  0.73970000  0.11210000  0.85490000  1.0 0.030877684
C  C171  1  0.81800000  0.24820000  0.32760000  1.0 -0.1411584617
C  C172  1  0.75180000  0.18200000  0.82760000  1.0 -0.1411584617
C  C173  1  0.89540000  0.63680000  0.38900000  1.0 -0.1512532909
C  C174  1  0.36320000  0.10460000  0.88900000  1.0 -0.1512532909
C  C175  1  0.57860000  0.35380000  0.15110000  1.0 -0.009630391
C  C176  1  0.64620000  0.42140000  0.65110000  1.0 -0.009630391
C  C177  1  0.91670000  0.97370000  0.40250000  1.0 -0.1411584617
C  C178  1  0.02630000  0.08330000  0.90250000  1.0 -0.1411584617
C  C179  1  0.90380000  0.02300000  0.47500000  1.0 0.0493383221
C  C180  1  0.97700000  0.09620000  0.97500000  1.0 0.0493383221
C  C181  1  0.21290000  0.88730000  0.25930000  1.0 0.0395176331
C  C182  1  0.11270000  0.78710000  0.75930000  1.0 0.0395176331
C  C183  1  0.70040000  0.09820000  0.36710000  1.0 -0.158651479
C  C184  1  0.90180000  0.29960000  0.86710000  1.0 -0.158651479
C  C185  1  0.93690000  0.05730000  0.40290000  1.0 0.0493383221
C  C186  1  0.94270000  0.06310000  0.90290000  1.0 0.0493383221
C  C187  1  0.77610000  0.11790000  0.39270000  1.0 0.0395176331
C  C188  1  0.88210000  0.22390000  0.89270000  1.0 0.0395176331
C  C189  1  0.34710000  0.89350000  0.30710000  1.0 -0.158651479
C  C190  1  0.10650000  0.65290000  0.80710000  1.0 -0.158651479
C  C191  1  0.30930000  0.97190000  0.25680000  1.0 -0.1321798106
C  C192  1  0.02810000  0.69070000  0.75680000  1.0 -0.1321798106
C  C193  1  0.66030000  0.48570000  0.49730000  1.0 -0.158651479
C  C194  1  0.51430000  0.33970000  0.99730000  1.0 -0.158651479
C  C195  1  0.95180000  0.78020000  0.34820000  1.0 -0.1216930356
C  C196  1  0.21980000  0.04820000  0.84820000  1.0 -0.1216930356
C  C197  1  0.58350000  0.40730000  0.52380000  1.0 -0.0516687569
C  C198  1  0.59270000  0.41650000  0.02380000  1.0 -0.0516687569
C  C199  1  0.99410000  0.76850000  0.32140000  1.0 0.059649975
C  C200  1  0.23150000  0.00590000  0.82140000  1.0 0.059649975
C  C201  1  0.20000000  0.78400000  0.41600000  1.0 -0.2019652286
C  C202  1  0.21600000  0.80000000  0.91600000  1.0 -0.2019652286
C  C203  1  0.24990000  0.69010000  0.48220000  1.0 -0.0358275475
C  C204  1  0.30990000  0.75010000  0.98220000  1.0 -0.0358275475
C  C205  1  0.20190000  0.67210000  0.51680000  1.0 -0.1512532909
C  C206  1  0.32790000  0.79810000  0.01680000  1.0 -0.1512532909
C  C207  1  0.12550000  0.57650000  0.53300000  1.0 -0.1216930356
C  C208  1  0.42350000  0.87450000  0.03300000  1.0 -0.1216930356
C  C209  1  0.22130000  0.61270000  0.46370000  1.0 -0.009630391
C  C210  1  0.38730000  0.77870000  0.96370000  1.0 -0.009630391
C  C211  1  0.26460000  0.61740000  0.42580000  1.0 -0.0806672686
C  C212  1  0.38260000  0.73540000  0.92580000  1.0 -0.0806672686
C  C213  1  0.09690000  0.49910000  0.51450000  1.0 -0.1411584617
C  C214  1  0.50090000  0.90310000  0.01450000  1.0 -0.1411584617
C  C215  1  0.14480000  0.51720000  0.47990000  1.0 -0.0706303724
C  C216  1  0.48280000  0.85520000  0.97990000  1.0 -0.0706303724
C  C217  1  0.32810000  0.79390000  0.46660000  1.0 -0.0516687569
C  C218  1  0.20610000  0.67190000  0.96660000  1.0 -0.0516687569
C  C219  1  0.42520000  0.84480000  0.48170000  1.0 0.0888715425
C  C220  1  0.15520000  0.57480000  0.98170000  1.0 0.0888715425
C  C221  1  0.49900000  0.94100000  0.46550000  1.0 -0.2211355874
C  C222  1  0.05900000  0.50100000  0.96550000  1.0 -0.2211355874
C  C223  1  0.47560000  0.98640000  0.43420000  1.0 0.0493383221
C  C224  1  0.01360000  0.52440000  0.93420000  1.0 0.0493383221
C  C225  1  0.37860000  0.93540000  0.41920000  1.0 -0.1822968184
C  C226  1  0.06460000  0.62140000  0.91920000  1.0 -0.1822968184
C  C227  1  0.30580000  0.84020000  0.43540000  1.0 0.0493383221
C  C228  1  0.15980000  0.69420000  0.93540000  1.0 0.0493383221
C  C229  1  0.55250000  0.08750000  0.41680000  1.0 0.2492397568
C  C230  1  0.91250000  0.44750000  0.91680000  1.0 0.2492397568
C  C231  1  0.45640000  0.79760000  0.51480000  1.0 -0.4779270673
C  C232  1  0.20240000  0.54360000  0.01480000  1.0 -0.4779270673
I  I1  1  0.69931000  0.96809000  0.29503000  1.0 -0.0594853722
I  I2  1  0.03191000  0.30069000  0.79503000  1.0 -0.0516687569
I  I3  1  0.53166000  0.01254000  0.18882000  1.0 -0.0195638166
I  I4  1  0.98746000  0.46834000  0.68882000  1.0 -0.009630391
I  I5  1  0.23420000  0.94180000  0.99620000  1.0 -0.0026671943
I  I6  1  0.05820000  0.76580000  0.49620000  1.0 -0.0026671943
I  I7  1  0.34234000  0.13746000  0.09872000  1.0 -0.3587191598
I  I8  1  0.86254000  0.65766000  0.59872000  1.0 -0.3587191598
I  I9  1  0.63650000  0.85090000  0.43980000  1.0 0.0018155366
I  I10  1  0.14910000  0.36350000  0.93980000  1.0 0.0018155366
I  I11  1  0.62540000  0.66220000  0.37247000  1.0 -0.0706303724
I  I12  1  0.33780000  0.37460000  0.87247000  1.0 -0.0706303724
I  I13  1  0.62650000  0.85170000  0.43800000  1.0 0.0073791696
I  I14  1  0.14830000  0.37350000  0.93800000  1.0 0.0073791696
I  I15  1  0.33660000  0.12760000  0.10200000  1.0 -0.33451482
I  I16  1  0.87240000  0.66340000  0.60200000  1.0 -0.33451482
I  I17  1  0.61670000  0.66390000  0.36020000  1.0 -0.0594853722
I  I18  1  0.33610000  0.38330000  0.86020000  1.0 -0.0594853722
I  I19  1  0.21720000  0.94500000  0.98850000  1.0 -0.009630391
I  I20  1  0.05500000  0.78280000  0.48850000  1.0 -0.009630391
I  I21  1  0.71950000  0.94690000  0.29770000  1.0 0.0164873088
I  I22  1  0.05310000  0.28050000  0.79770000  1.0 0.0164873088
I  I23  1  0.53470000  0.99070000  0.21290000  1.0 -0.0195638166
I  I24  1  0.00930000  0.46530000  0.71290000  1.0 -0.0195638166
I  I25  1  0.63220000  0.95380000  0.27580000  1.0 -0.0887009827
I  I26  1  0.04620000  0.36780000  0.77580000  1.0 -0.0887009827
I  I27  1  0.54890000  0.06910000  0.15640000  1.0 0.059649975
I  I28  1  0.93090000  0.45110000  0.65640000  1.0 0.059649975
I  I29  1  0.59040000  0.85900000  0.43470000  1.0 0.0493383221
I  I30  1  0.14100000  0.40960000  0.93470000  1.0 0.0493383221
I  I31  1  0.63000000  0.69680000  0.38420000  1.0 -0.1411584617
I  I32  1  0.30320000  0.37000000  0.88420000  1.0 -0.1411584617
I  I33  1  0.96809000  0.69931000  0.20497000  1.0 -0.0516687569
I  I34  1  0.30069000  0.03191000  0.70497000  1.0 -0.0594853722
I  I35  1  0.01254000  0.53166000  0.31118000  1.0 -0.009630391
I  I36  1  0.46834000  0.98746000  0.81118000  1.0 -0.009630391
I  I37  1  0.94180000  0.23420000  0.50380000  1.0 -0.0026671943
I  I38  1  0.76580000  0.05820000  0.00380000  1.0 -0.0026671943
I  I39  1  0.13746000  0.34234000  0.40128000  1.0 -0.3587191598
I  I40  1  0.65766000  0.86254000  0.90128000  1.0 -0.3587191598
I  I41  1  0.85090000  0.63650000  0.06020000  1.0 -0.0026671943
I  I42  1  0.36350000  0.14910000  0.56020000  1.0 -0.0026671943
I  I43  1  0.66220000  0.62540000  0.12753000  1.0 -0.0706303724
I  I44  1  0.37460000  0.33780000  0.62753000  1.0 -0.0806672686
I  I45  1  0.85170000  0.62650000  0.06200000  1.0 0.0073791696
I  I46  1  0.37350000  0.14830000  0.56200000  1.0 0.0073791696
I  I47  1  0.12760000  0.33660000  0.39800000  1.0 -0.33451482
I  I48  1  0.66340000  0.87240000  0.89800000  1.0 -0.33451482
I  I49  1  0.66390000  0.61670000  0.13980000  1.0 -0.0516687569
I  I50  1  0.38330000  0.33610000  0.63980000  1.0 -0.0594853722
I  I51  1  0.94500000  0.21720000  0.51150000  1.0 -0.009630391
I  I52  1  0.78280000  0.05500000  0.01150000  1.0 -0.009630391
I  I53  1  0.94690000  0.71950000  0.20230000  1.0 0.0164873088
I  I54  1  0.28050000  0.05310000  0.70230000  1.0 0.0164873088
I  I55  1  0.99070000  0.53470000  0.28710000  1.0 -0.0195638166
I  I56  1  0.46530000  0.00930000  0.78710000  1.0 -0.0195638166
I  I57  1  0.95380000  0.63220000  0.22420000  1.0 -0.0887009827
I  I58  1  0.36780000  0.04620000  0.72420000  1.0 -0.0887009827
I  I59  1  0.06910000  0.54890000  0.34360000  1.0 0.059649975
I  I60  1  0.45110000  0.93090000  0.84360000  1.0 0.059649975
I  I61  1  0.85900000  0.59040000  0.06530000  1.0 0.0493383221
I  I62  1  0.40960000  0.14100000  0.56530000  1.0 0.0395176331
I  I63  1  0.69680000  0.63000000  0.11580000  1.0 -0.1411584617
I  I64  1  0.37000000  0.30320000  0.61580000  1.0 -0.1411584617
N  N1  1  0.74440000  0.79380000  0.02850000  1.0 -0.459782795
N  N2  1  0.20620000  0.25560000  0.52850000  1.0 -0.459782795
N  N3  1  0.22610000  0.67030000  0.22970000  1.0 -0.3934988575
N  N4  1  0.32970000  0.77390000  0.72970000  1.0 -0.3934988575
N  N5  1  0.64370000  0.79650000  0.06080000  1.0 -0.4137583384
N  N6  1  0.20350000  0.35630000  0.56080000  1.0 -0.4137583384
N  N7  1  0.80770000  0.88970000  0.08870000  1.0 -0.4031685748
N  N8  1  0.11030000  0.19230000  0.58870000  1.0 -0.4031685748
N  N9  1  0.41720000  0.54560000  0.94980000  1.0 -0.2273026317
N  N10  1  0.45440000  0.58280000  0.44980000  1.0 -0.2273026317
N  N11  1  0.19550000  0.86790000  0.11120000  1.0 -0.2019652286
N  N12  1  0.13210000  0.80450000  0.61120000  1.0 -0.2019652286
N  N13  1  0.80720000  0.18400000  0.21740000  1.0 -0.158651479
N  N14  1  0.81600000  0.19280000  0.71740000  1.0 -0.158651479
N  N15  1  0.13750000  0.50490000  0.25080000  1.0 -0.4137583384
N  N16  1  0.49510000  0.86250000  0.75080000  1.0 -0.4137583384
N  N17  1  0.07260000  0.54860000  0.19250000  1.0 -0.3934988575
N  N18  1  0.45140000  0.92740000  0.69250000  1.0 -0.3934988575
N  N19  1  0.43590000  0.67030000  0.35690000  1.0 -0.1822968184
N  N20  1  0.32970000  0.56410000  0.85690000  1.0 -0.1822968184
N  N21  1  0.08350000  0.93270000  0.06170000  1.0 -0.2122913906
N  N22  1  0.06730000  0.91650000  0.56170000  1.0 -0.2122913906
N  N23  1  0.69510000  0.98490000  0.17320000  1.0 -0.1822968184
N  N24  1  0.01510000  0.30490000  0.67320000  1.0 -0.1822968184
N  N25  1  0.17000000  0.62000000  0.09490000  1.0 -0.3587191598
N  N26  1  0.38000000  0.83000000  0.59490000  1.0 -0.3587191598
N  N27  1  0.79380000  0.74440000  0.47150000  1.0 -0.459782795
N  N28  1  0.25560000  0.20620000  0.97150000  1.0 -0.459782795
N  N29  1  0.67030000  0.22610000  0.27030000  1.0 -0.3934988575
N  N30  1  0.77390000  0.32970000  0.77030000  1.0 -0.3934988575
N  N31  1  0.79650000  0.64370000  0.43920000  1.0 -0.4137583384
N  N32  1  0.35630000  0.20350000  0.93920000  1.0 -0.4137583384
N  N33  1  0.88970000  0.80770000  0.41130000  1.0 -0.4031685748
N  N34  1  0.19230000  0.11030000  0.91130000  1.0 -0.4031685748
N  N35  1  0.54560000  0.41720000  0.55020000  1.0 -0.2273026317
N  N36  1  0.58280000  0.45440000  0.05020000  1.0 -0.2273026317
N  N37  1  0.86790000  0.19550000  0.38880000  1.0 -0.2019652286
N  N38  1  0.80450000  0.13210000  0.88880000  1.0 -0.2019652286
N  N39  1  0.18400000  0.80720000  0.28260000  1.0 -0.158651479
N  N40  1  0.19280000  0.81600000  0.78260000  1.0 -0.158651479
N  N41  1  0.50490000  0.13750000  0.24920000  1.0 -0.4137583384
N  N42  1  0.86250000  0.49510000  0.74920000  1.0 -0.4137583384
N  N43  1  0.54860000  0.07260000  0.30750000  1.0 -0.3934988575
N  N44  1  0.92740000  0.45140000  0.80750000  1.0 -0.3934988575
N  N45  1  0.67030000  0.43590000  0.14310000  1.0 -0.1822968184
N  N46  1  0.56410000  0.32970000  0.64310000  1.0 -0.1822968184
N  N47  1  0.93270000  0.08350000  0.43830000  1.0 -0.2122913906
N  N48  1  0.91650000  0.06730000  0.93830000  1.0 -0.2122913906
N  N49  1  0.98490000  0.69510000  0.32680000  1.0 -0.1822968184
N  N50  1  0.30490000  0.01510000  0.82680000  1.0 -0.1822968184
N  N51  1  0.62000000  0.17000000  0.40510000  1.0 -0.3587191598
N  N52  1  0.83000000  0.38000000  0.90510000  1.0 -0.3587191598
O  O1  1  0.64190000  0.23210000  0.11460000  1.0 -0.1894216602
O  O2  1  0.76790000  0.35810000  0.61460000  1.0 -0.1894216602
O  O3  1  0.23210000  0.64190000  0.38540000  1.0 -0.1894216602
O  O4  1  0.35810000  0.76790000  0.88540000  1.0 -0.1894216602
