# DDEC6 charges by PACMAN v1.1 (https://github.com/mtap-research/PACMAN-charge/)
data_LIRLUX_FSR_pacman
_symmetry_space_group_name_H-M   'P 1'
_cell_length_a   19.32680000
_cell_length_b   19.32680000
_cell_length_c   31.80640000
_cell_angle_alpha   77.38270000
_cell_angle_beta   102.61700000
_cell_angle_gamma   134.82800000
_symmetry_Int_Tables_number   1
_chemical_formula_structural   Zn9H35C49I18N12OF
_chemical_formula_sum   'Zn36 H140 C196 I72 N48 O4 F4'
_cell_volume   8186.76120587
_cell_formula_units_Z   4
loop_
 _symmetry_equiv_pos_site_id
 _symmetry_equiv_pos_as_xyz
  1  'x, y, z'
loop_
 _atom_site_type_symbol
 _atom_site_label
 _atom_site_symmetry_multiplicity
 _atom_site_fract_x
 _atom_site_fract_y
 _atom_site_fract_z
 _atom_site_occupancy
 _atom_site_charge
Zn  Zn1  1  0.21020000  0.98140000  0.56980000  1.0 0.4099773601
Zn  Zn2  1  0.98140000  0.21020000  0.93020000  1.0 0.4099773601
Zn  Zn3  1  0.78980000  0.01860000  0.43020000  1.0 0.4099773601
Zn  Zn4  1  0.01860000  0.78980000  0.06980000  1.0 0.4099773601
Zn  Zn5  1  0.53972000  0.69308000  0.90184000  1.0 0.1395785821
Zn  Zn6  1  0.69308000  0.53972000  0.59816000  1.0 0.1395785821
Zn  Zn7  1  0.46028000  0.30692000  0.09816000  1.0 0.1395785821
Zn  Zn8  1  0.30692000  0.46028000  0.40184000  1.0 0.1395785821
Zn  Zn9  1  0.67281000  0.02899000  0.71820000  1.0 0.1209773609
Zn  Zn10  1  0.02899000  0.67281000  0.78180000  1.0 0.1209773609
Zn  Zn11  1  0.32719000  0.97101000  0.28180000  1.0 0.1209773609
Zn  Zn12  1  0.97101000  0.32719000  0.21820000  1.0 0.1209773609
Zn  Zn13  1  0.68441000  0.03239000  0.72410000  1.0 0.1209773609
Zn  Zn14  1  0.03239000  0.68441000  0.77590000  1.0 0.1209773609
Zn  Zn15  1  0.31559000  0.96761000  0.27590000  1.0 0.1209773609
Zn  Zn16  1  0.96761000  0.31559000  0.22410000  1.0 0.1209773609
Zn  Zn17  1  0.21610000  0.97250000  0.57000000  1.0 0.4099773601
Zn  Zn18  1  0.97250000  0.21610000  0.93000000  1.0 0.4152871718
Zn  Zn19  1  0.78390000  0.02750000  0.43000000  1.0 0.4099773601
Zn  Zn20  1  0.02750000  0.78390000  0.07000000  1.0 0.4099773601
Zn  Zn21  1  0.50330000  0.74190000  0.91920000  1.0 -0.0182129565
Zn  Zn22  1  0.74190000  0.50330000  0.58080000  1.0 -0.0182129565
Zn  Zn23  1  0.49670000  0.25810000  0.08080000  1.0 -0.0182129565
Zn  Zn24  1  0.25810000  0.49670000  0.41920000  1.0 -0.0182129565
Zn  Zn25  1  0.65420000  0.05180000  0.70060000  1.0 -0.0890657675
Zn  Zn26  1  0.05180000  0.65420000  0.79940000  1.0 -0.0890657675
Zn  Zn27  1  0.34580000  0.94820000  0.29940000  1.0 -0.0890657675
Zn  Zn28  1  0.94820000  0.34580000  0.20060000  1.0 -0.0890657675
Zn  Zn29  1  0.64220000  0.07180000  0.67700000  1.0 -0.0672088911
Zn  Zn30  1  0.07180000  0.64220000  0.82300000  1.0 -0.0672088911
Zn  Zn31  1  0.35780000  0.92820000  0.32300000  1.0 -0.0672088911
Zn  Zn32  1  0.92820000  0.35780000  0.17700000  1.0 -0.0672088911
Zn  Zn33  1  0.53240000  0.70160000  0.90660000  1.0 0.1307947629
Zn  Zn34  1  0.70160000  0.53240000  0.59340000  1.0 0.1307947629
Zn  Zn35  1  0.46760000  0.29840000  0.09340000  1.0 0.1307947629
Zn  Zn36  1  0.29840000  0.46760000  0.40660000  1.0 0.1307947629
H  H1  1  0.38129000  0.77313000  0.77877000  1.0 0.1307947629
H  H2  1  0.77313000  0.38129000  0.72123000  1.0 0.1307947629
H  H3  1  0.61871000  0.22687000  0.22123000  1.0 0.1307947629
H  H4  1  0.22687000  0.61871000  0.27877000  1.0 0.1307947629
H  H5  1  0.29572000  0.83484000  0.69719000  1.0 0.1307947629
H  H6  1  0.83484000  0.29572000  0.80281000  1.0 0.1307947629
H  H7  1  0.70428000  0.16516000  0.30281000  1.0 0.1307947629
H  H8  1  0.16516000  0.70428000  0.19719000  1.0 0.1307947629
H  H9  1  0.49427000  0.80717000  0.83697000  1.0 0.0805870836
H  H10  1  0.80717000  0.49427000  0.66303000  1.0 0.0805870836
H  H11  1  0.50573000  0.19283000  0.16303000  1.0 0.0805870836
H  H12  1  0.19283000  0.50573000  0.33697000  1.0 0.0805870836
H  H13  1  0.31361000  0.95579000  0.65220000  1.0 0.0805870836
H  H14  1  0.95579000  0.31361000  0.84780000  1.0 0.0805870836
H  H15  1  0.68639000  0.04421000  0.34780000  1.0 0.0805870836
H  H16  1  0.04421000  0.68639000  0.15220000  1.0 0.0805870836
H  H17  1  0.63682000  0.65706000  0.48762000  1.0 0.1209773609
H  H18  1  0.65706000  0.63682000  0.01238000  1.0 0.1209773609
H  H19  1  0.36318000  0.34294000  0.51238000  1.0 0.1209773609
H  H20  1  0.34294000  0.36318000  0.98762000  1.0 0.1209773609
H  H21  1  0.89235000  0.39069000  0.67210000  1.0 0.1307947629
H  H22  1  0.39069000  0.89235000  0.82790000  1.0 0.1307947629
H  H23  1  0.10765000  0.60931000  0.32790000  1.0 0.1307947629
H  H24  1  0.60931000  0.10765000  0.17210000  1.0 0.1307947629
H  H25  1  0.88688000  0.85204000  0.50250000  1.0 0.1395785821
H  H26  1  0.85204000  0.88688000  0.99750000  1.0 0.1395785821
H  H27  1  0.11312000  0.14796000  0.49750000  1.0 0.1395785821
H  H28  1  0.14796000  0.11312000  0.00250000  1.0 0.1395785821
H  H29  1  0.75005000  0.22360000  0.67472000  1.0 0.0689867165
H  H30  1  0.22360000  0.75006000  0.82528000  1.0 0.0689867165
H  H31  1  0.24994000  0.77639000  0.32528000  1.0 0.0689867165
H  H32  1  0.77639000  0.24995000  0.17472000  1.0 0.0689867165
H  H33  1  0.35257000  0.59119000  0.46121000  1.0 0.0493708912
H  H34  1  0.59119000  0.35257000  0.03879000  1.0 0.0493708912
H  H35  1  0.64743000  0.40881000  0.53879000  1.0 0.0493708912
H  H36  1  0.40881000  0.64743000  0.96121000  1.0 0.0493708912
H  H37  1  0.50682000  0.54296000  0.44105000  1.0 0.0895256535
H  H38  1  0.54296000  0.50682000  0.05895000  1.0 0.0895256535
H  H39  1  0.49318000  0.45704000  0.55895000  1.0 0.0895256535
H  H40  1  0.45704000  0.49318000  0.94105000  1.0 0.0895256535
H  H41  1  0.58459000  0.87241000  0.58654000  1.0 0.1307947629
H  H42  1  0.87241000  0.58459000  0.91346000  1.0 0.1307947629
H  H43  1  0.41541000  0.12759000  0.41346000  1.0 0.1307947629
H  H44  1  0.12759000  0.41541000  0.08654000  1.0 0.1307947629
H  H45  1  0.03371000  0.89709000  0.50662000  1.0 0.0895256535
H  H46  1  0.89709000  0.03371000  0.99338000  1.0 0.0895256535
H  H47  1  0.96629000  0.10291000  0.49338000  1.0 0.0895256535
H  H48  1  0.10291000  0.96629000  0.00662000  1.0 0.0895256535
H  H49  1  0.03901000  0.63565000  0.62869000  1.0 0.1097928652
H  H50  1  0.63565000  0.03901000  0.87131000  1.0 0.1097928652
H  H51  1  0.96099000  0.36435000  0.37131000  1.0 0.1097928652
H  H52  1  0.36435000  0.96099000  0.12869000  1.0 0.1097928652
H  H53  1  0.02821000  0.32527000  0.75951000  1.0 0.1209773609
H  H54  1  0.32527000  0.02821000  0.74049000  1.0 0.1209773609
H  H55  1  0.97179000  0.67473000  0.24049000  1.0 0.1209773609
H  H56  1  0.67473000  0.97179000  0.25951000  1.0 0.1209773609
H  H57  1  0.06550000  0.76128000  0.58453000  1.0 0.0805870836
H  H58  1  0.76128000  0.06550000  0.91547000  1.0 0.0805870836
H  H59  1  0.93450000  0.23872000  0.41547000  1.0 0.0805870836
H  H60  1  0.23872000  0.93450000  0.08453000  1.0 0.0805870836
H  H61  1  0.57590000  0.93810000  0.63549000  1.0 0.0805870836
H  H62  1  0.93810000  0.57590000  0.86451000  1.0 0.0805870836
H  H63  1  0.42410000  0.06190000  0.36451000  1.0 0.0805870836
H  H64  1  0.06190000  0.42410000  0.13549000  1.0 0.0805870836
H  H65  1  0.47882000  0.70772000  0.50956000  1.0 0.1395785821
H  H66  1  0.70772000  0.47882000  0.99044000  1.0 0.1395785821
H  H67  1  0.52118000  0.29228000  0.49044000  1.0 0.1395785821
H  H68  1  0.29228000  0.52118000  0.00956000  1.0 0.1395785821
H  H69  1  0.88694000  0.16244000  0.75785000  1.0 0.0895256535
H  H70  1  0.16244000  0.88694000  0.74215000  1.0 0.0895256535
H  H71  1  0.11306000  0.83756000  0.24215000  1.0 0.0895256535
H  H72  1  0.83756000  0.11306000  0.25785000  1.0 0.0895256535
H  H73  1  0.23256000  0.48582000  0.80611000  1.0 0.0995737774
H  H74  1  0.48582000  0.23256000  0.69389000  1.0 0.0995737774
H  H75  1  0.76744000  0.51418000  0.19389000  1.0 0.0995737774
H  H76  1  0.51418000  0.76744000  0.30611000  1.0 0.0995737774
H  H77  1  0.82522000  0.94828000  0.65956000  1.0 0.1209773609
H  H78  1  0.94828000  0.82522000  0.84044000  1.0 0.1209773609
H  H79  1  0.17478000  0.05172000  0.34044000  1.0 0.1209773609
H  H80  1  0.05172000  0.17478000  0.15956000  1.0 0.1209773609
H  H81  1  0.80511000  0.00609000  0.70737000  1.0 0.0895256535
H  H82  1  0.00609000  0.80511000  0.79263000  1.0 0.0895256535
H  H83  1  0.19489000  0.99391000  0.29263000  1.0 0.0895256535
H  H84  1  0.99391000  0.19489000  0.20737000  1.0 0.0895256535
H  H85  1  0.35595000  0.52741000  0.85926000  1.0 0.0689867165
H  H86  1  0.52741000  0.35595000  0.64074000  1.0 0.0689867165
H  H87  1  0.64405000  0.47259000  0.14074000  1.0 0.0689867165
H  H88  1  0.47259000  0.64405000  0.35926000  1.0 0.0689867165
H  H89  1  0.95686000  0.92882000  0.62309000  1.0 0.1395785821
H  H90  1  0.92882000  0.95686000  0.87691000  1.0 0.1395785821
H  H91  1  0.04314000  0.07118000  0.37691000  1.0 0.1395785821
H  H92  1  0.07118000  0.04314000  0.12309000  1.0 0.1395785821
H  H93  1  0.10086000  0.96832000  0.62461000  1.0 0.0995737774
H  H94  1  0.96832000  0.10086000  0.87539000  1.0 0.0995737774
H  H95  1  0.89914000  0.03168000  0.37539000  1.0 0.0995737774
H  H96  1  0.03168000  0.89914000  0.12461000  1.0 0.0995737774
H  H97  1  0.77466000  0.36966000  0.59587000  1.0 0.2623241295
H  H98  1  0.36966000  0.77466000  0.90413000  1.0 0.2623241295
H  H99  1  0.22534000  0.63034000  0.40413000  1.0 0.2623241295
H  H100  1  0.63034000  0.22534000  0.09587000  1.0 0.2623241295
H  H101  1  0.46683000  0.02251000  0.52930000  1.0 0.1463027609
H  H102  1  0.02251000  0.46683000  0.97070000  1.0 0.1463027609
H  H103  1  0.53317000  0.97749000  0.47070000  1.0 0.1463027609
H  H104  1  0.97749000  0.53317000  0.02930000  1.0 0.1463027609
H  H105  1  0.42976000  0.08554000  0.56498000  1.0 0.0805870836
H  H106  1  0.08554000  0.42976000  0.93502000  1.0 0.0805870836
H  H107  1  0.57024000  0.91446000  0.43502000  1.0 0.0805870836
H  H108  1  0.91446000  0.57024000  0.06498000  1.0 0.0805870836
H  H109  1  0.55520000  0.22478000  0.60239000  1.0 0.1209773609
H  H110  1  0.22478000  0.55520000  0.89761000  1.0 0.1209773609
H  H111  1  0.44480000  0.77522000  0.39761000  1.0 0.1209773609
H  H112  1  0.77522000  0.44480000  0.10239000  1.0 0.1209773609
H  H113  1  0.99250000  0.44280000  0.52449000  1.0 0.0995737774
H  H114  1  0.44280000  0.99250000  0.97551000  1.0 0.0995737774
H  H115  1  0.00750000  0.55720000  0.47551000  1.0 0.0995737774
H  H116  1  0.55720000  0.00750000  0.02449000  1.0 0.0995737774
H  H117  1  0.04886000  0.37270000  0.56677000  1.0 0.0995737774
H  H118  1  0.37270000  0.04886000  0.93323000  1.0 0.0995737774
H  H119  1  0.95114000  0.62730000  0.43323000  1.0 0.0995737774
H  H120  1  0.62730000  0.95114000  0.06677000  1.0 0.0995737774
H  H121  1  0.94348000  0.22618000  0.61035000  1.0 0.1097928652
H  H122  1  0.22618000  0.94348000  0.88965000  1.0 0.1097928652
H  H123  1  0.05652000  0.77382000  0.38965000  1.0 0.1097928652
H  H124  1  0.77382000  0.05652000  0.11035000  1.0 0.1097928652
H  H125  1  0.78174000  0.14976000  0.61166000  1.0 0.1097928652
H  H126  1  0.14976000  0.78174000  0.88834000  1.0 0.1097928652
H  H127  1  0.21826000  0.85024000  0.38834000  1.0 0.1097928652
H  H128  1  0.85024000  0.21826000  0.11166000  1.0 0.1097928652
H  H129  1  0.80838000  0.41068000  0.53974000  1.0 0.0895256535
H  H130  1  0.41068000  0.80838000  0.96026000  1.0 0.0895256535
H  H131  1  0.19162000  0.58932000  0.46026000  1.0 0.0895256535
H  H132  1  0.58932000  0.19162000  0.03974000  1.0 0.0895256535
H  H133  1  0.86858000  0.44596000  0.50003000  1.0 0.1209773609
H  H134  1  0.44596000  0.86858000  0.99997000  1.0 0.1209773609
H  H135  1  0.13142000  0.55404000  0.49997000  1.0 0.1209773609
H  H136  1  0.55404000  0.13142000  0.00003000  1.0 0.1209773609
H  H137  1  0.75710000  0.34292000  0.50095000  1.0 0.1307947629
H  H138  1  0.34292000  0.75710000  0.99905000  1.0 0.1307947629
H  H139  1  0.24290000  0.65708000  0.49905000  1.0 0.1307947629
H  H140  1  0.65708000  0.24290000  0.00095000  1.0 0.1307947629
C  C1  1  0.16406000  0.72094000  0.66851000  1.0 0.0689867165
C  C2  1  0.72094000  0.16406000  0.83149000  1.0 0.0689867165
C  C3  1  0.83594000  0.27906000  0.33149000  1.0 0.0689867165
C  C4  1  0.27906000  0.83594000  0.16851000  1.0 0.0689867165
C  C5  1  0.21410000  0.59930000  0.75231000  1.0 0.331431757
C  C6  1  0.59930000  0.21410000  0.74769000  1.0 0.331431757
C  C7  1  0.78590000  0.40070000  0.24769000  1.0 0.331431757
C  C8  1  0.40070000  0.78590000  0.25231000  1.0 0.331431757
C  C9  1  0.15172000  0.64188000  0.69789000  1.0 0.331431757
C  C10  1  0.64188000  0.15172000  0.80211000  1.0 0.331431757
C  C11  1  0.84828000  0.35812000  0.30211000  1.0 0.331431757
C  C12  1  0.35812000  0.84828000  0.19789000  1.0 0.331431757
C  C13  1  0.65516000  0.76984000  0.53346000  1.0 0.3399136414
C  C14  1  0.76984000  0.65516000  0.96654000  1.0 0.3399136414
C  C15  1  0.34484000  0.23016000  0.46654000  1.0 0.3399136414
C  C16  1  0.23016000  0.34484000  0.03346000  1.0 0.3399136414
C  C17  1  0.06608000  0.48292000  0.71819000  1.0 0.331431757
C  C18  1  0.48292000  0.06608000  0.78181000  1.0 0.331431757
C  C19  1  0.93392000  0.51708000  0.28181000  1.0 0.331431757
C  C20  1  0.51708000  0.93392000  0.21819000  1.0 0.331431757
C  C21  1  0.81178000  0.85882000  0.56089000  1.0 0.331431757
C  C22  1  0.85882000  0.81178000  0.93911000  1.0 0.331431757
C  C23  1  0.18822000  0.14118000  0.43911000  1.0 0.331431757
C  C24  1  0.14118000  0.18822000  0.06089000  1.0 0.331431757
C  C25  1  0.29147000  0.62513000  0.78734000  1.0 0.0574245447
C  C26  1  0.62513000  0.29147000  0.71266000  1.0 0.0574245447
C  C27  1  0.70853000  0.37487000  0.21266000  1.0 0.0574245447
C  C28  1  0.37487000  0.70853000  0.28734000  1.0 0.0574245447
C  C29  1  0.90573000  0.88727000  0.56225000  1.0 0.0689867165
C  C30  1  0.88727000  0.90573000  0.93775000  1.0 0.0689867165
C  C31  1  0.09427000  0.11273000  0.43775000  1.0 0.0689867165
C  C32  1  0.11273000  0.09427000  0.06225000  1.0 0.0689867165
C  C33  1  0.71636000  0.86304000  0.58796000  1.0 0.3483072271
C  C34  1  0.86304000  0.71636000  0.91204000  1.0 0.3483072271
C  C35  1  0.28364000  0.13696000  0.41204000  1.0 0.3483072271
C  C36  1  0.13696000  0.28364000  0.08796000  1.0 0.3483072271
C  C37  1  0.37262000  0.72118000  0.79614000  1.0 -0.1405021916
C  C38  1  0.72118000  0.37262000  0.70386000  1.0 -0.1405021916
C  C39  1  0.62738000  0.27882000  0.20386000  1.0 -0.1405021916
C  C40  1  0.27882000  0.62738000  0.29614000  1.0 -0.1405021916
C  C41  1  0.57125000  0.69435000  0.50380000  1.0 0.0411475281
C  C42  1  0.69435000  0.57125000  0.99620000  1.0 0.0411475281
C  C43  1  0.42875000  0.30565000  0.49620000  1.0 0.0411475281
C  C44  1  0.30565000  0.42875000  0.00380000  1.0 0.0411475281
C  C45  1  0.24649000  0.81791000  0.67440000  1.0 -0.1405021916
C  C46  1  0.81791000  0.24649000  0.82560000  1.0 -0.1405021916
C  C47  1  0.75351000  0.18209000  0.32560000  1.0 -0.1405021916
C  C48  1  0.18209000  0.75351000  0.17440000  1.0 -0.1405021916
C  C49  1  0.97525000  0.37755000  0.71604000  1.0 0.0493708912
C  C50  1  0.37755000  0.97525000  0.78396000  1.0 0.0493708912
C  C51  1  0.02475000  0.62245000  0.28396000  1.0 0.0493708912
C  C52  1  0.62245000  0.02475000  0.21604000  1.0 0.0493708912
C  C53  1  0.44089000  0.74131000  0.83021000  1.0 -0.0672088911
C  C54  1  0.74131000  0.44089000  0.66979000  1.0 -0.0672088911
C  C55  1  0.55911000  0.25869000  0.16979000  1.0 -0.0672088911
C  C56  1  0.25869000  0.55911000  0.33021000  1.0 -0.0672088911
C  C57  1  0.70556000  0.90144000  0.61847000  1.0 0.0411475281
C  C58  1  0.90144000  0.70556000  0.88153000  1.0 0.0411475281
C  C59  1  0.29444000  0.09856000  0.38153000  1.0 0.0411475281
C  C60  1  0.09856000  0.29444000  0.11847000  1.0 0.0411475281
C  C61  1  0.25706000  0.88934000  0.64720000  1.0 0.0096267232
C  C62  1  0.88934000  0.25706000  0.85280000  1.0 0.0096267232
C  C63  1  0.74294000  0.11066000  0.35280000  1.0 0.0096267232
C  C64  1  0.11066000  0.74294000  0.14720000  1.0 0.0096267232
C  C65  1  0.57874000  0.64466000  0.48296000  1.0 -0.1405021916
C  C66  1  0.64466000  0.57874000  0.01704000  1.0 -0.1405021916
C  C67  1  0.42126000  0.35534000  0.51704000  1.0 -0.1405021916
C  C68  1  0.35534000  0.42126000  0.98296000  1.0 -0.1405021916
C  C69  1  0.89270000  0.34530000  0.69080000  1.0 -0.0994265407
C  C70  1  0.34530000  0.89270000  0.80920000  1.0 -0.0994265407
C  C71  1  0.10730000  0.65470000  0.30920000  1.0 -0.0994265407
C  C72  1  0.65470000  0.10730000  0.19080000  1.0 -0.0994265407
C  C73  1  0.93065000  0.87735000  0.52800000  1.0 -0.1560785683
C  C74  1  0.87735000  0.93065000  0.97200000  1.0 -0.1560785683
C  C75  1  0.06935000  0.12265000  0.47200000  1.0 -0.1560785683
C  C76  1  0.12265000  0.06935000  0.02800000  1.0 -0.1560785683
C  C77  1  0.80761000  0.24479000  0.69230000  1.0 -0.0533978125
C  C78  1  0.24479000  0.80761000  0.80770000  1.0 -0.0533978125
C  C79  1  0.19239000  0.75521000  0.30770000  1.0 -0.0533978125
C  C80  1  0.75521000  0.19239000  0.19230000  1.0 -0.0533978125
C  C81  1  0.41120000  0.60460000  0.46700000  1.0 0.0311004668
C  C82  1  0.60460000  0.41120000  0.03300000  1.0 0.0311004668
C  C83  1  0.58880000  0.39540000  0.53300000  1.0 0.0311004668
C  C84  1  0.39540000  0.58880000  0.96700000  1.0 0.0311004668
C  C85  1  0.50122000  0.57698000  0.45532000  1.0 0.0311004668
C  C86  1  0.57698000  0.50122000  0.04468000  1.0 0.0311004668
C  C87  1  0.49878000  0.42302000  0.54468000  1.0 0.0311004668
C  C88  1  0.42302000  0.49878000  0.95532000  1.0 0.0311004668
C  C89  1  0.63126000  0.89994000  0.61110000  1.0 -0.1200733191
C  C90  1  0.89994000  0.63126000  0.88890000  1.0 -0.1200733191
C  C91  1  0.36874000  0.10006000  0.38890000  1.0 -0.1200733191
C  C92  1  0.10006000  0.36874000  0.11110000  1.0 -0.1200733191
C  C93  1  0.01771000  0.90369000  0.53070000  1.0 0.0574245447
C  C94  1  0.90369000  0.01771000  0.96930000  1.0 0.0574245447
C  C95  1  0.98229000  0.09631000  0.46930000  1.0 0.0574245447
C  C96  1  0.09631000  0.98229000  0.03070000  1.0 0.0574245447
C  C97  1  0.09660000  0.70140000  0.63410000  1.0 -0.1560785683
C  C98  1  0.70140000  0.09660000  0.86590000  1.0 -0.1560785683
C  C99  1  0.90340000  0.29860000  0.36590000  1.0 -0.1560785683
C  C100  1  0.29860000  0.90340000  0.13410000  1.0 -0.1560785683
C  C101  1  0.97177000  0.30623000  0.74170000  1.0 -0.1200733191
C  C102  1  0.30623000  0.97177000  0.75830000  1.0 -0.1200733191
C  C103  1  0.02823000  0.69377000  0.25830000  1.0 -0.1200733191
C  C104  1  0.69377000  0.02823000  0.24170000  1.0 -0.1200733191
C  C105  1  0.11280000  0.77660000  0.60810000  1.0 0.0214071212
C  C106  1  0.77660000  0.11280000  0.89190000  1.0 0.0214071212
C  C107  1  0.88720000  0.22340000  0.39190000  1.0 0.0214071212
C  C108  1  0.22340000  0.88720000  0.10810000  1.0 0.0214071212
C  C109  1  0.62720000  0.93960000  0.64040000  1.0 -0.0608743119
C  C110  1  0.93960000  0.62720000  0.85960000  1.0 -0.0533978125
C  C111  1  0.37280000  0.06040000  0.35960000  1.0 -0.0533978125
C  C112  1  0.06040000  0.37280000  0.14040000  1.0 -0.0608743119
C  C113  1  0.48660000  0.67480000  0.49590000  1.0 -0.130848548
C  C114  1  0.67480000  0.48660000  0.00410000  1.0 -0.130848548
C  C115  1  0.51340000  0.32520000  0.50410000  1.0 -0.130848548
C  C116  1  0.32520000  0.51340000  0.99590000  1.0 -0.130848548
C  C117  1  0.88753000  0.20987000  0.74090000  1.0 0.0214071212
C  C118  1  0.20987000  0.88753000  0.75910000  1.0 0.0214071212
C  C119  1  0.11247000  0.79013000  0.25910000  1.0 0.0214071212
C  C120  1  0.79013000  0.11247000  0.24090000  1.0 0.0214071212
C  C121  1  0.28630000  0.55250000  0.81170000  1.0 -0.1467156062
C  C122  1  0.55250000  0.28630000  0.68830000  1.0 -0.1467156062
C  C123  1  0.71370000  0.44750000  0.18830000  1.0 -0.1467156062
C  C124  1  0.44750000  0.71370000  0.31170000  1.0 -0.1467156062
C  C125  1  0.77200000  0.94400000  0.65420000  1.0 -0.130848548
C  C126  1  0.94400000  0.77200000  0.84580000  1.0 -0.130848548
C  C127  1  0.22800000  0.05600000  0.34580000  1.0 -0.130848548
C  C128  1  0.05600000  0.22800000  0.15420000  1.0 -0.130848548
C  C129  1  0.76080000  0.98000000  0.68210000  1.0 0.0493708912
C  C130  1  0.98000000  0.76080000  0.81790000  1.0 0.0493708912
C  C131  1  0.23920000  0.02000000  0.31790000  1.0 0.0493708912
C  C132  1  0.02000000  0.23920000  0.18210000  1.0 0.0493708912
C  C133  1  0.35880000  0.57720000  0.84380000  1.0 0.0311004668
C  C134  1  0.57720000  0.35880000  0.65620000  1.0 0.0311004668
C  C135  1  0.64120000  0.42280000  0.15620000  1.0 0.0311004668
C  C136  1  0.42280000  0.64120000  0.34380000  1.0 0.0311004668
C  C137  1  0.97110000  0.92170000  0.59850000  1.0 -0.1405021916
C  C138  1  0.92170000  0.97110000  0.90150000  1.0 -0.1405021916
C  C139  1  0.02890000  0.07830000  0.40150000  1.0 -0.1405021916
C  C140  1  0.07830000  0.02890000  0.09850000  1.0 -0.1405021916
C  C141  1  0.05690000  0.94550000  0.59910000  1.0 0.0493708912
C  C142  1  0.94550000  0.05690000  0.90090000  1.0 0.0493708912
C  C143  1  0.94310000  0.05450000  0.40090000  1.0 0.0493708912
C  C144  1  0.05450000  0.94310000  0.09910000  1.0 0.0493708912
C  C145  1  0.68880000  0.20700000  0.56770000  1.0 -0.1200733191
C  C146  1  0.20700000  0.68880000  0.93230000  1.0 -0.1200733191
C  C147  1  0.31120000  0.79300000  0.43230000  1.0 -0.1200733191
C  C148  1  0.79300000  0.31120000  0.06770000  1.0 -0.1200733191
C  C149  1  0.61430000  0.12430000  0.54550000  1.0 0.1995798399
C  C150  1  0.12430000  0.61430000  0.95450000  1.0 0.1995798399
C  C151  1  0.38570000  0.87570000  0.45450000  1.0 0.1995798399
C  C152  1  0.87570000  0.38570000  0.04550000  1.0 0.1995798399
C  C153  1  0.51780000  0.07900000  0.54450000  1.0 -0.2035961921
C  C154  1  0.07900000  0.51780000  0.95550000  1.0 -0.2035961921
C  C155  1  0.48220000  0.92100000  0.45550000  1.0 -0.2035961921
C  C156  1  0.92100000  0.48220000  0.04450000  1.0 -0.2035961921
C  C157  1  0.49570000  0.11650000  0.56570000  1.0 -0.0672088911
C  C158  1  0.11650000  0.49570000  0.93430000  1.0 -0.0672088911
C  C159  1  0.50430000  0.88350000  0.43430000  1.0 -0.0672088911
C  C160  1  0.88350000  0.50430000  0.06570000  1.0 -0.0672088911
C  C161  1  0.57020000  0.19920000  0.58790000  1.0 -0.1405021916
C  C162  1  0.19920000  0.57020000  0.91210000  1.0 -0.1405021916
C  C163  1  0.42980000  0.80080000  0.41210000  1.0 -0.1405021916
C  C164  1  0.80080000  0.42980000  0.08790000  1.0 -0.1405021916
C  C165  1  0.66680000  0.24440000  0.58890000  1.0 0.1800800612
C  C166  1  0.24440000  0.66680000  0.91110000  1.0 0.1800800612
C  C167  1  0.33320000  0.75560000  0.41110000  1.0 0.1800800612
C  C168  1  0.75560000  0.33320000  0.08890000  1.0 0.1800800612
C  C169  1  0.79110000  0.25090000  0.56890000  1.0 0.0311004668
C  C170  1  0.25090000  0.79110000  0.93110000  1.0 0.0311004668
C  C171  1  0.20890000  0.74910000  0.43110000  1.0 0.0311004668
C  C172  1  0.74910000  0.20890000  0.06890000  1.0 0.0311004668
C  C173  1  0.85370000  0.33790000  0.54300000  1.0 0.0995737774
C  C174  1  0.33790000  0.85370000  0.95700000  1.0 0.0995737774
C  C175  1  0.14630000  0.66210000  0.45700000  1.0 0.0995737774
C  C176  1  0.66210000  0.14630000  0.04300000  1.0 0.0995737774
C  C177  1  0.94970000  0.38330000  0.54220000  1.0 -0.180443878
C  C178  1  0.38330000  0.94970000  0.95780000  1.0 -0.180443878
C  C179  1  0.05030000  0.61670000  0.45780000  1.0 -0.180443878
C  C180  1  0.61670000  0.05030000  0.04220000  1.0 -0.180443878
C  C181  1  0.98320000  0.34160000  0.56730000  1.0 -0.0994265407
C  C182  1  0.34160000  0.98320000  0.93270000  1.0 -0.0994265407
C  C183  1  0.01680000  0.65840000  0.43270000  1.0 -0.0994265407
C  C184  1  0.65840000  0.01680000  0.06730000  1.0 -0.0994265407
C  C185  1  0.92100000  0.25500000  0.59320000  1.0 -0.0767421971
C  C186  1  0.25500000  0.92100000  0.90680000  1.0 -0.0767421971
C  C187  1  0.07900000  0.74500000  0.40680000  1.0 -0.0767421971
C  C188  1  0.74500000  0.07900000  0.09320000  1.0 -0.0767421971
C  C189  1  0.82450000  0.20930000  0.59400000  1.0 -0.0890657675
C  C190  1  0.20930000  0.82450000  0.90600000  1.0 -0.0890657675
C  C191  1  0.17550000  0.79070000  0.40600000  1.0 -0.0890657675
C  C192  1  0.79070000  0.17550000  0.09400000  1.0 -0.0890657675
C  C193  1  0.81880000  0.38920000  0.51870000  1.0 -0.3892629519
C  C194  1  0.38920000  0.81880000  0.98130000  1.0 -0.3892629519
C  C195  1  0.18120000  0.61080000  0.48130000  1.0 -0.3892629519
C  C196  1  0.61080000  0.18120000  0.01870000  1.0 -0.3892629519
I  I1  1  0.33832000  0.14212000  0.60479000  1.0 -0.0372898433
I  I2  1  0.14212000  0.33832000  0.89521000  1.0 -0.0372898433
I  I3  1  0.66168000  0.85788000  0.39521000  1.0 -0.0372898433
I  I4  1  0.85788000  0.66168000  0.10479000  1.0 -0.0372898433
I  I5  1  0.23070000  0.95250000  0.49880000  1.0 -0.3412335391
I  I6  1  0.95250000  0.23070000  0.00120000  1.0 -0.3412335391
I  I7  1  0.76930000  0.04750000  0.50120000  1.0 -0.3412335391
I  I8  1  0.04750000  0.76930000  0.99880000  1.0 -0.3412335391
I  I9  1  0.69188000  0.96112000  0.79396000  1.0 -0.0029529177
I  I10  1  0.96112000  0.69188000  0.70604000  1.0 -0.0029529177
I  I11  1  0.30812000  0.03888000  0.20604000  1.0 -0.0029529177
I  I12  1  0.03888000  0.30812000  0.29396000  1.0 -0.0029529177
I  I13  1  0.53254000  0.01886000  0.69331000  1.0 -0.0994265407
I  I14  1  0.01886000  0.53254000  0.80669000  1.0 -0.0994265407
I  I15  1  0.46746000  0.98114000  0.30669000  1.0 -0.0994265407
I  I16  1  0.98114000  0.46746000  0.19331000  1.0 -0.0994265407
I  I17  1  0.63309000  0.85181000  0.93261000  1.0 -0.0339742242
I  I18  1  0.85181000  0.63309000  0.56739000  1.0 -0.0339742242
I  I19  1  0.36691000  0.14819000  0.06739000  1.0 -0.0339742242
I  I20  1  0.14819000  0.36691000  0.43261000  1.0 -0.0339742242
I  I21  1  0.61292000  0.64720000  0.87200000  1.0 0.0574245447
I  I22  1  0.64720000  0.61292000  0.62800000  1.0 0.0574245447
I  I23  1  0.38708000  0.35280000  0.12800000  1.0 0.0574245447
I  I24  1  0.35280000  0.38708000  0.37200000  1.0 0.0574245447
I  I25  1  0.34300000  0.13040000  0.60477000  1.0 -0.0372898433
I  I26  1  0.13040000  0.34300000  0.89523000  1.0 -0.0372898433
I  I27  1  0.65700000  0.86960000  0.39523000  1.0 -0.0339742242
I  I28  1  0.86960000  0.65700000  0.10477000  1.0 -0.0372898433
I  I29  1  0.22272000  0.95146000  0.49803000  1.0 -0.3337283979
I  I30  1  0.95146000  0.22272000  0.00197000  1.0 -0.3337283979
I  I31  1  0.77728000  0.04854000  0.50197000  1.0 -0.3337283979
I  I32  1  0.04854000  0.77728000  0.99803000  1.0 -0.3337283979
I  I33  1  0.52868000  0.99952000  0.69997000  1.0 -0.0994265407
I  I34  1  0.99952000  0.52868000  0.80003000  1.0 -0.0994265407
I  I35  1  0.47132000  0.00048000  0.30003000  1.0 -0.0994265407
I  I36  1  0.00048000  0.47132000  0.19997000  1.0 -0.0994265407
I  I37  1  0.70595000  0.95605000  0.79536000  1.0 0.0311004668
I  I38  1  0.95605000  0.70595000  0.70464000  1.0 0.0311004668
I  I39  1  0.29405000  0.04395000  0.20464000  1.0 0.0311004668
I  I40  1  0.04395000  0.29405000  0.29536000  1.0 0.0311004668
I  I41  1  0.86880000  0.51180000  0.55950000  1.0 0.1097928652
I  I42  1  0.51180000  0.86880000  0.94050000  1.0 0.1097928652
I  I43  1  0.13120000  0.48820000  0.44050000  1.0 0.1097928652
I  I44  1  0.48820000  0.13120000  0.05950000  1.0 0.1097928652
I  I45  1  0.77660000  0.64960000  0.58950000  1.0 -0.0182129565
I  I46  1  0.64960000  0.77660000  0.91050000  1.0 -0.0182129565
I  I47  1  0.22340000  0.35040000  0.41050000  1.0 -0.0182129565
I  I48  1  0.35040000  0.22340000  0.08950000  1.0 -0.0182129565
I  I49  1  0.53210000  0.06310000  0.66170000  1.0 -0.0767421971
I  I50  1  0.06310000  0.53210000  0.83830000  1.0 -0.0767421971
I  I51  1  0.46790000  0.93690000  0.33830000  1.0 -0.0767421971
I  I52  1  0.93690000  0.46790000  0.16170000  1.0 -0.0767421971
I  I53  1  0.63210000  0.95970000  0.77530000  1.0 -0.1200733191
I  I54  1  0.95970000  0.63210000  0.72470000  1.0 -0.1200733191
I  I55  1  0.36790000  0.04030000  0.22470000  1.0 -0.1200733191
I  I56  1  0.04030000  0.36790000  0.27530000  1.0 -0.1200733191
I  I57  1  0.56940000  0.96460000  0.74450000  1.0 -0.0608743119
I  I58  1  0.96460000  0.56940000  0.75550000  1.0 -0.0608743119
I  I59  1  0.43060000  0.03540000  0.25550000  1.0 -0.0608743119
I  I60  1  0.03540000  0.43060000  0.24450000  1.0 -0.0608743119
I  I61  1  0.53810000  0.09590000  0.63020000  1.0 0.1566666414
I  I62  1  0.09590000  0.53810000  0.86980000  1.0 0.1566666414
I  I63  1  0.46190000  0.90410000  0.36980000  1.0 0.1566666414
I  I64  1  0.90410000  0.46190000  0.13020000  1.0 0.1566666414
I  I65  1  0.60813000  0.85147000  0.93950000  1.0 -0.0182129565
I  I66  1  0.85147000  0.60813000  0.56050000  1.0 -0.0182129565
I  I67  1  0.39187000  0.14853000  0.06050000  1.0 -0.0182129565
I  I68  1  0.14853000  0.39187000  0.43950000  1.0 -0.0182129565
I  I69  1  0.62148000  0.67092000  0.87828000  1.0 -0.0029529177
I  I70  1  0.67092000  0.62148000  0.62172000  1.0 -0.0029529177
I  I71  1  0.37852000  0.32908000  0.12172000  1.0 -0.0029529177
I  I72  1  0.32908000  0.37852000  0.37828000  1.0 -0.0029529177
N  N1  1  0.06939000  0.54881000  0.69156000  1.0 -0.4284642289
N  N2  1  0.54881000  0.06939000  0.80844000  1.0 -0.4284642289
N  N3  1  0.93061000  0.45119000  0.30844000  1.0 -0.4284642289
N  N4  1  0.45119000  0.93061000  0.19156000  1.0 -0.4284642289
N  N5  1  0.13710000  0.50330000  0.74839000  1.0 -0.412136515
N  N6  1  0.50330000  0.13710000  0.75161000  1.0 -0.412136515
N  N7  1  0.86290000  0.49670000  0.25161000  1.0 -0.412136515
N  N8  1  0.49670000  0.86290000  0.24839000  1.0 -0.412136515
N  N9  1  0.22448000  0.67152000  0.72827000  1.0 -0.3982377003
N  N10  1  0.67152000  0.22448000  0.77173000  1.0 -0.3982377003
N  N11  1  0.77552000  0.32848000  0.27173000  1.0 -0.3982377003
N  N12  1  0.32848000  0.77552000  0.22827000  1.0 -0.3982377003
N  N13  1  0.63946000  0.80034000  0.56068000  1.0 -0.3892629519
N  N14  1  0.80034000  0.63946000  0.93932000  1.0 -0.3892629519
N  N15  1  0.36054000  0.19966000  0.43932000  1.0 -0.3892629519
N  N16  1  0.19966000  0.36054000  0.06068000  1.0 -0.3892629519
N  N17  1  0.74148000  0.80052000  0.53100000  1.0 -0.412136515
N  N18  1  0.80052000  0.74148000  0.96900000  1.0 -0.412136515
N  N19  1  0.25852000  0.19948000  0.46900000  1.0 -0.412136515
N  N20  1  0.19948000  0.25852000  0.03100000  1.0 -0.412136515
N  N21  1  0.19136000  0.87044000  0.61373000  1.0 -0.1891411177
N  N22  1  0.87044000  0.19136000  0.88627000  1.0 -0.1891411177
N  N23  1  0.80864000  0.12956000  0.38627000  1.0 -0.1891411177
N  N24  1  0.12956000  0.80864000  0.11373000  1.0 -0.1891411177
N  N25  1  0.80353000  0.89187000  0.59014000  1.0 -0.3892629519
N  N26  1  0.89187000  0.80353000  0.90986000  1.0 -0.3892629519
N  N27  1  0.19647000  0.10813000  0.40986000  1.0 -0.3892629519
N  N28  1  0.10813000  0.19647000  0.09014000  1.0 -0.3892629519
N  N29  1  0.80459000  0.17901000  0.71699000  1.0 -0.1669118131
N  N30  1  0.17901000  0.80459000  0.78301000  1.0 -0.1669118131
N  N31  1  0.19541000  0.82099000  0.28301000  1.0 -0.1669118131
N  N32  1  0.82099000  0.19541000  0.21699000  1.0 -0.1669118131
N  N33  1  0.08121000  0.93819000  0.56545000  1.0 -0.2035961921
N  N34  1  0.93819000  0.08121000  0.93455000  1.0 -0.2035961921
N  N35  1  0.91879000  0.06181000  0.43455000  1.0 -0.2035961921
N  N36  1  0.06181000  0.91879000  0.06545000  1.0 -0.2035961921
N  N37  1  0.43403000  0.67037000  0.85413000  1.0 -0.180443878
N  N38  1  0.67037000  0.43403000  0.64587000  1.0 -0.180443878
N  N39  1  0.56597000  0.32963000  0.14587000  1.0 -0.180443878
N  N40  1  0.32963000  0.56597000  0.35413000  1.0 -0.180443878
N  N41  1  0.41875000  0.55745000  0.44790000  1.0 -0.180443878
N  N42  1  0.55745000  0.41875000  0.05210000  1.0 -0.180443878
N  N43  1  0.58125000  0.44255000  0.55210000  1.0 -0.180443878
N  N44  1  0.44255000  0.58125000  0.94790000  1.0 -0.180443878
N  N45  1  0.69092000  0.98008000  0.67520000  1.0 -0.1891411177
N  N46  1  0.98008000  0.69092000  0.82480000  1.0 -0.1891411177
N  N47  1  0.30908000  0.01992000  0.32480000  1.0 -0.1891411177
N  N48  1  0.01992000  0.30908000  0.17520000  1.0 -0.1891411177
O  O1  1  0.73100000  0.32080000  0.61150000  1.0 -0.412136515
O  O2  1  0.32080000  0.73100000  0.88850000  1.0 -0.412136515
O  O3  1  0.26900000  0.67920000  0.38850000  1.0 -0.412136515
O  O4  1  0.67920000  0.26900000  0.11150000  1.0 -0.412136515
F  F1  1  0.63800000  0.09300000  0.52160000  1.0 -0.1200733191
F  F2  1  0.09300000  0.63800000  0.97840000  1.0 -0.1200733191
F  F3  1  0.36200000  0.90700000  0.47840000  1.0 -0.1200733191
F  F4  1  0.90700000  0.36200000  0.02160000  1.0 -0.1200733191
