# DDEC6 charges by PACMAN v1.1 (https://github.com/mtap-research/PACMAN-charge/)
data_LIRLAD_ASR_pacman
_symmetry_space_group_name_H-M   'P 1'
_cell_length_a   19.16850000
_cell_length_b   19.16850000
_cell_length_c   31.62590000
_cell_angle_alpha   78.05200000
_cell_angle_beta   101.94800000
_cell_angle_gamma   134.37200000
_symmetry_Int_Tables_number   1
_chemical_formula_structural   Zn8H62C62I17(N6O)2
_chemical_formula_sum   'Zn32 H248 C248 I68 N48 O8'
_cell_volume   8094.18512822
_cell_formula_units_Z   4
loop_
 _symmetry_equiv_pos_site_id
 _symmetry_equiv_pos_as_xyz
  1  'x, y, z'
loop_
 _atom_site_type_symbol
 _atom_site_label
 _atom_site_symmetry_multiplicity
 _atom_site_fract_x
 _atom_site_fract_y
 _atom_site_fract_z
 _atom_site_occupancy
 _atom_site_charge
Zn  Zn1  1  0.78283000  0.02485000  0.93397000  1.0 0.4297055788
Zn  Zn2  1  0.97515000  0.21717000  0.43397000  1.0 0.4297055788
Zn  Zn3  1  0.31953000  0.97387000  0.77746000  1.0 0.2268507145
Zn  Zn4  1  0.02613000  0.68047000  0.27746000  1.0 0.223657716
Zn  Zn5  1  0.45940000  0.30780000  0.60083000  1.0 -0.079490643
Zn  Zn6  1  0.69220000  0.54060000  0.10083000  1.0 -0.0734861927
Zn  Zn7  1  0.46560000  0.29300000  0.59160000  1.0 -0.0896269677
Zn  Zn8  1  0.70700000  0.53440000  0.09160000  1.0 -0.079490643
Zn  Zn9  1  0.49620000  0.27380000  0.58570000  1.0 -0.0111612568
Zn  Zn10  1  0.72620000  0.50380000  0.08570000  1.0 -0.0111612568
Zn  Zn11  1  0.50520000  0.25860000  0.57910000  1.0 0.0020477546
Zn  Zn12  1  0.74140000  0.49480000  0.07910000  1.0 -0.0011632311
Zn  Zn13  1  0.32910000  0.96670000  0.78460000  1.0 0.1813073791
Zn  Zn14  1  0.03330000  0.67090000  0.28460000  1.0 0.1813073791
Zn  Zn15  1  0.36130000  0.93870000  0.81700000  1.0 -0.1597334342
Zn  Zn16  1  0.06130000  0.63870000  0.31700000  1.0 -0.1597334342
Zn  Zn17  1  0.02485000  0.78283000  0.56603000  1.0 0.4297055788
Zn  Zn18  1  0.21717000  0.97515000  0.06603000  1.0 0.4297055788
Zn  Zn19  1  0.97387000  0.31953000  0.72254000  1.0 0.2268507145
Zn  Zn20  1  0.68047000  0.02613000  0.22254000  1.0 0.223657716
Zn  Zn21  1  0.30780000  0.45940000  0.89917000  1.0 -0.0734861927
Zn  Zn22  1  0.54060000  0.69220000  0.39917000  1.0 -0.0734861927
Zn  Zn23  1  0.29300000  0.46560000  0.90840000  1.0 -0.0896269677
Zn  Zn24  1  0.53440000  0.70700000  0.40840000  1.0 -0.079490643
Zn  Zn25  1  0.27380000  0.49620000  0.91430000  1.0 -0.0111612568
Zn  Zn26  1  0.50380000  0.72620000  0.41430000  1.0 -0.0111612568
Zn  Zn27  1  0.25860000  0.50520000  0.92090000  1.0 0.0020477546
Zn  Zn28  1  0.49480000  0.74140000  0.42090000  1.0 0.0020477546
Zn  Zn29  1  0.96670000  0.32910000  0.71540000  1.0 0.1813073791
Zn  Zn30  1  0.67090000  0.03330000  0.21540000  1.0 0.1813073791
Zn  Zn31  1  0.93870000  0.36130000  0.68300000  1.0 -0.1597334342
Zn  Zn32  1  0.63870000  0.06130000  0.18300000  1.0 -0.1597334342
H  H1  1  0.61884000  0.22844000  0.72252000  1.0 0.1195966322
H  H2  1  0.77156000  0.38116000  0.22252000  1.0 0.1195966322
H  H3  1  0.35949000  0.34179000  0.01937000  1.0 0.1385315619
H  H4  1  0.65821000  0.64051000  0.51937000  1.0 0.1385315619
H  H5  1  0.68505000  0.04715000  0.85101000  1.0 0.0808674278
H  H6  1  0.95285000  0.31495000  0.35101000  1.0 0.0808674278
H  H7  1  0.50212000  0.19448000  0.66590000  1.0 0.0808674278
H  H8  1  0.80552000  0.49788000  0.16590000  1.0 0.0808674278
H  H9  1  0.10987000  0.14841000  0.00121000  1.0 0.1385315619
H  H10  1  0.85159000  0.89013000  0.50121000  1.0 0.1385315619
H  H11  1  0.70638000  0.16774000  0.80384000  1.0 0.1102784568
H  H12  1  0.83226000  0.29362000  0.30384000  1.0 0.1102784568
H  H13  1  0.49222000  0.45796000  0.06434000  1.0 0.1102784568
H  H14  1  0.54204000  0.50778000  0.56434000  1.0 0.1102784568
H  H15  1  0.96187000  0.10523000  0.99757000  1.0 0.1195966322
H  H16  1  0.89477000  0.03813000  0.49757000  1.0 0.1195966322
H  H17  1  0.42132000  0.14404000  0.91059000  1.0 0.1385315619
H  H18  1  0.85596000  0.57868000  0.41059000  1.0 0.1385315619
H  H19  1  0.11758000  0.83942000  0.74056000  1.0 0.0899817031
H  H20  1  0.16058000  0.88242000  0.24056000  1.0 0.0899817031
H  H21  1  0.52560000  0.30965000  0.98323000  1.0 0.1283014501
H  H22  1  0.69036000  0.47440000  0.48323000  1.0 0.1283014501
H  H23  1  0.77450000  0.51648000  0.69090000  1.0 0.1195966322
H  H24  1  0.48352000  0.22550000  0.19090000  1.0 0.1195966322
H  H25  1  0.65265000  0.42377000  0.03285000  1.0 0.0506277413
H  H26  1  0.57623000  0.34735000  0.53285000  1.0 0.0506277413
H  H27  1  0.10909000  0.61197000  0.82918000  1.0 0.1195966322
H  H28  1  0.38803000  0.89091000  0.32918000  1.0 0.1195966322
H  H29  1  0.43012000  0.07408000  0.86282000  1.0 0.0808674278
H  H30  1  0.92592000  0.56988000  0.36282000  1.0 0.0808674278
H  H31  1  0.97476000  0.67662000  0.73880000  1.0 0.1385315619
H  H32  1  0.32338000  0.02524000  0.23880000  1.0 0.1385315619
H  H33  1  0.24981000  0.77961000  0.82618000  1.0 0.0899817031
H  H34  1  0.22039000  0.75019000  0.32618000  1.0 0.0899817031
H  H35  1  0.96163000  0.36763000  0.87124000  1.0 0.1102784568
H  H36  1  0.63237000  0.03837000  0.37124000  1.0 0.1102784568
H  H37  1  0.65319000  0.47385000  0.63642000  1.0 0.0999063246
H  H38  1  0.52615000  0.34681000  0.13642000  1.0 0.0999063246
H  H39  1  0.93239000  0.24169000  0.91825000  1.0 0.0999063246
H  H40  1  0.75831000  0.06761000  0.41825000  1.0 0.0999063246
H  H41  1  0.17011000  0.05047000  0.84271000  1.0 0.1385315619
H  H42  1  0.94953000  0.82989000  0.34271000  1.0 0.1385315619
H  H43  1  0.18405000  0.98127000  0.79791000  1.0 0.0999063246
H  H44  1  0.01873000  0.81595000  0.29791000  1.0 0.0999063246
H  H45  1  0.03731000  0.06713000  0.88074000  1.0 0.1385315619
H  H46  1  0.93287000  0.96269000  0.38074000  1.0 0.1385315619
H  H47  1  0.89350000  0.03028000  0.87993000  1.0 0.0999063246
H  H48  1  0.96972000  0.10650000  0.37993000  1.0 0.0999063246
H  H49  1  0.86432000  0.76888000  0.84251000  1.0 0.022696591
H  H50  1  0.23112000  0.13568000  0.34251000  1.0 0.022696591
H  H51  1  0.93163000  0.88363000  0.84383000  1.0 0.0808674278
H  H52  1  0.11637000  0.06837000  0.34383000  1.0 0.0706364387
H  H53  1  0.99651000  0.84619000  0.80462000  1.0 0.0808674278
H  H54  1  0.15381000  0.00349000  0.30462000  1.0 0.0808674278
H  H55  1  0.07311000  0.91781000  0.84189000  1.0 0.0586558711
H  H56  1  0.08219000  0.92689000  0.34189000  1.0 0.0586558711
H  H57  1  0.96186000  0.71158000  0.84822000  1.0 0.0899817031
H  H58  1  0.28841000  0.03814000  0.34822000  1.0 0.0899817031
H  H59  1  0.07835000  0.79757000  0.84715000  1.0 0.1195966322
H  H60  1  0.20243000  0.92165000  0.34715000  1.0 0.1195966322
H  H61  1  0.09505000  0.83833000  0.91637000  1.0 0.0808674278
H  H62  1  0.16167000  0.90494000  0.41637000  1.0 0.0808674278
H  H63  1  0.03611000  0.72437000  0.91949000  1.0 0.0999063246
H  H64  1  0.27563000  0.96389000  0.41949000  1.0 0.0999063246
H  H65  1  0.96168000  0.75284000  0.95676000  1.0 0.0586558711
H  H66  1  0.24716000  0.03832000  0.45676000  1.0 0.0586558711
H  H67  1  0.88700000  0.67920000  0.91996000  1.0 0.0308247448
H  H68  1  0.32080000  0.11300000  0.41996000  1.0 0.0308247448
H  H69  1  0.86741000  0.78693000  0.91230000  1.0 0.0506277413
H  H70  1  0.21307000  0.13259000  0.41230000  1.0 0.0506277413
H  H71  1  0.98309000  0.87981000  0.91565000  1.0 0.0706364387
H  H72  1  0.12019000  0.01691000  0.41565000  1.0 0.0706364387
H  H73  1  0.75430000  0.36082000  0.62196000  1.0 0.1283014501
H  H74  1  0.63918000  0.24570000  0.12196000  1.0 0.1283014501
H  H75  1  0.87089000  0.49147000  0.57503000  1.0 0.0999063246
H  H76  1  0.50853000  0.12911000  0.07503000  1.0 0.0999063246
H  H77  1  0.84499000  0.47351000  0.50089000  1.0 0.1102784568
H  H78  1  0.52649000  0.15501000  0.00089000  1.0 0.1102784568
H  H79  1  0.70251000  0.32488000  0.47369000  1.0 0.1283014501
H  H80  1  0.67512000  0.29750000  0.97369000  1.0 0.1283014501
H  H81  1  0.43242000  0.91666000  0.52905000  1.0 0.1195966322
H  H82  1  0.08334000  0.56758000  0.02905000  1.0 0.1195966322
H  H83  1  0.30848000  0.90082000  0.48496000  1.0 0.1102784568
H  H84  1  0.09918000  0.69152000  0.98496000  1.0 0.1102784568
H  H85  1  0.33135000  0.03919000  0.46125000  1.0 0.0899817031
H  H86  1  0.96081000  0.66865000  0.96125000  1.0 0.0899817031
H  H87  1  0.62127000  0.22189000  0.62987000  1.0 0.3098616499
H  H88  1  0.77811000  0.37873000  0.12987000  1.0 0.3098616499
H  H89  1  0.60470000  0.02248000  0.55344000  1.0 0.1385315619
H  H90  1  0.97752000  0.39530000  0.05344000  1.0 0.1385315619
H  H91  1  0.66634000  0.13302000  0.56195000  1.0 0.1195966322
H  H92  1  0.86698000  0.33366000  0.06195000  1.0 0.1195966322
H  H93  1  0.58057000  0.04389000  0.59183000  1.0 0.1283014501
H  H94  1  0.95611000  0.41943000  0.09183000  1.0 0.1283014501
H  H95  1  0.37801000  0.20933000  0.47748000  1.0 0.0999063246
H  H96  1  0.79067000  0.62199000  0.97748000  1.0 0.0999063246
H  H97  1  0.44187000  0.28055000  0.43736000  1.0 0.1102784568
H  H98  1  0.71945000  0.55813000  0.93736000  1.0 0.1102784568
H  H99  1  0.37107000  0.16458000  0.43762000  1.0 0.0706364387
H  H100  1  0.83542000  0.62892000  0.93762000  1.0 0.0706364387
H  H101  1  0.95908000  0.77388000  0.96570000  1.0 0.0808674278
H  H102  1  0.22612000  0.04092000  0.46570000  1.0 0.0808674278
H  H103  1  0.88095000  0.86325000  0.90727000  1.0 0.0808674278
H  H104  1  0.13675000  0.11905000  0.40727000  1.0 0.0706364387
H  H105  1  0.77526000  0.71980000  0.84592000  1.0 0.0808674278
H  H106  1  0.28020000  0.22474000  0.34592000  1.0 0.0808674278
H  H107  1  0.84764000  0.83578000  0.83466000  1.0 0.0706364387
H  H108  1  0.16422000  0.15236000  0.33466000  1.0 0.0706364387
H  H109  1  0.89535000  0.72773000  0.84862000  1.0 0.0808674278
H  H110  1  0.27227000  0.10465000  0.34862000  1.0 0.0808674278
H  H111  1  0.76806000  0.65802000  0.93083000  1.0 0.0706364387
H  H112  1  0.34198000  0.23194000  0.43083000  1.0 0.0706364387
H  H113  1  0.82310000  0.73852000  0.96447000  1.0 0.0899817031
H  H114  1  0.26148000  0.17690000  0.46447000  1.0 0.0899817031
H  H115  1  0.76425000  0.77795000  0.89907000  1.0 0.1102784568
H  H116  1  0.22205000  0.23575000  0.39907000  1.0 0.1102784568
H  H117  1  0.01982000  0.88214000  0.90517000  1.0 0.0706364387
H  H118  1  0.11786000  0.98018000  0.40517000  1.0 0.0706364387
H  H119  1  0.96579000  0.84245000  0.83386000  1.0 0.022696591
H  H120  1  0.15755000  0.03421000  0.33386000  1.0 0.022696591
H  H121  1  0.02965000  0.80821000  0.89983000  1.0 0.0506277413
H  H122  1  0.19179000  0.97035000  0.39983000  1.0 0.0506277413
H  H123  1  0.89888000  0.68160000  0.93868000  1.0 -0.0180939308
H  H124  1  0.31840000  0.10112000  0.43868000  1.0 -0.0180939308
H  H125  1  0.22844000  0.61884000  0.77748000  1.0 0.1195966322
H  H126  1  0.38116000  0.77156000  0.27748000  1.0 0.1195966322
H  H127  1  0.34179000  0.35949000  0.48063000  1.0 0.1385315619
H  H128  1  0.64051000  0.65821000  0.98063000  1.0 0.1385315619
H  H129  1  0.04715000  0.68505000  0.64899000  1.0 0.0808674278
H  H130  1  0.31495000  0.95285000  0.14899000  1.0 0.0808674278
H  H131  1  0.19448000  0.50212000  0.83410000  1.0 0.0808674278
H  H132  1  0.49788000  0.80552000  0.33410000  1.0 0.0808674278
H  H133  1  0.14841000  0.10987000  0.49879000  1.0 0.1385315619
H  H134  1  0.89013000  0.85159000  0.99879000  1.0 0.1385315619
H  H135  1  0.16774000  0.70638000  0.69616000  1.0 0.1102784568
H  H136  1  0.29362000  0.83226000  0.19616000  1.0 0.1102784568
H  H137  1  0.45796000  0.49222000  0.43566000  1.0 0.1102784568
H  H138  1  0.50778000  0.54204000  0.93566000  1.0 0.1102784568
H  H139  1  0.10523000  0.96187000  0.50243000  1.0 0.1195966322
H  H140  1  0.03813000  0.89477000  0.00243000  1.0 0.1102784568
H  H141  1  0.14404000  0.42132000  0.58941000  1.0 0.1385315619
H  H142  1  0.57868000  0.85596000  0.08941000  1.0 0.1385315619
H  H143  1  0.83942000  0.11758000  0.75944000  1.0 0.0899817031
H  H144  1  0.88242000  0.16058000  0.25944000  1.0 0.0899817031
H  H145  1  0.30965000  0.52561000  0.51677000  1.0 0.1283014501
H  H146  1  0.47440000  0.69036000  0.01677000  1.0 0.1283014501
H  H147  1  0.51648000  0.77450000  0.80910000  1.0 0.1195966322
H  H148  1  0.22550000  0.48352000  0.30910000  1.0 0.1195966322
H  H149  1  0.42377000  0.65265000  0.46715000  1.0 0.0506277413
H  H150  1  0.34735000  0.57623000  0.96715000  1.0 0.0506277413
H  H151  1  0.61197000  0.10909000  0.67082000  1.0 0.1195966322
H  H152  1  0.89091000  0.38803000  0.17082000  1.0 0.1195966322
H  H153  1  0.07408000  0.43012000  0.63718000  1.0 0.0808674278
H  H154  1  0.56988000  0.92592000  0.13718000  1.0 0.0808674278
H  H155  1  0.67662000  0.97476000  0.76120000  1.0 0.1385315619
H  H156  1  0.02524000  0.32338000  0.26120000  1.0 0.1385315619
H  H157  1  0.77961000  0.24981000  0.67382000  1.0 0.0899817031
H  H158  1  0.75019000  0.22039000  0.17382000  1.0 0.0899817031
H  H159  1  0.36763000  0.96163000  0.62876000  1.0 0.1102784568
H  H160  1  0.03837000  0.63237000  0.12876000  1.0 0.1102784568
H  H161  1  0.47385000  0.65319000  0.86358000  1.0 0.0999063246
H  H162  1  0.34681000  0.52615000  0.36358000  1.0 0.0999063246
H  H163  1  0.24169000  0.93239000  0.58175000  1.0 0.0999063246
H  H164  1  0.06761000  0.75831000  0.08175000  1.0 0.0999063246
H  H165  1  0.05047000  0.17011000  0.65729000  1.0 0.1385315619
H  H166  1  0.82989000  0.94953000  0.15729000  1.0 0.1385315619
H  H167  1  0.98127000  0.18405000  0.70209000  1.0 0.0999063246
H  H168  1  0.81595000  0.01873000  0.20209000  1.0 0.0999063246
H  H169  1  0.06713000  0.03731000  0.61926000  1.0 0.1385315619
H  H170  1  0.96269000  0.93287000  0.11926000  1.0 0.1385315619
H  H171  1  0.03028000  0.89350000  0.62007000  1.0 0.0999063246
H  H172  1  0.10650000  0.96972000  0.12007000  1.0 0.0999063246
H  H173  1  0.76888000  0.86432000  0.65749000  1.0 0.022696591
H  H174  1  0.13568000  0.23112000  0.15749000  1.0 0.022696591
H  H175  1  0.88363000  0.93163000  0.65617000  1.0 0.0808674278
H  H176  1  0.06837000  0.11637000  0.15617000  1.0 0.0706364387
H  H177  1  0.84619000  0.99651000  0.69538000  1.0 0.0808674278
H  H178  1  0.00349000  0.15381000  0.19538000  1.0 0.0808674278
H  H179  1  0.91781000  0.07311000  0.65811000  1.0 0.0586558711
H  H180  1  0.92689000  0.08219000  0.15811000  1.0 0.0586558711
H  H181  1  0.71159000  0.96186000  0.65178000  1.0 0.0899817031
H  H182  1  0.03814000  0.28841000  0.15178000  1.0 0.0899817031
H  H183  1  0.79757000  0.07835000  0.65285000  1.0 0.1195966322
H  H184  1  0.92165000  0.20243000  0.15285000  1.0 0.1195966322
H  H185  1  0.83832000  0.09506000  0.58363000  1.0 0.0808674278
H  H186  1  0.90494000  0.16168000  0.08363000  1.0 0.0808674278
H  H187  1  0.72437000  0.03611000  0.58051000  1.0 0.0999063246
H  H188  1  0.96389000  0.27563000  0.08051000  1.0 0.0999063246
H  H189  1  0.75284000  0.96168000  0.54324000  1.0 0.0586558711
H  H190  1  0.03832000  0.24716000  0.04324000  1.0 0.0586558711
H  H191  1  0.67920000  0.88700000  0.58004000  1.0 0.0308247448
H  H192  1  0.11300000  0.32080000  0.08004000  1.0 0.0308247448
H  H193  1  0.78693000  0.86741000  0.58770000  1.0 0.0506277413
H  H194  1  0.13259000  0.21307000  0.08770000  1.0 0.0506277413
H  H195  1  0.87981000  0.98309000  0.58435000  1.0 0.0706364387
H  H196  1  0.01691000  0.12019000  0.08435000  1.0 0.0706364387
H  H197  1  0.36082000  0.75430000  0.87804000  1.0 0.1283014501
H  H198  1  0.24570000  0.63918000  0.37804000  1.0 0.1283014501
H  H199  1  0.49147000  0.87089000  0.92497000  1.0 0.0999063246
H  H200  1  0.12911000  0.50853000  0.42497000  1.0 0.0999063246
H  H201  1  0.47351000  0.84499000  0.99911000  1.0 0.1102784568
H  H202  1  0.15501000  0.52649000  0.49911000  1.0 0.1102784568
H  H203  1  0.32488000  0.70251000  0.02631000  1.0 0.1283014501
H  H204  1  0.29750000  0.67512000  0.52631000  1.0 0.1283014501
H  H205  1  0.91666000  0.43242000  0.97095000  1.0 0.1195966322
H  H206  1  0.56758000  0.08334000  0.47095000  1.0 0.1195966322
H  H207  1  0.90082000  0.30848000  0.01504000  1.0 0.1102784568
H  H208  1  0.69152000  0.09918000  0.51504000  1.0 0.1102784568
H  H209  1  0.03919000  0.33135000  0.03875000  1.0 0.0899817031
H  H210  1  0.66865000  0.96081000  0.53875000  1.0 0.0899817031
H  H211  1  0.22189000  0.62127000  0.87013000  1.0 0.3098616499
H  H212  1  0.37873000  0.77811000  0.37013000  1.0 0.3098616499
H  H213  1  0.02248000  0.60470000  0.94656000  1.0 0.1385315619
H  H214  1  0.39530000  0.97752000  0.44656000  1.0 0.1385315619
H  H215  1  0.13302000  0.66634000  0.93805000  1.0 0.1195966322
H  H216  1  0.33366000  0.86698000  0.43805000  1.0 0.1195966322
H  H217  1  0.04389000  0.58057000  0.90817000  1.0 0.1283014501
H  H218  1  0.41943000  0.95611000  0.40817000  1.0 0.1283014501
H  H219  1  0.20933000  0.37801000  0.02252000  1.0 0.0999063246
H  H220  1  0.62199000  0.79067000  0.52252000  1.0 0.0999063246
H  H221  1  0.28055000  0.44187000  0.06264000  1.0 0.1102784568
H  H222  1  0.55813000  0.71945000  0.56264000  1.0 0.1102784568
H  H223  1  0.16457000  0.37107000  0.06238000  1.0 0.0706364387
H  H224  1  0.62892000  0.83542000  0.56238000  1.0 0.0706364387
H  H225  1  0.77388000  0.95908000  0.53430000  1.0 0.0808674278
H  H226  1  0.04092000  0.22612000  0.03430000  1.0 0.0808674278
H  H227  1  0.86325000  0.88095000  0.59273000  1.0 0.0808674278
H  H228  1  0.11905000  0.13675000  0.09273000  1.0 0.0706364387
H  H229  1  0.71980000  0.77526000  0.65408000  1.0 0.0808674278
H  H230  1  0.22474000  0.28020000  0.15408000  1.0 0.0808674278
H  H231  1  0.83578000  0.84764000  0.66534000  1.0 0.0706364387
H  H232  1  0.15236000  0.16422000  0.16534000  1.0 0.0706364387
H  H233  1  0.72773000  0.89535000  0.65138000  1.0 0.0808674278
H  H234  1  0.10465000  0.27227000  0.15138000  1.0 0.0808674278
H  H235  1  0.65802000  0.76806000  0.56917000  1.0 0.0706364387
H  H236  1  0.23194000  0.34198000  0.06917000  1.0 0.0706364387
H  H237  1  0.73852000  0.82310000  0.53553000  1.0 0.0899817031
H  H238  1  0.17690000  0.26148000  0.03553000  1.0 0.0899817031
H  H239  1  0.77795000  0.76425000  0.60093000  1.0 0.1102784568
H  H240  1  0.23575000  0.22205000  0.10093000  1.0 0.1102784568
H  H241  1  0.88214000  0.01982000  0.59483000  1.0 0.0706364387
H  H242  1  0.98018000  0.11786000  0.09483000  1.0 0.0706364387
H  H243  1  0.84245000  0.96579000  0.66614000  1.0 0.022696591
H  H244  1  0.03421000  0.15755000  0.16614000  1.0 0.022696591
H  H245  1  0.80821000  0.02965000  0.60017000  1.0 0.0506277413
H  H246  1  0.97035000  0.19179000  0.10017000  1.0 0.0506277413
H  H247  1  0.68160000  0.89888000  0.56132000  1.0 -0.0180939308
H  H248  1  0.10112000  0.31840000  0.06132000  1.0 -0.0180939308
C  C1  1  0.78832000  0.40268000  0.74747000  1.0 0.3494961509
C  C2  1  0.59732000  0.21168000  0.24747000  1.0 0.3494961509
C  C3  1  0.18537000  0.14403000  0.94177000  1.0 0.3269037939
C  C4  1  0.85597000  0.81463000  0.44177000  1.0 0.3269037939
C  C5  1  0.34302000  0.23498000  0.96701000  1.0 0.3552549832
C  C6  1  0.76502000  0.65698000  0.46701000  1.0 0.3552549832
C  C7  1  0.70995000  0.37605000  0.71223000  1.0 0.0506277413
C  C8  1  0.62395000  0.29005000  0.21223000  1.0 0.0506277413
C  C9  1  0.42751000  0.31209000  0.99643000  1.0 0.0308247448
C  C10  1  0.68791000  0.57249000  0.49643000  1.0 0.0308247448
C  C11  1  0.93537000  0.51823000  0.78148000  1.0 0.3352939449
C  C12  1  0.48177000  0.06463000  0.28148000  1.0 0.3352939449
C  C13  1  0.84927000  0.36073000  0.80315000  1.0 0.3494961509
C  C14  1  0.63927000  0.15073000  0.30315000  1.0 0.3494961509
C  C15  1  0.83551000  0.28089000  0.83301000  1.0 0.0506277413
C  C16  1  0.71911000  0.16449000  0.33301000  1.0 0.0506277413
C  C17  1  0.28101000  0.14019000  0.91370000  1.0 0.3494961509
C  C18  1  0.85981000  0.71899000  0.41370000  1.0 0.3494961509
C  C19  1  0.62797000  0.28043000  0.70485000  1.0 -0.1597334342
C  C20  1  0.71957000  0.37203000  0.20485000  1.0 -0.1597334342
C  C21  1  0.09029000  0.11351000  0.94160000  1.0 0.0506277413
C  C22  1  0.88649000  0.90971000  0.44160000  1.0 0.0506277413
C  C23  1  0.02607000  0.62453000  0.78323000  1.0 0.0586558711
C  C24  1  0.37547000  0.97393000  0.28323000  1.0 0.0586558711
C  C25  1  0.41932000  0.35768000  0.02110000  1.0 -0.1188566248
C  C26  1  0.64232000  0.58068000  0.52110000  1.0 -0.1188566248
C  C27  1  0.74213000  0.11367000  0.85550000  1.0 0.0586558711
C  C28  1  0.88633000  0.25787000  0.35550000  1.0 0.0586558711
C  C29  1  0.55840000  0.26080000  0.67110000  1.0 -0.0896269677
C  C30  1  0.73920000  0.44160000  0.17110000  1.0 -0.0896269677
C  C31  1  0.06600000  0.12340000  0.97570000  1.0 -0.1924801245
C  C32  1  0.87660000  0.93400000  0.47570000  1.0 -0.1924801245
C  C33  1  0.75433000  0.18487000  0.82740000  1.0 -0.1403962374
C  C34  1  0.81513000  0.24567000  0.32740000  1.0 -0.1403962374
C  C35  1  0.49834000  0.42606000  0.04820000  1.0 0.0506277413
C  C36  1  0.57394000  0.50166000  0.54820000  1.0 0.0506277413
C  C37  1  0.29150000  0.10050000  0.88280000  1.0 0.0706364387
C  C38  1  0.89950000  0.70850000  0.38280000  1.0 0.0706364387
C  C39  1  0.97725000  0.09715000  0.97340000  1.0 0.0506277413
C  C40  1  0.90285000  0.02275000  0.47340000  1.0 0.0506277413
C  C41  1  0.37110000  0.10990000  0.88780000  1.0 -0.1188566248
C  C42  1  0.89010000  0.62890000  0.38780000  1.0 -0.1188566248
C  C43  1  0.11620000  0.79220000  0.75840000  1.0 0.0506277413
C  C44  1  0.20780000  0.88380000  0.25840000  1.0 0.0506277413
C  C45  1  0.51610000  0.33770000  0.00010000  1.0 -0.057540094
C  C46  1  0.66230000  0.48390000  0.50010000  1.0 -0.057540094
C  C47  1  0.71910000  0.44950000  0.68630000  1.0 -0.1188566248
C  C48  1  0.55050000  0.28090000  0.18630000  1.0 -0.1287022717
C  C49  1  0.59210000  0.40690000  0.02950000  1.0 -0.0111612568
C  C50  1  0.59310000  0.40790000  0.52950000  1.0 -0.0111612568
C  C51  1  0.10880000  0.65700000  0.80990000  1.0 -0.1287022717
C  C52  1  0.34300000  0.89120000  0.30990000  1.0 -0.1287022717
C  C53  1  0.37620000  0.06900000  0.85890000  1.0 0.0431435527
C  C54  1  0.93100000  0.62380000  0.35890000  1.0 0.0431435527
C  C55  1  0.03040000  0.69500000  0.75720000  1.0 -0.1287022717
C  C56  1  0.30500000  0.96960000  0.25720000  1.0 -0.1287022717
C  C57  1  0.19260000  0.75760000  0.80810000  1.0 -0.0011632311
C  C58  1  0.24240000  0.80740000  0.30810000  1.0 -0.0011632311
C  C59  1  0.90300000  0.30160000  0.86680000  1.0 -0.1692339908
C  C60  1  0.69840000  0.09700000  0.36680000  1.0 -0.1692339908
C  C61  1  0.64670000  0.42330000  0.65400000  1.0 0.0506277413
C  C62  1  0.57670000  0.35330000  0.15400000  1.0 0.0506277413
C  C63  1  0.88550000  0.22610000  0.89440000  1.0 0.0506277413
C  C64  1  0.77390000  0.11450000  0.39440000  1.0 0.0506277413
C  C65  1  0.22350000  0.05470000  0.84800000  1.0 -0.1491564438
C  C66  1  0.94530000  0.77650000  0.34800000  1.0 -0.1491564438
C  C67  1  0.23320000  0.01540000  0.82110000  1.0 0.0308247448
C  C68  1  0.98460000  0.76680000  0.32110000  1.0 0.0308247448
C  C69  1  0.02390000  0.07650000  0.90520000  1.0 -0.1692339908
C  C70  1  0.92350000  0.97610000  0.40520000  1.0 -0.1692339908
C  C71  1  0.93770000  0.05330000  0.90540000  1.0 0.0706364387
C  C72  1  0.94670000  0.06230000  0.40540000  1.0 0.0706364387
C  C73  1  0.92760000  0.82840000  0.85440000  1.0 -0.057540094
C  C74  1  0.17160000  0.07240000  0.35440000  1.0 -0.057540094
C  C75  1  0.01010000  0.84990000  0.83640000  1.0 -0.1403962374
C  C76  1  0.15010000  0.98990000  0.33640000  1.0 -0.1403962374
C  C77  1  0.02050000  0.77750000  0.85740000  1.0 -0.2271640934
C  C78  1  0.22250000  0.97950000  0.35740000  1.0 -0.2271640934
C  C79  1  0.03240000  0.77360000  0.90710000  1.0 -0.1188566248
C  C80  1  0.22640000  0.96760000  0.40710000  1.0 -0.1135414603
C  C81  1  0.94780000  0.74820000  0.92500000  1.0 -0.0896269677
C  C82  1  0.25180000  0.05220000  0.42500000  1.0 -0.0896269677
C  C83  1  0.93070000  0.81530000  0.90400000  1.0 -0.0111612568
C  C84  1  0.18470000  0.06930000  0.40400000  1.0 -0.0111612568
C  C85  1  0.65920000  0.26520000  0.57570000  1.0 0.1195966322
C  C86  1  0.73480000  0.34080000  0.07570000  1.0 0.1195966322
C  C87  1  0.74380000  0.35360000  0.59190000  1.0 -0.2205536018
C  C88  1  0.64640000  0.25620000  0.09190000  1.0 -0.2205536018
C  C89  1  0.81310000  0.43110000  0.56400000  1.0 -0.0180939308
C  C90  1  0.56890000  0.18690000  0.06400000  1.0 -0.0180939308
C  C91  1  0.79770000  0.42050000  0.51990000  1.0 -0.0896269677
C  C92  1  0.57950000  0.20230000  0.01990000  1.0 -0.0896269677
C  C93  1  0.71300000  0.33220000  0.50380000  1.0 -0.079490643
C  C94  1  0.66780000  0.28700000  0.00380000  1.0 -0.079490643
C  C95  1  0.64380000  0.25460000  0.53170000  1.0 0.0020477546
C  C96  1  0.74540000  0.35620000  0.03170000  1.0 0.0020477546
C  C97  1  0.52920000  0.06480000  0.53150000  1.0 0.0308247448
C  C98  1  0.93520000  0.47080000  0.03150000  1.0 0.0308247448
C  C99  1  0.44140000  0.97260000  0.51940000  1.0 -0.1287022717
C  C100  1  0.02740000  0.55860000  0.01940000  1.0 -0.1287022717
C  C101  1  0.36810000  0.96350000  0.49320000  1.0 -0.0896269677
C  C102  1  0.03650000  0.63190000  0.99320000  1.0 -0.0896269677
C  C103  1  0.38200000  0.04600000  0.47920000  1.0 -0.1765674688
C  C104  1  0.95400000  0.61800000  0.97920000  1.0 -0.1765674688
C  C105  1  0.46880000  0.13720000  0.49130000  1.0 0.0808674278
C  C106  1  0.86280000  0.53120000  0.99130000  1.0 0.0808674278
C  C107  1  0.54250000  0.14670000  0.51750000  1.0 -0.0180939308
C  C108  1  0.85330000  0.45750000  0.01750000  1.0 -0.0180939308
C  C109  1  0.60170000  0.06630000  0.56200000  1.0 -0.429255221
C  C110  1  0.93370000  0.39830000  0.06200000  1.0 -0.429255221
C  C111  1  0.41450000  0.21950000  0.45570000  1.0 -0.2499833535
C  C112  1  0.78050000  0.58550000  0.95570000  1.0 -0.2499833535
C  C113  1  0.91880000  0.74520000  0.93820000  1.0 -0.079490643
C  C114  1  0.25480000  0.08120000  0.43820000  1.0 -0.079490643
C  C115  1  0.82680000  0.72720000  0.93620000  1.0 -0.1597334342
C  C116  1  0.27280000  0.17320000  0.43620000  1.0 -0.1597334342
C  C117  1  0.82600000  0.79400000  0.90030000  1.0 -0.1188566248
C  C118  1  0.20600000  0.17400000  0.40030000  1.0 -0.1188566248
C  C119  1  0.83670000  0.78330000  0.85580000  1.0 -0.0972582899
C  C120  1  0.21670000  0.16330000  0.35580000  1.0 -0.0972582899
C  C121  1  0.92170000  0.79030000  0.85630000  1.0 -0.0500189885
C  C122  1  0.20970000  0.07830000  0.35630000  1.0 -0.0500189885
C  C123  1  0.98220000  0.81380000  0.90030000  1.0 -0.0180939308
C  C124  1  0.18620000  0.01780000  0.40030000  1.0 -0.0180939308
C  C125  1  0.40268000  0.78832000  0.75253000  1.0 0.3494961509
C  C126  1  0.21168000  0.59732000  0.25253000  1.0 0.3494961509
C  C127  1  0.14403000  0.18537000  0.55823000  1.0 0.3269037939
C  C128  1  0.81463000  0.85597000  0.05823000  1.0 0.3269037939
C  C129  1  0.23498000  0.34302000  0.53299000  1.0 0.3552549832
C  C130  1  0.65698000  0.76502000  0.03299000  1.0 0.3552549832
C  C131  1  0.37605000  0.70995000  0.78777000  1.0 0.0506277413
C  C132  1  0.29005000  0.62395000  0.28777000  1.0 0.0506277413
C  C133  1  0.31209000  0.42751000  0.50357000  1.0 0.0308247448
C  C134  1  0.57249000  0.68791000  0.00357000  1.0 0.0308247448
C  C135  1  0.51823000  0.93537000  0.71852000  1.0 0.3352939449
C  C136  1  0.06463000  0.48177000  0.21852000  1.0 0.3352939449
C  C137  1  0.36073000  0.84927000  0.69685000  1.0 0.3494961509
C  C138  1  0.15073000  0.63927000  0.19685000  1.0 0.3494961509
C  C139  1  0.28089000  0.83551000  0.66699000  1.0 0.0506277413
C  C140  1  0.16449000  0.71911000  0.16699000  1.0 0.0506277413
C  C141  1  0.14019000  0.28101000  0.58630000  1.0 0.3552549832
C  C142  1  0.71899000  0.85981000  0.08630000  1.0 0.3494961509
C  C143  1  0.28043000  0.62797000  0.79515000  1.0 -0.1597334342
C  C144  1  0.37203000  0.71957000  0.29515000  1.0 -0.1597334342
C  C145  1  0.11351000  0.09029000  0.55840000  1.0 0.0506277413
C  C146  1  0.90971000  0.88649000  0.05840000  1.0 0.0506277413
C  C147  1  0.62453000  0.02607000  0.71677000  1.0 0.0586558711
C  C148  1  0.97393000  0.37547000  0.21677000  1.0 0.0586558711
C  C149  1  0.35768000  0.41932000  0.47890000  1.0 -0.1188566248
C  C150  1  0.58068000  0.64232000  0.97890000  1.0 -0.1188566248
C  C151  1  0.11367000  0.74213000  0.64450000  1.0 0.0586558711
C  C152  1  0.25787000  0.88633000  0.14450000  1.0 0.0586558711
C  C153  1  0.26080000  0.55840000  0.82890000  1.0 -0.0896269677
C  C154  1  0.44160000  0.73920000  0.32890000  1.0 -0.0896269677
C  C155  1  0.12340000  0.06600000  0.52430000  1.0 -0.1924801245
C  C156  1  0.93400000  0.87660000  0.02430000  1.0 -0.1924801245
C  C157  1  0.18487000  0.75433000  0.67260000  1.0 -0.1403962374
C  C158  1  0.24567000  0.81513000  0.17260000  1.0 -0.1403962374
C  C159  1  0.42606000  0.49834000  0.45180000  1.0 0.0506277413
C  C160  1  0.50166000  0.57394000  0.95180000  1.0 0.0506277413
C  C161  1  0.10050000  0.29150000  0.61720000  1.0 0.0706364387
C  C162  1  0.70850000  0.89950000  0.11720000  1.0 0.0706364387
C  C163  1  0.09715000  0.97725000  0.52660000  1.0 0.0506277413
C  C164  1  0.02275000  0.90285000  0.02660000  1.0 0.0506277413
C  C165  1  0.10990000  0.37110000  0.61220000  1.0 -0.1188566248
C  C166  1  0.62890000  0.89010000  0.11220000  1.0 -0.1188566248
C  C167  1  0.79220000  0.11620000  0.74160000  1.0 0.0506277413
C  C168  1  0.88380000  0.20780000  0.24160000  1.0 0.0506277413
C  C169  1  0.33770000  0.51610000  0.49990000  1.0 -0.057540094
C  C170  1  0.48390000  0.66230000  0.99990000  1.0 -0.057540094
C  C171  1  0.44950000  0.71910000  0.81370000  1.0 -0.1188566248
C  C172  1  0.28090000  0.55050000  0.31370000  1.0 -0.1188566248
C  C173  1  0.40690000  0.59210000  0.47050000  1.0 -0.0111612568
C  C174  1  0.40790000  0.59310000  0.97050000  1.0 -0.0111612568
C  C175  1  0.65700000  0.10880000  0.69010000  1.0 -0.1287022717
C  C176  1  0.89120000  0.34300000  0.19010000  1.0 -0.1287022717
C  C177  1  0.06900000  0.37620000  0.64110000  1.0 0.0431435527
C  C178  1  0.62380000  0.93100000  0.14110000  1.0 0.0431435527
C  C179  1  0.69500000  0.03040000  0.74280000  1.0 -0.1287022717
C  C180  1  0.96960000  0.30500000  0.24280000  1.0 -0.1287022717
C  C181  1  0.75760000  0.19260000  0.69190000  1.0 -0.0011632311
C  C182  1  0.80740000  0.24240000  0.19190000  1.0 -0.0011632311
C  C183  1  0.30160000  0.90300000  0.63320000  1.0 -0.1692339908
C  C184  1  0.09700000  0.69840000  0.13320000  1.0 -0.1692339908
C  C185  1  0.42330000  0.64670000  0.84600000  1.0 0.0506277413
C  C186  1  0.35330000  0.57670000  0.34600000  1.0 0.0506277413
C  C187  1  0.22610000  0.88550000  0.60560000  1.0 0.0506277413
C  C188  1  0.11450000  0.77390000  0.10560000  1.0 0.0506277413
C  C189  1  0.05470000  0.22350000  0.65200000  1.0 -0.1491564438
C  C190  1  0.77650000  0.94530000  0.15200000  1.0 -0.1491564438
C  C191  1  0.01540000  0.23320000  0.67890000  1.0 0.0308247448
C  C192  1  0.76680000  0.98460000  0.17890000  1.0 0.0308247448
C  C193  1  0.07650000  0.02390000  0.59480000  1.0 -0.1692339908
C  C194  1  0.97610000  0.92350000  0.09480000  1.0 -0.1692339908
C  C195  1  0.05330000  0.93770000  0.59460000  1.0 0.0706364387
C  C196  1  0.06230000  0.94670000  0.09460000  1.0 0.0706364387
C  C197  1  0.82840000  0.92760000  0.64560000  1.0 -0.057540094
C  C198  1  0.07240000  0.17160000  0.14560000  1.0 -0.057540094
C  C199  1  0.84990000  0.01010000  0.66360000  1.0 -0.1403962374
C  C200  1  0.98990000  0.15010000  0.16360000  1.0 -0.1403962374
C  C201  1  0.77750000  0.02050000  0.64260000  1.0 -0.2271640934
C  C202  1  0.97950000  0.22250000  0.14260000  1.0 -0.2271640934
C  C203  1  0.77360000  0.03240000  0.59290000  1.0 -0.1135414603
C  C204  1  0.96760000  0.22640000  0.09290000  1.0 -0.1135414603
C  C205  1  0.74820000  0.94780000  0.57500000  1.0 -0.0896269677
C  C206  1  0.05220000  0.25180000  0.07500000  1.0 -0.0896269677
C  C207  1  0.81530000  0.93070000  0.59600000  1.0 -0.0111612568
C  C208  1  0.06930000  0.18470000  0.09600000  1.0 -0.0111612568
C  C209  1  0.26520000  0.65920000  0.92430000  1.0 0.1195966322
C  C210  1  0.34080000  0.73480000  0.42430000  1.0 0.1195966322
C  C211  1  0.35360000  0.74380000  0.90810000  1.0 -0.2205536018
C  C212  1  0.25620000  0.64640000  0.40810000  1.0 -0.2205536018
C  C213  1  0.43110000  0.81310000  0.93600000  1.0 -0.0180939308
C  C214  1  0.18690000  0.56890000  0.43600000  1.0 -0.0180939308
C  C215  1  0.42050000  0.79770000  0.98010000  1.0 -0.0896269677
C  C216  1  0.20230000  0.57950000  0.48010000  1.0 -0.0896269677
C  C217  1  0.33220000  0.71300000  0.99620000  1.0 -0.079490643
C  C218  1  0.28700000  0.66780000  0.49620000  1.0 -0.079490643
C  C219  1  0.25460000  0.64380000  0.96830000  1.0 -0.0011632311
C  C220  1  0.35620000  0.74540000  0.46830000  1.0 -0.0011632311
C  C221  1  0.06480000  0.52920000  0.96850000  1.0 0.0308247448
C  C222  1  0.47080000  0.93520000  0.46850000  1.0 0.0308247448
C  C223  1  0.97260000  0.44140000  0.98060000  1.0 -0.1287022717
C  C224  1  0.55860000  0.02740000  0.48060000  1.0 -0.1287022717
C  C225  1  0.96350000  0.36810000  0.00680000  1.0 -0.0896269677
C  C226  1  0.63190000  0.03650000  0.50680000  1.0 -0.0896269677
C  C227  1  0.04600000  0.38200000  0.02080000  1.0 -0.1765674688
C  C228  1  0.61800000  0.95400000  0.52080000  1.0 -0.1765674688
C  C229  1  0.13720000  0.46880000  0.00870000  1.0 0.0808674278
C  C230  1  0.53120000  0.86280000  0.50870000  1.0 0.0808674278
C  C231  1  0.14670000  0.54250000  0.98250000  1.0 -0.0180939308
C  C232  1  0.45750000  0.85330000  0.48250000  1.0 -0.0180939308
C  C233  1  0.06630000  0.60170000  0.93800000  1.0 -0.429255221
C  C234  1  0.39830000  0.93370000  0.43800000  1.0 -0.429255221
C  C235  1  0.21950000  0.41450000  0.04430000  1.0 -0.2499833535
C  C236  1  0.58550000  0.78050000  0.54430000  1.0 -0.2499833535
C  C237  1  0.74520000  0.91880000  0.56180000  1.0 -0.079490643
C  C238  1  0.08120000  0.25480000  0.06180000  1.0 -0.079490643
C  C239  1  0.72720000  0.82680000  0.56380000  1.0 -0.1597334342
C  C240  1  0.17320000  0.27280000  0.06380000  1.0 -0.1597334342
C  C241  1  0.79400000  0.82600000  0.59970000  1.0 -0.1188566248
C  C242  1  0.17400000  0.20600000  0.09970000  1.0 -0.1188566248
C  C243  1  0.78330000  0.83670000  0.64420000  1.0 -0.0972582899
C  C244  1  0.16330000  0.21670000  0.14420000  1.0 -0.0972582899
C  C245  1  0.79030000  0.92170000  0.64370000  1.0 -0.0500189885
C  C246  1  0.07830000  0.20970000  0.14370000  1.0 -0.0500189885
C  C247  1  0.81380000  0.98220000  0.59970000  1.0 -0.0180939308
C  C248  1  0.01780000  0.18620000  0.09970000  1.0 -0.0180939308
I  I1  1  0.65367000  0.86053000  0.89751000  1.0 -0.3318030797
I  I2  1  0.13947000  0.34633000  0.39751000  1.0 -0.3318030797
I  I3  1  0.76640000  0.05134000  0.00538000  1.0 -0.4882234521
I  I4  1  0.94866000  0.23360000  0.50538000  1.0 -0.4882234521
I  I5  1  0.47104000  0.00138000  0.79919000  1.0 -0.0896269677
I  I6  1  0.99862000  0.52896000  0.29919000  1.0 -0.0972582899
I  I7  1  0.29260000  0.04220000  0.70466000  1.0 0.0586558711
I  I8  1  0.95780000  0.70740000  0.20466000  1.0 0.0586558711
I  I9  1  0.38079000  0.34731000  0.63209000  1.0 0.0058522047
I  I10  1  0.65269000  0.61921000  0.13209000  1.0 -0.0011632311
I  I11  1  0.36529000  0.14657000  0.57109000  1.0 -0.057540094
I  I12  1  0.85343000  0.63471000  0.07109000  1.0 -0.057540094
I  I13  1  0.65910000  0.87450000  0.90100000  1.0 -0.2205536018
I  I14  1  0.12550000  0.34090000  0.40100000  1.0 -0.2205536018
I  I15  1  0.32151000  0.04169000  0.70712000  1.0 -0.0111612568
I  I16  1  0.95831000  0.67849000  0.20712000  1.0 -0.0180939308
I  I17  1  0.46765000  0.97635000  0.81365000  1.0 -0.0500189885
I  I18  1  0.02365000  0.53235000  0.31365000  1.0 -0.0500189885
I  I19  1  0.46890000  0.93610000  0.84570000  1.0 -0.0111612568
I  I20  1  0.06390000  0.53110000  0.34570000  1.0 -0.0111612568
I  I21  1  0.39150000  0.03110000  0.73370000  1.0 -0.0111612568
I  I22  1  0.96890000  0.60850000  0.23370000  1.0 -0.0111612568
I  I23  1  0.39152000  0.14442000  0.55813000  1.0 -0.0896269677
I  I24  1  0.85558000  0.60848000  0.05813000  1.0 -0.0896269677
I  I25  1  0.37580000  0.31920000  0.62408000  1.0 -0.0896269677
I  I26  1  0.68080000  0.62420000  0.12408000  1.0 -0.0896269677
I  I27  1  0.45620000  0.13780000  0.55870000  1.0 0.0899817031
I  I28  1  0.86220000  0.54380000  0.05870000  1.0 0.0899817031
I  I29  1  0.35570000  0.25210000  0.59570000  1.0 -0.1135414603
I  I30  1  0.74790000  0.64430000  0.09570000  1.0 -0.1188566248
I  I31  1  0.50380000  0.13900000  0.56130000  1.0 0.3098616499
I  I32  1  0.86100000  0.49620000  0.06130000  1.0 0.3039881699
I  I33  1  0.34670000  0.20730000  0.58320000  1.0 -0.079490643
I  I34  1  0.79270000  0.65330000  0.08320000  1.0 -0.079490643
I  I35  1  0.86053000  0.65367000  0.60249000  1.0 -0.3318030797
I  I36  1  0.34633000  0.13947000  0.10249000  1.0 -0.3318030797
I  I37  1  0.05134000  0.76640000  0.49462000  1.0 -0.4882234521
I  I38  1  0.23360000  0.94866000  0.99462000  1.0 -0.4882234521
I  I39  1  0.00138000  0.47104000  0.70081000  1.0 -0.0896269677
I  I40  1  0.52896000  0.99862000  0.20081000  1.0 -0.0896269677
I  I41  1  0.04220000  0.29260000  0.79534000  1.0 0.0586558711
I  I42  1  0.70740000  0.95780000  0.29534000  1.0 0.0586558711
I  I43  1  0.34731000  0.38079000  0.86791000  1.0 0.0058522047
I  I44  1  0.61921000  0.65269000  0.36791000  1.0 0.0058522047
I  I45  1  0.14657000  0.36529000  0.92891000  1.0 -0.057540094
I  I46  1  0.63471000  0.85343000  0.42891000  1.0 -0.057540094
I  I47  1  0.87450000  0.65910000  0.59900000  1.0 -0.2205536018
I  I48  1  0.34090000  0.12550000  0.09900000  1.0 -0.2205536018
I  I49  1  0.04169000  0.32151000  0.79288000  1.0 -0.0111612568
I  I50  1  0.67849000  0.95831000  0.29288000  1.0 -0.0111612568
I  I51  1  0.97635000  0.46765000  0.68635000  1.0 -0.057540094
I  I52  1  0.53235000  0.02365000  0.18635000  1.0 -0.057540094
I  I53  1  0.93610000  0.46890000  0.65430000  1.0 -0.0011632311
I  I54  1  0.53110000  0.06390000  0.15430000  1.0 -0.0011632311
I  I55  1  0.03110000  0.39150000  0.76630000  1.0 -0.0111612568
I  I56  1  0.60850000  0.96890000  0.26630000  1.0 -0.0111612568
I  I57  1  0.14442000  0.39152000  0.94187000  1.0 -0.0896269677
I  I58  1  0.60848000  0.85558000  0.44187000  1.0 -0.0896269677
I  I59  1  0.31920000  0.37580000  0.87592000  1.0 -0.0896269677
I  I60  1  0.62420000  0.68080000  0.37592000  1.0 -0.0896269677
I  I61  1  0.13780000  0.45620000  0.94130000  1.0 0.0899817031
I  I62  1  0.54380000  0.86220000  0.44130000  1.0 0.0899817031
I  I63  1  0.25210000  0.35570000  0.90430000  1.0 -0.1135414603
I  I64  1  0.64430000  0.74790000  0.40430000  1.0 -0.1135414603
I  I65  1  0.13900000  0.50380000  0.93870000  1.0 0.3098616499
I  I66  1  0.49620000  0.86100000  0.43870000  1.0 0.3098616499
I  I67  1  0.20730000  0.34670000  0.91680000  1.0 -0.0896269677
I  I68  1  0.65330000  0.79270000  0.41680000  1.0 -0.079490643
N  N1  1  0.77616000  0.33064000  0.77196000  1.0 -0.3874685317
N  N2  1  0.66936000  0.22384000  0.27196000  1.0 -0.3874685317
N  N3  1  0.86500000  0.49800000  0.75110000  1.0 -0.3993502967
N  N4  1  0.50200000  0.13500000  0.25110000  1.0 -0.3993502967
N  N5  1  0.25617000  0.20483000  0.97070000  1.0 -0.4096117802
N  N6  1  0.79517000  0.74383000  0.47070000  1.0 -0.4096117802
N  N7  1  0.93110000  0.45370000  0.80914000  1.0 -0.4096117802
N  N8  1  0.54630000  0.06890000  0.30914000  1.0 -0.4096117802
N  N9  1  0.35903000  0.20497000  0.94012000  1.0 -0.3874685317
N  N10  1  0.79503000  0.64097000  0.44012000  1.0 -0.3874685317
N  N11  1  0.19299000  0.10941000  0.91211000  1.0 -0.4204698019
N  N12  1  0.89059000  0.80701000  0.41211000  1.0 -0.4204698019
N  N13  1  0.80661000  0.13279000  0.88931000  1.0 -0.1491564438
N  N14  1  0.86721000  0.19339000  0.38931000  1.0 -0.1491564438
N  N15  1  0.19579000  0.82321000  0.78250000  1.0 -0.2054299452
N  N16  1  0.17679000  0.80421000  0.28250000  1.0 -0.2054299452
N  N17  1  0.91322000  0.06138000  0.93895000  1.0 -0.1692339908
N  N18  1  0.93862000  0.08678000  0.43895000  1.0 -0.1692339908
N  N19  1  0.56762000  0.33078000  0.64594000  1.0 -0.1692339908
N  N20  1  0.66922000  0.43238000  0.14594000  1.0 -0.1692339908
N  N21  1  0.30940000  0.02280000  0.82590000  1.0 -0.2205536018
N  N22  1  0.97720000  0.69060000  0.32590000  1.0 -0.2205536018
N  N23  1  0.58204000  0.44896000  0.05260000  1.0 -0.1597334342
N  N24  1  0.55104000  0.41796000  0.55260000  1.0 -0.1597334342
N  N25  1  0.33064000  0.77616000  0.72804000  1.0 -0.3874685317
N  N26  1  0.22384000  0.66936000  0.22804000  1.0 -0.3874685317
N  N27  1  0.49800000  0.86500000  0.74890000  1.0 -0.3993502967
N  N28  1  0.13500000  0.50200000  0.24890000  1.0 -0.3993502967
N  N29  1  0.20483000  0.25617000  0.52930000  1.0 -0.4096117802
N  N30  1  0.74383000  0.79517000  0.02930000  1.0 -0.4096117802
N  N31  1  0.45370000  0.93110000  0.69086000  1.0 -0.4096117802
N  N32  1  0.06890000  0.54630000  0.19086000  1.0 -0.4096117802
N  N33  1  0.20497000  0.35903000  0.55988000  1.0 -0.3874685317
N  N34  1  0.64097000  0.79503000  0.05988000  1.0 -0.3874685317
N  N35  1  0.10941000  0.19299000  0.58789000  1.0 -0.4204698019
N  N36  1  0.80701000  0.89059000  0.08789000  1.0 -0.4204698019
N  N37  1  0.13279000  0.80661000  0.61069000  1.0 -0.1491564438
N  N38  1  0.19339000  0.86721000  0.11069000  1.0 -0.1491564438
N  N39  1  0.82321000  0.19579000  0.71750000  1.0 -0.2054299452
N  N40  1  0.80421000  0.17679000  0.21750000  1.0 -0.2046988495
N  N41  1  0.06138000  0.91322000  0.56105000  1.0 -0.1692339908
N  N42  1  0.08678000  0.93862000  0.06105000  1.0 -0.1692339908
N  N43  1  0.33078000  0.56762000  0.85406000  1.0 -0.1692339908
N  N44  1  0.43238000  0.66922000  0.35406000  1.0 -0.1692339908
N  N45  1  0.02280000  0.30940000  0.67410000  1.0 -0.2205536018
N  N46  1  0.69060000  0.97720000  0.17410000  1.0 -0.2205536018
N  N47  1  0.44896000  0.58204000  0.44740000  1.0 -0.1597334342
N  N48  1  0.41796000  0.55104000  0.94740000  1.0 -0.1597334342
O  O1  1  0.59440000  0.20200000  0.60510000  1.0 -0.2499833535
O  O2  1  0.79800000  0.40560000  0.10510000  1.0 -0.2499833535
O  O3  1  0.49360000  0.22720000  0.47710000  1.0 -0.2562029325
O  O4  1  0.77280000  0.50640000  0.97710000  1.0 -0.2562029325
O  O5  1  0.20200000  0.59440000  0.89490000  1.0 -0.2499833535
O  O6  1  0.40560000  0.79800000  0.39490000  1.0 -0.2499833535
O  O7  1  0.22720000  0.49360000  0.02290000  1.0 -0.2562029325
O  O8  1  0.50640000  0.77280000  0.52290000  1.0 -0.2562029325
