# DDEC6 charges by PACMAN v1.1 (https://github.com/mtap-research/PACMAN-charge/)
data_LIRLEH_ASR_pacman
_symmetry_space_group_name_H-M   'P 1'
_cell_length_a   31.50770000
_cell_length_b   14.99910000
_cell_length_c   41.51900000
_cell_angle_alpha   90.00000000
_cell_angle_beta   125.82100000
_cell_angle_gamma   90.00000000
_symmetry_Int_Tables_number   1
_chemical_formula_structural   Zn5H30C39I13N12
_chemical_formula_sum   'Zn40 H240 C312 I104 N96'
_cell_volume   15909.95564074
_cell_formula_units_Z   8
loop_
 _symmetry_equiv_pos_site_id
 _symmetry_equiv_pos_as_xyz
  1  'x, y, z'
loop_
 _atom_site_type_symbol
 _atom_site_label
 _atom_site_symmetry_multiplicity
 _atom_site_fract_x
 _atom_site_fract_y
 _atom_site_fract_z
 _atom_site_occupancy
 _atom_site_charge
Zn  Zn1  1  0.77040000  0.35630000  0.67590000  1.0 0.315174655
Zn  Zn2  1  0.77040000  0.64370000  0.17590000  1.0 0.315174655
Zn  Zn3  1  0.80789000  0.65227000  0.87933000  1.0 0.3603760422
Zn  Zn4  1  0.80789000  0.34773000  0.37933000  1.0 0.3603760422
Zn  Zn5  1  0.31575000  0.84661000  0.86842000  1.0 0.2512889811
Zn  Zn6  1  0.31575000  0.15339000  0.36842000  1.0 0.2512889811
Zn  Zn7  1  0.85615000  0.59627000  0.56111000  1.0 0.3603760422
Zn  Zn8  1  0.85615000  0.40373000  0.06111000  1.0 0.3603760422
Zn  Zn9  1  0.27369000  0.12320000  0.66873000  1.0 0.1735235114
Zn  Zn10  1  0.27369000  0.87680000  0.16873000  1.0 0.1735235114
Zn  Zn11  1  0.34320000  0.88640000  0.57130000  1.0 0.0108657316
Zn  Zn12  1  0.34320000  0.11360000  0.07130000  1.0 0.0108657316
Zn  Zn13  1  0.75780000  0.35440000  0.67360000  1.0 0.3389775072
Zn  Zn14  1  0.75780000  0.64560000  0.17360000  1.0 0.3389775072
Zn  Zn15  1  0.25430000  0.12950000  0.65570000  1.0 0.2218378245
Zn  Zn16  1  0.25430000  0.87050000  0.15570000  1.0 0.2218378245
Zn  Zn17  1  0.34620000  0.88750000  0.56220000  1.0 0.0799271203
Zn  Zn18  1  0.34620000  0.11250000  0.06220000  1.0 0.0698341118
Zn  Zn19  1  0.35800000  0.89000000  0.54400000  1.0 0.0205524055
Zn  Zn20  1  0.35800000  0.11000000  0.04400000  1.0 0.0108657316
Zn  Zn21  1  0.22960000  0.35630000  0.82410000  1.0 0.3137180069
Zn  Zn22  1  0.22960000  0.64370000  0.32410000  1.0 0.3137180069
Zn  Zn23  1  0.19211000  0.65227000  0.62067000  1.0 0.3603760422
Zn  Zn24  1  0.19211000  0.34773000  0.12067000  1.0 0.3603760422
Zn  Zn25  1  0.68425000  0.84661000  0.63158000  1.0 0.2512889811
Zn  Zn26  1  0.68425000  0.15339000  0.13158000  1.0 0.2512889811
Zn  Zn27  1  0.14385000  0.59627000  0.93889000  1.0 0.3603760422
Zn  Zn28  1  0.14385000  0.40373000  0.43889000  1.0 0.3603760422
Zn  Zn29  1  0.72631000  0.12320000  0.83127000  1.0 0.1752692619
Zn  Zn30  1  0.72631000  0.87680000  0.33127000  1.0 0.1735235114
Zn  Zn31  1  0.65680000  0.88640000  0.92870000  1.0 0.0108657316
Zn  Zn32  1  0.65680000  0.11360000  0.42870000  1.0 0.0108657316
Zn  Zn33  1  0.24220000  0.35440000  0.82640000  1.0 0.3389775072
Zn  Zn34  1  0.24220000  0.64560000  0.32640000  1.0 0.3389775072
Zn  Zn35  1  0.74570000  0.12950000  0.84430000  1.0 0.2253913143
Zn  Zn36  1  0.74570000  0.87050000  0.34430000  1.0 0.2218378245
Zn  Zn37  1  0.65380000  0.88750000  0.93780000  1.0 0.0799271203
Zn  Zn38  1  0.65380000  0.11250000  0.43780000  1.0 0.0799271203
Zn  Zn39  1  0.64200000  0.89000000  0.95600000  1.0 0.0205524055
Zn  Zn40  1  0.64200000  0.11000000  0.45600000  1.0 0.0108657316
H  H1  1  0.85572000  0.90308000  0.60932000  1.0 0.1302472297
H  H2  1  0.85572000  0.09692000  0.10932000  1.0 0.1302472297
H  H3  1  0.81808000  0.09164000  0.63146000  1.0 0.1204668685
H  H4  1  0.81808000  0.90836000  0.13146000  1.0 0.1204668685
H  H5  1  0.75455000  0.10083000  0.74894000  1.0 0.1352521115
H  H6  1  0.75455000  0.89917000  0.24894000  1.0 0.1352521115
H  H7  1  0.86321000  0.74933000  0.61101000  1.0 0.0799271203
H  H8  1  0.86321000  0.25067000  0.11101000  1.0 0.0799271203
H  H9  1  0.78671000  0.30681000  0.48910000  1.0 0.1302472297
H  H10  1  0.78671000  0.69319000  0.98910000  1.0 0.1302472297
H  H11  1  0.27726000  0.83261000  0.04876000  1.0 0.1099414938
H  H12  1  0.27726000  0.16739000  0.54876000  1.0 0.1099414938
H  H13  1  0.79270000  0.22075000  0.74013000  1.0 0.0799271203
H  H14  1  0.79270000  0.77925000  0.24013000  1.0 0.0799271203
H  H15  1  0.15542000  0.73944000  0.74094000  1.0 0.1302472297
H  H16  1  0.15542000  0.26056000  0.24094000  1.0 0.1302472297
H  H17  1  0.20903000  0.83581000  0.79337000  1.0 0.0698341118
H  H18  1  0.20903000  0.16419000  0.29337000  1.0 0.0698341118
H  H19  1  0.78282000  0.31080000  0.56427000  1.0 0.1302472297
H  H20  1  0.78282000  0.68920000  0.06427000  1.0 0.1302472297
H  H21  1  0.30422000  0.27087000  0.72751000  1.0 0.0799271203
H  H22  1  0.30422000  0.72913000  0.22751000  1.0 0.0799271203
H  H23  1  0.83187000  0.89950000  0.50340000  1.0 0.1302472297
H  H24  1  0.83187000  0.10050000  0.00340000  1.0 0.1302472297
H  H25  1  0.83695000  0.74664000  0.50703000  1.0 0.0921462663
H  H26  1  0.83695000  0.25336000  0.00703000  1.0 0.0921462663
H  H27  1  0.26974000  0.39707000  0.73682000  1.0 0.1302472297
H  H28  1  0.26974000  0.60293000  0.23682000  1.0 0.1302472297
H  H29  1  0.77898000  0.37741000  0.43629000  1.0 0.0921462663
H  H30  1  0.77898000  0.62259000  0.93629000  1.0 0.0921462663
H  H31  1  0.79803000  0.17056000  0.66892000  1.0 0.0698341118
H  H32  1  0.79803000  0.82944000  0.16892000  1.0 0.0698341118
H  H33  1  0.84529000  0.09141000  0.46900000  1.0 0.1204668685
H  H34  1  0.84529000  0.90859000  0.96900000  1.0 0.1204668685
H  H35  1  0.61855000  0.15662000  0.64443000  1.0 0.1302472297
H  H36  1  0.61855000  0.84338000  0.14443000  1.0 0.1302472297
H  H37  1  0.28135000  0.58756000  0.77978000  1.0 0.1302472297
H  H38  1  0.28135000  0.41244000  0.27978000  1.0 0.1302472297
H  H39  1  0.76289000  0.38385000  0.60271000  1.0 0.0507769956
H  H40  1  0.76289000  0.61615000  0.10271000  1.0 0.0507769956
H  H41  1  0.32048000  0.39514000  0.99294000  1.0 0.1099414938
H  H42  1  0.32048000  0.60486000  0.49294000  1.0 0.1099414938
H  H43  1  0.28487000  0.81913000  0.97404000  1.0 0.1204668685
H  H44  1  0.28487000  0.18087000  0.47404000  1.0 0.1204668685
H  H45  1  0.03809000  0.63711000  0.68191000  1.0 0.1302472297
H  H46  1  0.03809000  0.36289000  0.18191000  1.0 0.1302472297
H  H47  1  0.32703000  0.24288000  0.00540000  1.0 0.0698341118
H  H48  1  0.32703000  0.75712000  0.50540000  1.0 0.0698341118
H  H49  1  0.76686000  0.87380000  0.77448000  1.0 0.1204668685
H  H50  1  0.76686000  0.12620000  0.27448000  1.0 0.1204668685
H  H51  1  0.32492000  0.66251000  0.89960000  1.0 0.0607328788
H  H52  1  0.32492000  0.33749000  0.39960000  1.0 0.0607328788
H  H53  1  0.26444000  0.90920000  0.09183000  1.0 0.0698341118
H  H54  1  0.26444000  0.09080000  0.59183000  1.0 0.0698341118
H  H55  1  0.33140000  0.68569000  0.83294000  1.0 0.0698341118
H  H56  1  0.33140000  0.31431000  0.33294000  1.0 0.0698341118
H  H57  1  0.32316000  0.58597000  0.94770000  1.0 0.1099414938
H  H58  1  0.32316000  0.41403000  0.44770000  1.0 0.1099414938
H  H59  1  0.33800000  0.43456000  0.09582000  1.0 0.1352521115
H  H60  1  0.33800000  0.56544000  0.59582000  1.0 0.1352521115
H  H61  1  0.83869000  0.17130000  0.41806000  1.0 0.0698341118
H  H62  1  0.83869000  0.82870000  0.91806000  1.0 0.0698341118
H  H63  1  0.28487000  0.88668000  0.92442000  1.0 0.0698341118
H  H64  1  0.28487000  0.11332000  0.42442000  1.0 0.0698341118
H  H65  1  0.34536000  0.28132000  0.10542000  1.0 0.0799271203
H  H66  1  0.34536000  0.71868000  0.60542000  1.0 0.0799271203
H  H67  1  0.51531000  0.02035000  0.61051000  1.0 0.1204668685
H  H68  1  0.51531000  0.97965000  0.11051000  1.0 0.1204668685
H  H69  1  0.81854000  0.77821000  0.82925000  1.0 0.0698341118
H  H70  1  0.81854000  0.22179000  0.32925000  1.0 0.0698341118
H  H71  1  0.65946000  0.27811000  0.63785000  1.0 0.0698341118
H  H72  1  0.65946000  0.72189000  0.13785000  1.0 0.0698341118
H  H73  1  0.94729000  0.65488000  0.63809000  1.0 0.0921462663
H  H74  1  0.94729000  0.34512000  0.13809000  1.0 0.0921462663
H  H75  1  0.30967000  0.61204000  0.11493000  1.0 0.1204668685
H  H76  1  0.30967000  0.38796000  0.61493000  1.0 0.1204668685
H  H77  1  0.42714000  0.99285000  0.56938000  1.0 0.0698341118
H  H78  1  0.42714000  0.00715000  0.06938000  1.0 0.0698341118
H  H79  1  0.93880000  0.49889000  0.55993000  1.0 0.1003469585
H  H80  1  0.93880000  0.50111000  0.05993000  1.0 0.1003469585
H  H81  1  0.02902000  0.47496000  0.60115000  1.0 0.1204668685
H  H82  1  0.02902000  0.52504000  0.10115000  1.0 0.1204668685
H  H83  1  0.16665000  0.20403000  0.63360000  1.0 0.0698341118
H  H84  1  0.16665000  0.79597000  0.13360000  1.0 0.0698341118
H  H85  1  0.12737000  0.32350000  0.64153000  1.0 0.1302472297
H  H86  1  0.12737000  0.67650000  0.14153000  1.0 0.1302472297
H  H87  1  0.28881000  0.69360000  0.15134000  1.0 0.0921462663
H  H88  1  0.28881000  0.30640000  0.65134000  1.0 0.0921462663
H  H89  1  0.52698000  0.84393000  0.68860000  1.0 0.1204668685
H  H90  1  0.52698000  0.15607000  0.18860000  1.0 0.1204668685
H  H91  1  0.43698000  0.81936000  0.64347000  1.0 0.0921462663
H  H92  1  0.43698000  0.18064000  0.14347000  1.0 0.0921462663
H  H93  1  0.64282000  0.79502000  0.76939000  1.0 0.1302472297
H  H94  1  0.64282000  0.20498000  0.26939000  1.0 0.1302472297
H  H95  1  0.69898000  0.71374000  0.82714000  1.0 0.1003469585
H  H96  1  0.69898000  0.28626000  0.32714000  1.0 0.1003469585
H  H97  1  0.34226000  0.82845000  0.45551000  1.0 0.1099414938
H  H98  1  0.34226000  0.17155000  0.95551000  1.0 0.1099414938
H  H99  1  0.35136000  0.75636000  0.43111000  1.0 0.0921462663
H  H100  1  0.35136000  0.24364000  0.93111000  1.0 0.0921462663
H  H101  1  0.42157000  0.98480000  0.45996000  1.0 0.0921462663
H  H102  1  0.42157000  0.01520000  0.95996000  1.0 0.0921462663
H  H103  1  0.37936000  0.96309000  0.46883000  1.0 0.0921462663
H  H104  1  0.37936000  0.03691000  0.96883000  1.0 0.0921462663
H  H105  1  0.40436000  0.85230000  0.51979000  1.0 0.0921462663
H  H106  1  0.40436000  0.14770000  0.01979000  1.0 0.0921462663
H  H107  1  0.46151000  0.80886000  0.54120000  1.0 0.0921462663
H  H108  1  0.46151000  0.19114000  0.04120000  1.0 0.0921462663
H  H109  1  0.41958000  0.84150000  0.44372000  1.0 0.0698341118
H  H110  1  0.41958000  0.15850000  0.94372000  1.0 0.0698341118
H  H111  1  0.36388000  0.88933000  0.41555000  1.0 0.0698341118
H  H112  1  0.36388000  0.11067000  0.91555000  1.0 0.0698341118
H  H113  1  0.40283000  0.71805000  0.49426000  1.0 0.1003469585
H  H114  1  0.40283000  0.28195000  0.99426000  1.0 0.1003469585
H  H115  1  0.43856000  0.75835000  0.48200000  1.0 0.0607328788
H  H116  1  0.43856000  0.24165000  0.98200000  1.0 0.0607328788
H  H117  1  0.47727000  0.88907000  0.50498000  1.0 0.0799271203
H  H118  1  0.47727000  0.11093000  0.00498000  1.0 0.0799271203
H  H119  1  0.45846000  0.95451000  0.52479000  1.0 0.0921462663
H  H120  1  0.45846000  0.04549000  0.02479000  1.0 0.0921462663
H  H121  1  0.14428000  0.90308000  0.89068000  1.0 0.1302472297
H  H122  1  0.14428000  0.09692000  0.39068000  1.0 0.1302472297
H  H123  1  0.18192000  0.09164000  0.86854000  1.0 0.1099414938
H  H124  1  0.18192000  0.90836000  0.36854000  1.0 0.1099414938
H  H125  1  0.24545000  0.10083000  0.75106000  1.0 0.1352521115
H  H126  1  0.24545000  0.89917000  0.25106000  1.0 0.1352521115
H  H127  1  0.13679000  0.74933000  0.88899000  1.0 0.0799271203
H  H128  1  0.13679000  0.25067000  0.38899000  1.0 0.0799271203
H  H129  1  0.21329000  0.30681000  0.01090000  1.0 0.1302472297
H  H130  1  0.21329000  0.69319000  0.51090000  1.0 0.1302472297
H  H131  1  0.72274000  0.83261000  0.45124000  1.0 0.1099414938
H  H132  1  0.72274000  0.16739000  0.95124000  1.0 0.1099414938
H  H133  1  0.20730000  0.22075000  0.75987000  1.0 0.0799271203
H  H134  1  0.20730000  0.77925000  0.25987000  1.0 0.0799271203
H  H135  1  0.84458000  0.73944000  0.75906000  1.0 0.1302472297
H  H136  1  0.84458000  0.26056000  0.25906000  1.0 0.1302472297
H  H137  1  0.79097000  0.83581000  0.70663000  1.0 0.0698341118
H  H138  1  0.79097000  0.16419000  0.20663000  1.0 0.0698341118
H  H139  1  0.21718000  0.31080000  0.93573000  1.0 0.1302472297
H  H140  1  0.21718000  0.68920000  0.43573000  1.0 0.1302472297
H  H141  1  0.69578000  0.27087000  0.77249000  1.0 0.0799271203
H  H142  1  0.69578000  0.72913000  0.27249000  1.0 0.0799271203
H  H143  1  0.16813000  0.89950000  0.99660000  1.0 0.1302472297
H  H144  1  0.16813000  0.10050000  0.49660000  1.0 0.1302472297
H  H145  1  0.16305000  0.74664000  0.99297000  1.0 0.0921462663
H  H146  1  0.16305000  0.25336000  0.49297000  1.0 0.0921462663
H  H147  1  0.73026000  0.39707000  0.76318000  1.0 0.1302472297
H  H148  1  0.73026000  0.60293000  0.26318000  1.0 0.1302472297
H  H149  1  0.22102000  0.37741000  0.06371000  1.0 0.0921462663
H  H150  1  0.22102000  0.62259000  0.56371000  1.0 0.0921462663
H  H151  1  0.20197000  0.17056000  0.83108000  1.0 0.0698341118
H  H152  1  0.20197000  0.82944000  0.33108000  1.0 0.0698341118
H  H153  1  0.15471000  0.09141000  0.03100000  1.0 0.1204668685
H  H154  1  0.15471000  0.90859000  0.53100000  1.0 0.1204668685
H  H155  1  0.38145000  0.15662000  0.85557000  1.0 0.1302472297
H  H156  1  0.38145000  0.84338000  0.35557000  1.0 0.1302472297
H  H157  1  0.71865000  0.58756000  0.72022000  1.0 0.1302472297
H  H158  1  0.71865000  0.41244000  0.22022000  1.0 0.1302472297
H  H159  1  0.23711000  0.38385000  0.89729000  1.0 0.0507769956
H  H160  1  0.23711000  0.61615000  0.39729000  1.0 0.0507769956
H  H161  1  0.67952000  0.39514000  0.50706000  1.0 0.1099414938
H  H162  1  0.67952000  0.60486000  0.00706000  1.0 0.1099414938
H  H163  1  0.71513000  0.81913000  0.52596000  1.0 0.1204668685
H  H164  1  0.71513000  0.18087000  0.02596000  1.0 0.1204668685
H  H165  1  0.96191000  0.63711000  0.81809000  1.0 0.1302472297
H  H166  1  0.96191000  0.36289000  0.31809000  1.0 0.1302472297
H  H167  1  0.67297000  0.24288000  0.49460000  1.0 0.0698341118
H  H168  1  0.67297000  0.75712000  0.99460000  1.0 0.0698341118
H  H169  1  0.23314000  0.87380000  0.72552000  1.0 0.1204668685
H  H170  1  0.23314000  0.12620000  0.22552000  1.0 0.1204668685
H  H171  1  0.67508000  0.66251000  0.60040000  1.0 0.0607328788
H  H172  1  0.67508000  0.33749000  0.10040000  1.0 0.0607328788
H  H173  1  0.73556000  0.90920000  0.40817000  1.0 0.0698341118
H  H174  1  0.73556000  0.09080000  0.90817000  1.0 0.0698341118
H  H175  1  0.66860000  0.68569000  0.66706000  1.0 0.0698341118
H  H176  1  0.66860000  0.31431000  0.16706000  1.0 0.0698341118
H  H177  1  0.67684000  0.58597000  0.55230000  1.0 0.1099414938
H  H178  1  0.67684000  0.41403000  0.05230000  1.0 0.1099414938
H  H179  1  0.66200000  0.43456000  0.40418000  1.0 0.1352521115
H  H180  1  0.66200000  0.56544000  0.90418000  1.0 0.1352521115
H  H181  1  0.16131000  0.17130000  0.08194000  1.0 0.0698341118
H  H182  1  0.16131000  0.82870000  0.58194000  1.0 0.0698341118
H  H183  1  0.71513000  0.88668000  0.57558000  1.0 0.0698341118
H  H184  1  0.71513000  0.11332000  0.07558000  1.0 0.0698341118
H  H185  1  0.65464000  0.28132000  0.39458000  1.0 0.0799271203
H  H186  1  0.65464000  0.71868000  0.89458000  1.0 0.0799271203
H  H187  1  0.48469000  0.02035000  0.88949000  1.0 0.1204668685
H  H188  1  0.48469000  0.97965000  0.38949000  1.0 0.1204668685
H  H189  1  0.18146000  0.77821000  0.67075000  1.0 0.0698341118
H  H190  1  0.18146000  0.22179000  0.17075000  1.0 0.0698341118
H  H191  1  0.34054000  0.27811000  0.86215000  1.0 0.0698341118
H  H192  1  0.34054000  0.72189000  0.36215000  1.0 0.0698341118
H  H193  1  0.05271000  0.65488000  0.86191000  1.0 0.0921462663
H  H194  1  0.05271000  0.34512000  0.36191000  1.0 0.0921462663
H  H195  1  0.69033000  0.61204000  0.38507000  1.0 0.1204668685
H  H196  1  0.69033000  0.38796000  0.88507000  1.0 0.1204668685
H  H197  1  0.57286000  0.99285000  0.93062000  1.0 0.0698341118
H  H198  1  0.57286000  0.00715000  0.43062000  1.0 0.0698341118
H  H199  1  0.06120000  0.49889000  0.94007000  1.0 0.1003469585
H  H200  1  0.06120000  0.50111000  0.44007000  1.0 0.1003469585
H  H201  1  0.97098000  0.47496000  0.89885000  1.0 0.1204668685
H  H202  1  0.97098000  0.52504000  0.39885000  1.0 0.1204668685
H  H203  1  0.83335000  0.20403000  0.86640000  1.0 0.0698341118
H  H204  1  0.83335000  0.79597000  0.36640000  1.0 0.0698341118
H  H205  1  0.87263000  0.32350000  0.85847000  1.0 0.1302472297
H  H206  1  0.87263000  0.67650000  0.35847000  1.0 0.1302472297
H  H207  1  0.71119000  0.69360000  0.34866000  1.0 0.0921462663
H  H208  1  0.71119000  0.30640000  0.84866000  1.0 0.0921462663
H  H209  1  0.47302000  0.84393000  0.81140000  1.0 0.1204668685
H  H210  1  0.47302000  0.15607000  0.31140000  1.0 0.1204668685
H  H211  1  0.56302000  0.81936000  0.85653000  1.0 0.0921462663
H  H212  1  0.56302000  0.18064000  0.35653000  1.0 0.0921462663
H  H213  1  0.35718000  0.79502000  0.73061000  1.0 0.1302472297
H  H214  1  0.35718000  0.20498000  0.23061000  1.0 0.1302472297
H  H215  1  0.30102000  0.71374000  0.67286000  1.0 0.1003469585
H  H216  1  0.30102000  0.28626000  0.17286000  1.0 0.1003469585
H  H217  1  0.65774000  0.82845000  0.04449000  1.0 0.1099414938
H  H218  1  0.65774000  0.17155000  0.54449000  1.0 0.1099414938
H  H219  1  0.64864000  0.75636000  0.06889000  1.0 0.0921462663
H  H220  1  0.64864000  0.24364000  0.56889000  1.0 0.0921462663
H  H221  1  0.57843000  0.98480000  0.04004000  1.0 0.0921462663
H  H222  1  0.57843000  0.01520000  0.54004000  1.0 0.0921462663
H  H223  1  0.62064000  0.96309000  0.03117000  1.0 0.0921462663
H  H224  1  0.62064000  0.03691000  0.53117000  1.0 0.0921462663
H  H225  1  0.59564000  0.85230000  0.98021000  1.0 0.0921462663
H  H226  1  0.59564000  0.14770000  0.48021000  1.0 0.0921462663
H  H227  1  0.53849000  0.80886000  0.95880000  1.0 0.0921462663
H  H228  1  0.53849000  0.19114000  0.45880000  1.0 0.0921462663
H  H229  1  0.58042000  0.84150000  0.05628000  1.0 0.0698341118
H  H230  1  0.58042000  0.15850000  0.55628000  1.0 0.0698341118
H  H231  1  0.63612000  0.88933000  0.08445000  1.0 0.0698341118
H  H232  1  0.63612000  0.11067000  0.58445000  1.0 0.0698341118
H  H233  1  0.59717000  0.71805000  0.00574000  1.0 0.1003469585
H  H234  1  0.59717000  0.28195000  0.50574000  1.0 0.1003469585
H  H235  1  0.56144000  0.75835000  0.01800000  1.0 0.0607328788
H  H236  1  0.56144000  0.24165000  0.51800000  1.0 0.0607328788
H  H237  1  0.52273000  0.88907000  0.99502000  1.0 0.0799271203
H  H238  1  0.52273000  0.11093000  0.49502000  1.0 0.0799271203
H  H239  1  0.54154000  0.95451000  0.97521000  1.0 0.0921462663
H  H240  1  0.54154000  0.04549000  0.47521000  1.0 0.0921462663
C  C1  1  0.81950000  0.14320000  0.51730000  1.0 0.349473519
C  C2  1  0.81950000  0.85680000  0.01730000  1.0 0.349473519
C  C3  1  0.21280000  0.65010000  0.75670000  1.0 0.0607328788
C  C4  1  0.21280000  0.34990000  0.25670000  1.0 0.0607328788
C  C5  1  0.81400000  0.14440000  0.56850000  1.0 0.3389775072
C  C6  1  0.81400000  0.85560000  0.06850000  1.0 0.3389775072
C  C7  1  0.66720000  0.90750000  0.73350000  1.0 0.3389775072
C  C8  1  0.66720000  0.09250000  0.23350000  1.0 0.3389775072
C  C9  1  0.65830000  0.03280000  0.70020000  1.0 0.3279769727
C  C10  1  0.65830000  0.96720000  0.20020000  1.0 0.3279769727
C  C11  1  0.68260000  0.11390000  0.69640000  1.0 0.0607328788
C  C12  1  0.68260000  0.88610000  0.19640000  1.0 0.0607328788
C  C13  1  0.17110000  0.45820000  0.69200000  1.0 0.349473519
C  C14  1  0.17110000  0.54180000  0.19200000  1.0 0.349473519
C  C15  1  0.84110000  0.91900000  0.55510000  1.0 0.0405441295
C  C16  1  0.84110000  0.08100000  0.05510000  1.0 0.0405441295
C  C17  1  0.80270000  0.19280000  0.59390000  1.0 0.0698341118
C  C18  1  0.80270000  0.80720000  0.09390000  1.0 0.0698341118
C  C19  1  0.83320000  0.01730000  0.55130000  1.0 0.349473519
C  C20  1  0.83320000  0.98270000  0.05130000  1.0 0.349473519
C  C21  1  0.81630000  0.19110000  0.48480000  1.0 0.0405441295
C  C22  1  0.81630000  0.80890000  0.98480000  1.0 0.0405441295
C  C23  1  0.69970000  0.84680000  0.76650000  1.0 0.0405441295
C  C24  1  0.69970000  0.15320000  0.26650000  1.0 0.0405441295
C  C25  1  0.85150000  0.87240000  0.58760000  1.0 -0.1703573811
C  C26  1  0.85150000  0.12760000  0.08760000  1.0 -0.1703573811
C  C27  1  0.19490000  0.37620000  0.68890000  1.0 0.0507769956
C  C28  1  0.19490000  0.62380000  0.18890000  1.0 0.0507769956
C  C29  1  0.80680000  0.15190000  0.62500000  1.0 -0.1576845761
C  C30  1  0.80680000  0.84810000  0.12500000  1.0 -0.1576845761
C  C31  1  0.04270000  0.55200000  0.64610000  1.0 0.0507769956
C  C32  1  0.04270000  0.44800000  0.14610000  1.0 0.0507769956
C  C33  1  0.73460000  0.13560000  0.72540000  1.0 -0.1576845761
C  C34  1  0.73460000  0.86440000  0.22540000  1.0 -0.1576845761
C  C35  1  0.85570000  0.78060000  0.58830000  1.0 0.0507769956
C  C36  1  0.85570000  0.21940000  0.08830000  1.0 0.0507769956
C  C37  1  0.30380000  0.66180000  0.05170000  1.0 0.3603760422
C  C38  1  0.30380000  0.33820000  0.55170000  1.0 0.3603760422
C  C39  1  0.53070000  0.93690000  0.65400000  1.0 0.0405441295
C  C40  1  0.53070000  0.06310000  0.15400000  1.0 0.0405441295
C  C41  1  0.30660000  0.65020000  0.99950000  1.0 0.349473519
C  C42  1  0.30660000  0.34980000  0.49950000  1.0 0.349473519
C  C43  1  0.17890000  0.58520000  0.72390000  1.0 0.349473519
C  C44  1  0.17890000  0.41480000  0.22390000  1.0 0.349473519
C  C45  1  0.79710000  0.27670000  0.47460000  1.0 -0.1412753473
C  C46  1  0.79710000  0.72330000  0.97460000  1.0 -0.1412753473
C  C47  1  0.58840000  0.95190000  0.68160000  1.0 0.3279769727
C  C48  1  0.58840000  0.04810000  0.18160000  1.0 0.3279769727
C  C49  1  0.28070000  0.80250000  0.07030000  1.0 -0.1576845761
C  C50  1  0.28070000  0.19750000  0.57030000  1.0 -0.1576845761
C  C51  1  0.75710000  0.20680000  0.72020000  1.0 0.0306278077
C  C52  1  0.75710000  0.79320000  0.22020000  1.0 0.0306278077
C  C53  1  0.19140000  0.72600000  0.75980000  1.0 -0.1507363162
C  C54  1  0.19140000  0.27400000  0.25980000  1.0 -0.1507363162
C  C55  1  0.32760000  0.43180000  0.04270000  1.0 0.0405441295
C  C56  1  0.32760000  0.56820000  0.54270000  1.0 0.0405441295
C  C57  1  0.29390000  0.71430000  0.07730000  1.0 0.0507769956
C  C58  1  0.29390000  0.28570000  0.57730000  1.0 0.0507769956
C  C59  1  0.30480000  0.69620000  0.96640000  1.0 0.0698341118
C  C60  1  0.30480000  0.30380000  0.46640000  1.0 0.0698341118
C  C61  1  0.22380000  0.78280000  0.79130000  1.0 0.0607328788
C  C62  1  0.22380000  0.21720000  0.29130000  1.0 0.0607328788
C  C63  1  0.78600000  0.28050000  0.58570000  1.0 -0.1507363162
C  C64  1  0.78600000  0.71950000  0.08570000  1.0 -0.1507363162
C  C65  1  0.26780000  0.28250000  0.70930000  1.0 0.0507769956
C  C66  1  0.26780000  0.71750000  0.20930000  1.0 0.0507769956
C  C67  1  0.83720000  0.87010000  0.52580000  1.0 -0.1507363162
C  C68  1  0.83720000  0.12990000  0.02580000  1.0 -0.1507363162
C  C69  1  0.84100000  0.77910000  0.52830000  1.0 0.0698341118
C  C70  1  0.84100000  0.22090000  0.02830000  1.0 0.0698341118
C  C71  1  0.24760000  0.35830000  0.71510000  1.0 -0.1576845761
C  C72  1  0.24760000  0.64170000  0.21510000  1.0 -0.1576845761
C  C73  1  0.79300000  0.31880000  0.44330000  1.0 0.0799271203
C  C74  1  0.79300000  0.68120000  0.94330000  1.0 0.0799271203
C  C75  1  0.10060000  0.53860000  0.67320000  1.0 0.3389775072
C  C76  1  0.10060000  0.46140000  0.17320000  1.0 0.3389775072
C  C77  1  0.79450000  0.19920000  0.64710000  1.0 0.0405441295
C  C78  1  0.79450000  0.80080000  0.14710000  1.0 0.0405441295
C  C79  1  0.83190000  0.15050000  0.46310000  1.0 -0.1576845761
C  C80  1  0.83190000  0.84950000  0.96310000  1.0 -0.1576845761
C  C81  1  0.32080000  0.52970000  0.03600000  1.0 0.3603760422
C  C82  1  0.32080000  0.47030000  0.53600000  1.0 0.3603760422
C  C83  1  0.65460000  0.16790000  0.66420000  1.0 -0.1576845761
C  C84  1  0.65460000  0.83210000  0.16420000  1.0 -0.1576845761
C  C85  1  0.26510000  0.63700000  0.78280000  1.0 -0.1576845761
C  C86  1  0.26510000  0.36300000  0.28280000  1.0 -0.1576845761
C  C87  1  0.77410000  0.32350000  0.60860000  1.0 0.0507769956
C  C88  1  0.77410000  0.67650000  0.10860000  1.0 0.0507769956
C  C89  1  0.32520000  0.37370000  0.01640000  1.0 -0.1576845761
C  C90  1  0.32520000  0.62630000  0.51640000  1.0 -0.1576845761
C  C91  1  0.29320000  0.78560000  0.95900000  1.0 -0.1507363162
C  C92  1  0.29320000  0.21440000  0.45900000  1.0 -0.1507363162
C  C93  1  0.01860000  0.60700000  0.65710000  1.0 -0.1576845761
C  C94  1  0.01860000  0.39300000  0.15710000  1.0 -0.1576845761
C  C95  1  0.32970000  0.28260000  0.02430000  1.0 -0.0196996168
C  C96  1  0.32970000  0.71740000  0.52430000  1.0 -0.0196996168
C  C97  1  0.75090000  0.83980000  0.78400000  1.0 -0.1703573811
C  C98  1  0.75090000  0.16020000  0.28400000  1.0 -0.1703573811
C  C99  1  0.31660000  0.69440000  0.91500000  1.0 0.0507769956
C  C100  1  0.31660000  0.30560000  0.41500000  1.0 0.0507769956
C  C101  1  0.27240000  0.84730000  0.09590000  1.0 0.0306278077
C  C102  1  0.27240000  0.15270000  0.59590000  1.0 0.0306278077
C  C103  1  0.29500000  0.69650000  0.81420000  1.0 0.0507769956
C  C104  1  0.29500000  0.30350000  0.31420000  1.0 0.0507769956
C  C105  1  0.31610000  0.64810000  0.94370000  1.0 -0.1576845761
C  C106  1  0.31610000  0.35190000  0.44370000  1.0 -0.1576845761
C  C107  1  0.33560000  0.39650000  0.07650000  1.0 -0.1274914398
C  C108  1  0.33560000  0.60350000  0.57650000  1.0 -0.1274914398
C  C109  1  0.82740000  0.19850000  0.43250000  1.0 0.0507769956
C  C110  1  0.82740000  0.80150000  0.93250000  1.0 0.0507769956
C  C111  1  0.29370000  0.82530000  0.92970000  1.0 0.0405441295
C  C112  1  0.29370000  0.17470000  0.42970000  1.0 0.0405441295
C  C113  1  0.34010000  0.30500000  0.08210000  1.0 0.0405441295
C  C114  1  0.34010000  0.69500000  0.58210000  1.0 0.0405441295
C  C115  1  0.50010000  0.97910000  0.61840000  1.0 -0.1703573811
C  C116  1  0.50010000  0.02090000  0.11840000  1.0 -0.1703573811
C  C117  1  0.78200000  0.78160000  0.81700000  1.0 0.0799271203
C  C118  1  0.78200000  0.21840000  0.31700000  1.0 0.0799271203
C  C119  1  0.67940000  0.24030000  0.66040000  1.0 0.0607328788
C  C120  1  0.67940000  0.75970000  0.16040000  1.0 0.0607328788
C  C121  1  0.96430000  0.61720000  0.63050000  1.0 0.0698341118
C  C122  1  0.96430000  0.38280000  0.13050000  1.0 0.0698341118
C  C123  1  0.29900000  0.67250000  0.10860000  1.0 -0.1274914398
C  C124  1  0.29900000  0.32750000  0.60860000  1.0 -0.1274914398
C  C125  1  0.44790000  0.96250000  0.59410000  1.0 -0.0196996168
C  C126  1  0.44790000  0.03750000  0.09410000  1.0 -0.0196996168
C  C127  1  0.95930000  0.52680000  0.58520000  1.0 0.0799271203
C  C128  1  0.95930000  0.47320000  0.08520000  1.0 0.0799271203
C  C129  1  0.01300000  0.51230000  0.60970000  1.0 -0.1576845761
C  C130  1  0.01300000  0.48770000  0.10970000  1.0 -0.1576845761
C  C131  1  0.18790000  0.24370000  0.65520000  1.0 0.0507769956
C  C132  1  0.18790000  0.75630000  0.15520000  1.0 0.0507769956
C  C133  1  0.16420000  0.31570000  0.65910000  1.0 -0.1412753473
C  C134  1  0.16420000  0.68430000  0.15910000  1.0 -0.1412753473
C  C135  1  0.28760000  0.72280000  0.13050000  1.0 0.0698341118
C  C136  1  0.28760000  0.27720000  0.63050000  1.0 0.0698341118
C  C137  1  0.50720000  0.87550000  0.66420000  1.0 -0.1507363162
C  C138  1  0.50720000  0.12450000  0.16420000  1.0 -0.1507363162
C  C139  1  0.45350000  0.86190000  0.63720000  1.0 0.0507769956
C  C140  1  0.45350000  0.13810000  0.13720000  1.0 0.0507769956
C  C141  1  0.67940000  0.79530000  0.78160000  1.0 -0.1507363162
C  C142  1  0.67940000  0.20470000  0.28160000  1.0 -0.1507363162
C  C143  1  0.71280000  0.74370000  0.81500000  1.0 0.0698341118
C  C144  1  0.71280000  0.25630000  0.31500000  1.0 0.0698341118
C  C145  1  0.36810000  0.80300000  0.45170000  1.0 -0.198879816
C  C146  1  0.36810000  0.19700000  0.95170000  1.0 -0.198879816
C  C147  1  0.40800000  0.93800000  0.46840000  1.0 -0.1870226504
C  C148  1  0.40800000  0.06200000  0.96840000  1.0 -0.1870226504
C  C149  1  0.43140000  0.83400000  0.51600000  1.0 -0.198879816
C  C150  1  0.43140000  0.16600000  0.01600000  1.0 -0.198879816
C  C151  1  0.39010000  0.86800000  0.44290000  1.0 -0.1703573811
C  C152  1  0.39010000  0.13200000  0.94290000  1.0 -0.1703573811
C  C153  1  0.41150000  0.77300000  0.48620000  1.0 -0.1576845761
C  C154  1  0.41150000  0.22700000  0.98620000  1.0 -0.1576845761
C  C155  1  0.44700000  0.90600000  0.50500000  1.0 -0.1870226504
C  C156  1  0.44700000  0.09400000  0.00500000  1.0 -0.1870226504
C  C157  1  0.18050000  0.14320000  0.98270000  1.0 0.349473519
C  C158  1  0.18050000  0.85680000  0.48270000  1.0 0.349473519
C  C159  1  0.78720000  0.65010000  0.74330000  1.0 0.0607328788
C  C160  1  0.78720000  0.34990000  0.24330000  1.0 0.0607328788
C  C161  1  0.18600000  0.14440000  0.93150000  1.0 0.3389775072
C  C162  1  0.18600000  0.85560000  0.43150000  1.0 0.3389775072
C  C163  1  0.33280000  0.90750000  0.76650000  1.0 0.3389775072
C  C164  1  0.33280000  0.09250000  0.26650000  1.0 0.3389775072
C  C165  1  0.34170000  0.03280000  0.79980000  1.0 0.3279769727
C  C166  1  0.34170000  0.96720000  0.29980000  1.0 0.3279769727
C  C167  1  0.31740000  0.11390000  0.80360000  1.0 0.0607328788
C  C168  1  0.31740000  0.88610000  0.30360000  1.0 0.0607328788
C  C169  1  0.82890000  0.45820000  0.80800000  1.0 0.349473519
C  C170  1  0.82890000  0.54180000  0.30800000  1.0 0.349473519
C  C171  1  0.15890000  0.91900000  0.94490000  1.0 0.0405441295
C  C172  1  0.15890000  0.08100000  0.44490000  1.0 0.0405441295
C  C173  1  0.19730000  0.19280000  0.90610000  1.0 0.0698341118
C  C174  1  0.19730000  0.80720000  0.40610000  1.0 0.0698341118
C  C175  1  0.16680000  0.01730000  0.94870000  1.0 0.349473519
C  C176  1  0.16680000  0.98270000  0.44870000  1.0 0.349473519
C  C177  1  0.18370000  0.19110000  0.01520000  1.0 0.0405441295
C  C178  1  0.18370000  0.80890000  0.51520000  1.0 0.0405441295
C  C179  1  0.30030000  0.84680000  0.73350000  1.0 0.0405441295
C  C180  1  0.30030000  0.15320000  0.23350000  1.0 0.0405441295
C  C181  1  0.14850000  0.87240000  0.91240000  1.0 -0.1703573811
C  C182  1  0.14850000  0.12760000  0.41240000  1.0 -0.1703573811
C  C183  1  0.80510000  0.37620000  0.81110000  1.0 0.0507769956
C  C184  1  0.80510000  0.62380000  0.31110000  1.0 0.0507769956
C  C185  1  0.19320000  0.15190000  0.87500000  1.0 -0.1576845761
C  C186  1  0.19320000  0.84810000  0.37500000  1.0 -0.1576845761
C  C187  1  0.95730000  0.55200000  0.85390000  1.0 0.0507769956
C  C188  1  0.95730000  0.44800000  0.35390000  1.0 0.0507769956
C  C189  1  0.26540000  0.13560000  0.77460000  1.0 -0.1576845761
C  C190  1  0.26540000  0.86440000  0.27460000  1.0 -0.1576845761
C  C191  1  0.14430000  0.78060000  0.91170000  1.0 0.0507769956
C  C192  1  0.14430000  0.21940000  0.41170000  1.0 0.0507769956
C  C193  1  0.69620000  0.66180000  0.44830000  1.0 0.3603760422
C  C194  1  0.69620000  0.33820000  0.94830000  1.0 0.3603760422
C  C195  1  0.46930000  0.93690000  0.84600000  1.0 0.0405441295
C  C196  1  0.46930000  0.06310000  0.34600000  1.0 0.0405441295
C  C197  1  0.69340000  0.65020000  0.50050000  1.0 0.349473519
C  C198  1  0.69340000  0.34980000  0.00050000  1.0 0.349473519
C  C199  1  0.82110000  0.58520000  0.77610000  1.0 0.349473519
C  C200  1  0.82110000  0.41480000  0.27610000  1.0 0.349473519
C  C201  1  0.20290000  0.27670000  0.02540000  1.0 -0.1412753473
C  C202  1  0.20290000  0.72330000  0.52540000  1.0 -0.1412753473
C  C203  1  0.41160000  0.95190000  0.81840000  1.0 0.3279769727
C  C204  1  0.41160000  0.04810000  0.31840000  1.0 0.3279769727
C  C205  1  0.71930000  0.80250000  0.42970000  1.0 -0.1576845761
C  C206  1  0.71930000  0.19750000  0.92970000  1.0 -0.1576845761
C  C207  1  0.24290000  0.20680000  0.77980000  1.0 0.0306278077
C  C208  1  0.24290000  0.79320000  0.27980000  1.0 0.0306278077
C  C209  1  0.80860000  0.72600000  0.74020000  1.0 -0.1507363162
C  C210  1  0.80860000  0.27400000  0.24020000  1.0 -0.1507363162
C  C211  1  0.67240000  0.43180000  0.45730000  1.0 0.0405441295
C  C212  1  0.67240000  0.56820000  0.95730000  1.0 0.0405441295
C  C213  1  0.70610000  0.71430000  0.42270000  1.0 0.0507769956
C  C214  1  0.70610000  0.28570000  0.92270000  1.0 0.0507769956
C  C215  1  0.69520000  0.69620000  0.53360000  1.0 0.0607328788
C  C216  1  0.69520000  0.30380000  0.03360000  1.0 0.0698341118
C  C217  1  0.77620000  0.78280000  0.70870000  1.0 0.0607328788
C  C218  1  0.77620000  0.21720000  0.20870000  1.0 0.0607328788
C  C219  1  0.21400000  0.28050000  0.91430000  1.0 -0.1507363162
C  C220  1  0.21400000  0.71950000  0.41430000  1.0 -0.1507363162
C  C221  1  0.73220000  0.28250000  0.79070000  1.0 0.0507769956
C  C222  1  0.73220000  0.71750000  0.29070000  1.0 0.0507769956
C  C223  1  0.16280000  0.87010000  0.97420000  1.0 -0.1507363162
C  C224  1  0.16280000  0.12990000  0.47420000  1.0 -0.1507363162
C  C225  1  0.15900000  0.77910000  0.97170000  1.0 0.0698341118
C  C226  1  0.15900000  0.22090000  0.47170000  1.0 0.0698341118
C  C227  1  0.75240000  0.35830000  0.78490000  1.0 -0.1576845761
C  C228  1  0.75240000  0.64170000  0.28490000  1.0 -0.1576845761
C  C229  1  0.20700000  0.31880000  0.05670000  1.0 0.0799271203
C  C230  1  0.20700000  0.68120000  0.55670000  1.0 0.0698341118
C  C231  1  0.89940000  0.53860000  0.82680000  1.0 0.3389775072
C  C232  1  0.89940000  0.46140000  0.32680000  1.0 0.3389775072
C  C233  1  0.20550000  0.19920000  0.85290000  1.0 0.0405441295
C  C234  1  0.20550000  0.80080000  0.35290000  1.0 0.0405441295
C  C235  1  0.16810000  0.15050000  0.03690000  1.0 -0.1576845761
C  C236  1  0.16810000  0.84950000  0.53690000  1.0 -0.1576845761
C  C237  1  0.67920000  0.52970000  0.46400000  1.0 0.3603760422
C  C238  1  0.67920000  0.47030000  0.96400000  1.0 0.3603760422
C  C239  1  0.34540000  0.16790000  0.83580000  1.0 -0.1576845761
C  C240  1  0.34540000  0.83210000  0.33580000  1.0 -0.1576845761
C  C241  1  0.73490000  0.63700000  0.71720000  1.0 -0.1576845761
C  C242  1  0.73490000  0.36300000  0.21720000  1.0 -0.1576845761
C  C243  1  0.22590000  0.32350000  0.89140000  1.0 0.0507769956
C  C244  1  0.22590000  0.67650000  0.39140000  1.0 0.0507769956
C  C245  1  0.67480000  0.37370000  0.48360000  1.0 -0.1576845761
C  C246  1  0.67480000  0.62630000  0.98360000  1.0 -0.1576845761
C  C247  1  0.70680000  0.78560000  0.54100000  1.0 -0.1507363162
C  C248  1  0.70680000  0.21440000  0.04100000  1.0 -0.1507363162
C  C249  1  0.98140000  0.60700000  0.84290000  1.0 -0.1576845761
C  C250  1  0.98140000  0.39300000  0.34290000  1.0 -0.1576845761
C  C251  1  0.67030000  0.28260000  0.47570000  1.0 -0.0196996168
C  C252  1  0.67030000  0.71740000  0.97570000  1.0 -0.0196996168
C  C253  1  0.24910000  0.83980000  0.71600000  1.0 -0.1703573811
C  C254  1  0.24910000  0.16020000  0.21600000  1.0 -0.1703573811
C  C255  1  0.68340000  0.69440000  0.58500000  1.0 0.0507769956
C  C256  1  0.68340000  0.30560000  0.08500000  1.0 0.0507769956
C  C257  1  0.72760000  0.84730000  0.40410000  1.0 0.0306278077
C  C258  1  0.72760000  0.15270000  0.90410000  1.0 0.0306278077
C  C259  1  0.70500000  0.69650000  0.68580000  1.0 0.0507769956
C  C260  1  0.70500000  0.30350000  0.18580000  1.0 0.0507769956
C  C261  1  0.68390000  0.64810000  0.55630000  1.0 -0.1576845761
C  C262  1  0.68390000  0.35190000  0.05630000  1.0 -0.1576845761
C  C263  1  0.66440000  0.39650000  0.42350000  1.0 -0.1274914398
C  C264  1  0.66440000  0.60350000  0.92350000  1.0 -0.1274914398
C  C265  1  0.17260000  0.19850000  0.06750000  1.0 0.0507769956
C  C266  1  0.17260000  0.80150000  0.56750000  1.0 0.0507769956
C  C267  1  0.70630000  0.82530000  0.57030000  1.0 0.0405441295
C  C268  1  0.70630000  0.17470000  0.07030000  1.0 0.0405441295
C  C269  1  0.65990000  0.30500000  0.41790000  1.0 0.0405441295
C  C270  1  0.65990000  0.69500000  0.91790000  1.0 0.0405441295
C  C271  1  0.49990000  0.97910000  0.88160000  1.0 -0.1703573811
C  C272  1  0.49990000  0.02090000  0.38160000  1.0 -0.1703573811
C  C273  1  0.21800000  0.78160000  0.68300000  1.0 0.0799271203
C  C274  1  0.21800000  0.21840000  0.18300000  1.0 0.0799271203
C  C275  1  0.32060000  0.24030000  0.83960000  1.0 0.0607328788
C  C276  1  0.32060000  0.75970000  0.33960000  1.0 0.0607328788
C  C277  1  0.03570000  0.61720000  0.86950000  1.0 0.0698341118
C  C278  1  0.03570000  0.38280000  0.36950000  1.0 0.0698341118
C  C279  1  0.70100000  0.67250000  0.39140000  1.0 -0.1274914398
C  C280  1  0.70100000  0.32750000  0.89140000  1.0 -0.1274914398
C  C281  1  0.55210000  0.96250000  0.90590000  1.0 -0.0196996168
C  C282  1  0.55210000  0.03750000  0.40590000  1.0 -0.0196996168
C  C283  1  0.04070000  0.52680000  0.91480000  1.0 0.0799271203
C  C284  1  0.04070000  0.47320000  0.41480000  1.0 0.0799271203
C  C285  1  0.98700000  0.51230000  0.89030000  1.0 -0.1576845761
C  C286  1  0.98700000  0.48770000  0.39030000  1.0 -0.1576845761
C  C287  1  0.81210000  0.24370000  0.84480000  1.0 0.0507769956
C  C288  1  0.81210000  0.75630000  0.34480000  1.0 0.0507769956
C  C289  1  0.83580000  0.31570000  0.84090000  1.0 -0.1412753473
C  C290  1  0.83580000  0.68430000  0.34090000  1.0 -0.1412753473
C  C291  1  0.71240000  0.72280000  0.36950000  1.0 0.0698341118
C  C292  1  0.71240000  0.27720000  0.86950000  1.0 0.0698341118
C  C293  1  0.49280000  0.87550000  0.83580000  1.0 -0.1507363162
C  C294  1  0.49280000  0.12450000  0.33580000  1.0 -0.1507363162
C  C295  1  0.54650000  0.86190000  0.86280000  1.0 0.0507769956
C  C296  1  0.54650000  0.13810000  0.36280000  1.0 0.0507769956
C  C297  1  0.32060000  0.79530000  0.71840000  1.0 -0.1507363162
C  C298  1  0.32060000  0.20470000  0.21840000  1.0 -0.1507363162
C  C299  1  0.28720000  0.74370000  0.68500000  1.0 0.0698341118
C  C300  1  0.28720000  0.25630000  0.18500000  1.0 0.0698341118
C  C301  1  0.63190000  0.80300000  0.04830000  1.0 -0.198879816
C  C302  1  0.63190000  0.19700000  0.54830000  1.0 -0.198879816
C  C303  1  0.59200000  0.93800000  0.03160000  1.0 -0.1870226504
C  C304  1  0.59200000  0.06200000  0.53160000  1.0 -0.1870226504
C  C305  1  0.56860000  0.83400000  0.98400000  1.0 -0.198879816
C  C306  1  0.56860000  0.16600000  0.48400000  1.0 -0.198879816
C  C307  1  0.60990000  0.86800000  0.05710000  1.0 -0.1703573811
C  C308  1  0.60990000  0.13200000  0.55710000  1.0 -0.1703573811
C  C309  1  0.58850000  0.77300000  0.01380000  1.0 -0.1576845761
C  C310  1  0.58850000  0.22700000  0.51380000  1.0 -0.1576845761
C  C311  1  0.55300000  0.90600000  0.99500000  1.0 -0.1870226504
C  C312  1  0.55300000  0.09400000  0.49500000  1.0 -0.1870226504
I  I1  1  0.85828000  0.38680000  0.74110000  1.0 -0.0305366747
I  I2  1  0.85828000  0.61320000  0.24110000  1.0 -0.0305366747
I  I3  1  0.26180000  0.99400000  0.85020000  1.0 0.0698341118
I  I4  1  0.26180000  0.00600000  0.35020000  1.0 0.0698341118
I  I5  1  0.30562000  0.98171000  0.51010000  1.0 -0.0131073533
I  I6  1  0.30562000  0.01829000  0.01010000  1.0 -0.0196996168
I  I7  1  0.70060000  0.47840000  0.63480000  1.0 -0.0459209374
I  I8  1  0.70060000  0.52160000  0.13480000  1.0 -0.0459209374
I  I9  1  0.75988000  0.50430000  0.86522000  1.0 -0.427708448
I  I10  1  0.75988000  0.49570000  0.36522000  1.0 -0.427708448
I  I11  1  0.82199000  0.54090000  0.49394000  1.0 -0.427708448
I  I12  1  0.82199000  0.45910000  0.99394000  1.0 -0.427708448
I  I13  1  0.82382000  0.53675000  0.60035000  1.0 -0.1126654251
I  I14  1  0.82382000  0.46325000  0.10035000  1.0 -0.1126654251
I  I15  1  0.31579000  0.90420000  0.61748000  1.0 -0.0030240421
I  I16  1  0.31579000  0.09580000  0.11748000  1.0 -0.0030240421
I  I17  1  0.36832000  0.10390000  0.72723000  1.0 0.0205524055
I  I18  1  0.36832000  0.89610000  0.22723000  1.0 0.0205524055
I  I19  1  0.40823000  0.83460000  0.89410000  1.0 0.0405441295
I  I20  1  0.40823000  0.16540000  0.39410000  1.0 0.0405441295
I  I21  1  0.90202000  0.67370000  0.90041000  1.0 0.0108657316
I  I22  1  0.90202000  0.32630000  0.40041000  1.0 0.0027368103
I  I23  1  0.20299000  0.00508000  0.63490000  1.0 -0.0196996168
I  I24  1  0.20299000  0.99492000  0.13490000  1.0 -0.0196996168
I  I25  1  0.68815000  0.46200000  0.62760000  1.0 -0.0131073533
I  I26  1  0.68815000  0.53800000  0.12760000  1.0 -0.0131073533
I  I27  1  0.85010000  0.39310000  0.73120000  1.0 -0.0428832652
I  I28  1  0.85010000  0.60690000  0.23120000  1.0 -0.0459209374
I  I29  1  0.17417000  0.02550000  0.61150000  1.0 0.0507769956
I  I30  1  0.17417000  0.97450000  0.11150000  1.0 0.0607328788
I  I31  1  0.34360000  0.08730000  0.71660000  1.0 -0.0305366747
I  I32  1  0.34360000  0.91270000  0.21660000  1.0 -0.0305366747
I  I33  1  0.31004000  0.97010000  0.49794000  1.0 -0.0428832652
I  I34  1  0.31004000  0.02990000  0.99794000  1.0 -0.0428832652
I  I35  1  0.31160000  0.91400000  0.60490000  1.0 -0.0618894054
I  I36  1  0.31160000  0.08600000  0.10490000  1.0 -0.0618894054
I  I37  1  0.75383000  0.51450000  0.86233000  1.0 -0.4106655832
I  I38  1  0.75383000  0.48550000  0.36233000  1.0 -0.4106655832
I  I39  1  0.89921000  0.65210000  0.90051000  1.0 0.0027368103
I  I40  1  0.89921000  0.34790000  0.40051000  1.0 0.0027368103
I  I41  1  0.81400000  0.54650000  0.59430000  1.0 -0.0888597435
I  I42  1  0.81400000  0.45350000  0.09430000  1.0 -0.0955434433
I  I43  1  0.82038000  0.53390000  0.49217000  1.0 -0.4573868952
I  I44  1  0.82038000  0.46610000  0.99217000  1.0 -0.4573868952
I  I45  1  0.27800000  0.99240000  0.85650000  1.0 0.0306278077
I  I46  1  0.27800000  0.00760000  0.35650000  1.0 0.0306278077
I  I47  1  0.42030000  0.81500000  0.90190000  1.0 0.0799271203
I  I48  1  0.42030000  0.18500000  0.40190000  1.0 0.0698341118
I  I49  1  0.32910000  0.94510000  0.48000000  1.0 0.0405441295
I  I50  1  0.32910000  0.05490000  0.98000000  1.0 0.0405441295
I  I51  1  0.30830000  0.94480000  0.57550000  1.0 -0.124308317
I  I52  1  0.30830000  0.05520000  0.07550000  1.0 -0.1274914398
I  I53  1  0.14172000  0.38680000  0.75890000  1.0 -0.0305366747
I  I54  1  0.14172000  0.61320000  0.25890000  1.0 -0.0305366747
I  I55  1  0.73820000  0.99400000  0.64980000  1.0 0.0698341118
I  I56  1  0.73820000  0.00600000  0.14980000  1.0 0.0698341118
I  I57  1  0.69438000  0.98171000  0.98990000  1.0 -0.0131073533
I  I58  1  0.69438000  0.01829000  0.48990000  1.0 -0.0196996168
I  I59  1  0.29940000  0.47840000  0.86520000  1.0 -0.0459209374
I  I60  1  0.29940000  0.52160000  0.36520000  1.0 -0.0459209374
I  I61  1  0.24012000  0.50430000  0.63478000  1.0 -0.427708448
I  I62  1  0.24012000  0.49570000  0.13478000  1.0 -0.427708448
I  I63  1  0.17801000  0.54090000  0.00606000  1.0 -0.427708448
I  I64  1  0.17801000  0.45910000  0.50606000  1.0 -0.427708448
I  I65  1  0.17618000  0.53675000  0.89965000  1.0 -0.1126654251
I  I66  1  0.17618000  0.46325000  0.39965000  1.0 -0.1126654251
I  I67  1  0.68421000  0.90420000  0.88252000  1.0 -0.0030240421
I  I68  1  0.68421000  0.09580000  0.38252000  1.0 -0.0030240421
I  I69  1  0.63168000  0.10390000  0.77277000  1.0 0.0205524055
I  I70  1  0.63168000  0.89610000  0.27277000  1.0 0.0306278077
I  I71  1  0.59177000  0.83460000  0.60590000  1.0 0.0405441295
I  I72  1  0.59177000  0.16540000  0.10590000  1.0 0.0405441295
I  I73  1  0.09798000  0.67370000  0.59959000  1.0 0.0108657316
I  I74  1  0.09798000  0.32630000  0.09959000  1.0 0.0027368103
I  I75  1  0.79701000  0.00508000  0.86510000  1.0 -0.0196996168
I  I76  1  0.79701000  0.99492000  0.36510000  1.0 -0.0196996168
I  I77  1  0.31185000  0.46200000  0.87240000  1.0 -0.0131073533
I  I78  1  0.31185000  0.53800000  0.37240000  1.0 -0.0131073533
I  I79  1  0.14990000  0.39310000  0.76880000  1.0 -0.0428832652
I  I80  1  0.14990000  0.60690000  0.26880000  1.0 -0.0428832652
I  I81  1  0.82583000  0.02550000  0.88850000  1.0 0.0607328788
I  I82  1  0.82583000  0.97450000  0.38850000  1.0 0.0607328788
I  I83  1  0.65640000  0.08730000  0.78340000  1.0 -0.0305366747
I  I84  1  0.65640000  0.91270000  0.28340000  1.0 -0.0305366747
I  I85  1  0.68996000  0.97010000  0.00206000  1.0 -0.0428832652
I  I86  1  0.68996000  0.02990000  0.50206000  1.0 -0.0428832652
I  I87  1  0.68840000  0.91400000  0.89510000  1.0 -0.0618894054
I  I88  1  0.68840000  0.08600000  0.39510000  1.0 -0.0618894054
I  I89  1  0.24617000  0.51450000  0.63767000  1.0 -0.4106655832
I  I90  1  0.24617000  0.48550000  0.13767000  1.0 -0.4106655832
I  I91  1  0.10079000  0.65210000  0.59949000  1.0 0.0027368103
I  I92  1  0.10079000  0.34790000  0.09949000  1.0 -0.0030240421
I  I93  1  0.18600000  0.54650000  0.90570000  1.0 -0.0955434433
I  I94  1  0.18600000  0.45350000  0.40570000  1.0 -0.0955434433
I  I95  1  0.17962000  0.53390000  0.00783000  1.0 -0.4573868952
I  I96  1  0.17962000  0.46610000  0.50783000  1.0 -0.4573868952
I  I97  1  0.72200000  0.99240000  0.64350000  1.0 0.0306278077
I  I98  1  0.72200000  0.00760000  0.14350000  1.0 0.0306278077
I  I99  1  0.57970000  0.81500000  0.59810000  1.0 0.0799271203
I  I100  1  0.57970000  0.18500000  0.09810000  1.0 0.0799271203
I  I101  1  0.67090000  0.94510000  0.02000000  1.0 0.0405441295
I  I102  1  0.67090000  0.05490000  0.52000000  1.0 0.0306278077
I  I103  1  0.69170000  0.94480000  0.92450000  1.0 -0.124308317
I  I104  1  0.69170000  0.05520000  0.42450000  1.0 -0.1274914398
N  N1  1  0.80910000  0.18940000  0.53901000  1.0 -0.3995498485
N  N2  1  0.80910000  0.81060000  0.03901000  1.0 -0.3995498485
N  N3  1  0.82766000  0.05850000  0.57688000  1.0 -0.427708448
N  N4  1  0.82766000  0.94150000  0.07688000  1.0 -0.427708448
N  N5  1  0.69150000  0.97610000  0.72950000  1.0 -0.4526681221
N  N6  1  0.69150000  0.02390000  0.22950000  1.0 -0.4526681221
N  N7  1  0.83187000  0.05650000  0.52187000  1.0 -0.4197814481
N  N8  1  0.83187000  0.94350000  0.02187000  1.0 -0.4197814481
N  N9  1  0.20356000  0.51630000  0.72080000  1.0 -0.427708448
N  N10  1  0.20356000  0.48370000  0.22080000  1.0 -0.427708448
N  N11  1  0.72920000  0.25770000  0.68700000  1.0 -0.2198180361
N  N12  1  0.72920000  0.74230000  0.18700000  1.0 -0.2198180361
N  N13  1  0.29750000  0.70240000  0.02070000  1.0 -0.3890762321
N  N14  1  0.29750000  0.29760000  0.52070000  1.0 -0.3890762321
N  N15  1  0.12812000  0.59910000  0.70112000  1.0 -0.4106655832
N  N16  1  0.12812000  0.40090000  0.20112000  1.0 -0.4106655832
N  N17  1  0.31700000  0.57640000  0.06150000  1.0 -0.3634286514
N  N18  1  0.31700000  0.42360000  0.56150000  1.0 -0.3634286514
N  N19  1  0.77770000  0.28400000  0.63880000  1.0 -0.20685793
N  N20  1  0.77770000  0.71600000  0.13880000  1.0 -0.20685793
N  N21  1  0.76260000  0.73440000  0.83050000  1.0 -0.1813291558
N  N22  1  0.76260000  0.26560000  0.33050000  1.0 -0.1813291558
N  N23  1  0.11880000  0.46610000  0.66690000  1.0 -0.4197814481
N  N24  1  0.11880000  0.53390000  0.16690000  1.0 -0.4197814481
N  N25  1  0.85010000  0.73490000  0.55930000  1.0 -0.1813291558
N  N26  1  0.85010000  0.26510000  0.05930000  1.0 -0.1813291558
N  N27  1  0.31710000  0.56420000  0.00470000  1.0 -0.3995498485
N  N28  1  0.31710000  0.43580000  0.50470000  1.0 -0.3995498485
N  N29  1  0.60740000  0.02430000  0.67550000  1.0 -0.4197814481
N  N30  1  0.60740000  0.97570000  0.17550000  1.0 -0.4197814481
N  N31  1  0.93600000  0.57860000  0.59640000  1.0 -0.1703573811
N  N32  1  0.93600000  0.42140000  0.09640000  1.0 -0.1703573811
N  N33  1  0.27400000  0.76770000  0.81870000  1.0 -0.1870226504
N  N34  1  0.27400000  0.23230000  0.31870000  1.0 -0.1870226504
N  N35  1  0.80810000  0.28000000  0.42260000  1.0 -0.1870226504
N  N36  1  0.80810000  0.72000000  0.92260000  1.0 -0.1870226504
N  N37  1  0.23890000  0.22630000  0.67990000  1.0 -0.1813291558
N  N38  1  0.23890000  0.77370000  0.17990000  1.0 -0.1813291558
N  N39  1  0.33740000  0.24910000  0.05610000  1.0 -0.1870226504
N  N40  1  0.33740000  0.75090000  0.55610000  1.0 -0.1870226504
N  N41  1  0.61610000  0.89360000  0.71080000  1.0 -0.4106655832
N  N42  1  0.61610000  0.10640000  0.21080000  1.0 -0.4106655832
N  N43  1  0.30600000  0.78230000  0.90780000  1.0 -0.198879816
N  N44  1  0.30600000  0.21770000  0.40780000  1.0 -0.198879816
N  N45  1  0.27520000  0.80770000  0.12480000  1.0 -0.1703573811
N  N46  1  0.27520000  0.19230000  0.62480000  1.0 -0.1703573811
N  N47  1  0.42500000  0.90530000  0.60380000  1.0 -0.1507363162
N  N48  1  0.42500000  0.09470000  0.10380000  1.0 -0.1507363162
N  N49  1  0.19090000  0.18940000  0.96099000  1.0 -0.3995498485
N  N50  1  0.19090000  0.81060000  0.46099000  1.0 -0.3995498485
N  N51  1  0.17234000  0.05850000  0.92312000  1.0 -0.427708448
N  N52  1  0.17234000  0.94150000  0.42312000  1.0 -0.427708448
N  N53  1  0.30850000  0.97610000  0.77050000  1.0 -0.4526681221
N  N54  1  0.30850000  0.02390000  0.27050000  1.0 -0.4526681221
N  N55  1  0.16813000  0.05650000  0.97813000  1.0 -0.4197814481
N  N56  1  0.16813000  0.94350000  0.47813000  1.0 -0.4197814481
N  N57  1  0.79644000  0.51630000  0.77920000  1.0 -0.427708448
N  N58  1  0.79644000  0.48370000  0.27920000  1.0 -0.427708448
N  N59  1  0.27080000  0.25770000  0.81300000  1.0 -0.2198180361
N  N60  1  0.27080000  0.74230000  0.31300000  1.0 -0.2198180361
N  N61  1  0.70250000  0.70240000  0.47930000  1.0 -0.3890762321
N  N62  1  0.70250000  0.29760000  0.97930000  1.0 -0.3890762321
N  N63  1  0.87188000  0.59910000  0.79888000  1.0 -0.4106655832
N  N64  1  0.87188000  0.40090000  0.29888000  1.0 -0.4106655832
N  N65  1  0.68300000  0.57640000  0.43850000  1.0 -0.3634286514
N  N66  1  0.68300000  0.42360000  0.93850000  1.0 -0.3634286514
N  N67  1  0.22230000  0.28400000  0.86120000  1.0 -0.20685793
N  N68  1  0.22230000  0.71600000  0.36120000  1.0 -0.20685793
N  N69  1  0.23740000  0.73440000  0.66950000  1.0 -0.1813291558
N  N70  1  0.23740000  0.26560000  0.16950000  1.0 -0.1813291558
N  N71  1  0.88120000  0.46610000  0.83310000  1.0 -0.4197814481
N  N72  1  0.88120000  0.53390000  0.33310000  1.0 -0.4197814481
N  N73  1  0.14990000  0.73490000  0.94070000  1.0 -0.1813291558
N  N74  1  0.14990000  0.26510000  0.44070000  1.0 -0.1813291558
N  N75  1  0.68290000  0.56420000  0.49530000  1.0 -0.3995498485
N  N76  1  0.68290000  0.43580000  0.99530000  1.0 -0.3995498485
N  N77  1  0.39260000  0.02430000  0.82450000  1.0 -0.4197814481
N  N78  1  0.39260000  0.97570000  0.32450000  1.0 -0.4197814481
N  N79  1  0.06400000  0.57860000  0.90360000  1.0 -0.1703573811
N  N80  1  0.06400000  0.42140000  0.40360000  1.0 -0.1703573811
N  N81  1  0.72600000  0.76770000  0.68130000  1.0 -0.1870226504
N  N82  1  0.72600000  0.23230000  0.18130000  1.0 -0.1813291558
N  N83  1  0.19190000  0.28000000  0.07740000  1.0 -0.1813291558
N  N84  1  0.19190000  0.72000000  0.57740000  1.0 -0.1870226504
N  N85  1  0.76110000  0.22630000  0.82010000  1.0 -0.1813291558
N  N86  1  0.76110000  0.77370000  0.32010000  1.0 -0.1813291558
N  N87  1  0.66260000  0.24910000  0.44390000  1.0 -0.1870226504
N  N88  1  0.66260000  0.75090000  0.94390000  1.0 -0.1870226504
N  N89  1  0.38390000  0.89360000  0.78920000  1.0 -0.4106655832
N  N90  1  0.38390000  0.10640000  0.28920000  1.0 -0.4106655832
N  N91  1  0.69400000  0.78230000  0.59220000  1.0 -0.198879816
N  N92  1  0.69400000  0.21770000  0.09220000  1.0 -0.198879816
N  N93  1  0.72480000  0.80770000  0.37520000  1.0 -0.1703573811
N  N94  1  0.72480000  0.19230000  0.87520000  1.0 -0.1703573811
N  N95  1  0.57500000  0.90530000  0.89620000  1.0 -0.1507363162
N  N96  1  0.57500000  0.09470000  0.39620000  1.0 -0.1507363162
