# DDEC6 charges by PACMAN v1.1 (https://github.com/mtap-research/PACMAN-charge/)
data_LIRMEI_FSR_pacman
_symmetry_space_group_name_H-M   'P 1'
_cell_length_a   14.77800000
_cell_length_b   18.23450000
_cell_length_c   30.79700000
_cell_angle_alpha   98.22700000
_cell_angle_beta   91.73600000
_cell_angle_gamma   113.05500000
_symmetry_Int_Tables_number   1
_chemical_formula_structural   Zn15H60C85I32N24O
_chemical_formula_sum   'Zn30 H120 C170 I64 N48 O2'
_cell_volume   7523.39527195
_cell_formula_units_Z   2
loop_
 _symmetry_equiv_pos_site_id
 _symmetry_equiv_pos_as_xyz
  1  'x, y, z'
loop_
 _atom_site_type_symbol
 _atom_site_label
 _atom_site_symmetry_multiplicity
 _atom_site_fract_x
 _atom_site_fract_y
 _atom_site_fract_z
 _atom_site_occupancy
 _atom_site_charge
Zn  Zn1  1  0.49310000  0.19490000  0.71341000  1.0 0.2895151476
Zn  Zn2  1  0.78990000  0.33570000  0.89023000  1.0 0.2306910989
Zn  Zn3  1  0.55980000  0.80570000  0.51870000  1.0 0.2306910989
Zn  Zn4  1  0.11970000  0.02510000  0.18346000  1.0 0.2406747788
Zn  Zn5  1  0.72360000  0.70520000  0.08834000  1.0 0.4481698027
Zn  Zn6  1  0.05390000  0.36740000  0.39000000  1.0 0.2306910989
Zn  Zn7  1  0.72610000  0.70730000  0.08800000  1.0 0.4481698027
Zn  Zn8  1  0.06060000  0.36910000  0.38020000  1.0 0.1540524711
Zn  Zn9  1  0.56090000  0.80610000  0.51850000  1.0 0.2306910989
Zn  Zn10  1  0.78900000  0.31600000  0.88950000  1.0 0.278194011
Zn  Zn11  1  0.05300000  0.34100000  0.40210000  1.0 -0.0191615115
Zn  Zn12  1  0.12100000  0.03900000  0.19370000  1.0 0.2406747788
Zn  Zn13  1  0.77700000  0.29400000  0.90200000  1.0 -0.0191615115
Zn  Zn14  1  0.48700000  0.17700000  0.70780000  1.0 0.278194011
Zn  Zn15  1  0.53400000  0.79000000  0.53810000  1.0 0.0025590536
Zn  Zn16  1  0.50690000  0.80510000  0.28659000  1.0 0.2895151476
Zn  Zn17  1  0.21010000  0.66430000  0.10977000  1.0 0.2306910989
Zn  Zn18  1  0.44020000  0.19430000  0.48130000  1.0 0.2306910989
Zn  Zn19  1  0.88030000  0.97490000  0.81654000  1.0 0.2460089078
Zn  Zn20  1  0.27640000  0.29480000  0.91166000  1.0 0.4481698027
Zn  Zn21  1  0.94610000  0.63260000  0.61000000  1.0 0.2306910989
Zn  Zn22  1  0.27390000  0.29270000  0.91200000  1.0 0.4481698027
Zn  Zn23  1  0.93940000  0.63090000  0.61980000  1.0 0.1570253571
Zn  Zn24  1  0.43910000  0.19390000  0.48150000  1.0 0.2306910989
Zn  Zn25  1  0.21100000  0.68400000  0.11050000  1.0 0.2731518795
Zn  Zn26  1  0.94700000  0.65900000  0.59790000  1.0 -0.0191615115
Zn  Zn27  1  0.87900000  0.96100000  0.80630000  1.0 0.2406747788
Zn  Zn28  1  0.22300000  0.70600000  0.09800000  1.0 -0.0191615115
Zn  Zn29  1  0.51300000  0.82300000  0.29220000  1.0 0.278194011
Zn  Zn30  1  0.46600000  0.21000000  0.46190000  1.0 -0.0030380177
H  H1  1  0.50477000  0.66906000  0.56732000  1.0 0.0711148285
H  H2  1  0.57160000  0.91362000  0.60387000  1.0 0.0592514749
H  H3  1  0.99491000  0.50460000  0.41702000  1.0 0.0711148285
H  H4  1  0.98224000  0.46406000  0.93798000  1.0 0.0711148285
H  H5  1  0.82863000  0.32268000  0.50717000  1.0 0.1200230596
H  H6  1  0.53956000  0.64388000  0.02045000  1.0 0.0899358218
H  H7  1  0.77928000  0.86146000  0.54698000  1.0 0.0796733742
H  H8  1  0.73025000  0.11706000  0.75709000  1.0 0.1095263322
H  H9  1  0.88002000  0.52943000  0.46000000  1.0 0.1200230596
H  H10  1  0.62573000  0.20366000  0.64041000  1.0 0.0711148285
H  H11  1  0.68731000  0.18530000  0.81637000  1.0 0.0796733742
H  H12  1  0.94606000  0.30073000  0.46191000  1.0 0.0711148285
H  H13  1  0.03167000  0.06095000  0.10511000  1.0 0.0796733742
H  H14  1  0.13630000  0.05168000  0.65007000  1.0 0.1367221599
H  H15  1  0.53988000  0.55518000  0.57204000  1.0 0.1200230596
H  H16  1  0.30385000  0.07779000  0.65604000  1.0 0.0796733742
H  H17  1  0.11258000  0.47740000  0.98679000  1.0 0.1200230596
H  H18  1  0.86036000  0.23042000  0.93712000  1.0 0.0796733742
H  H19  1  0.19307000  0.23966000  0.74955000  1.0 0.1291460828
H  H20  1  0.98647000  0.23592000  0.98428000  1.0 0.1095263322
H  H21  1  0.69761000  0.60080000  0.46588000  1.0 0.1200230596
H  H22  1  0.68557000  0.00572000  0.65864000  1.0 0.0988891125
H  H23  1  0.38628000  0.54166000  0.00837000  1.0 0.1291460828
H  H24  1  0.01624000  0.27585000  0.78962000  1.0 0.1200230596
H  H25  1  0.59196000  0.57496000  0.12953000  1.0 0.0796733742
H  H26  1  0.96199000  0.34221000  0.84619000  1.0 0.0899358218
H  H27  1  0.68092000  0.27480000  0.58259000  1.0 0.1291460828
H  H28  1  0.65201000  0.70477000  0.46164000  1.0 0.0796733742
H  H29  1  0.44060000  0.46875000  0.12009000  1.0 0.1200230596
H  H30  1  0.05709000  0.16149000  0.06317000  1.0 0.1291460828
H  H31  1  0.47907000  0.33567000  0.67866000  1.0 0.0899358218
H  H32  1  0.35601000  0.25675000  0.75330000  1.0 0.0592514749
H  H33  1  0.90022000  0.95482000  0.59792000  1.0 0.1200230596
H  H34  1  0.53637000  0.41478000  0.62595000  1.0 0.1291460828
H  H35  1  0.26761000  0.19325000  0.18395000  1.0 0.0796733742
H  H36  1  0.28534000  0.30500000  0.14996000  1.0 0.1367221599
H  H37  1  0.53628000  0.86437000  0.14856000  1.0 0.1095263322
H  H38  1  0.82600000  0.83148000  0.17058000  1.0 0.0711148285
H  H39  1  0.56868000  0.76053000  0.10574000  1.0 0.0899358218
H  H40  1  0.42361000  0.98241000  0.15049000  1.0 0.1291460828
H  H41  1  0.28885000  0.10357000  0.25873000  1.0 0.0711148285
H  H42  1  0.84320000  0.32880000  0.35683000  1.0 0.0711148285
H  H43  1  0.45179000  0.11457000  0.27174000  1.0 0.1291460828
H  H44  1  0.26648000  0.98216000  0.13887000  1.0 0.0711148285
H  H45  1  0.81018000  0.94335000  0.21045000  1.0 0.1095263322
H  H46  1  0.89520000  0.12585000  0.27144000  1.0 0.0988891125
H  H47  1  0.71157000  0.23172000  0.31215000  1.0 0.1200230596
H  H48  1  0.01536000  0.22127000  0.32194000  1.0 0.0592514749
H  H49  1  0.14674000  0.55905000  0.64821000  1.0 0.2895151476
H  H50  1  0.41367000  0.53873000  0.69788000  1.0 0.1200230596
H  H51  1  0.19068000  0.39594000  0.76028000  1.0 0.1200230596
H  H52  1  0.09540000  0.49814000  0.79976000  1.0 0.1200230596
H  H53  1  0.08389000  0.55644000  0.76777000  1.0 0.1200230596
H  H54  1  0.00503000  0.52562000  0.80262000  1.0 0.1095263322
H  H55  1  0.00843000  0.31722000  0.66666667  1.0 0.0988891125
H  H56  1  0.83722000  0.25594000  0.66905000  1.0 0.0988891125
H  H57  1  0.76078000  0.31049000  0.72225000  1.0 0.0796733742
H  H58  1  0.85554000  0.42631000  0.77307000  1.0 0.0899358218
H  H59  1  0.05575000  0.26742000  0.04845000  1.0 0.2731518795
H  H60  1  0.24124000  0.45989000  0.00924000  1.0 0.278194011
H  H61  1  0.49523000  0.33094000  0.43268000  1.0 0.0711148285
H  H62  1  0.42840000  0.08638000  0.39613000  1.0 0.0592514749
H  H63  1  0.00509000  0.49540000  0.58298000  1.0 0.0711148285
H  H64  1  0.01776000  0.53594000  0.06202000  1.0 0.0711148285
H  H65  1  0.17137000  0.67732000  0.49283000  1.0 0.1200230596
H  H66  1  0.46044000  0.35612000  0.97955000  1.0 0.0899358218
H  H67  1  0.22072000  0.13854000  0.45302000  1.0 0.0796733742
H  H68  1  0.26975000  0.88294000  0.24291000  1.0 0.1095263322
H  H69  1  0.11998000  0.47057000  0.54000000  1.0 0.1200230596
H  H70  1  0.37427000  0.79634000  0.35959000  1.0 0.0711148285
H  H71  1  0.31269000  0.81470000  0.18363000  1.0 0.0796733742
H  H72  1  0.05394000  0.69927000  0.53809000  1.0 0.0711148285
H  H73  1  0.96833000  0.93905000  0.89489000  1.0 0.0796733742
H  H74  1  0.86370000  0.94832000  0.34993000  1.0 0.1367221599
H  H75  1  0.46012000  0.44482000  0.42796000  1.0 0.1200230596
H  H76  1  0.69615000  0.92221000  0.34396000  1.0 0.0796733742
H  H77  1  0.88742000  0.52260000  0.01321000  1.0 0.1200230596
H  H78  1  0.13964000  0.76958000  0.06288000  1.0 0.0796733742
H  H79  1  0.80693000  0.76034000  0.25045000  1.0 0.1291460828
H  H80  1  0.01353000  0.76408000  0.01572000  1.0 0.1095263322
H  H81  1  0.30239000  0.39920000  0.53412000  1.0 0.1200230596
H  H82  1  0.31443000  0.99428000  0.34136000  1.0 0.0899358218
H  H83  1  0.61372000  0.45834000  0.99163000  1.0 0.1291460828
H  H84  1  0.98376000  0.72415000  0.21038000  1.0 0.1200230596
H  H85  1  0.40804000  0.42504000  0.87047000  1.0 0.0796733742
H  H86  1  0.03801000  0.65779000  0.15381000  1.0 0.0899358218
H  H87  1  0.31908000  0.72520000  0.41741000  1.0 0.1291460828
H  H88  1  0.34799000  0.29523000  0.53836000  1.0 0.0796733742
H  H89  1  0.55940000  0.53125000  0.87991000  1.0 0.1200230596
H  H90  1  0.94291000  0.83851000  0.93683000  1.0 0.1291460828
H  H91  1  0.52093000  0.66433000  0.32134000  1.0 0.0899358218
H  H92  1  0.64399000  0.74325000  0.24670000  1.0 0.0592514749
H  H93  1  0.09978000  0.04518000  0.40208000  1.0 0.1200230596
H  H94  1  0.46363000  0.58522000  0.37405000  1.0 0.1291460828
H  H95  1  0.73239000  0.80675000  0.81605000  1.0 0.0796733742
H  H96  1  0.71466000  0.69500000  0.85004000  1.0 0.1367221599
H  H97  1  0.46372000  0.13563000  0.85144000  1.0 0.1095263322
H  H98  1  0.17400000  0.16852000  0.82942000  1.0 0.0711148285
H  H99  1  0.43132000  0.23947000  0.89426000  1.0 0.0899358218
H  H100  1  0.57639000  0.01759000  0.84951000  1.0 0.1291460828
H  H101  1  0.71115000  0.89643000  0.74127000  1.0 0.0711148285
H  H102  1  0.15680000  0.67120000  0.64317000  1.0 0.0711148285
H  H103  1  0.54821000  0.88543000  0.72826000  1.0 0.1291460828
H  H104  1  0.73352000  0.01784000  0.86113000  1.0 0.0711148285
H  H105  1  0.18982000  0.05665000  0.78955000  1.0 0.1095263322
H  H106  1  0.10480000  0.87415000  0.72856000  1.0 0.0988891125
H  H107  1  0.28843000  0.76828000  0.68785000  1.0 0.1200230596
H  H108  1  0.98464000  0.77873000  0.67806000  1.0 0.0592514749
H  H109  1  0.85326000  0.44095000  0.35179000  1.0 0.2895151476
H  H110  1  0.58633000  0.46127000  0.30212000  1.0 0.1200230596
H  H111  1  0.80932000  0.60406000  0.23972000  1.0 0.1200230596
H  H112  1  0.90460000  0.50186000  0.20024000  1.0 0.1200230596
H  H113  1  0.91611000  0.44356000  0.23223000  1.0 0.1200230596
H  H114  1  0.99497000  0.47438000  0.19738000  1.0 0.1095263322
H  H115  1  0.99157000  0.68278000  0.33333333  1.0 0.0988891125
H  H116  1  0.16278000  0.74406000  0.33095000  1.0 0.0988891125
H  H117  1  0.23922000  0.68951000  0.27775000  1.0 0.0796733742
H  H118  1  0.14446000  0.57369000  0.22693000  1.0 0.0899358218
H  H119  1  0.94425000  0.73258000  0.95155000  1.0 0.2731518795
H  H120  1  0.75876000  0.54011000  0.99076000  1.0 0.278194011
C  C1  1  0.62630000  0.56560000  0.52100000  1.0 0.0295906234
C  C2  1  0.91250000  0.14630000  0.73060000  1.0 0.337926502
C  C3  1  0.76270000  0.43850000  0.51280000  1.0 0.3087438097
C  C4  1  0.54470000  0.65490000  0.54700000  1.0 -0.0405685867
C  C5  1  0.87890000  0.18740000  0.76690000  1.0 0.0403059295
C  C6  1  0.63910000  0.92210000  0.60290000  1.0 -0.0030380177
C  C7  1  0.95990000  0.46680000  0.43510000  1.0 0.0098785066
C  C8  1  0.66120000  0.50370000  0.52770000  1.0 0.299559628
C  C9  1  0.06030000  0.35890000  0.99340000  1.0 0.0295906234
C  C10  1  0.98260000  0.41730000  0.94810000  1.0 0.0098785066
C  C11  1  0.86130000  0.35990000  0.48840000  1.0 -0.1598772868
C  C12  1  0.51920000  0.60790000  0.04110000  1.0 0.0403059295
C  C13  1  0.76090000  0.89250000  0.56970000  1.0 0.0025590536
C  C14  1  0.13780000  0.36340000  0.02490000  1.0 0.2582649937
C  C15  1  0.77970000  0.16220000  0.77550000  1.0 -0.1692116636
C  C16  1  0.89160000  0.48190000  0.46060000  1.0 -0.1598772868
C  C17  1  0.60540000  0.24590000  0.63650000  1.0 0.0185203229
C  C18  1  0.75460000  0.20310000  0.81040000  1.0 -0.0680870643
C  C19  1  0.93160000  0.34700000  0.46150000  1.0 0.0295906234
C  C20  1  0.08570000  0.11160000  0.11410000  1.0 0.0592514749
C  C21  1  0.14370000  0.14200000  0.69910000  1.0 0.0592514749
C  C22  1  0.18010000  0.09470000  0.67160000  1.0 -0.1428635592
C  C23  1  0.29490000  0.42750000  0.05800000  1.0 0.2895151476
C  C24  1  0.56640000  0.58690000  0.55000000  1.0 -0.1165392647
C  C25  1  0.27950000  0.10970000  0.67550000  1.0 0.0295906234
C  C26  1  0.03670000  0.12460000  0.69690000  1.0 0.337926502
C  C27  1  0.06010000  0.42600000  0.97760000  1.0 -0.180266692
C  C28  1  0.91240000  0.28150000  0.94760000  1.0 -0.0030380177
C  C29  1  0.84060000  0.42710000  0.48690000  1.0 0.0403059295
C  C30  1  0.80590000  0.99200000  0.63450000  1.0 0.0492026052
C  C31  1  0.21320000  0.20460000  0.73020000  1.0 -0.1692116636
C  C32  1  0.98590000  0.28410000  0.97620000  1.0 -0.1598772868
C  C33  1  0.65820000  0.61320000  0.48710000  1.0 -0.1512133983
C  C34  1  0.70670000  0.97750000  0.63550000  1.0 -0.1692116636
C  C35  1  0.42750000  0.54750000  0.03400000  1.0 -0.180266692
C  C36  1  0.94820000  0.25620000  0.79440000  1.0 -0.1512133983
C  C37  1  0.17260000  0.24630000  0.10440000  1.0 0.0592514749
C  C38  1  0.54900000  0.56730000  0.10410000  1.0 0.0403059295
C  C39  1  0.91600000  0.29460000  0.82810000  1.0 -0.0030380177
C  C40  1  0.65720000  0.40360000  0.56510000  1.0 0.278194011
C  C41  1  0.64130000  0.28970000  0.60280000  1.0 -0.1512133983
C  C42  1  0.39300000  0.49440000  0.06350000  1.0 0.0403059295
C  C43  1  0.61860000  0.35460000  0.59930000  1.0 0.0492026052
C  C44  1  0.19070000  0.31320000  0.07930000  1.0 0.3297717522
C  C45  1  0.63240000  0.67580000  0.48540000  1.0 -0.0405685867
C  C46  1  0.45850000  0.50470000  0.09930000  1.0 -0.1428635592
C  C47  1  0.09820000  0.17140000  0.08950000  1.0 -0.1692116636
C  C48  1  0.52140000  0.32340000  0.65900000  1.0 0.0403059295
C  C49  1  0.31010000  0.21440000  0.73210000  1.0 0.0711148285
C  C50  1  0.83310000  0.94700000  0.59990000  1.0 -0.1512133983
C  C51  1  0.55530000  0.37120000  0.62800000  1.0 -0.1598772868
C  C52  1  0.22040000  0.18820000  0.16090000  1.0 0.0592514749
C  C53  1  0.23290000  0.25410000  0.13940000  1.0 -0.1293100367
C  C54  1  0.88090000  0.05460000  0.66810000  1.0 0.337926502
C  C55  1  0.45660000  0.05140000  0.21190000  1.0 0.0492026052
C  C56  1  0.59850000  0.86100000  0.15240000  1.0 -0.1692116636
C  C57  1  0.76800000  0.84040000  0.16480000  1.0 0.0592514749
C  C58  1  0.70710000  0.10000000  0.25700000  1.0 0.337926502
C  C59  1  0.65660000  0.98760000  0.20700000  1.0 0.337926502
C  C60  1  0.55550000  0.04870000  0.22000000  1.0 0.3175331702
C  C61  1  0.61760000  0.79830000  0.12770000  1.0 0.0295906234
C  C62  1  0.67370000  0.91760000  0.18240000  1.0 0.0711148285
C  C63  1  0.39890000  0.00950000  0.17270000  1.0 -0.1512133983
C  C64  1  0.31740000  0.08010000  0.23660000  1.0 0.0492026052
C  C65  1  0.85180000  0.28400000  0.34060000  1.0 0.0098785066
C  C66  1  0.41460000  0.08650000  0.24440000  1.0 -0.1598772868
C  C67  1  0.30410000  0.00770000  0.16640000  1.0 0.0492026052
C  C68  1  0.75850000  0.90650000  0.18930000  1.0 -0.1598772868
C  C69  1  0.78450000  0.16260000  0.28830000  1.0 0.0592514749
C  C70  1  0.88030000  0.16470000  0.29040000  1.0 -0.1692116636
C  C71  1  0.77340000  0.22710000  0.31360000  1.0 -0.1512133983
C  C72  1  0.95190000  0.22290000  0.31990000  1.0 0.0185203229
C  C73  1  0.34550000  0.51580000  0.70220000  1.0 -0.180266692
C  C74  1  0.27830000  0.53360000  0.67780000  1.0 -0.0795935901
C  C75  1  0.17850000  0.50000000  0.68410000  1.0 0.1814928701
C  C76  1  0.14590000  0.44880000  0.71480000  1.0 -0.0124569898
C  C77  1  0.21300000  0.43100000  0.73930000  1.0 -0.1920966009
C  C78  1  0.31280000  0.46450000  0.73290000  1.0 0.0592514749
C  C79  1  0.04800000  0.51100000  0.78270000  1.0 -0.4341566811
C  C80  1  0.03370000  0.40820000  0.71850000  1.0 0.0295906234
C  C81  1  0.97740000  0.33940000  0.68830000  1.0 -0.1512133983
C  C82  1  0.87570000  0.30300000  0.68970000  1.0 -0.1090491876
C  C83  1  0.83030000  0.33540000  0.72130000  1.0 -0.1090491876
C  C84  1  0.88660000  0.40420000  0.75150000  1.0 -0.1598772868
C  C85  1  0.98830000  0.44060000  0.75010000  1.0 0.0988891125
C  C86  1  0.37370000  0.43440000  0.47900000  1.0 0.0295906234
C  C87  1  0.08750000  0.85370000  0.26940000  1.0 0.337926502
C  C88  1  0.23730000  0.56150000  0.48720000  1.0 0.3087438097
C  C89  1  0.45530000  0.34510000  0.45300000  1.0 -0.0405685867
C  C90  1  0.12110000  0.81260000  0.23310000  1.0 0.0403059295
C  C91  1  0.36090000  0.07790000  0.39710000  1.0 -0.0124569898
C  C92  1  0.04010000  0.53320000  0.56490000  1.0 0.0025590536
C  C93  1  0.33880000  0.49630000  0.47230000  1.0 0.299559628
C  C94  1  0.93970000  0.64110000  0.00660000  1.0 0.0295906234
C  C95  1  0.01740000  0.58270000  0.05190000  1.0 0.0098785066
C  C96  1  0.13870000  0.64010000  0.51160000  1.0 -0.1598772868
C  C97  1  0.48080000  0.39210000  0.95890000  1.0 0.0403059295
C  C98  1  0.23910000  0.10750000  0.43030000  1.0 0.0025590536
C  C99  1  0.86220000  0.63660000  0.97510000  1.0 0.2582649937
C  C100  1  0.22030000  0.83780000  0.22450000  1.0 -0.1692116636
C  C101  1  0.10840000  0.51810000  0.53940000  1.0 -0.1598772868
C  C102  1  0.39460000  0.75410000  0.36350000  1.0 0.0185203229
C  C103  1  0.24540000  0.79690000  0.18960000  1.0 -0.0680870643
C  C104  1  0.06840000  0.65300000  0.53850000  1.0 0.0295906234
C  C105  1  0.91430000  0.88840000  0.88590000  1.0 0.0592514749
C  C106  1  0.85630000  0.85800000  0.30090000  1.0 0.0592514749
C  C107  1  0.81990000  0.90530000  0.32840000  1.0 -0.1428635592
C  C108  1  0.70510000  0.57250000  0.94200000  1.0 0.2895151476
C  C109  1  0.43360000  0.41310000  0.45000000  1.0 -0.1165392647
C  C110  1  0.72050000  0.89030000  0.32450000  1.0 0.0295906234
C  C111  1  0.96330000  0.87540000  0.30310000  1.0 0.337926502
C  C112  1  0.93990000  0.57400000  0.02240000  1.0 -0.180266692
C  C113  1  0.08760000  0.71850000  0.05240000  1.0 -0.0030380177
C  C114  1  0.15940000  0.57290000  0.51310000  1.0 0.0403059295
C  C115  1  0.19410000  0.00800000  0.36550000  1.0 0.0492026052
C  C116  1  0.78680000  0.79540000  0.26980000  1.0 -0.1692116636
C  C117  1  0.01410000  0.71590000  0.02380000  1.0 -0.1598772868
C  C118  1  0.34180000  0.38680000  0.51290000  1.0 -0.1512133983
C  C119  1  0.29330000  0.02250000  0.36450000  1.0 -0.1692116636
C  C120  1  0.57250000  0.45250000  0.96600000  1.0 -0.180266692
C  C121  1  0.05180000  0.74380000  0.20560000  1.0 -0.1512133983
C  C122  1  0.82740000  0.75370000  0.89560000  1.0 0.0592514749
C  C123  1  0.45100000  0.43270000  0.89590000  1.0 0.0403059295
C  C124  1  0.08400000  0.70540000  0.17190000  1.0 -0.0030380177
C  C125  1  0.34280000  0.59640000  0.43490000  1.0 0.278194011
C  C126  1  0.35870000  0.71030000  0.39720000  1.0 -0.1512133983
C  C127  1  0.60700000  0.50560000  0.93650000  1.0 0.0403059295
C  C128  1  0.38140000  0.64540000  0.40070000  1.0 0.0492026052
C  C129  1  0.80930000  0.68680000  0.92070000  1.0 0.3297717522
C  C130  1  0.36760000  0.32420000  0.51460000  1.0 -0.0405685867
C  C131  1  0.54150000  0.49530000  0.90070000  1.0 -0.1428635592
C  C132  1  0.90180000  0.82860000  0.91050000  1.0 -0.1692116636
C  C133  1  0.47860000  0.67660000  0.34100000  1.0 0.0403059295
C  C134  1  0.68990000  0.78560000  0.26790000  1.0 0.0711148285
C  C135  1  0.16690000  0.05300000  0.40010000  1.0 -0.1512133983
C  C136  1  0.44470000  0.62880000  0.37200000  1.0 -0.1598772868
C  C137  1  0.77960000  0.81180000  0.83910000  1.0 0.0592514749
C  C138  1  0.76710000  0.74590000  0.86060000  1.0 -0.1293100367
C  C139  1  0.11910000  0.94540000  0.33190000  1.0 0.337926502
C  C140  1  0.54340000  0.94860000  0.78810000  1.0 0.0492026052
C  C141  1  0.40150000  0.13900000  0.84760000  1.0 -0.1692116636
C  C142  1  0.23200000  0.15960000  0.83520000  1.0 0.0592514749
C  C143  1  0.29290000  0.90000000  0.74300000  1.0 0.337926502
C  C144  1  0.34340000  0.01240000  0.79300000  1.0 0.3297717522
C  C145  1  0.44450000  0.95130000  0.78000000  1.0 0.3175331702
C  C146  1  0.38240000  0.20170000  0.87230000  1.0 0.0295906234
C  C147  1  0.32630000  0.08240000  0.81760000  1.0 0.0711148285
C  C148  1  0.60110000  0.99050000  0.82730000  1.0 -0.1512133983
C  C149  1  0.68260000  0.91990000  0.76340000  1.0 0.0492026052
C  C150  1  0.14820000  0.71600000  0.65940000  1.0 0.0098785066
C  C151  1  0.58540000  0.91350000  0.75560000  1.0 -0.1598772868
C  C152  1  0.69590000  0.99230000  0.83360000  1.0 0.0492026052
C  C153  1  0.24150000  0.09350000  0.81070000  1.0 -0.1598772868
C  C154  1  0.21550000  0.83740000  0.71170000  1.0 0.0592514749
C  C155  1  0.11970000  0.83530000  0.70960000  1.0 -0.1692116636
C  C156  1  0.22660000  0.77290000  0.68640000  1.0 -0.1512133983
C  C157  1  0.04810000  0.77710000  0.68010000  1.0 0.0185203229
C  C158  1  0.65450000  0.48420000  0.29780000  1.0 -0.180266692
C  C159  1  0.72170000  0.46640000  0.32220000  1.0 -0.0795935901
C  C160  1  0.82150000  0.50000000  0.31590000  1.0 0.1814928701
C  C161  1  0.85410000  0.55120000  0.28520000  1.0 -0.0124569898
C  C162  1  0.78700000  0.56900000  0.26070000  1.0 -0.1920966009
C  C163  1  0.68720000  0.53550000  0.26710000  1.0 0.0592514749
C  C164  1  0.95200000  0.48900000  0.21730000  1.0 -0.4341566811
C  C165  1  0.96630000  0.59180000  0.28150000  1.0 0.0295906234
C  C166  1  0.02260000  0.66060000  0.31170000  1.0 -0.1512133983
C  C167  1  0.12430000  0.69700000  0.31030000  1.0 -0.1090491876
C  C168  1  0.16970000  0.66460000  0.27870000  1.0 -0.1090491876
C  C169  1  0.11340000  0.59580000  0.24850000  1.0 -0.1598772868
C  C170  1  0.01170000  0.55940000  0.24990000  1.0 0.0988891125
I  I1  1  0.51470000  0.06360000  0.69087000  1.0 0.0098785066
I  I2  1  0.57040000  0.29640000  0.78430000  1.0 0.0711148285
I  I3  1  0.82080000  0.47090000  0.87259000  1.0 0.0403059295
I  I4  1  0.63960000  0.24000000  0.92338000  1.0 -0.0944085742
I  I5  1  0.39180000  0.77830000  0.55037000  1.0 -0.0984526401
I  I6  1  0.62000000  0.86500000  0.44960000  1.0 0.0403059295
I  I7  1  0.05660000  0.06210000  0.25504000  1.0 -0.0124569898
I  I8  1  0.03368000  0.89300000  0.13021000  1.0 0.0592514749
I  I9  1  0.82420000  0.64120000  0.12537000  1.0 -0.3816861162
I  I10  1  0.76450000  0.78380000  0.02425000  1.0 -0.3816861162
I  I11  1  0.14480000  0.28790000  0.41770000  1.0 -0.0286460869
I  I12  1  0.13750000  0.48270000  0.34690000  1.0 0.0796733742
I  I13  1  0.32645000  0.60920000  0.63060000  1.0 0.0492026052
I  I14  1  0.41667000  0.44004000  0.76829000  1.0 -0.0795935901
I  I15  1  0.81910000  0.64080000  0.12370000  1.0 -0.3467352489
I  I16  1  0.39700000  0.77810000  0.54850000  1.0 -0.0984526401
I  I17  1  0.75380000  0.77500000  0.02030000  1.0 -0.3872190068
I  I18  1  0.13080000  0.49470000  0.34630000  1.0 0.0899358218
I  I19  1  0.14800000  0.29390000  0.41570000  1.0 -0.0405685867
I  I20  1  0.61780000  0.86470000  0.44906000  1.0 0.0403059295
I  I21  1  0.82990000  0.48000000  0.87310000  1.0 0.0295906234
I  I22  1  0.64180000  0.26150000  0.92030000  1.0 -0.1293100367
I  I23  1  0.12530000  0.26550000  0.43860000  1.0 -0.0459351844
I  I24  1  0.14420000  0.44980000  0.35910000  1.0 -0.0984526401
I  I25  1  0.03200000  0.91020000  0.14060000  1.0 0.0185203229
I  I26  1  0.06480000  0.07840000  0.26550000  1.0 0.0185203229
I  I27  1  0.63900000  0.18600000  0.92370000  1.0 -0.1090491876
I  I28  1  0.76900000  0.43400000  0.88950000  1.0 -0.1090491876
I  I29  1  0.49960000  0.04200000  0.68250000  1.0 0.0592514749
I  I30  1  0.55350000  0.26470000  0.78230000  1.0 0.0492026052
I  I31  1  0.38500000  0.72600000  0.57800000  1.0 -0.0286460869
I  I32  1  0.58900000  0.81700000  0.46200000  1.0 -0.1428635592
I  I33  1  0.48530000  0.93640000  0.30913000  1.0 0.0098785066
I  I34  1  0.42960000  0.70360000  0.21570000  1.0 0.0711148285
I  I35  1  0.17920000  0.52910000  0.12741000  1.0 0.0403059295
I  I36  1  0.36040000  0.76000000  0.07662000  1.0 -0.0944085742
I  I37  1  0.60820000  0.22170000  0.44963000  1.0 -0.0984526401
I  I38  1  0.38000000  0.13500000  0.55040000  1.0 0.0403059295
I  I39  1  0.94340000  0.93790000  0.74496000  1.0 -0.0124569898
I  I40  1  0.96632000  0.10700000  0.86979000  1.0 0.0592514749
I  I41  1  0.17580000  0.35880000  0.87463000  1.0 -0.3816861162
I  I42  1  0.23550000  0.21620000  0.97575000  1.0 -0.3816861162
I  I43  1  0.85520000  0.71210000  0.58230000  1.0 -0.0286460869
I  I44  1  0.86250000  0.51730000  0.65310000  1.0 0.0796733742
I  I45  1  0.67355000  0.39080000  0.36940000  1.0 0.0492026052
I  I46  1  0.58333000  0.55996000  0.23171000  1.0 -0.0795935901
I  I47  1  0.18090000  0.35920000  0.87630000  1.0 -0.3467352489
I  I48  1  0.60300000  0.22190000  0.45150000  1.0 -0.0984526401
I  I49  1  0.24620000  0.22500000  0.97970000  1.0 -0.3872190068
I  I50  1  0.86920000  0.50530000  0.65370000  1.0 0.0899358218
I  I51  1  0.85200000  0.70610000  0.58430000  1.0 -0.0459351844
I  I52  1  0.38220000  0.13530000  0.55094000  1.0 0.0403059295
I  I53  1  0.17010000  0.52000000  0.12690000  1.0 0.0295906234
I  I54  1  0.35820000  0.73850000  0.07970000  1.0 -0.1293100367
I  I55  1  0.87470000  0.73450000  0.56140000  1.0 -0.0459351844
I  I56  1  0.85580000  0.55020000  0.64090000  1.0 -0.0984526401
I  I57  1  0.96800000  0.08980000  0.85940000  1.0 0.0185203229
I  I58  1  0.93520000  0.92160000  0.73450000  1.0 0.0185203229
I  I59  1  0.36100000  0.81400000  0.07630000  1.0 -0.1090491876
I  I60  1  0.23100000  0.56600000  0.11050000  1.0 -0.1090491876
I  I61  1  0.50040000  0.95800000  0.31750000  1.0 0.0592514749
I  I62  1  0.44650000  0.73530000  0.21770000  1.0 0.0492026052
I  I63  1  0.61500000  0.27400000  0.42200000  1.0 -0.0286460869
I  I64  1  0.41100000  0.18300000  0.53800000  1.0 -0.1428635592
N  N1  1  0.14340000  0.11990000  0.14900000  1.0 -0.180266692
N  N2  1  0.97790000  0.40120000  0.43530000  1.0 -0.1996271951
N  N3  1  0.73420000  0.49630000  0.50370000  1.0 -0.4370892892
N  N4  1  0.11500000  0.30640000  0.05030000  1.0 -0.3308505664
N  N5  1  0.66380000  0.87950000  0.56980000  1.0 -0.1692116636
N  N6  1  0.22770000  0.42420000  0.02720000  1.0 -0.3634922454
N  N7  1  0.58150000  0.61870000  0.07550000  1.0 -0.2158702935
N  N8  1  0.97520000  0.07030000  0.66440000  1.0 -0.419347403
N  N9  1  0.62090000  0.45830000  0.55830000  1.0 -0.419347403
N  N10  1  0.54340000  0.26070000  0.66370000  1.0 -0.2277105997
N  N11  1  0.58070000  0.70010000  0.51520000  1.0 -0.180266692
N  N12  1  0.73000000  0.39160000  0.54290000  1.0 -0.4498710086
N  N13  1  0.90860000  0.34660000  0.93330000  1.0 -0.1920966009
N  N14  1  0.28090000  0.37250000  0.08440000  1.0 -0.406218643
N  N15  1  0.84350000  0.08790000  0.70070000  1.0 -0.419347403
N  N16  1  0.01130000  0.16670000  0.72960000  1.0 -0.419347403
N  N17  1  0.82070000  0.26610000  0.83600000  1.0 -0.2277105997
N  N18  1  0.34240000  0.16950000  0.70680000  1.0 -0.1996271951
N  N19  1  0.72690000  0.03960000  0.23750000  1.0 -0.419347403
N  N20  1  0.56840000  0.99020000  0.19650000  1.0 -0.419347403
N  N21  1  0.26460000  0.04050000  0.19760000  1.0 -0.1996271951
N  N22  1  0.93880000  0.28030000  0.34540000  1.0 -0.180266692
N  N23  1  0.70220000  0.79070000  0.13460000  1.0 -0.1996271951
N  N24  1  0.61970000  0.10800000  0.25120000  1.0 -0.4498710086
N  N25  1  0.85660000  0.88010000  0.85100000  1.0 -0.180266692
N  N26  1  0.02210000  0.59880000  0.56470000  1.0 -0.1996271951
N  N27  1  0.26580000  0.50370000  0.49630000  1.0 -0.4370892892
N  N28  1  0.88500000  0.69360000  0.94970000  1.0 -0.3308505664
N  N29  1  0.33620000  0.12050000  0.43020000  1.0 -0.1692116636
N  N30  1  0.77230000  0.57580000  0.97280000  1.0 -0.3634922454
N  N31  1  0.41850000  0.38130000  0.92450000  1.0 -0.2158702935
N  N32  1  0.02480000  0.92970000  0.33560000  1.0 -0.419347403
N  N33  1  0.37910000  0.54170000  0.44170000  1.0 -0.419347403
N  N34  1  0.45660000  0.73930000  0.33630000  1.0 -0.2277105997
N  N35  1  0.41930000  0.29990000  0.48480000  1.0 -0.180266692
N  N36  1  0.27000000  0.60840000  0.45710000  1.0 -0.4498710086
N  N37  1  0.09140000  0.65340000  0.06670000  1.0 -0.1920966009
N  N38  1  0.71910000  0.62750000  0.91560000  1.0 -0.406218643
N  N39  1  0.15650000  0.91210000  0.29930000  1.0 -0.419347403
N  N40  1  0.98870000  0.83330000  0.27040000  1.0 -0.419347403
N  N41  1  0.17930000  0.73390000  0.16400000  1.0 -0.2277105997
N  N42  1  0.65760000  0.83050000  0.29320000  1.0 -0.1996271951
N  N43  1  0.27310000  0.96040000  0.76250000  1.0 -0.419347403
N  N44  1  0.43160000  0.00980000  0.80350000  1.0 -0.419347403
N  N45  1  0.73540000  0.95950000  0.80240000  1.0 -0.1996271951
N  N46  1  0.06120000  0.71970000  0.65460000  1.0 -0.180266692
N  N47  1  0.29780000  0.20930000  0.86540000  1.0 -0.1996271951
N  N48  1  0.38030000  0.89200000  0.74880000  1.0 -0.4498710086
O  O1  1  0.11480000  0.52010000  0.66080000  1.0 -0.4498710086
O  O2  1  0.88520000  0.47990000  0.33920000  1.0 -0.4498710086
