# DDEC6 charges by PACMAN v1.1 (https://github.com/mtap-research/PACMAN-charge/)
data_LIRNOR_ASR_pacman
_symmetry_space_group_name_H-M   'P 1'
_cell_length_a   23.01010000
_cell_length_b   23.01010000
_cell_length_c   23.01010000
_cell_angle_alpha   116.95900000
_cell_angle_beta   116.95900000
_cell_angle_gamma   95.35320000
_symmetry_Int_Tables_number   1
_chemical_formula_structural   Zn2H26C33(N3O4)2
_chemical_formula_sum   'Zn16 H208 C264 N48 O64'
_cell_volume   8968.31043684
_cell_formula_units_Z   8
loop_
 _symmetry_equiv_pos_site_id
 _symmetry_equiv_pos_as_xyz
  1  'x, y, z'
loop_
 _atom_site_type_symbol
 _atom_site_label
 _atom_site_symmetry_multiplicity
 _atom_site_fract_x
 _atom_site_fract_y
 _atom_site_fract_z
 _atom_site_occupancy
 _atom_site_charge
Zn  Zn1  1  0.12305000  0.81961000  0.44834000  1.0 0.7756841551
Zn  Zn2  1  0.37127000  0.67471000  0.55166000  1.0 0.7756841551
Zn  Zn3  1  0.12695000  0.07529000  0.19656000  1.0 0.7756841551
Zn  Zn4  1  0.87873000  0.93039000  0.80344000  1.0 0.7756841551
Zn  Zn5  1  0.68039000  0.37695000  0.55166000  1.0 0.7756841551
Zn  Zn6  1  0.82529000  0.12873000  0.44834000  1.0 0.7756841551
Zn  Zn7  1  0.42471000  0.37305000  0.80344000  1.0 0.7756841551
Zn  Zn8  1  0.56961000  0.62127000  0.19656000  1.0 0.7756841551
Zn  Zn9  1  0.62695000  0.43039000  0.05166000  1.0 0.7756841551
Zn  Zn10  1  0.37873000  0.57529000  0.94834000  1.0 0.7756841551
Zn  Zn11  1  0.62305000  0.17471000  0.30344000  1.0 0.7756841551
Zn  Zn12  1  0.87127000  0.31961000  0.69656000  1.0 0.7756841551
Zn  Zn13  1  0.06961000  0.87305000  0.94834000  1.0 0.7756841551
Zn  Zn14  1  0.92471000  0.12127000  0.05166000  1.0 0.7756841551
Zn  Zn15  1  0.32529000  0.87695000  0.69656000  1.0 0.7756841551
Zn  Zn16  1  0.18039000  0.62873000  0.30344000  1.0 0.7756841551
H  H1  1  0.12820000  0.48000000  0.32060000  1.0 0.1330293786
H  H2  1  0.15940000  0.80760000  0.67940000  1.0 0.1330293786
H  H3  1  0.12180000  0.94240000  0.85180000  1.0 0.1330293786
H  H4  1  0.09060000  0.27000000  0.14820000  1.0 0.1330293786
H  H5  1  0.02000000  0.37180000  0.67940000  1.0 0.1330293786
H  H6  1  0.69240000  0.34060000  0.32060000  1.0 0.1330293786
H  H7  1  0.55760000  0.37820000  0.14820000  1.0 0.1330293786
H  H8  1  0.23000000  0.40940000  0.85180000  1.0 0.1330293786
H  H9  1  0.62180000  0.77000000  0.17940000  1.0 0.1330293786
H  H10  1  0.59060000  0.44240000  0.82060000  1.0 0.1330293786
H  H11  1  0.62820000  0.30760000  0.64820000  1.0 0.1330293786
H  H12  1  0.65940000  0.98000000  0.35180000  1.0 0.1330293786
H  H13  1  0.73000000  0.87820000  0.82060000  1.0 0.1330293786
H  H14  1  0.05760000  0.90940000  0.17940000  1.0 0.1330293786
H  H15  1  0.19240000  0.87180000  0.35180000  1.0 0.1330293786
H  H16  1  0.52000000  0.84060000  0.64820000  1.0 0.1330293786
H  H17  1  0.19700000  0.54730000  0.38970000  1.0 0.1456581053
H  H18  1  0.15760000  0.80730000  0.61030000  1.0 0.1456581053
H  H19  1  0.05300000  0.94270000  0.85030000  1.0 0.1456581053
H  H20  1  0.09240000  0.20270000  0.14970000  1.0 0.1456581053
H  H21  1  0.95270000  0.30300000  0.61030000  1.0 0.1456581053
H  H22  1  0.69270000  0.34240000  0.38970000  1.0 0.1456581053
H  H23  1  0.55730000  0.44700000  0.14970000  1.0 0.1456581053
H  H24  1  0.29730000  0.40760000  0.85030000  1.0 0.1456581053
H  H25  1  0.55300000  0.70270000  0.11030000  1.0 0.1456581053
H  H26  1  0.59240000  0.44270000  0.88970000  1.0 0.1456581053
H  H27  1  0.69700000  0.30730000  0.64970000  1.0 0.1456581053
H  H28  1  0.65760000  0.04730000  0.35030000  1.0 0.1456581053
H  H29  1  0.79730000  0.94700000  0.88970000  1.0 0.1456581053
H  H30  1  0.05730000  0.90760000  0.11030000  1.0 0.1456581053
H  H31  1  0.19270000  0.80300000  0.35030000  1.0 0.1456581053
H  H32  1  0.45270000  0.84240000  0.64970000  1.0 0.1456581053
H  H33  1  0.15830000  0.62550000  0.43500000  1.0 0.1456581053
H  H34  1  0.19050000  0.72330000  0.56500000  1.0 0.1456581053
H  H35  1  0.09170000  0.02670000  0.96720000  1.0 0.1456581053
H  H36  1  0.05950000  0.12450000  0.03280000  1.0 0.1456581053
H  H37  1  0.87450000  0.34170000  0.56500000  1.0 0.1456581053
H  H38  1  0.77670000  0.30950000  0.43500000  1.0 0.1456581053
H  H39  1  0.47330000  0.40830000  0.03280000  1.0 0.1456581053
H  H40  1  0.37550000  0.44050000  0.96720000  1.0 0.1456581053
H  H41  1  0.59170000  0.62450000  0.06500000  1.0 0.1456581053
H  H42  1  0.55950000  0.52670000  0.93500000  1.0 0.1456581053
H  H43  1  0.65830000  0.22330000  0.53280000  1.0 0.1456581053
H  H44  1  0.69050000  0.12550000  0.46720000  1.0 0.1456581053
H  H45  1  0.87550000  0.90830000  0.93500000  1.0 0.1456581053
H  H46  1  0.97330000  0.94050000  0.06500000  1.0 0.1456581053
H  H47  1  0.27670000  0.84170000  0.46720000  1.0 0.1456581053
H  H48  1  0.37450000  0.80950000  0.53280000  1.0 0.1456581053
H  H49  1  0.07580000  0.59530000  0.38070000  1.0 0.1354030553
H  H50  1  0.21460000  0.69510000  0.61930000  1.0 0.1354030553
H  H51  1  0.17420000  0.05490000  0.01950000  1.0 0.1354030553
H  H52  1  0.03540000  0.15470000  0.98050000  1.0 0.1354030553
H  H53  1  0.90470000  0.42420000  0.61930000  1.0 0.1354030553
H  H54  1  0.80490000  0.28540000  0.38070000  1.0 0.1354030553
H  H55  1  0.44510000  0.32580000  0.98050000  1.0 0.1354030553
H  H56  1  0.34530000  0.46460000  0.01950000  1.0 0.1354030553
H  H57  1  0.67420000  0.65470000  0.11930000  1.0 0.1354030553
H  H58  1  0.53540000  0.55490000  0.88070000  1.0 0.1354030553
H  H59  1  0.57580000  0.19510000  0.48050000  1.0 0.1354030553
H  H60  1  0.71460000  0.09530000  0.51950000  1.0 0.1354030553
H  H61  1  0.84530000  0.82580000  0.88070000  1.0 0.1354030553
H  H62  1  0.94510000  0.96460000  0.11930000  1.0 0.1354030553
H  H63  1  0.30490000  0.92420000  0.51950000  1.0 0.1354030553
H  H64  1  0.40470000  0.78540000  0.48050000  1.0 0.1354030553
H  H65  1  0.05420000  0.49420000  0.20420000  1.0 0.120517208
H  H66  1  0.29000000  0.85000000  0.79580000  1.0 0.120517208
H  H67  1  0.19580000  0.90000000  0.94000000  1.0 0.120517208
H  H68  1  0.96000000  0.25580000  0.06000000  1.0 0.120517208
H  H69  1  0.00580000  0.44580000  0.79580000  1.0 0.120517208
H  H70  1  0.65000000  0.21000000  0.20420000  1.0 0.120517208
H  H71  1  0.60000000  0.30420000  0.06000000  1.0 0.120517208
H  H72  1  0.24420000  0.54000000  0.94000000  1.0 0.120517208
H  H73  1  0.69580000  0.75580000  0.29580000  1.0 0.120517208
H  H74  1  0.46000000  0.40000000  0.70420000  1.0 0.120517208
H  H75  1  0.55420000  0.35000000  0.56000000  1.0 0.120517208
H  H76  1  0.79000000  0.99420000  0.44000000  1.0 0.120517208
H  H77  1  0.74420000  0.80420000  0.70420000  1.0 0.120517208
H  H78  1  0.10000000  0.04000000  0.29580000  1.0 0.120517208
H  H79  1  0.15000000  0.94580000  0.44000000  1.0 0.120517208
H  H80  1  0.50580000  0.71000000  0.56000000  1.0 0.120517208
H  H81  1  0.03000000  0.55640000  0.23460000  1.0 0.120517208
H  H82  1  0.32180000  0.79540000  0.76540000  1.0 0.120517208
H  H83  1  0.22000000  0.95460000  0.02640000  1.0 0.120517208
H  H84  1  0.92820000  0.19360000  0.97360000  1.0 0.120517208
H  H85  1  0.94360000  0.47000000  0.76540000  1.0 0.120517208
H  H86  1  0.70460000  0.17820000  0.23460000  1.0 0.120517208
H  H87  1  0.54540000  0.28000000  0.97360000  1.0 0.120517208
H  H88  1  0.30640000  0.57180000  0.02640000  1.0 0.120517208
H  H89  1  0.72000000  0.69360000  0.26540000  1.0 0.120517208
H  H90  1  0.42820000  0.45460000  0.73460000  1.0 0.120517208
H  H91  1  0.53000000  0.29540000  0.47360000  1.0 0.120517208
H  H92  1  0.82180000  0.05640000  0.52640000  1.0 0.120517208
H  H93  1  0.80640000  0.78000000  0.73460000  1.0 0.120517208
H  H94  1  0.04540000  0.07180000  0.26540000  1.0 0.120517208
H  H95  1  0.20460000  0.97000000  0.52640000  1.0 0.120517208
H  H96  1  0.44360000  0.67820000  0.47360000  1.0 0.120517208
H  H97  1  0.94910000  0.54690000  0.27280000  1.0 0.120517208
H  H98  1  0.27410000  0.67630000  0.72720000  1.0 0.120517208
H  H99  1  0.30090000  0.07370000  0.09780000  1.0 0.120517208
H  H100  1  0.97590000  0.20310000  0.90220000  1.0 0.120517208
H  H101  1  0.95310000  0.55090000  0.72720000  1.0 0.120517208
H  H102  1  0.82370000  0.22590000  0.27280000  1.0 0.120517208
H  H103  1  0.42630000  0.19910000  0.90220000  1.0 0.120517208
H  H104  1  0.29690000  0.52410000  0.09780000  1.0 0.120517208
H  H105  1  0.80090000  0.70310000  0.22720000  1.0 0.120517208
H  H106  1  0.47590000  0.57370000  0.77280000  1.0 0.120517208
H  H107  1  0.44910000  0.17630000  0.40220000  1.0 0.120517208
H  H108  1  0.77410000  0.04690000  0.59780000  1.0 0.120517208
H  H109  1  0.79690000  0.69910000  0.77280000  1.0 0.120517208
H  H110  1  0.92630000  0.02410000  0.22720000  1.0 0.120517208
H  H111  1  0.32370000  0.05090000  0.59780000  1.0 0.120517208
H  H112  1  0.45310000  0.72590000  0.40220000  1.0 0.120517208
H  H113  1  0.87070000  0.47930000  0.27460000  1.0 0.120517208
H  H114  1  0.20470000  0.59610000  0.72540000  1.0 0.120517208
H  H115  1  0.37930000  0.15390000  0.10860000  1.0 0.120517208
H  H116  1  0.04530000  0.27070000  0.89140000  1.0 0.120517208
H  H117  1  0.02070000  0.62930000  0.72540000  1.0 0.120517208
H  H118  1  0.90390000  0.29530000  0.27460000  1.0 0.120517208
H  H119  1  0.34610000  0.12070000  0.89140000  1.0 0.120517208
H  H120  1  0.22930000  0.45470000  0.10860000  1.0 0.120517208
H  H121  1  0.87930000  0.77070000  0.22540000  1.0 0.120517208
H  H122  1  0.54530000  0.65390000  0.77460000  1.0 0.120517208
H  H123  1  0.37070000  0.09610000  0.39140000  1.0 0.120517208
H  H124  1  0.70470000  0.97930000  0.60860000  1.0 0.120517208
H  H125  1  0.72930000  0.62070000  0.77460000  1.0 0.120517208
H  H126  1  0.84610000  0.95470000  0.22540000  1.0 0.120517208
H  H127  1  0.40390000  0.12930000  0.60860000  1.0 0.120517208
H  H128  1  0.52070000  0.79530000  0.39140000  1.0 0.120517208
H  H129  1  0.94500000  0.32620000  0.21660000  1.0 0.120517208
H  H130  1  0.10960000  0.72840000  0.78340000  1.0 0.120517208
H  H131  1  0.30500000  0.02160000  0.88120000  1.0 0.120517208
H  H132  1  0.14040000  0.42380000  0.11880000  1.0 0.120517208
H  H133  1  0.17380000  0.55500000  0.78340000  1.0 0.120517208
H  H134  1  0.77160000  0.39040000  0.21660000  1.0 0.120517208
H  H135  1  0.47840000  0.19500000  0.11880000  1.0 0.120517208
H  H136  1  0.07620000  0.35960000  0.88120000  1.0 0.120517208
H  H137  1  0.80500000  0.92380000  0.28340000  1.0 0.120517208
H  H138  1  0.64040000  0.52160000  0.71660000  1.0 0.120517208
H  H139  1  0.44500000  0.22840000  0.61880000  1.0 0.120517208
H  H140  1  0.60960000  0.82620000  0.38120000  1.0 0.120517208
H  H141  1  0.57620000  0.69500000  0.71660000  1.0 0.120517208
H  H142  1  0.97840000  0.85960000  0.28340000  1.0 0.120517208
H  H143  1  0.27160000  0.05500000  0.38120000  1.0 0.120517208
H  H144  1  0.67380000  0.89040000  0.61880000  1.0 0.120517208
H  H145  1  0.02440000  0.39480000  0.21700000  1.0 0.120517208
H  H146  1  0.17780000  0.80740000  0.78300000  1.0 0.120517208
H  H147  1  0.22560000  0.94260000  0.87040000  1.0 0.120517208
H  H148  1  0.07220000  0.35520000  0.12960000  1.0 0.120517208
H  H149  1  0.10520000  0.47560000  0.78300000  1.0 0.120517208
H  H150  1  0.69260000  0.32220000  0.21700000  1.0 0.120517208
H  H151  1  0.55740000  0.27440000  0.12960000  1.0 0.120517208
H  H152  1  0.14480000  0.42780000  0.87040000  1.0 0.120517208
H  H153  1  0.72560000  0.85520000  0.28300000  1.0 0.120517208
H  H154  1  0.57220000  0.44260000  0.71700000  1.0 0.120517208
H  H155  1  0.52440000  0.30740000  0.62960000  1.0 0.120517208
H  H156  1  0.67780000  0.89480000  0.37040000  1.0 0.120517208
H  H157  1  0.64480000  0.77440000  0.71700000  1.0 0.120517208
H  H158  1  0.05740000  0.92780000  0.28300000  1.0 0.120517208
H  H159  1  0.19260000  0.97560000  0.37040000  1.0 0.120517208
H  H160  1  0.60520000  0.82220000  0.62960000  1.0 0.120517208
H  H161  1  0.14840000  0.94810000  0.60770000  1.0 0.1354030553
H  H162  1  0.34040000  0.54070000  0.39230000  1.0 0.1354030553
H  H163  1  0.10160000  0.20930000  0.29970000  1.0 0.1354030553
H  H164  1  0.90960000  0.80190000  0.70030000  1.0 0.1354030553
H  H165  1  0.55190000  0.35160000  0.39230000  1.0 0.1354030553
H  H166  1  0.95930000  0.15960000  0.60770000  1.0 0.1354030553
H  H167  1  0.29070000  0.39840000  0.70030000  1.0 0.1354030553
H  H168  1  0.69810000  0.59040000  0.29970000  1.0 0.1354030553
H  H169  1  0.60160000  0.30190000  0.89230000  1.0 0.1354030553
H  H170  1  0.40960000  0.70930000  0.10770000  1.0 0.1354030553
H  H171  1  0.64840000  0.04070000  0.20030000  1.0 0.1354030553
H  H172  1  0.84040000  0.44810000  0.79970000  1.0 0.1354030553
H  H173  1  0.19810000  0.89840000  0.10770000  1.0 0.1354030553
H  H174  1  0.79070000  0.09040000  0.89230000  1.0 0.1354030553
H  H175  1  0.45930000  0.85160000  0.79970000  1.0 0.1354030553
H  H176  1  0.05190000  0.65960000  0.20030000  1.0 0.1354030553
H  H177  1  0.05990000  0.99490000  0.61600000  1.0 0.1330293786
H  H178  1  0.37890000  0.44390000  0.38400000  1.0 0.1330293786
H  H179  1  0.19010000  0.30610000  0.43500000  1.0 0.1330293786
H  H180  1  0.87110000  0.75510000  0.56500000  1.0 0.1330293786
H  H181  1  0.50510000  0.44010000  0.38400000  1.0 0.1330293786
H  H182  1  0.05610000  0.12110000  0.61600000  1.0 0.1330293786
H  H183  1  0.19390000  0.30990000  0.56500000  1.0 0.1330293786
H  H184  1  0.74490000  0.62890000  0.43500000  1.0 0.1330293786
H  H185  1  0.69010000  0.25510000  0.88400000  1.0 0.1330293786
H  H186  1  0.37110000  0.80610000  0.11600000  1.0 0.1330293786
H  H187  1  0.55990000  0.94390000  0.06500000  1.0 0.1330293786
H  H188  1  0.87890000  0.49490000  0.93500000  1.0 0.1330293786
H  H189  1  0.24490000  0.80990000  0.11600000  1.0 0.1330293786
H  H190  1  0.69390000  0.12890000  0.88400000  1.0 0.1330293786
H  H191  1  0.55610000  0.94010000  0.93500000  1.0 0.1330293786
H  H192  1  0.00510000  0.62110000  0.06500000  1.0 0.1330293786
H  H193  1  0.97630000  0.83390000  0.39880000  1.0 0.120517208
H  H194  1  0.43510000  0.57750000  0.60120000  1.0 0.120517208
H  H195  1  0.27370000  0.17250000  0.35760000  1.0 0.120517208
H  H196  1  0.81490000  0.91610000  0.64240000  1.0 0.120517208
H  H197  1  0.66610000  0.52370000  0.60120000  1.0 0.120517208
H  H198  1  0.92250000  0.06490000  0.39880000  1.0 0.120517208
H  H199  1  0.32750000  0.22630000  0.64240000  1.0 0.120517208
H  H200  1  0.58390000  0.68510000  0.35760000  1.0 0.120517208
H  H201  1  0.77370000  0.41610000  0.10120000  1.0 0.120517208
H  H202  1  0.31490000  0.67250000  0.89880000  1.0 0.120517208
H  H203  1  0.47630000  0.07750000  0.14240000  1.0 0.120517208
H  H204  1  0.93510000  0.33390000  0.85760000  1.0 0.120517208
H  H205  1  0.08390000  0.72630000  0.89880000  1.0 0.120517208
H  H206  1  0.82750000  0.18510000  0.10120000  1.0 0.120517208
H  H207  1  0.42250000  0.02370000  0.85760000  1.0 0.120517208
H  H208  1  0.16610000  0.56490000  0.14240000  1.0 0.120517208
C  C1  1  0.19093000  0.50096000  0.28629000  1.0 0.5948008519
C  C2  1  0.21467000  0.90464000  0.71371000  1.0 0.5948008519
C  C3  1  0.05907000  0.84536000  0.81003000  1.0 0.5948008519
C  C4  1  0.03533000  0.24904000  0.18997000  1.0 0.5948008519
C  C5  1  0.99904000  0.30907000  0.71371000  1.0 0.5948008519
C  C6  1  0.59536000  0.28533000  0.28629000  1.0 0.5948008519
C  C7  1  0.65464000  0.44093000  0.18997000  1.0 0.5948008519
C  C8  1  0.25096000  0.46467000  0.81003000  1.0 0.5948008519
C  C9  1  0.55907000  0.74904000  0.21371000  1.0 0.5948008519
C  C10  1  0.53533000  0.34536000  0.78629000  1.0 0.5948008519
C  C11  1  0.69093000  0.40464000  0.68997000  1.0 0.5948008519
C  C12  1  0.71467000  0.00096000  0.31003000  1.0 0.5948008519
C  C13  1  0.75096000  0.94093000  0.78629000  1.0 0.5948008519
C  C14  1  0.15464000  0.96467000  0.21371000  1.0 0.5948008519
C  C15  1  0.09536000  0.80907000  0.31003000  1.0 0.5948008519
C  C16  1  0.49904000  0.78533000  0.68997000  1.0 0.5948008519
C  C17  1  0.15969000  0.52189000  0.33440000  1.0 -0.2919064689
C  C18  1  0.18749000  0.82529000  0.66560000  1.0 -0.2919064689
C  C19  1  0.09031000  0.92471000  0.86220000  1.0 -0.2919064689
C  C20  1  0.06251000  0.22811000  0.13780000  1.0 -0.2919064689
C  C21  1  0.97811000  0.34031000  0.66560000  1.0 -0.2919064689
C  C22  1  0.67471000  0.31251000  0.33440000  1.0 -0.2919064689
C  C23  1  0.57529000  0.40969000  0.13780000  1.0 -0.2919064689
C  C24  1  0.27189000  0.43749000  0.86220000  1.0 -0.2919064689
C  C25  1  0.59031000  0.72811000  0.16560000  1.0 -0.2919064689
C  C26  1  0.56251000  0.42471000  0.83440000  1.0 -0.2919064689
C  C27  1  0.65969000  0.32529000  0.63780000  1.0 -0.2919064689
C  C28  1  0.68749000  0.02189000  0.36220000  1.0 -0.2919064689
C  C29  1  0.77189000  0.90969000  0.83440000  1.0 -0.2919064689
C  C30  1  0.07529000  0.93749000  0.16560000  1.0 -0.2919064689
C  C31  1  0.17471000  0.84031000  0.36220000  1.0 -0.2919064689
C  C32  1  0.47811000  0.81251000  0.63780000  1.0 -0.2919064689
C  C33  1  0.12080000  0.68449000  0.39305000  1.0 0.6060992364
C  C34  1  0.29144000  0.72775000  0.60695000  1.0 0.6060992364
C  C35  1  0.12920000  0.02225000  0.06369000  1.0 0.6060992364
C  C36  1  0.95856000  0.06551000  0.93631000  1.0 0.6060992364
C  C37  1  0.81551000  0.37920000  0.60695000  1.0 0.6060992364
C  C38  1  0.77225000  0.20856000  0.39305000  1.0 0.6060992364
C  C39  1  0.47775000  0.37080000  0.93631000  1.0 0.6060992364
C  C40  1  0.43449000  0.54144000  0.06369000  1.0 0.6060992364
C  C41  1  0.62920000  0.56551000  0.10695000  1.0 0.6060992364
C  C42  1  0.45856000  0.52225000  0.89305000  1.0 0.6060992364
C  C43  1  0.62080000  0.22775000  0.43631000  1.0 0.6060992364
C  C44  1  0.79144000  0.18449000  0.56369000  1.0 0.6060992364
C  C45  1  0.93449000  0.87080000  0.89305000  1.0 0.6060992364
C  C46  1  0.97775000  0.04144000  0.10695000  1.0 0.6060992364
C  C47  1  0.27225000  0.87920000  0.56369000  1.0 0.6060992364
C  C48  1  0.31551000  0.70856000  0.43631000  1.0 0.6060992364
C  C49  1  0.11847000  0.61622000  0.38675000  1.0 -0.278447092
C  C50  1  0.22947000  0.73172000  0.61325000  1.0 -0.278447092
C  C51  1  0.13153000  0.01828000  0.99775000  1.0 -0.278447092
C  C52  1  0.02053000  0.13378000  0.00225000  1.0 -0.278447092
C  C53  1  0.88378000  0.38153000  0.61325000  1.0 -0.278447092
C  C54  1  0.76828000  0.27053000  0.38675000  1.0 -0.278447092
C  C55  1  0.48172000  0.36847000  0.00225000  1.0 -0.278447092
C  C56  1  0.36622000  0.47947000  0.99775000  1.0 -0.278447092
C  C57  1  0.63153000  0.63378000  0.11325000  1.0 -0.278447092
C  C58  1  0.52053000  0.51828000  0.88675000  1.0 -0.278447092
C  C59  1  0.61847000  0.23172000  0.50225000  1.0 -0.278447092
C  C60  1  0.72947000  0.11622000  0.49775000  1.0 -0.278447092
C  C61  1  0.86622000  0.86847000  0.88675000  1.0 -0.278447092
C  C62  1  0.98172000  0.97947000  0.11325000  1.0 -0.278447092
C  C63  1  0.26828000  0.88153000  0.49775000  1.0 -0.278447092
C  C64  1  0.38378000  0.77053000  0.50225000  1.0 -0.278447092
C  C65  1  0.04926000  0.52448000  0.24634000  1.0 -0.185910799
C  C66  1  0.27814000  0.80292000  0.75366000  1.0 -0.185910799
C  C67  1  0.20074000  0.94708000  0.97522000  1.0 -0.185910799
C  C68  1  0.97186000  0.22552000  0.02478000  1.0 -0.185910799
C  C69  1  0.97552000  0.45074000  0.75366000  1.0 -0.185910799
C  C70  1  0.69708000  0.22186000  0.24634000  1.0 -0.185910799
C  C71  1  0.55292000  0.29926000  0.02478000  1.0 -0.185910799
C  C72  1  0.27448000  0.52814000  0.97522000  1.0 -0.185910799
C  C73  1  0.70074000  0.72552000  0.25366000  1.0 -0.185910799
C  C74  1  0.47186000  0.44708000  0.74634000  1.0 -0.185910799
C  C75  1  0.54926000  0.30292000  0.52478000  1.0 -0.185910799
C  C76  1  0.77814000  0.02448000  0.47522000  1.0 -0.185910799
C  C77  1  0.77448000  0.79926000  0.74634000  1.0 -0.185910799
C  C78  1  0.05292000  0.02814000  0.25366000  1.0 -0.1848671962
C  C79  1  0.19708000  0.95074000  0.47522000  1.0 -0.185910799
C  C80  1  0.47552000  0.72186000  0.52478000  1.0 -0.185910799
C  C81  1  0.99601000  0.47869000  0.24520000  1.0 0.1011218723
C  C82  1  0.23349000  0.75081000  0.75480000  1.0 0.1011218723
C  C83  1  0.25399000  0.99919000  0.98268000  1.0 0.1011218723
C  C84  1  0.01651000  0.27131000  0.01732000  1.0 0.1011218723
C  C85  1  0.02131000  0.50399000  0.75480000  1.0 0.1011218723
C  C86  1  0.74919000  0.26651000  0.24520000  1.0 0.1011218723
C  C87  1  0.50081000  0.24601000  0.01732000  1.0 0.1011218723
C  C88  1  0.22869000  0.48349000  0.98268000  1.0 0.1011218723
C  C89  1  0.75399000  0.77131000  0.25480000  1.0 0.1011218723
C  C90  1  0.51651000  0.49919000  0.74520000  1.0 0.1011218723
C  C91  1  0.49601000  0.25081000  0.51732000  1.0 0.1011218723
C  C92  1  0.73349000  0.97869000  0.48268000  1.0 0.1011218723
C  C93  1  0.72869000  0.74601000  0.74520000  1.0 0.1011218723
C  C94  1  0.00081000  0.98349000  0.25480000  1.0 0.1011218723
C  C95  1  0.24919000  0.00399000  0.48268000  1.0 0.1011218723
C  C96  1  0.52131000  0.76651000  0.51732000  1.0 0.1011218723
C  C97  1  0.94875000  0.50265000  0.26190000  1.0 -0.1573253129
C  C98  1  0.24075000  0.68685000  0.73810000  1.0 -0.1573253129
C  C99  1  0.30125000  0.06315000  0.05390000  1.0 -0.1573253129
C  C100  1  0.00925000  0.24735000  0.94610000  1.0 -0.1573253129
C  C101  1  0.99735000  0.55125000  0.73810000  1.0 -0.1573253129
C  C102  1  0.81315000  0.25925000  0.26190000  1.0 -0.1573253129
C  C103  1  0.43685000  0.19875000  0.94610000  1.0 -0.1573253129
C  C104  1  0.25265000  0.49075000  0.05390000  1.0 -0.1573253129
C  C105  1  0.80125000  0.74735000  0.23810000  1.0 -0.1573253129
C  C106  1  0.50925000  0.56315000  0.76190000  1.0 -0.1573253129
C  C107  1  0.44875000  0.18685000  0.44610000  1.0 -0.1573253129
C  C108  1  0.74075000  0.00265000  0.55390000  1.0 -0.1573253129
C  C109  1  0.75265000  0.69875000  0.76190000  1.0 -0.1573253129
C  C110  1  0.93685000  0.99075000  0.23810000  1.0 -0.1573253129
C  C111  1  0.31315000  0.05125000  0.55390000  1.0 -0.1573253129
C  C112  1  0.49735000  0.75925000  0.44610000  1.0 -0.1573253129
C  C113  1  0.90119000  0.46169000  0.26230000  1.0 -0.1380878542
C  C114  1  0.19939000  0.63889000  0.73770000  1.0 -0.1380878542
C  C115  1  0.34881000  0.11111000  0.06050000  1.0 -0.1380878542
C  C116  1  0.05061000  0.28831000  0.93950000  1.0 -0.1380878542
C  C117  1  0.03831000  0.59881000  0.73770000  1.0 -0.1380878542
C  C118  1  0.86111000  0.30061000  0.26230000  1.0 -0.1380878542
C  C119  1  0.38889000  0.15119000  0.93950000  1.0 -0.1380878542
C  C120  1  0.21169000  0.44939000  0.06050000  1.0 -0.1380878542
C  C121  1  0.84881000  0.78831000  0.23770000  1.0 -0.1380878542
C  C122  1  0.55061000  0.61111000  0.76230000  1.0 -0.1380878542
C  C123  1  0.40119000  0.13889000  0.43950000  1.0 -0.1380878542
C  C124  1  0.69939000  0.96169000  0.56050000  1.0 -0.1380878542
C  C125  1  0.71169000  0.65119000  0.76230000  1.0 -0.1380878542
C  C126  1  0.88889000  0.94939000  0.23770000  1.0 -0.1380878542
C  C127  1  0.36111000  0.09881000  0.56050000  1.0 -0.1380878542
C  C128  1  0.53831000  0.80061000  0.43950000  1.0 -0.1380878542
C  C129  1  0.89810000  0.39497000  0.24467000  1.0 0.0653513294
C  C130  1  0.15030000  0.65343000  0.75533000  1.0 0.0653513294
C  C131  1  0.35190000  0.09657000  0.99687000  1.0 0.0653513294
C  C132  1  0.09970000  0.35503000  0.00313000  1.0 0.0653513294
C  C133  1  0.10503000  0.60190000  0.75533000  1.0 0.0653513294
C  C134  1  0.84657000  0.34970000  0.24467000  1.0 0.0653513294
C  C135  1  0.40343000  0.14810000  0.00313000  1.0 0.0653513294
C  C136  1  0.14497000  0.40030000  0.99687000  1.0 0.0653513294
C  C137  1  0.85190000  0.85503000  0.25533000  1.0 0.0653513294
C  C138  1  0.59970000  0.59657000  0.74467000  1.0 0.0653513294
C  C139  1  0.39810000  0.15343000  0.50313000  1.0 0.0653513294
C  C140  1  0.65030000  0.89497000  0.49687000  1.0 0.0653513294
C  C141  1  0.64497000  0.64810000  0.74467000  1.0 0.0653513294
C  C142  1  0.90343000  0.90030000  0.25533000  1.0 0.0653513294
C  C143  1  0.34657000  0.10190000  0.49687000  1.0 0.0653513294
C  C144  1  0.60503000  0.84970000  0.50313000  1.0 0.0653513294
C  C145  1  0.94554000  0.37058000  0.22796000  1.0 -0.1155390771
C  C146  1  0.14262000  0.71758000  0.77204000  1.0 -0.1155390771
C  C147  1  0.30446000  0.03242000  0.92504000  1.0 -0.1155390771
C  C148  1  0.10738000  0.37942000  0.07496000  1.0 -0.1155390771
C  C149  1  0.12942000  0.55446000  0.77204000  1.0 -0.1155390771
C  C150  1  0.78242000  0.35738000  0.22796000  1.0 -0.1155390771
C  C151  1  0.46758000  0.19554000  0.07496000  1.0 -0.1155390771
C  C152  1  0.12058000  0.39262000  0.92504000  1.0 -0.1155390771
C  C153  1  0.80446000  0.87942000  0.27204000  1.0 -0.1155390771
C  C154  1  0.60738000  0.53242000  0.72796000  1.0 -0.1155390771
C  C155  1  0.44554000  0.21758000  0.57496000  1.0 -0.1155390771
C  C156  1  0.64262000  0.87058000  0.42504000  1.0 -0.1155390771
C  C157  1  0.62058000  0.69554000  0.72796000  1.0 -0.1155390771
C  C158  1  0.96758000  0.89262000  0.27204000  1.0 -0.1155390771
C  C159  1  0.28242000  0.05446000  0.42504000  1.0 -0.1155390771
C  C160  1  0.62942000  0.85738000  0.57496000  1.0 -0.1155390771
C  C161  1  0.99330000  0.41199000  0.22829000  1.0 -0.1380878542
C  C162  1  0.18370000  0.76501000  0.77171000  1.0 -0.1380878542
C  C163  1  0.25670000  0.98499000  0.91869000  1.0 -0.1380878542
C  C164  1  0.06630000  0.33801000  0.08131000  1.0 -0.1380878542
C  C165  1  0.08801000  0.50670000  0.77171000  1.0 -0.1380878542
C  C166  1  0.73499000  0.31630000  0.22829000  1.0 -0.1380878542
C  C167  1  0.51501000  0.24330000  0.08131000  1.0 -0.1380878542
C  C168  1  0.16199000  0.43370000  0.91869000  1.0 -0.1380878542
C  C169  1  0.75670000  0.83801000  0.27171000  1.0 -0.1380878542
C  C170  1  0.56630000  0.48499000  0.72829000  1.0 -0.1380878542
C  C171  1  0.49330000  0.26501000  0.58131000  1.0 -0.1380878542
C  C172  1  0.68370000  0.91199000  0.41869000  1.0 -0.1380878542
C  C173  1  0.66199000  0.74330000  0.72829000  1.0 -0.1380878542
C  C174  1  0.01501000  0.93370000  0.27171000  1.0 -0.1380878542
C  C175  1  0.23499000  0.00670000  0.41869000  1.0 -0.1380878542
C  C176  1  0.58801000  0.81630000  0.58131000  1.0 -0.1380878542
C  C177  1  0.10190000  0.93060000  0.56610000  1.0 -0.0321494787
C  C178  1  0.36450000  0.53580000  0.43390000  1.0 -0.0321494787
C  C179  1  0.14810000  0.21420000  0.32870000  1.0 -0.0321494787
C  C180  1  0.88550000  0.81940000  0.67130000  1.0 -0.0321494787
C  C181  1  0.56940000  0.39810000  0.43390000  1.0 -0.0321494787
C  C182  1  0.96420000  0.13550000  0.56610000  1.0 -0.0321494787
C  C183  1  0.28580000  0.35190000  0.67130000  1.0 -0.0321494787
C  C184  1  0.68060000  0.61450000  0.32870000  1.0 -0.0321494787
C  C185  1  0.64810000  0.31940000  0.93390000  1.0 -0.0321494787
C  C186  1  0.38550000  0.71420000  0.06610000  1.0 -0.0321494787
C  C187  1  0.60190000  0.03580000  0.17130000  1.0 -0.0321494787
C  C188  1  0.86450000  0.43060000  0.82870000  1.0 -0.0321494787
C  C189  1  0.18060000  0.85190000  0.06610000  1.0 -0.0321494787
C  C190  1  0.78580000  0.11450000  0.93390000  1.0 -0.0321494787
C  C191  1  0.46420000  0.89810000  0.82870000  1.0 -0.0321494787
C  C192  1  0.06940000  0.63550000  0.17130000  1.0 -0.0321494787
C  C193  1  0.05357000  0.95667000  0.57170000  1.0 -0.0731471893
C  C194  1  0.38497000  0.48187000  0.42830000  1.0 -0.0731471893
C  C195  1  0.19643000  0.26813000  0.40310000  1.0 -0.0731471893
C  C196  1  0.86503000  0.79333000  0.59690000  1.0 -0.0731471893
C  C197  1  0.54333000  0.44643000  0.42830000  1.0 -0.0731471893
C  C198  1  0.01813000  0.11503000  0.57170000  1.0 -0.0731471893
C  C199  1  0.23187000  0.30357000  0.59690000  1.0 -0.0731471893
C  C200  1  0.70667000  0.63497000  0.40310000  1.0 -0.0731471893
C  C201  1  0.69643000  0.29333000  0.92830000  1.0 -0.0731471893
C  C202  1  0.36503000  0.76813000  0.07170000  1.0 -0.0731471893
C  C203  1  0.55357000  0.98187000  0.09690000  1.0 -0.0731471893
C  C204  1  0.88497000  0.45667000  0.90310000  1.0 -0.0731471893
C  C205  1  0.20667000  0.80357000  0.07170000  1.0 -0.0731471893
C  C206  1  0.73187000  0.13497000  0.92830000  1.0 -0.0731471893
C  C207  1  0.51813000  0.94643000  0.90310000  1.0 -0.0731471893
C  C208  1  0.04333000  0.61503000  0.09690000  1.0 -0.0731471893
C  C209  1  0.00848000  0.86758000  0.45210000  1.0 0.120517208
C  C210  1  0.41548000  0.55638000  0.54790000  1.0 0.120517208
C  C211  1  0.24152000  0.19362000  0.35910000  1.0 0.120517208
C  C212  1  0.83452000  0.88242000  0.64090000  1.0 0.120517208
C  C213  1  0.63242000  0.49152000  0.54790000  1.0 0.120517208
C  C214  1  0.94362000  0.08452000  0.45210000  1.0 0.120517208
C  C215  1  0.30638000  0.25848000  0.64090000  1.0 0.120517208
C  C216  1  0.61758000  0.66548000  0.35910000  1.0 0.120517208
C  C217  1  0.74152000  0.38242000  0.04790000  1.0 0.120517208
C  C218  1  0.33452000  0.69362000  0.95210000  1.0 0.120517208
C  C219  1  0.50848000  0.05638000  0.14090000  1.0 0.120517208
C  C220  1  0.91548000  0.36758000  0.85910000  1.0 0.120517208
C  C221  1  0.11758000  0.75848000  0.95210000  1.0 0.120517208
C  C222  1  0.80638000  0.16548000  0.04790000  1.0 0.120517208
C  C223  1  0.44362000  0.99152000  0.85910000  1.0 0.120517208
C  C224  1  0.13242000  0.58452000  0.14090000  1.0 0.120517208
C  C225  1  0.92410000  0.92130000  0.47440000  1.0 -0.0830217524
C  C226  1  0.44690000  0.44970000  0.52560000  1.0 -0.0830217524
C  C227  1  0.32590000  0.30030000  0.49720000  1.0 -0.0830217524
C  C228  1  0.80310000  0.82870000  0.50280000  1.0 -0.0830217524
C  C229  1  0.57870000  0.57590000  0.52560000  1.0 -0.0830217524
C  C230  1  0.05030000  0.05310000  0.47440000  1.0 -0.0830217524
C  C231  1  0.19970000  0.17410000  0.50280000  1.0 -0.0830217524
C  C232  1  0.67130000  0.69690000  0.49720000  1.0 -0.0830217524
C  C233  1  0.82590000  0.32870000  0.02560000  1.0 -0.0830217524
C  C234  1  0.30310000  0.80030000  0.97440000  1.0 -0.0830217524
C  C235  1  0.42410000  0.94970000  0.00280000  1.0 -0.0830217524
C  C236  1  0.94690000  0.42130000  0.99720000  1.0 -0.0830217524
C  C237  1  0.17130000  0.67410000  0.97440000  1.0 -0.0830217524
C  C238  1  0.69970000  0.19690000  0.02560000  1.0 -0.0830217524
C  C239  1  0.55030000  0.07590000  0.99720000  1.0 -0.0830217524
C  C240  1  0.07870000  0.55310000  0.00280000  1.0 -0.0830217524
C  C241  1  0.86430000  0.87140000  0.45310000  1.0 -0.0321494787
C  C242  1  0.41830000  0.41120000  0.54690000  1.0 -0.0321494787
C  C243  1  0.38570000  0.33880000  0.50710000  1.0 -0.0321494787
C  C244  1  0.83170000  0.87860000  0.49290000  1.0 -0.0321494787
C  C245  1  0.62860000  0.63570000  0.54690000  1.0 -0.0321494787
C  C246  1  0.08880000  0.08170000  0.45310000  1.0 -0.0321494787
C  C247  1  0.16120000  0.11430000  0.49290000  1.0 -0.0321494787
C  C248  1  0.62140000  0.66830000  0.50710000  1.0 -0.0321494787
C  C249  1  0.88570000  0.37860000  0.04690000  1.0 -0.0321494787
C  C250  1  0.33170000  0.83880000  0.95310000  1.0 -0.0321494787
C  C251  1  0.36430000  0.91120000  0.99290000  1.0 -0.0321494787
C  C252  1  0.91830000  0.37140000  0.00710000  1.0 -0.0321494787
C  C253  1  0.12140000  0.61430000  0.95310000  1.0 -0.0321494787
C  C254  1  0.66120000  0.16830000  0.04690000  1.0 -0.0321494787
C  C255  1  0.58880000  0.13570000  0.00710000  1.0 -0.0321494787
C  C256  1  0.12860000  0.58170000  0.99290000  1.0 -0.0321494787
C  C257  1  0.89050000  0.87500000  0.51550000  1.0 -0.0529193356
C  C258  1  0.35950000  0.37500000  0.48450000  1.0 -0.0529193356
C  C259  1  0.62500000  0.60950000  0.48450000  1.0 -0.0529193356
C  C260  1  0.12500000  0.14050000  0.51550000  1.0 -0.0529193356
C  C261  1  0.85950000  0.37500000  0.98450000  1.0 -0.0529193356
C  C262  1  0.39050000  0.87500000  0.01550000  1.0 -0.0529193356
C  C263  1  0.12500000  0.64050000  0.01550000  1.0 -0.0529193356
C  C264  1  0.62500000  0.10950000  0.98450000  1.0 -0.0529193356
N  N1  1  0.12046000  0.56676000  0.32040000  1.0 -0.0219341248
N  N2  1  0.24636000  0.80006000  0.67960000  1.0 -0.0219341248
N  N3  1  0.12954000  0.94994000  0.94630000  1.0 -0.0219341248
N  N4  1  0.00364000  0.18324000  0.05370000  1.0 -0.0219341248
N  N5  1  0.93324000  0.37954000  0.67960000  1.0 -0.0219341248
N  N6  1  0.69994000  0.25364000  0.32040000  1.0 -0.0219341248
N  N7  1  0.55006000  0.37046000  0.05370000  1.0 -0.0219341248
N  N8  1  0.31676000  0.49636000  0.94630000  1.0 -0.0219341248
N  N9  1  0.62954000  0.68324000  0.17960000  1.0 -0.0219341248
N  N10  1  0.50364000  0.44994000  0.82040000  1.0 -0.0219341248
N  N11  1  0.62046000  0.30006000  0.55370000  1.0 -0.0219341248
N  N12  1  0.74636000  0.06676000  0.44630000  1.0 -0.0219341248
N  N13  1  0.81676000  0.87046000  0.82040000  1.0 -0.0219341248
N  N14  1  0.05006000  0.99636000  0.17960000  1.0 -0.0219341248
N  N15  1  0.19994000  0.87954000  0.44630000  1.0 -0.0219341248
N  N16  1  0.43324000  0.75364000  0.55370000  1.0 -0.0219341248
N  N17  1  0.07374000  0.87495000  0.49133000  1.0 -0.2709683016
N  N18  1  0.38362000  0.58241000  0.50867000  1.0 -0.2709683016
N  N19  1  0.17626000  0.16759000  0.30121000  1.0 -0.2709683016
N  N20  1  0.86638000  0.87505000  0.69879000  1.0 -0.2709683016
N  N21  1  0.62505000  0.42626000  0.50867000  1.0 -0.2709683016
N  N22  1  0.91759000  0.11638000  0.49133000  1.0 -0.2709683016
N  N23  1  0.33241000  0.32374000  0.69879000  1.0 -0.2709683016
N  N24  1  0.62495000  0.63362000  0.30121000  1.0 -0.2709683016
N  N25  1  0.67626000  0.37505000  0.00867000  1.0 -0.2709683016
N  N26  1  0.36638000  0.66759000  0.99133000  1.0 -0.2709683016
N  N27  1  0.57374000  0.08241000  0.19879000  1.0 -0.2709683016
N  N28  1  0.88362000  0.37495000  0.80121000  1.0 -0.2709683016
N  N29  1  0.12495000  0.82374000  0.99133000  1.0 -0.2709683016
N  N30  1  0.83241000  0.13362000  0.00867000  1.0 -0.2709683016
N  N31  1  0.41759000  0.92626000  0.80121000  1.0 -0.2709683016
N  N32  1  0.12505000  0.61638000  0.19879000  1.0 -0.2709683016
N  N33  1  0.99365000  0.91526000  0.49901000  1.0 0.056425877
N  N34  1  0.41625000  0.49464000  0.50099000  1.0 0.056425877
N  N35  1  0.25635000  0.25536000  0.42161000  1.0 0.056425877
N  N36  1  0.83375000  0.83474000  0.57839000  1.0 0.056425877
N  N37  1  0.58474000  0.50635000  0.50099000  1.0 0.056425877
N  N38  1  0.00536000  0.08375000  0.49901000  1.0 0.056425877
N  N39  1  0.24464000  0.24365000  0.57839000  1.0 0.056425877
N  N40  1  0.66526000  0.66625000  0.42161000  1.0 0.056425877
N  N41  1  0.75635000  0.33474000  0.00099000  1.0 0.056425877
N  N42  1  0.33375000  0.75536000  0.99901000  1.0 0.056425877
N  N43  1  0.49365000  0.99464000  0.07839000  1.0 0.056425877
N  N44  1  0.91625000  0.41526000  0.92161000  1.0 0.056425877
N  N45  1  0.16526000  0.74365000  0.99901000  1.0 0.056425877
N  N46  1  0.74464000  0.16625000  0.00099000  1.0 0.056425877
N  N47  1  0.50536000  0.00635000  0.92161000  1.0 0.056425877
N  N48  1  0.08474000  0.58375000  0.07839000  1.0 0.056425877
O  O1  1  0.20530000  0.44742000  0.27124000  1.0 -0.5309905004
O  O2  1  0.17618000  0.93406000  0.72876000  1.0 -0.5309905004
O  O3  1  0.04470000  0.81594000  0.74212000  1.0 -0.5309905004
O  O4  1  0.07382000  0.30258000  0.25788000  1.0 -0.5309905004
O  O5  1  0.05258000  0.29470000  0.72876000  1.0 -0.5309905004
O  O6  1  0.56594000  0.32382000  0.27124000  1.0 -0.5309905004
O  O7  1  0.68406000  0.45530000  0.25788000  1.0 -0.5309905004
O  O8  1  0.19742000  0.42618000  0.74212000  1.0 -0.5309905004
O  O9  1  0.54470000  0.80258000  0.22876000  1.0 -0.5309905004
O  O10  1  0.57382000  0.31594000  0.77124000  1.0 -0.5309905004
O  O11  1  0.70530000  0.43406000  0.75788000  1.0 -0.5309905004
O  O12  1  0.67618000  0.94742000  0.24212000  1.0 -0.5309905004
O  O13  1  0.69742000  0.95530000  0.77124000  1.0 -0.5309905004
O  O14  1  0.18406000  0.92618000  0.22876000  1.0 -0.5309905004
O  O15  1  0.06594000  0.79470000  0.24212000  1.0 -0.5309905004
O  O16  1  0.55258000  0.82382000  0.75788000  1.0 -0.5309905004
O  O17  1  0.20254000  0.54001000  0.26433000  1.0 -0.5654957484
O  O18  1  0.27568000  0.93821000  0.73567000  1.0 -0.5654957484
O  O19  1  0.04746000  0.81179000  0.83747000  1.0 -0.5654957484
O  O20  1  0.97432000  0.20999000  0.16253000  1.0 -0.5654957484
O  O21  1  0.95999000  0.29746000  0.73567000  1.0 -0.5654957484
O  O22  1  0.56179000  0.22432000  0.26433000  1.0 -0.5654957484
O  O23  1  0.68821000  0.45254000  0.16253000  1.0 -0.5654957484
O  O24  1  0.29001000  0.52568000  0.83747000  1.0 -0.5654957484
O  O25  1  0.54746000  0.70999000  0.23567000  1.0 -0.5654957484
O  O26  1  0.47432000  0.31179000  0.76433000  1.0 -0.5654957484
O  O27  1  0.70254000  0.43821000  0.66253000  1.0 -0.5654957484
O  O28  1  0.77568000  0.04001000  0.33747000  1.0 -0.5654957484
O  O29  1  0.79001000  0.95254000  0.76433000  1.0 -0.5654957484
O  O30  1  0.18821000  0.02568000  0.23567000  1.0 -0.5654957484
O  O31  1  0.06179000  0.79746000  0.33747000  1.0 -0.5654957484
O  O32  1  0.45999000  0.72432000  0.66253000  1.0 -0.5654957484
O  O33  1  0.14550000  0.70115000  0.36199000  1.0 -0.5309905004
O  O34  1  0.33916000  0.78351000  0.63801000  1.0 -0.5309905004
O  O35  1  0.10450000  0.96649000  0.05565000  1.0 -0.5309905004
O  O36  1  0.91084000  0.04885000  0.94435000  1.0 -0.5309905004
O  O37  1  0.79885000  0.35450000  0.63801000  1.0 -0.5309905004
O  O38  1  0.71649000  0.16084000  0.36199000  1.0 -0.5309905004
O  O39  1  0.53351000  0.39550000  0.94435000  1.0 -0.5309905004
O  O40  1  0.45115000  0.58916000  0.05565000  1.0 -0.5309905004
O  O41  1  0.60450000  0.54885000  0.13801000  1.0 -0.5309905004
O  O42  1  0.41084000  0.46649000  0.86199000  1.0 -0.5309905004
O  O43  1  0.64550000  0.28351000  0.44435000  1.0 -0.5309905004
O  O44  1  0.83916000  0.20115000  0.55565000  1.0 -0.5309905004
O  O45  1  0.95115000  0.89550000  0.86199000  1.0 -0.5309905004
O  O46  1  0.03351000  0.08916000  0.13801000  1.0 -0.5309905004
O  O47  1  0.21649000  0.85450000  0.55565000  1.0 -0.5309905004
O  O48  1  0.29885000  0.66084000  0.44435000  1.0 -0.5309905004
O  O49  1  0.09992000  0.72415000  0.43197000  1.0 -0.5192560892
O  O50  1  0.29218000  0.66795000  0.56803000  1.0 -0.5192560892
O  O51  1  0.15008000  0.08205000  0.12423000  1.0 -0.5192560892
O  O52  1  0.95782000  0.02585000  0.87577000  1.0 -0.5192560892
O  O53  1  0.77585000  0.40008000  0.56803000  1.0 -0.5192560892
O  O54  1  0.83205000  0.20782000  0.43197000  1.0 -0.5192560892
O  O55  1  0.41795000  0.34992000  0.87577000  1.0 -0.5192560892
O  O56  1  0.47415000  0.54218000  0.12423000  1.0 -0.5192560892
O  O57  1  0.65008000  0.52585000  0.06803000  1.0 -0.5192560892
O  O58  1  0.45782000  0.58205000  0.93197000  1.0 -0.5192560892
O  O59  1  0.59992000  0.16795000  0.37577000  1.0 -0.5192560892
O  O60  1  0.79218000  0.22415000  0.62423000  1.0 -0.5192560892
O  O61  1  0.97415000  0.84992000  0.93197000  1.0 -0.5192560892
O  O62  1  0.91795000  0.04218000  0.06803000  1.0 -0.5192560892
O  O63  1  0.33205000  0.90008000  0.62423000  1.0 -0.5192560892
O  O64  1  0.27585000  0.70782000  0.37577000  1.0 -0.5192560892
