# DDEC6 charges by PACMAN v1.1 (https://github.com/mtap-research/PACMAN-charge/)
data_LITKIL_FSR_pacman
_symmetry_space_group_name_H-M   'P 1'
_cell_length_a   12.98500000
_cell_length_b   16.58900000
_cell_length_c   22.46990000
_cell_angle_alpha   90.00000000
_cell_angle_beta   116.95300000
_cell_angle_gamma   90.00000000
_symmetry_Int_Tables_number   1
_chemical_formula_structural   Cu10PW12C20N30(Cl2O23)2
_chemical_formula_sum   'Cu20 P2 W24 C40 N60 Cl8 O92'
_cell_volume   4314.45080348
_cell_formula_units_Z   2
loop_
 _symmetry_equiv_pos_site_id
 _symmetry_equiv_pos_as_xyz
  1  'x, y, z'
loop_
 _atom_site_type_symbol
 _atom_site_label
 _atom_site_symmetry_multiplicity
 _atom_site_fract_x
 _atom_site_fract_y
 _atom_site_fract_z
 _atom_site_occupancy
 _atom_site_charge
Cu  Cu1  1  0.92180000  0.32460000  0.92460000  1.0 0.49895845
Cu  Cu2  1  0.84700000  0.00430000  0.33860000  1.0 0.4923614824
Cu  Cu3  1  0.23290000  0.07360000  0.93100000  1.0 0.6137109413
Cu  Cu4  1  0.66560000  0.03360000  0.16150000  1.0 0.5519925917
Cu  Cu5  1  0.07820000  0.82460000  0.57540000  1.0 0.49895845
Cu  Cu6  1  0.15300000  0.50430000  0.16140000  1.0 0.4923614824
Cu  Cu7  1  0.76710000  0.57360000  0.56900000  1.0 0.6137109413
Cu  Cu8  1  0.33440000  0.53360000  0.33850000  1.0 0.5519925917
Cu  Cu9  1  0.07820000  0.67540000  0.07540000  1.0 0.49895845
Cu  Cu10  1  0.15300000  0.99570000  0.66140000  1.0 0.4923614824
Cu  Cu11  1  0.76710000  0.92640000  0.06900000  1.0 0.6162041837
Cu  Cu12  1  0.33440000  0.96640000  0.83850000  1.0 0.5519925917
Cu  Cu13  1  0.92180000  0.17540000  0.42460000  1.0 0.49895845
Cu  Cu14  1  0.84700000  0.49570000  0.83860000  1.0 0.4923614824
Cu  Cu15  1  0.23290000  0.42640000  0.43100000  1.0 0.6137109413
Cu  Cu16  1  0.66560000  0.46640000  0.66150000  1.0 0.5519925917
Cu  Cu17  1  0.00000000  0.50000000  0.00000000  1.0 0.4203731432
Cu  Cu18  1  0.00000000  0.00000000  0.50000000  1.0 0.4203731432
Cu  Cu19  1  0.50000000  0.00000000  0.00000000  1.0 0.4203731432
Cu  Cu20  1  0.50000000  0.50000000  0.50000000  1.0 0.4141868467
P  P1  1  0.50000000  0.50000000  0.00000000  1.0 1.3164302522
P  P2  1  0.50000000  0.00000000  0.50000000  1.0 1.3164302522
W  W1  1  0.20417000  0.44548000  0.93347000  1.0 2.2619296128
W  W2  1  0.47616000  0.58062000  0.13856000  1.0 2.3427476698
W  W3  1  0.41624000  0.29773000  0.95034000  1.0 2.3728378231
W  W4  1  0.40524000  0.37430000  0.09374000  1.0 2.3494600171
W  W5  1  0.30332000  0.56250000  0.83822000  1.0 2.3754773551
W  W6  1  0.28534000  0.64890000  0.97574000  1.0 2.3494600171
W  W7  1  0.79583000  0.94548000  0.56653000  1.0 2.2619296128
W  W8  1  0.52384000  0.08062000  0.36144000  1.0 2.3427476698
W  W9  1  0.58376000  0.79773000  0.54966000  1.0 2.3728378231
W  W10  1  0.59476000  0.87430000  0.40626000  1.0 2.3494600171
W  W11  1  0.69668000  0.06250000  0.66178000  1.0 2.3754773551
W  W12  1  0.71466000  0.14890000  0.52426000  1.0 2.3494600171
W  W13  1  0.79583000  0.55452000  0.06653000  1.0 2.2619296128
W  W14  1  0.52384000  0.41938000  0.86144000  1.0 2.3427476698
W  W15  1  0.58376000  0.70227000  0.04966000  1.0 2.3728378231
W  W16  1  0.59476000  0.62570000  0.90626000  1.0 2.3494600171
W  W17  1  0.69668000  0.43750000  0.16178000  1.0 2.3754773551
W  W18  1  0.71466000  0.35110000  0.02426000  1.0 2.3494600171
W  W19  1  0.20417000  0.05452000  0.43347000  1.0 2.2619296128
W  W20  1  0.47616000  0.91938000  0.63856000  1.0 2.3427476698
W  W21  1  0.41624000  0.20227000  0.45034000  1.0 2.3728378231
W  W22  1  0.40524000  0.12570000  0.59374000  1.0 2.3494600171
W  W23  1  0.30332000  0.93750000  0.33822000  1.0 2.3754773551
W  W24  1  0.28534000  0.85110000  0.47574000  1.0 2.3494600171
C  C1  1  0.44600000  0.11200000  0.13500000  1.0 0.2354058439
C  C2  1  0.00800000  0.09000000  0.94500000  1.0 0.1160506087
C  C3  1  0.06700000  0.27800000  0.07000000  1.0 0.0657588841
C  C4  1  0.11600000  0.32400000  0.13000000  1.0 0.200833034
C  C5  1  0.76200000  0.23200000  0.28300000  1.0 0.1441345627
C  C6  1  0.70900000  0.19600000  0.22000000  1.0 0.1441345627
C  C7  1  0.33200000  0.13700000  0.07600000  1.0 0.1026200681
C  C8  1  0.95000000  0.13400000  0.94400000  1.0 0.1026200681
C  C9  1  0.04200000  0.10200000  0.78800000  1.0 0.05054052
C  C10  1  0.02800000  0.08000000  0.72600000  1.0 0.1469987278
C  C11  1  0.55400000  0.61200000  0.36500000  1.0 0.2354058439
C  C12  1  0.99200000  0.59000000  0.55500000  1.0 0.1160506087
C  C13  1  0.93300000  0.77800000  0.43000000  1.0 0.0657588841
C  C14  1  0.88400000  0.82400000  0.37000000  1.0 0.200833034
C  C15  1  0.23800000  0.73200000  0.21700000  1.0 0.1469987278
C  C16  1  0.29100000  0.69600000  0.28000000  1.0 0.1441345627
C  C17  1  0.66800000  0.63700000  0.42400000  1.0 0.1026200681
C  C18  1  0.05000000  0.63400000  0.55600000  1.0 0.105356049
C  C19  1  0.95800000  0.60200000  0.71200000  1.0 0.05054052
C  C20  1  0.97200000  0.58000000  0.77400000  1.0 0.1469987278
C  C21  1  0.55400000  0.88800000  0.86500000  1.0 0.2354058439
C  C22  1  0.99200000  0.91000000  0.05500000  1.0 0.1160506087
C  C23  1  0.93300000  0.72200000  0.93000000  1.0 0.0657588841
C  C24  1  0.88400000  0.67600000  0.87000000  1.0 0.200833034
C  C25  1  0.23800000  0.76800000  0.71700000  1.0 0.1469987278
C  C26  1  0.29100000  0.80400000  0.78000000  1.0 0.1469987278
C  C27  1  0.66800000  0.86300000  0.92400000  1.0 0.1026200681
C  C28  1  0.05000000  0.86600000  0.05600000  1.0 0.1026200681
C  C29  1  0.95800000  0.89800000  0.21200000  1.0 0.05054052
C  C30  1  0.97200000  0.92000000  0.27400000  1.0 0.1469987278
C  C31  1  0.44600000  0.38800000  0.63500000  1.0 0.2354058439
C  C32  1  0.00800000  0.41000000  0.44500000  1.0 0.1160506087
C  C33  1  0.06700000  0.22200000  0.57000000  1.0 0.0657588841
C  C34  1  0.11600000  0.17600000  0.63000000  1.0 0.200833034
C  C35  1  0.76200000  0.26800000  0.78300000  1.0 0.1469987278
C  C36  1  0.70900000  0.30400000  0.72000000  1.0 0.1441345627
C  C37  1  0.33200000  0.36300000  0.57600000  1.0 0.1026200681
C  C38  1  0.95000000  0.36600000  0.44400000  1.0 0.1026200681
C  C39  1  0.04200000  0.39800000  0.28800000  1.0 0.05054052
C  C40  1  0.02800000  0.42000000  0.22600000  1.0 0.1469987278
N  N1  1  0.04870000  0.40600000  0.04970000  1.0 -0.0385465071
N  N2  1  0.01620000  0.33600000  0.02020000  1.0 -0.1428481357
N  N3  1  0.11180000  0.03700000  0.73180000  1.0 -0.1310079841
N  N4  1  0.18640000  0.02500000  0.79940000  1.0 -0.0586266674
N  N5  1  0.14700000  0.06900000  0.83600000  1.0 -0.1814758254
N  N6  1  0.07400000  0.19900000  0.92700000  1.0 -0.0202903336
N  N7  1  0.97620000  0.21200000  0.92820000  1.0 -0.1814758254
N  N8  1  0.10900000  0.39800000  0.11600000  1.0 -0.2074235095
N  N9  1  0.78900000  0.10800000  0.29500000  1.0 -0.0202903336
N  N10  1  0.72490000  0.12200000  0.22790000  1.0 -0.1814758254
N  N11  1  0.81700000  0.17700000  0.32800000  1.0 -0.1695907822
N  N12  1  0.09700000  0.11900000  0.93700000  1.0 -0.2340350857
N  N13  1  0.33500000  0.08900000  0.02700000  1.0 -0.2398699664
N  N14  1  0.45000000  0.06800000  0.05400000  1.0 -0.0324724583
N  N15  1  0.51000000  0.08300000  0.11700000  1.0 -0.2074235095
N  N16  1  0.95130000  0.90600000  0.45030000  1.0 -0.0385465071
N  N17  1  0.98380000  0.83600000  0.47980000  1.0 -0.1428481357
N  N18  1  0.88820000  0.53700000  0.76820000  1.0 -0.1310079841
N  N19  1  0.81360000  0.52500000  0.70060000  1.0 -0.0586266674
N  N20  1  0.85300000  0.56900000  0.66400000  1.0 -0.1814758254
N  N21  1  0.92600000  0.69900000  0.57300000  1.0 -0.0202903336
N  N22  1  0.02380000  0.71200000  0.57180000  1.0 -0.1814758254
N  N23  1  0.89100000  0.89800000  0.38400000  1.0 -0.2074235095
N  N24  1  0.21100000  0.60800000  0.20500000  1.0 -0.0202903336
N  N25  1  0.27510000  0.62200000  0.27210000  1.0 -0.1814758254
N  N26  1  0.18300000  0.67700000  0.17200000  1.0 -0.1695907822
N  N27  1  0.90300000  0.61900000  0.56300000  1.0 -0.2340350857
N  N28  1  0.66500000  0.58900000  0.47300000  1.0 -0.2398699664
N  N29  1  0.55000000  0.56800000  0.44600000  1.0 -0.0324724583
N  N30  1  0.49000000  0.58300000  0.38300000  1.0 -0.2074235095
N  N31  1  0.95130000  0.59400000  0.95030000  1.0 -0.0385465071
N  N32  1  0.98380000  0.66400000  0.97980000  1.0 -0.1428481357
N  N33  1  0.88820000  0.96300000  0.26820000  1.0 -0.1310079841
N  N34  1  0.81360000  0.97500000  0.20060000  1.0 -0.0586266674
N  N35  1  0.85300000  0.93100000  0.16400000  1.0 -0.1814758254
N  N36  1  0.92600000  0.80100000  0.07300000  1.0 -0.0202903336
N  N37  1  0.02380000  0.78800000  0.07180000  1.0 -0.1814758254
N  N38  1  0.89100000  0.60200000  0.88400000  1.0 -0.2074235095
N  N39  1  0.21100000  0.89200000  0.70500000  1.0 -0.0202903336
N  N40  1  0.27510000  0.87800000  0.77210000  1.0 -0.1814758254
N  N41  1  0.18300000  0.82300000  0.67200000  1.0 -0.1695907822
N  N42  1  0.90300000  0.88100000  0.06300000  1.0 -0.2340350857
N  N43  1  0.66500000  0.91100000  0.97300000  1.0 -0.2398699664
N  N44  1  0.55000000  0.93200000  0.94600000  1.0 -0.0324724583
N  N45  1  0.49000000  0.91700000  0.88300000  1.0 -0.2074235095
N  N46  1  0.04870000  0.09400000  0.54970000  1.0 -0.0385465071
N  N47  1  0.01620000  0.16400000  0.52020000  1.0 -0.1428481357
N  N48  1  0.11180000  0.46300000  0.23180000  1.0 -0.1310079841
N  N49  1  0.18640000  0.47500000  0.29940000  1.0 -0.0586266674
N  N50  1  0.14700000  0.43100000  0.33600000  1.0 -0.1814758254
N  N51  1  0.07400000  0.30100000  0.42700000  1.0 -0.0202903336
N  N52  1  0.97620000  0.28800000  0.42820000  1.0 -0.1814758254
N  N53  1  0.10900000  0.10200000  0.61600000  1.0 -0.2074235095
N  N54  1  0.78900000  0.39200000  0.79500000  1.0 -0.0202903336
N  N55  1  0.72490000  0.37800000  0.72790000  1.0 -0.1814758254
N  N56  1  0.81700000  0.32300000  0.82800000  1.0 -0.1695907822
N  N57  1  0.09700000  0.38100000  0.43700000  1.0 -0.2340350857
N  N58  1  0.33500000  0.41100000  0.52700000  1.0 -0.2398699664
N  N59  1  0.45000000  0.43200000  0.55400000  1.0 -0.0324724583
N  N60  1  0.51000000  0.41700000  0.61700000  1.0 -0.204007048
Cl  Cl1  1  0.36860000  0.03400000  0.91860000  1.0 -0.2398699664
Cl  Cl2  1  0.87400000  0.44100000  0.92500000  1.0 -0.1428481357
Cl  Cl3  1  0.63140000  0.53400000  0.58140000  1.0 -0.2398699664
Cl  Cl4  1  0.12600000  0.94100000  0.57500000  1.0 -0.1428481357
Cl  Cl5  1  0.63140000  0.96600000  0.08140000  1.0 -0.2450435197
Cl  Cl6  1  0.12600000  0.55900000  0.07500000  1.0 -0.1428481357
Cl  Cl7  1  0.36860000  0.46600000  0.41860000  1.0 -0.2398699664
Cl  Cl8  1  0.87400000  0.05900000  0.42500000  1.0 -0.1428481357
O  O1  1  0.33900000  0.62800000  0.06600000  1.0 -0.898304004
O  O2  1  0.57810000  0.29000000  0.00010000  1.0 -0.8854995554
O  O3  1  0.27510000  0.42200000  0.02410000  1.0 -0.8604379779
O  O4  1  0.20400000  0.49700000  0.85800000  1.0 -0.8706237188
O  O5  1  0.06900000  0.41500000  0.90400000  1.0 -0.709918741
O  O6  1  0.40700000  0.47700000  0.13300000  1.0 -0.8353444919
O  O7  1  0.41800000  0.30200000  0.03300000  1.0 -0.8481454214
O  O8  1  0.44800000  0.33900000  0.87900000  1.0 -0.8706237188
O  O9  1  0.19800000  0.55000000  0.96400000  1.0 -0.8481454214
O  O10  1  0.38100000  0.47100000  0.82100000  1.0 -0.8854995554
O  O11  1  0.21830000  0.59300000  0.76030000  1.0 -0.6475453646
O  O12  1  0.18200000  0.71400000  0.96500000  1.0 -0.6280452049
O  O13  1  0.46100000  0.62200000  0.20200000  1.0 -0.6157219594
O  O14  1  0.35920000  0.31800000  0.14020000  1.0 -0.6709430104
O  O15  1  0.37800000  0.54900000  0.96400000  1.0 -0.732440505
O  O16  1  0.43700000  0.42800000  0.99300000  1.0 -0.6122049533
O  O17  1  0.56200000  0.37800000  0.13900000  1.0 -0.8058245962
O  O18  1  0.26400000  0.64000000  0.88900000  1.0 -0.8019356415
O  O19  1  0.37900000  0.20600000  0.91800000  1.0 -0.6475453646
O  O20  1  0.50700000  0.48300000  0.07300000  1.0 -0.5795051342
O  O21  1  0.25900000  0.36500000  0.91600000  1.0 -0.7419122195
O  O22  1  0.19500000  0.93900000  0.95000000  1.0 -0.1090627248
O  O23  1  0.63790000  0.95700000  0.25190000  1.0 -0.0708995143
O  O24  1  0.66100000  0.12800000  0.43400000  1.0 -0.898304004
O  O25  1  0.42190000  0.79000000  0.49990000  1.0 -0.8831479972
O  O26  1  0.72490000  0.92200000  0.47590000  1.0 -0.8604379779
O  O27  1  0.79600000  0.99700000  0.64200000  1.0 -0.8706237188
O  O28  1  0.93100000  0.91500000  0.59600000  1.0 -0.709918741
O  O29  1  0.59300000  0.97700000  0.36700000  1.0 -0.8353444919
O  O30  1  0.58200000  0.80200000  0.46700000  1.0 -0.8481454214
O  O31  1  0.55200000  0.83900000  0.62100000  1.0 -0.8706237188
O  O32  1  0.80200000  0.05000000  0.53600000  1.0 -0.8481454214
O  O33  1  0.61900000  0.97100000  0.67900000  1.0 -0.8831479972
O  O34  1  0.78170000  0.09300000  0.73970000  1.0 -0.6475453646
O  O35  1  0.81800000  0.21400000  0.53500000  1.0 -0.6280452049
O  O36  1  0.53900000  0.12200000  0.29800000  1.0 -0.6122049533
O  O37  1  0.64080000  0.81800000  0.35980000  1.0 -0.6709430104
O  O38  1  0.62200000  0.04900000  0.53600000  1.0 -0.732440505
O  O39  1  0.56300000  0.92800000  0.50700000  1.0 -0.6122049533
O  O40  1  0.43800000  0.87800000  0.36100000  1.0 -0.8058245962
O  O41  1  0.73600000  0.14000000  0.61100000  1.0 -0.8019356415
O  O42  1  0.62100000  0.70600000  0.58200000  1.0 -0.6475453646
O  O43  1  0.49300000  0.98300000  0.42700000  1.0 -0.5795051342
O  O44  1  0.74100000  0.86500000  0.58400000  1.0 -0.7419122195
O  O45  1  0.80500000  0.43900000  0.55000000  1.0 -0.1090627248
O  O46  1  0.36210000  0.45700000  0.24810000  1.0 -0.0708995143
O  O47  1  0.66100000  0.37200000  0.93400000  1.0 -0.898304004
O  O48  1  0.42190000  0.71000000  0.99990000  1.0 -0.8854995554
O  O49  1  0.72490000  0.57800000  0.97590000  1.0 -0.8604379779
O  O50  1  0.79600000  0.50300000  0.14200000  1.0 -0.8706237188
O  O51  1  0.93100000  0.58500000  0.09600000  1.0 -0.709918741
O  O52  1  0.59300000  0.52300000  0.86700000  1.0 -0.8326541966
O  O53  1  0.58200000  0.69800000  0.96700000  1.0 -0.8481454214
O  O54  1  0.55200000  0.66100000  0.12100000  1.0 -0.8706237188
O  O55  1  0.80200000  0.45000000  0.03600000  1.0 -0.8481454214
O  O56  1  0.61900000  0.52900000  0.17900000  1.0 -0.8831479972
O  O57  1  0.78170000  0.40700000  0.23970000  1.0 -0.6475453646
O  O58  1  0.81800000  0.28600000  0.03500000  1.0 -0.6280452049
O  O59  1  0.53900000  0.37800000  0.79800000  1.0 -0.6122049533
O  O60  1  0.64080000  0.68200000  0.85980000  1.0 -0.6709430104
O  O61  1  0.62200000  0.45100000  0.03600000  1.0 -0.732440505
O  O62  1  0.56300000  0.57200000  0.00700000  1.0 -0.6122049533
O  O63  1  0.43800000  0.62200000  0.86100000  1.0 -0.8019356415
O  O64  1  0.73600000  0.36000000  0.11100000  1.0 -0.8019356415
O  O65  1  0.62100000  0.79400000  0.08200000  1.0 -0.6475453646
O  O66  1  0.49300000  0.51700000  0.92700000  1.0 -0.5795051342
O  O67  1  0.74100000  0.63500000  0.08400000  1.0 -0.7419122195
O  O68  1  0.80500000  0.06100000  0.05000000  1.0 -0.1090627248
O  O69  1  0.36210000  0.04300000  0.74810000  1.0 -0.0773376281
O  O70  1  0.33900000  0.87200000  0.56600000  1.0 -0.898304004
O  O71  1  0.57810000  0.21000000  0.50010000  1.0 -0.8831479972
O  O72  1  0.27510000  0.07800000  0.52410000  1.0 -0.8604379779
O  O73  1  0.20400000  0.00300000  0.35800000  1.0 -0.8706237188
O  O74  1  0.06900000  0.08500000  0.40400000  1.0 -0.709918741
O  O75  1  0.40700000  0.02300000  0.63300000  1.0 -0.8353444919
O  O76  1  0.41800000  0.19800000  0.53300000  1.0 -0.8481454214
O  O77  1  0.44800000  0.16100000  0.37900000  1.0 -0.8706237188
O  O78  1  0.19800000  0.95000000  0.46400000  1.0 -0.8481454214
O  O79  1  0.38100000  0.02900000  0.32100000  1.0 -0.8831479972
O  O80  1  0.21830000  0.90700000  0.26030000  1.0 -0.6475453646
O  O81  1  0.18200000  0.78600000  0.46500000  1.0 -0.6280452049
O  O82  1  0.46100000  0.87800000  0.70200000  1.0 -0.6122049533
O  O83  1  0.35920000  0.18200000  0.64020000  1.0 -0.6709430104
O  O84  1  0.37800000  0.95100000  0.46400000  1.0 -0.732440505
O  O85  1  0.43700000  0.07200000  0.49300000  1.0 -0.6122049533
O  O86  1  0.56200000  0.12200000  0.63900000  1.0 -0.8019356415
O  O87  1  0.26400000  0.86000000  0.38900000  1.0 -0.8019356415
O  O88  1  0.37900000  0.29400000  0.41800000  1.0 -0.644404847
O  O89  1  0.50700000  0.01700000  0.57300000  1.0 -0.5795051342
O  O90  1  0.25900000  0.13500000  0.41600000  1.0 -0.7419122195
O  O91  1  0.19500000  0.56100000  0.45000000  1.0 -0.1045323646
O  O92  1  0.63790000  0.54300000  0.75190000  1.0 -0.0773376281
