# DDEC6 charges by PACMAN v1.1 (https://github.com/mtap-research/PACMAN-charge/)
data_LIVJEI_ASR_pacman
_symmetry_space_group_name_H-M   'P 1'
_cell_length_a   22.92100000
_cell_length_b   22.92100000
_cell_length_c   22.92100000
_cell_angle_alpha   109.47100000
_cell_angle_beta   109.47100000
_cell_angle_gamma   109.47100000
_symmetry_Int_Tables_number   1
_chemical_formula_structural   Cd12H192C264N104Cl3
_chemical_formula_sum   'Cd12 H192 C264 N104 Cl3'
_cell_volume   9270.05562902
_cell_formula_units_Z   1
loop_
 _symmetry_equiv_pos_site_id
 _symmetry_equiv_pos_as_xyz
  1  'x, y, z'
loop_
 _atom_site_type_symbol
 _atom_site_label
 _atom_site_symmetry_multiplicity
 _atom_site_fract_x
 _atom_site_fract_y
 _atom_site_fract_z
 _atom_site_occupancy
 _atom_site_charge
Cd  Cd1  1  0.89345000  0.50000000  0.39345000  1.0 0.6998051052
Cd  Cd2  1  0.10655000  0.50000000  0.60655000  1.0 0.6998051052
Cd  Cd3  1  0.39345000  0.89345000  0.50000000  1.0 0.6998051052
Cd  Cd4  1  0.60655000  0.10655000  0.50000000  1.0 0.6998051052
Cd  Cd5  1  0.50000000  0.60655000  0.10655000  1.0 0.6998051052
Cd  Cd6  1  0.50000000  0.39345000  0.89345000  1.0 0.6998051052
Cd  Cd7  1  0.60655000  0.50000000  0.10655000  1.0 0.6998051052
Cd  Cd8  1  0.39345000  0.50000000  0.89345000  1.0 0.6998051052
Cd  Cd9  1  0.50000000  0.10655000  0.60655000  1.0 0.6998051052
Cd  Cd10  1  0.50000000  0.89345000  0.39345000  1.0 0.6998051052
Cd  Cd11  1  0.89345000  0.39345000  0.50000000  1.0 0.6998051052
Cd  Cd12  1  0.10655000  0.60655000  0.50000000  1.0 0.6998051052
H  H1  1  0.66540000  0.52330000  0.43650000  1.0 0.1048741707
H  H2  1  0.77090000  0.54350000  0.62980000  1.0 0.1080698786
H  H3  1  0.59160000  0.55880000  0.47140000  1.0 0.0597988063
H  H4  1  0.69800000  0.57890000  0.66570000  1.0 0.0727899814
H  H5  1  0.91320000  0.47670000  0.14210000  1.0 0.1048741707
H  H6  1  0.08630000  0.45650000  0.22740000  1.0 0.1080698786
H  H7  1  0.91260000  0.44120000  0.03280000  1.0 0.0597988063
H  H8  1  0.08680000  0.42110000  0.11910000  1.0 0.0727899814
H  H9  1  0.33460000  0.77110000  0.85790000  1.0 0.1048741707
H  H10  1  0.22910000  0.85890000  0.77260000  1.0 0.1080698786
H  H11  1  0.40840000  0.87980000  0.96720000  1.0 0.0597988063
H  H12  1  0.30200000  0.96770000  0.88090000  1.0 0.0727899814
H  H13  1  0.08680000  0.22890000  0.56350000  1.0 0.1048741707
H  H14  1  0.91370000  0.14110000  0.37020000  1.0 0.1080698786
H  H15  1  0.08740000  0.12020000  0.52860000  1.0 0.0597988063
H  H16  1  0.91320000  0.03230000  0.33430000  1.0 0.0727899814
H  H17  1  0.14210000  0.91320000  0.47670000  1.0 0.1048741707
H  H18  1  0.22740000  0.08630000  0.45650000  1.0 0.1080698786
H  H19  1  0.03280000  0.91260000  0.44120000  1.0 0.0597988063
H  H20  1  0.11910000  0.08680000  0.42110000  1.0 0.0727899814
H  H21  1  0.43650000  0.66540000  0.52330000  1.0 0.1048741707
H  H22  1  0.62980000  0.77090000  0.54350000  1.0 0.1080698786
H  H23  1  0.47140000  0.59160000  0.55880000  1.0 0.0597988063
H  H24  1  0.66570000  0.69800000  0.57890000  1.0 0.0727899814
H  H25  1  0.56350000  0.08680000  0.22890000  1.0 0.1048741707
H  H26  1  0.37020000  0.91370000  0.14110000  1.0 0.1080698786
H  H27  1  0.52860000  0.08740000  0.12020000  1.0 0.0597988063
H  H28  1  0.33430000  0.91320000  0.03230000  1.0 0.0727899814
H  H29  1  0.85790000  0.33460000  0.77110000  1.0 0.1048741707
H  H30  1  0.77260000  0.22910000  0.85890000  1.0 0.1080698786
H  H31  1  0.96720000  0.40840000  0.87980000  1.0 0.0597988063
H  H32  1  0.88090000  0.30200000  0.96770000  1.0 0.0727899814
H  H33  1  0.22890000  0.56350000  0.08680000  1.0 0.1048741707
H  H34  1  0.14110000  0.37020000  0.91370000  1.0 0.1080698786
H  H35  1  0.12020000  0.52860000  0.08740000  1.0 0.0597988063
H  H36  1  0.03230000  0.33430000  0.91320000  1.0 0.0727899814
H  H37  1  0.77110000  0.85790000  0.33460000  1.0 0.1048741707
H  H38  1  0.85890000  0.77260000  0.22910000  1.0 0.1080698786
H  H39  1  0.87980000  0.96720000  0.40840000  1.0 0.0597988063
H  H40  1  0.96770000  0.88090000  0.30200000  1.0 0.0727899814
H  H41  1  0.47670000  0.14210000  0.91320000  1.0 0.1048741707
H  H42  1  0.45650000  0.22740000  0.08630000  1.0 0.1080698786
H  H43  1  0.44120000  0.03280000  0.91260000  1.0 0.0597988063
H  H44  1  0.42110000  0.11910000  0.08680000  1.0 0.0727899814
H  H45  1  0.52330000  0.43650000  0.66540000  1.0 0.1048741707
H  H46  1  0.54350000  0.62980000  0.77090000  1.0 0.1080698786
H  H47  1  0.55880000  0.47140000  0.59160000  1.0 0.0597988063
H  H48  1  0.57890000  0.66570000  0.69800000  1.0 0.0727899814
H  H49  1  0.56350000  0.47670000  0.33460000  1.0 0.1048741707
H  H50  1  0.37020000  0.45650000  0.22910000  1.0 0.1080698786
H  H51  1  0.52860000  0.44120000  0.40840000  1.0 0.0597988063
H  H52  1  0.33430000  0.42110000  0.30200000  1.0 0.0727899814
H  H53  1  0.85790000  0.52330000  0.08680000  1.0 0.1048741707
H  H54  1  0.77260000  0.54350000  0.91370000  1.0 0.1080698786
H  H55  1  0.96720000  0.55880000  0.08740000  1.0 0.0597988063
H  H56  1  0.88090000  0.57890000  0.91320000  1.0 0.0727899814
H  H57  1  0.14210000  0.22890000  0.66540000  1.0 0.1048741707
H  H58  1  0.22740000  0.14110000  0.77090000  1.0 0.1080698786
H  H59  1  0.03280000  0.12020000  0.59160000  1.0 0.0597988063
H  H60  1  0.11910000  0.03230000  0.69800000  1.0 0.0727899814
H  H61  1  0.43650000  0.77110000  0.91320000  1.0 0.1048741707
H  H62  1  0.62980000  0.85890000  0.08630000  1.0 0.1080698786
H  H63  1  0.47140000  0.87980000  0.91260000  1.0 0.0597988063
H  H64  1  0.66570000  0.96770000  0.08680000  1.0 0.0727899814
H  H65  1  0.52330000  0.08680000  0.85790000  1.0 0.1080698786
H  H66  1  0.54350000  0.91370000  0.77260000  1.0 0.1080698786
H  H67  1  0.55880000  0.08740000  0.96720000  1.0 0.0597988063
H  H68  1  0.57890000  0.91320000  0.88090000  1.0 0.0727899814
H  H69  1  0.47670000  0.33460000  0.56350000  1.0 0.1048741707
H  H70  1  0.45650000  0.22910000  0.37020000  1.0 0.1080698786
H  H71  1  0.44120000  0.40840000  0.52860000  1.0 0.0597988063
H  H72  1  0.42110000  0.30200000  0.33430000  1.0 0.0727899814
H  H73  1  0.77110000  0.91320000  0.43650000  1.0 0.1048741707
H  H74  1  0.85890000  0.08630000  0.62980000  1.0 0.1080698786
H  H75  1  0.87980000  0.91260000  0.47140000  1.0 0.0597988063
H  H76  1  0.96770000  0.08680000  0.66570000  1.0 0.0727899814
H  H77  1  0.22890000  0.66540000  0.14210000  1.0 0.1048741707
H  H78  1  0.14110000  0.77090000  0.22740000  1.0 0.1080698786
H  H79  1  0.12020000  0.59160000  0.03280000  1.0 0.0597988063
H  H80  1  0.03230000  0.69800000  0.11910000  1.0 0.0727899814
H  H81  1  0.91320000  0.43650000  0.77110000  1.0 0.1048741707
H  H82  1  0.08630000  0.62980000  0.85890000  1.0 0.1080698786
H  H83  1  0.91260000  0.47140000  0.87980000  1.0 0.0597988063
H  H84  1  0.08680000  0.66570000  0.96770000  1.0 0.0727899814
H  H85  1  0.66540000  0.14210000  0.22890000  1.0 0.1048741707
H  H86  1  0.77090000  0.22740000  0.14110000  1.0 0.1080698786
H  H87  1  0.59160000  0.03280000  0.12020000  1.0 0.0597988063
H  H88  1  0.69800000  0.11910000  0.03230000  1.0 0.0727899814
H  H89  1  0.08680000  0.85790000  0.52330000  1.0 0.1048741707
H  H90  1  0.91370000  0.77260000  0.54350000  1.0 0.1080698786
H  H91  1  0.08740000  0.96720000  0.55880000  1.0 0.0597988063
H  H92  1  0.91320000  0.88090000  0.57890000  1.0 0.0727899814
H  H93  1  0.33460000  0.56350000  0.47670000  1.0 0.1048741707
H  H94  1  0.22910000  0.37020000  0.45650000  1.0 0.1080698786
H  H95  1  0.40840000  0.52860000  0.44120000  1.0 0.0597988063
H  H96  1  0.30200000  0.33430000  0.42110000  1.0 0.0727899814
H  H97  1  0.33460000  0.47670000  0.56350000  1.0 0.1048741707
H  H98  1  0.22910000  0.45650000  0.37020000  1.0 0.1080698786
H  H99  1  0.40840000  0.44120000  0.52860000  1.0 0.0597988063
H  H100  1  0.30200000  0.42110000  0.33430000  1.0 0.0727899814
H  H101  1  0.08680000  0.52330000  0.85790000  1.0 0.1048741707
H  H102  1  0.91370000  0.54350000  0.77260000  1.0 0.1080698786
H  H103  1  0.08740000  0.55880000  0.96720000  1.0 0.0597988063
H  H104  1  0.91320000  0.57890000  0.88090000  1.0 0.0727899814
H  H105  1  0.66540000  0.22890000  0.14210000  1.0 0.1048741707
H  H106  1  0.77090000  0.14110000  0.22740000  1.0 0.1080698786
H  H107  1  0.59160000  0.12020000  0.03280000  1.0 0.0597988063
H  H108  1  0.69800000  0.03230000  0.11910000  1.0 0.0727899814
H  H109  1  0.91320000  0.77110000  0.43650000  1.0 0.1048741707
H  H110  1  0.08630000  0.85890000  0.62980000  1.0 0.1080698786
H  H111  1  0.91260000  0.87980000  0.47140000  1.0 0.0597988063
H  H112  1  0.08680000  0.96770000  0.66570000  1.0 0.0727899814
H  H113  1  0.85790000  0.08680000  0.52330000  1.0 0.1048741707
H  H114  1  0.77260000  0.91370000  0.54350000  1.0 0.1080698786
H  H115  1  0.96720000  0.08740000  0.55880000  1.0 0.0597988063
H  H116  1  0.88090000  0.91320000  0.57890000  1.0 0.0727899814
H  H117  1  0.56350000  0.33460000  0.47670000  1.0 0.1048741707
H  H118  1  0.37020000  0.22910000  0.45650000  1.0 0.1080698786
H  H119  1  0.52860000  0.40840000  0.44120000  1.0 0.0597988063
H  H120  1  0.33430000  0.30200000  0.42110000  1.0 0.0727899814
H  H121  1  0.43650000  0.91320000  0.77110000  1.0 0.1048741707
H  H122  1  0.62980000  0.08630000  0.85890000  1.0 0.1080698786
H  H123  1  0.47140000  0.91260000  0.87980000  1.0 0.0597988063
H  H124  1  0.66570000  0.08680000  0.96770000  1.0 0.0727899814
H  H125  1  0.14210000  0.66540000  0.22890000  1.0 0.1048741707
H  H126  1  0.22740000  0.77090000  0.14110000  1.0 0.1080698786
H  H127  1  0.03280000  0.59160000  0.12020000  1.0 0.0597988063
H  H128  1  0.11910000  0.69800000  0.03230000  1.0 0.0727899814
H  H129  1  0.77110000  0.43650000  0.91320000  1.0 0.1048741707
H  H130  1  0.85890000  0.62980000  0.08630000  1.0 0.1080698786
H  H131  1  0.87980000  0.47140000  0.91260000  1.0 0.0597988063
H  H132  1  0.96770000  0.66570000  0.08680000  1.0 0.0727899814
H  H133  1  0.22890000  0.14210000  0.66540000  1.0 0.1048741707
H  H134  1  0.14110000  0.22740000  0.77090000  1.0 0.1080698786
H  H135  1  0.12020000  0.03280000  0.59160000  1.0 0.0597988063
H  H136  1  0.03230000  0.11910000  0.69800000  1.0 0.0727899814
H  H137  1  0.52330000  0.85790000  0.08680000  1.0 0.1048741707
H  H138  1  0.54350000  0.77260000  0.91370000  1.0 0.1080698786
H  H139  1  0.55880000  0.96720000  0.08740000  1.0 0.0597988063
H  H140  1  0.57890000  0.88090000  0.91320000  1.0 0.0727899814
H  H141  1  0.47670000  0.56350000  0.33460000  1.0 0.1048741707
H  H142  1  0.45650000  0.37020000  0.22910000  1.0 0.1080698786
H  H143  1  0.44120000  0.52860000  0.40840000  1.0 0.0597988063
H  H144  1  0.42110000  0.33430000  0.30200000  1.0 0.0727899814
H  H145  1  0.43650000  0.52330000  0.66540000  1.0 0.1048741707
H  H146  1  0.62980000  0.54350000  0.77090000  1.0 0.1080698786
H  H147  1  0.47140000  0.55880000  0.59160000  1.0 0.0597988063
H  H148  1  0.66570000  0.57890000  0.69800000  1.0 0.0727899814
H  H149  1  0.14210000  0.47670000  0.91320000  1.0 0.1048741707
H  H150  1  0.22740000  0.45650000  0.08630000  1.0 0.1080698786
H  H151  1  0.03280000  0.44120000  0.91260000  1.0 0.0597988063
H  H152  1  0.11910000  0.42110000  0.08680000  1.0 0.0727899814
H  H153  1  0.85790000  0.77110000  0.33460000  1.0 0.1048741707
H  H154  1  0.77260000  0.85890000  0.22910000  1.0 0.1080698786
H  H155  1  0.96720000  0.87980000  0.40840000  1.0 0.0597988063
H  H156  1  0.88090000  0.96770000  0.30200000  1.0 0.0727899814
H  H157  1  0.56350000  0.22890000  0.08680000  1.0 0.1048741707
H  H158  1  0.37020000  0.14110000  0.91370000  1.0 0.1080698786
H  H159  1  0.52860000  0.12020000  0.08740000  1.0 0.0597988063
H  H160  1  0.33430000  0.03230000  0.91320000  1.0 0.0727899814
H  H161  1  0.47670000  0.91320000  0.14210000  1.0 0.1048741707
H  H162  1  0.45650000  0.08630000  0.22740000  1.0 0.1080698786
H  H163  1  0.44120000  0.91260000  0.03280000  1.0 0.0597988063
H  H164  1  0.42110000  0.08680000  0.11910000  1.0 0.0727899814
H  H165  1  0.52330000  0.66540000  0.43650000  1.0 0.1048741707
H  H166  1  0.54350000  0.77090000  0.62980000  1.0 0.1080698786
H  H167  1  0.55880000  0.59160000  0.47140000  1.0 0.0597988063
H  H168  1  0.57890000  0.69800000  0.66570000  1.0 0.0727899814
H  H169  1  0.22890000  0.08680000  0.56350000  1.0 0.1048741707
H  H170  1  0.14110000  0.91370000  0.37020000  1.0 0.1080698786
H  H171  1  0.12020000  0.08740000  0.52860000  1.0 0.0597988063
H  H172  1  0.03230000  0.91320000  0.33430000  1.0 0.0727899814
H  H173  1  0.77110000  0.33460000  0.85790000  1.0 0.1048741707
H  H174  1  0.85890000  0.22910000  0.77260000  1.0 0.1080698786
H  H175  1  0.87980000  0.40840000  0.96720000  1.0 0.0597988063
H  H176  1  0.96770000  0.30200000  0.88090000  1.0 0.0727899814
H  H177  1  0.08680000  0.56350000  0.22890000  1.0 0.1048741707
H  H178  1  0.91370000  0.37020000  0.14110000  1.0 0.1080698786
H  H179  1  0.08740000  0.52860000  0.12020000  1.0 0.0597988063
H  H180  1  0.91320000  0.33430000  0.03230000  1.0 0.0727899814
H  H181  1  0.33460000  0.85790000  0.77110000  1.0 0.1048741707
H  H182  1  0.22910000  0.77260000  0.85890000  1.0 0.1080698786
H  H183  1  0.40840000  0.96720000  0.87980000  1.0 0.0597988063
H  H184  1  0.30200000  0.88090000  0.96770000  1.0 0.0727899814
H  H185  1  0.91320000  0.14210000  0.47670000  1.0 0.1048741707
H  H186  1  0.08630000  0.22740000  0.45650000  1.0 0.1080698786
H  H187  1  0.91260000  0.03280000  0.44120000  1.0 0.0597988063
H  H188  1  0.08680000  0.11910000  0.42110000  1.0 0.0727899814
H  H189  1  0.66540000  0.43650000  0.52330000  1.0 0.1048741707
H  H190  1  0.77090000  0.62980000  0.54350000  1.0 0.1080698786
H  H191  1  0.59160000  0.47140000  0.55880000  1.0 0.0597988063
H  H192  1  0.69800000  0.66570000  0.57890000  1.0 0.0727899814
C  C1  1  0.67220000  0.53480000  0.48340000  1.0 -0.0632012986
C  C2  1  0.73431000  0.54661000  0.59738000  1.0 -0.0669406607
C  C3  1  0.62830000  0.55570000  0.50380000  1.0 -0.126005372
C  C4  1  0.69116000  0.56762000  0.61878000  1.0 -0.0669406607
C  C5  1  0.94860000  0.46520000  0.13740000  1.0 -0.0632012986
C  C6  1  0.05077000  0.45339000  0.18770000  1.0 -0.0669406607
C  C7  1  0.94810000  0.44430000  0.07260000  1.0 -0.126005372
C  C8  1  0.05116000  0.43238000  0.12354000  1.0 -0.0632012986
C  C9  1  0.32780000  0.81120000  0.86260000  1.0 -0.0632012986
C  C10  1  0.26569000  0.86307000  0.81230000  1.0 -0.0669406607
C  C11  1  0.37170000  0.87550000  0.92740000  1.0 -0.126005372
C  C12  1  0.30884000  0.92762000  0.87646000  1.0 -0.0669406607
C  C13  1  0.05140000  0.18880000  0.51660000  1.0 -0.0632012986
C  C14  1  0.94923000  0.13693000  0.40262000  1.0 -0.0669406607
C  C15  1  0.05190000  0.12450000  0.49620000  1.0 -0.126005372
C  C16  1  0.94884000  0.07238000  0.38122000  1.0 -0.0669406607
C  C17  1  0.13740000  0.94860000  0.46520000  1.0 -0.0632012986
C  C18  1  0.18770000  0.05077000  0.45339000  1.0 -0.0669406607
C  C19  1  0.07260000  0.94810000  0.44430000  1.0 -0.126005372
C  C20  1  0.12354000  0.05116000  0.43238000  1.0 -0.0669406607
C  C21  1  0.48340000  0.67220000  0.53480000  1.0 -0.0632012986
C  C22  1  0.59738000  0.73431000  0.54661000  1.0 -0.0669406607
C  C23  1  0.50380000  0.62830000  0.55570000  1.0 -0.126005372
C  C24  1  0.61878000  0.69116000  0.56762000  1.0 -0.0669406607
C  C25  1  0.51660000  0.05140000  0.18880000  1.0 -0.0632012986
C  C26  1  0.40262000  0.94923000  0.13693000  1.0 -0.0669406607
C  C27  1  0.49620000  0.05190000  0.12450000  1.0 -0.126005372
C  C28  1  0.38122000  0.94884000  0.07238000  1.0 -0.0669406607
C  C29  1  0.86260000  0.32780000  0.81120000  1.0 -0.0632012986
C  C30  1  0.81230000  0.26569000  0.86307000  1.0 -0.0669406607
C  C31  1  0.92740000  0.37170000  0.87550000  1.0 -0.126005372
C  C32  1  0.87646000  0.30884000  0.92762000  1.0 -0.0669406607
C  C33  1  0.18880000  0.51660000  0.05140000  1.0 -0.0632012986
C  C34  1  0.13693000  0.40262000  0.94923000  1.0 -0.0669406607
C  C35  1  0.12450000  0.49620000  0.05190000  1.0 -0.126005372
C  C36  1  0.07238000  0.38122000  0.94884000  1.0 -0.0669406607
C  C37  1  0.81120000  0.86260000  0.32780000  1.0 -0.0632012986
C  C38  1  0.86307000  0.81230000  0.26569000  1.0 -0.0669406607
C  C39  1  0.87550000  0.92740000  0.37170000  1.0 -0.126005372
C  C40  1  0.92762000  0.87646000  0.30884000  1.0 -0.0632012986
C  C41  1  0.46520000  0.13740000  0.94860000  1.0 -0.0632012986
C  C42  1  0.45339000  0.18770000  0.05077000  1.0 -0.0669406607
C  C43  1  0.44430000  0.07260000  0.94810000  1.0 -0.126005372
C  C44  1  0.43238000  0.12354000  0.05116000  1.0 -0.0632012986
C  C45  1  0.53480000  0.48340000  0.67220000  1.0 -0.0632012986
C  C46  1  0.54661000  0.59738000  0.73431000  1.0 -0.0669406607
C  C47  1  0.55570000  0.50380000  0.62830000  1.0 -0.126005372
C  C48  1  0.56762000  0.61878000  0.69116000  1.0 -0.0669406607
C  C49  1  0.51660000  0.46520000  0.32780000  1.0 -0.0632012986
C  C50  1  0.40262000  0.45339000  0.26569000  1.0 -0.0669406607
C  C51  1  0.49620000  0.44430000  0.37170000  1.0 -0.126005372
C  C52  1  0.38122000  0.43238000  0.30884000  1.0 -0.0669406607
C  C53  1  0.86260000  0.53480000  0.05140000  1.0 -0.0632012986
C  C54  1  0.81230000  0.54661000  0.94923000  1.0 -0.0669406607
C  C55  1  0.92740000  0.55570000  0.05190000  1.0 -0.126005372
C  C56  1  0.87646000  0.56762000  0.94884000  1.0 -0.0632012986
C  C57  1  0.13740000  0.18880000  0.67220000  1.0 -0.0632012986
C  C58  1  0.18770000  0.13693000  0.73431000  1.0 -0.0669406607
C  C59  1  0.07260000  0.12450000  0.62830000  1.0 -0.126005372
C  C60  1  0.12354000  0.07238000  0.69116000  1.0 -0.0669406607
C  C61  1  0.48340000  0.81120000  0.94860000  1.0 -0.0632012986
C  C62  1  0.59738000  0.86307000  0.05077000  1.0 -0.0669406607
C  C63  1  0.50380000  0.87550000  0.94810000  1.0 -0.126005372
C  C64  1  0.61878000  0.92762000  0.05116000  1.0 -0.0632012986
C  C65  1  0.53480000  0.05140000  0.86260000  1.0 -0.0632012986
C  C66  1  0.54661000  0.94923000  0.81230000  1.0 -0.0669406607
C  C67  1  0.55570000  0.05190000  0.92740000  1.0 -0.126005372
C  C68  1  0.56762000  0.94884000  0.87646000  1.0 -0.0669406607
C  C69  1  0.46520000  0.32780000  0.51660000  1.0 -0.0632012986
C  C70  1  0.45339000  0.26569000  0.40262000  1.0 -0.0669406607
C  C71  1  0.44430000  0.37170000  0.49620000  1.0 -0.126005372
C  C72  1  0.43238000  0.30884000  0.38122000  1.0 -0.0669406607
C  C73  1  0.81120000  0.94860000  0.48340000  1.0 -0.0632012986
C  C74  1  0.86307000  0.05077000  0.59738000  1.0 -0.0669406607
C  C75  1  0.87550000  0.94810000  0.50380000  1.0 -0.126005372
C  C76  1  0.92762000  0.05116000  0.61878000  1.0 -0.0632012986
C  C77  1  0.18880000  0.67220000  0.13740000  1.0 -0.0632012986
C  C78  1  0.13693000  0.73431000  0.18770000  1.0 -0.0669406607
C  C79  1  0.12450000  0.62830000  0.07260000  1.0 -0.126005372
C  C80  1  0.07238000  0.69116000  0.12354000  1.0 -0.0669406607
C  C81  1  0.94860000  0.48340000  0.81120000  1.0 -0.0632012986
C  C82  1  0.05077000  0.59738000  0.86307000  1.0 -0.0669406607
C  C83  1  0.94810000  0.50380000  0.87550000  1.0 -0.126005372
C  C84  1  0.05116000  0.61878000  0.92762000  1.0 -0.0669406607
C  C85  1  0.67220000  0.13740000  0.18880000  1.0 -0.0632012986
C  C86  1  0.73431000  0.18770000  0.13693000  1.0 -0.0669406607
C  C87  1  0.62830000  0.07260000  0.12450000  1.0 -0.126005372
C  C88  1  0.69116000  0.12354000  0.07238000  1.0 -0.0669406607
C  C89  1  0.05140000  0.86260000  0.53480000  1.0 -0.0632012986
C  C90  1  0.94923000  0.81230000  0.54661000  1.0 -0.0669406607
C  C91  1  0.05190000  0.92740000  0.55570000  1.0 -0.126005372
C  C92  1  0.94884000  0.87646000  0.56762000  1.0 -0.0669406607
C  C93  1  0.32780000  0.51660000  0.46520000  1.0 -0.0632012986
C  C94  1  0.26569000  0.40262000  0.45339000  1.0 -0.0669406607
C  C95  1  0.37170000  0.49620000  0.44430000  1.0 -0.126005372
C  C96  1  0.30884000  0.38122000  0.43238000  1.0 -0.0669406607
C  C97  1  0.32780000  0.46520000  0.51660000  1.0 -0.0632012986
C  C98  1  0.26569000  0.45339000  0.40262000  1.0 -0.0669406607
C  C99  1  0.37170000  0.44430000  0.49620000  1.0 -0.126005372
C  C100  1  0.30884000  0.43238000  0.38122000  1.0 -0.0632012986
C  C101  1  0.05140000  0.53480000  0.86260000  1.0 -0.0632012986
C  C102  1  0.94923000  0.54661000  0.81230000  1.0 -0.0669406607
C  C103  1  0.05190000  0.55570000  0.92740000  1.0 -0.126005372
C  C104  1  0.94884000  0.56762000  0.87646000  1.0 -0.0669406607
C  C105  1  0.67220000  0.18880000  0.13740000  1.0 -0.0632012986
C  C106  1  0.73431000  0.13693000  0.18770000  1.0 -0.0669406607
C  C107  1  0.62830000  0.12450000  0.07260000  1.0 -0.126005372
C  C108  1  0.69116000  0.07238000  0.12354000  1.0 -0.0669406607
C  C109  1  0.94860000  0.81120000  0.48340000  1.0 -0.0632012986
C  C110  1  0.05077000  0.86307000  0.59738000  1.0 -0.0669406607
C  C111  1  0.94810000  0.87550000  0.50380000  1.0 -0.126005372
C  C112  1  0.05116000  0.92762000  0.61878000  1.0 -0.0669406607
C  C113  1  0.86260000  0.05140000  0.53480000  1.0 -0.0632012986
C  C114  1  0.81230000  0.94923000  0.54661000  1.0 -0.0669406607
C  C115  1  0.92740000  0.05190000  0.55570000  1.0 -0.126005372
C  C116  1  0.87646000  0.94884000  0.56762000  1.0 -0.0632012986
C  C117  1  0.51660000  0.32780000  0.46520000  1.0 -0.0632012986
C  C118  1  0.40262000  0.26569000  0.45339000  1.0 -0.0669406607
C  C119  1  0.49620000  0.37170000  0.44430000  1.0 -0.126005372
C  C120  1  0.38122000  0.30884000  0.43238000  1.0 -0.0669406607
C  C121  1  0.48340000  0.94860000  0.81120000  1.0 -0.0632012986
C  C122  1  0.59738000  0.05077000  0.86307000  1.0 -0.0669406607
C  C123  1  0.50380000  0.94810000  0.87550000  1.0 -0.126005372
C  C124  1  0.61878000  0.05116000  0.92762000  1.0 -0.0669406607
C  C125  1  0.13740000  0.67220000  0.18880000  1.0 -0.0632012986
C  C126  1  0.18770000  0.73431000  0.13693000  1.0 -0.0669406607
C  C127  1  0.07260000  0.62830000  0.12450000  1.0 -0.126005372
C  C128  1  0.12354000  0.69116000  0.07238000  1.0 -0.0669406607
C  C129  1  0.81120000  0.48340000  0.94860000  1.0 -0.0632012986
C  C130  1  0.86307000  0.59738000  0.05077000  1.0 -0.0669406607
C  C131  1  0.87550000  0.50380000  0.94810000  1.0 -0.126005372
C  C132  1  0.92762000  0.61878000  0.05116000  1.0 -0.0669406607
C  C133  1  0.18880000  0.13740000  0.67220000  1.0 -0.0632012986
C  C134  1  0.13693000  0.18770000  0.73431000  1.0 -0.0669406607
C  C135  1  0.12450000  0.07260000  0.62830000  1.0 -0.126005372
C  C136  1  0.07238000  0.12354000  0.69116000  1.0 -0.0669406607
C  C137  1  0.53480000  0.86260000  0.05140000  1.0 -0.0632012986
C  C138  1  0.54661000  0.81230000  0.94923000  1.0 -0.0669406607
C  C139  1  0.55570000  0.92740000  0.05190000  1.0 -0.126005372
C  C140  1  0.56762000  0.87646000  0.94884000  1.0 -0.0669406607
C  C141  1  0.46520000  0.51660000  0.32780000  1.0 -0.0632012986
C  C142  1  0.45339000  0.40262000  0.26569000  1.0 -0.0669406607
C  C143  1  0.44430000  0.49620000  0.37170000  1.0 -0.126005372
C  C144  1  0.43238000  0.38122000  0.30884000  1.0 -0.0669406607
C  C145  1  0.48340000  0.53480000  0.67220000  1.0 -0.0632012986
C  C146  1  0.59738000  0.54661000  0.73431000  1.0 -0.0669406607
C  C147  1  0.50380000  0.55570000  0.62830000  1.0 -0.126005372
C  C148  1  0.61878000  0.56762000  0.69116000  1.0 -0.0669406607
C  C149  1  0.13740000  0.46520000  0.94860000  1.0 -0.0632012986
C  C150  1  0.18770000  0.45339000  0.05077000  1.0 -0.0669406607
C  C151  1  0.07260000  0.44430000  0.94810000  1.0 -0.126005372
C  C152  1  0.12354000  0.43238000  0.05116000  1.0 -0.0669406607
C  C153  1  0.86260000  0.81120000  0.32780000  1.0 -0.0632012986
C  C154  1  0.81230000  0.86307000  0.26569000  1.0 -0.0669406607
C  C155  1  0.92740000  0.87550000  0.37170000  1.0 -0.126005372
C  C156  1  0.87646000  0.92762000  0.30884000  1.0 -0.0669406607
C  C157  1  0.51660000  0.18880000  0.05140000  1.0 -0.0632012986
C  C158  1  0.40262000  0.13693000  0.94923000  1.0 -0.0669406607
C  C159  1  0.49620000  0.12450000  0.05190000  1.0 -0.126005372
C  C160  1  0.38122000  0.07238000  0.94884000  1.0 -0.0669406607
C  C161  1  0.46520000  0.94860000  0.13740000  1.0 -0.0632012986
C  C162  1  0.45339000  0.05077000  0.18770000  1.0 -0.0669406607
C  C163  1  0.44430000  0.94810000  0.07260000  1.0 -0.126005372
C  C164  1  0.43238000  0.05116000  0.12354000  1.0 -0.0669406607
C  C165  1  0.53480000  0.67220000  0.48340000  1.0 -0.0632012986
C  C166  1  0.54661000  0.73431000  0.59738000  1.0 -0.0669406607
C  C167  1  0.55570000  0.62830000  0.50380000  1.0 -0.126005372
C  C168  1  0.56762000  0.69116000  0.61878000  1.0 -0.0632012986
C  C169  1  0.18880000  0.05140000  0.51660000  1.0 -0.0632012986
C  C170  1  0.13693000  0.94923000  0.40262000  1.0 -0.0669406607
C  C171  1  0.12450000  0.05190000  0.49620000  1.0 -0.126005372
C  C172  1  0.07238000  0.94884000  0.38122000  1.0 -0.0669406607
C  C173  1  0.81120000  0.32780000  0.86260000  1.0 -0.0632012986
C  C174  1  0.86307000  0.26569000  0.81230000  1.0 -0.0669406607
C  C175  1  0.87550000  0.37170000  0.92740000  1.0 -0.126005372
C  C176  1  0.92762000  0.30884000  0.87646000  1.0 -0.0669406607
C  C177  1  0.05140000  0.51660000  0.18880000  1.0 -0.0632012986
C  C178  1  0.94923000  0.40262000  0.13693000  1.0 -0.0669406607
C  C179  1  0.05190000  0.49620000  0.12450000  1.0 -0.126005372
C  C180  1  0.94884000  0.38122000  0.07238000  1.0 -0.0632012986
C  C181  1  0.32780000  0.86260000  0.81120000  1.0 -0.0632012986
C  C182  1  0.26569000  0.81230000  0.86307000  1.0 -0.0669406607
C  C183  1  0.37170000  0.92740000  0.87550000  1.0 -0.126005372
C  C184  1  0.30884000  0.87646000  0.92762000  1.0 -0.0669406607
C  C185  1  0.94860000  0.13740000  0.46520000  1.0 -0.0632012986
C  C186  1  0.05077000  0.18770000  0.45339000  1.0 -0.0669406607
C  C187  1  0.94810000  0.07260000  0.44430000  1.0 -0.126005372
C  C188  1  0.05116000  0.12354000  0.43238000  1.0 -0.0669406607
C  C189  1  0.67220000  0.48340000  0.53480000  1.0 -0.0632012986
C  C190  1  0.73431000  0.59738000  0.54661000  1.0 -0.0669406607
C  C191  1  0.62830000  0.50380000  0.55570000  1.0 -0.126005372
C  C192  1  0.69116000  0.61878000  0.56762000  1.0 -0.0669406607
C  C193  1  0.77240000  0.50820000  0.50820000  1.0 0.2577629257
C  C194  1  0.72540000  0.53020000  0.53020000  1.0 0.046171908
C  C195  1  0.63840000  0.57200000  0.57200000  1.0 0.1158369029
C  C196  1  0.00000000  0.49180000  0.26420000  1.0 0.2577629257
C  C197  1  0.00000000  0.46980000  0.19520000  1.0 0.046171908
C  C198  1  0.00000000  0.42800000  0.06640000  1.0 0.1158369029
C  C199  1  0.22760000  0.73580000  0.73580000  1.0 0.2577629257
C  C200  1  0.27460000  0.80480000  0.80480000  1.0 0.046171908
C  C201  1  0.36160000  0.93360000  0.93360000  1.0 0.1158369029
C  C202  1  0.00000000  0.26420000  0.49180000  1.0 0.2577629257
C  C203  1  0.00000000  0.19520000  0.46980000  1.0 0.0448678689
C  C204  1  0.00000000  0.06640000  0.42800000  1.0 0.1158369029
C  C205  1  0.26420000  0.00000000  0.49180000  1.0 0.2577629257
C  C206  1  0.19520000  0.00000000  0.46980000  1.0 0.0448678689
C  C207  1  0.06640000  0.00000000  0.42800000  1.0 0.1158369029
C  C208  1  0.50820000  0.77240000  0.50820000  1.0 0.2577629257
C  C209  1  0.53020000  0.72540000  0.53020000  1.0 0.0448678689
C  C210  1  0.57200000  0.63840000  0.57200000  1.0 0.1158369029
C  C211  1  0.49180000  0.00000000  0.26420000  1.0 0.2577629257
C  C212  1  0.46980000  0.00000000  0.19520000  1.0 0.0448678689
C  C213  1  0.42800000  0.00000000  0.06640000  1.0 0.1158369029
C  C214  1  0.73580000  0.22760000  0.73580000  1.0 0.2577629257
C  C215  1  0.80480000  0.27460000  0.80480000  1.0 0.0448678689
C  C216  1  0.93360000  0.36160000  0.93360000  1.0 0.1158369029
C  C217  1  0.26420000  0.49180000  0.00000000  1.0 0.2577629257
C  C218  1  0.19520000  0.46980000  0.00000000  1.0 0.0448678689
C  C219  1  0.06640000  0.42800000  0.00000000  1.0 0.1158369029
C  C220  1  0.73580000  0.73580000  0.22760000  1.0 0.2577629257
C  C221  1  0.80480000  0.80480000  0.27460000  1.0 0.0448678689
C  C222  1  0.93360000  0.93360000  0.36160000  1.0 0.1158369029
C  C223  1  0.49180000  0.26420000  0.00000000  1.0 0.2577629257
C  C224  1  0.46980000  0.19520000  0.00000000  1.0 0.046171908
C  C225  1  0.42800000  0.06640000  0.00000000  1.0 0.1158369029
C  C226  1  0.50820000  0.50820000  0.77240000  1.0 0.2577629257
C  C227  1  0.53020000  0.53020000  0.72540000  1.0 0.0448678689
C  C228  1  0.57200000  0.57200000  0.63840000  1.0 0.1158369029
C  C229  1  0.49180000  0.49180000  0.22760000  1.0 0.2577629257
C  C230  1  0.46980000  0.46980000  0.27460000  1.0 0.0448678689
C  C231  1  0.42800000  0.42800000  0.36160000  1.0 0.1158369029
C  C232  1  0.73580000  0.50820000  0.00000000  1.0 0.2577629257
C  C233  1  0.80480000  0.53020000  0.00000000  1.0 0.0448678689
C  C234  1  0.93360000  0.57200000  0.00000000  1.0 0.1158369029
C  C235  1  0.26420000  0.26420000  0.77240000  1.0 0.2577629257
C  C236  1  0.19520000  0.19520000  0.72540000  1.0 0.0448678689
C  C237  1  0.06640000  0.06640000  0.63840000  1.0 0.1158369029
C  C238  1  0.50820000  0.73580000  0.00000000  1.0 0.2577629257
C  C239  1  0.53020000  0.80480000  0.00000000  1.0 0.046171908
C  C240  1  0.57200000  0.93360000  0.00000000  1.0 0.1158369029
C  C241  1  0.50820000  0.00000000  0.73580000  1.0 0.2577629257
C  C242  1  0.53020000  0.00000000  0.80480000  1.0 0.046171908
C  C243  1  0.57200000  0.00000000  0.93360000  1.0 0.1158369029
C  C244  1  0.49180000  0.22760000  0.49180000  1.0 0.2577629257
C  C245  1  0.46980000  0.27460000  0.46980000  1.0 0.0448678689
C  C246  1  0.42800000  0.36160000  0.42800000  1.0 0.1158369029
C  C247  1  0.73580000  0.00000000  0.50820000  1.0 0.2577629257
C  C248  1  0.80480000  0.00000000  0.53020000  1.0 0.046171908
C  C249  1  0.93360000  0.00000000  0.57200000  1.0 0.1158369029
C  C250  1  0.26420000  0.77240000  0.26420000  1.0 0.2577629257
C  C251  1  0.19520000  0.72540000  0.19520000  1.0 0.0448678689
C  C252  1  0.06640000  0.63840000  0.06640000  1.0 0.1158369029
C  C253  1  0.00000000  0.50820000  0.73580000  1.0 0.2577629257
C  C254  1  0.00000000  0.53020000  0.80480000  1.0 0.046171908
C  C255  1  0.00000000  0.57200000  0.93360000  1.0 0.1158369029
C  C256  1  0.77240000  0.26420000  0.26420000  1.0 0.2577629257
C  C257  1  0.72540000  0.19520000  0.19520000  1.0 0.0448678689
C  C258  1  0.63840000  0.06640000  0.06640000  1.0 0.1158369029
C  C259  1  0.00000000  0.73580000  0.50820000  1.0 0.2577629257
C  C260  1  0.00000000  0.80480000  0.53020000  1.0 0.046171908
C  C261  1  0.00000000  0.93360000  0.57200000  1.0 0.1158369029
C  C262  1  0.22760000  0.49180000  0.49180000  1.0 0.2577629257
C  C263  1  0.27460000  0.46980000  0.46980000  1.0 0.0448678689
C  C264  1  0.36160000  0.42800000  0.42800000  1.0 0.1158369029
N  N1  1  0.83426000  0.49611000  0.46131000  1.0 -0.0509730618
N  N2  1  0.79600000  0.52764000  0.46920000  1.0 -0.2764726423
N  N3  1  0.96520000  0.50389000  0.33815000  1.0 -0.0509730618
N  N4  1  0.94156000  0.47236000  0.26836000  1.0 -0.2764726423
N  N5  1  0.16574000  0.62705000  0.66185000  1.0 -0.0509730618
N  N6  1  0.20400000  0.67320000  0.73164000  1.0 -0.2764726423
N  N7  1  0.03480000  0.37295000  0.53869000  1.0 -0.0509730618
N  N8  1  0.05844000  0.32680000  0.53080000  1.0 -0.2764726423
N  N9  1  0.33815000  0.96520000  0.50389000  1.0 -0.0509730618
N  N10  1  0.26836000  0.94156000  0.47236000  1.0 -0.2764726423
N  N11  1  0.46131000  0.83426000  0.49611000  1.0 -0.0509730618
N  N12  1  0.46920000  0.79600000  0.52764000  1.0 -0.2764726423
N  N13  1  0.53869000  0.03480000  0.37295000  1.0 -0.0509730618
N  N14  1  0.53080000  0.05844000  0.32680000  1.0 -0.2764726423
N  N15  1  0.66185000  0.16574000  0.62705000  1.0 -0.0509730618
N  N16  1  0.73164000  0.20400000  0.67320000  1.0 -0.2764726423
N  N17  1  0.37295000  0.53869000  0.03480000  1.0 -0.0509730618
N  N18  1  0.32680000  0.53080000  0.05844000  1.0 -0.2764726423
N  N19  1  0.62705000  0.66185000  0.16574000  1.0 -0.0509730618
N  N20  1  0.67320000  0.73164000  0.20400000  1.0 -0.2764726423
N  N21  1  0.50389000  0.33815000  0.96520000  1.0 -0.0509730618
N  N22  1  0.47236000  0.26836000  0.94156000  1.0 -0.2764726423
N  N23  1  0.49611000  0.46131000  0.83426000  1.0 -0.0509730618
N  N24  1  0.52764000  0.46920000  0.79600000  1.0 -0.2764726423
N  N25  1  0.53869000  0.50389000  0.16574000  1.0 -0.0509730618
N  N26  1  0.53080000  0.47236000  0.20400000  1.0 -0.2764726423
N  N27  1  0.66185000  0.49611000  0.03480000  1.0 -0.0509730618
N  N28  1  0.73164000  0.52764000  0.05844000  1.0 -0.2764726423
N  N29  1  0.33815000  0.37295000  0.83426000  1.0 -0.0509730618
N  N30  1  0.26836000  0.32680000  0.79600000  1.0 -0.2764726423
N  N31  1  0.46131000  0.62705000  0.96520000  1.0 -0.0509730618
N  N32  1  0.46920000  0.67320000  0.94156000  1.0 -0.2764726423
N  N33  1  0.49611000  0.03480000  0.66185000  1.0 -0.0509730618
N  N34  1  0.52764000  0.05844000  0.73164000  1.0 -0.2764726423
N  N35  1  0.50389000  0.16574000  0.53869000  1.0 -0.0509730618
N  N36  1  0.47236000  0.20400000  0.53080000  1.0 -0.2764726423
N  N37  1  0.62705000  0.96520000  0.46131000  1.0 -0.0509730618
N  N38  1  0.67320000  0.94156000  0.46920000  1.0 -0.2764726423
N  N39  1  0.37295000  0.83426000  0.33815000  1.0 -0.0509730618
N  N40  1  0.32680000  0.79600000  0.26836000  1.0 -0.2764726423
N  N41  1  0.96520000  0.46131000  0.62705000  1.0 -0.0509730618
N  N42  1  0.94156000  0.46920000  0.67320000  1.0 -0.2764726423
N  N43  1  0.83426000  0.33815000  0.37295000  1.0 -0.0509730618
N  N44  1  0.79600000  0.26836000  0.32680000  1.0 -0.2764726423
N  N45  1  0.03480000  0.66185000  0.49611000  1.0 -0.0509730618
N  N46  1  0.05844000  0.73164000  0.52764000  1.0 -0.2764726423
N  N47  1  0.16574000  0.53869000  0.50389000  1.0 -0.0509730618
N  N48  1  0.20400000  0.53080000  0.47236000  1.0 -0.2764726423
N  N49  1  0.16574000  0.50389000  0.53869000  1.0 -0.0509730618
N  N50  1  0.20400000  0.47236000  0.53080000  1.0 -0.2764726423
N  N51  1  0.03480000  0.49611000  0.66185000  1.0 -0.0509730618
N  N52  1  0.05844000  0.52764000  0.73164000  1.0 -0.2764726423
N  N53  1  0.83426000  0.37295000  0.33815000  1.0 -0.0509730618
N  N54  1  0.79600000  0.32680000  0.26836000  1.0 -0.2764726423
N  N55  1  0.96520000  0.62705000  0.46131000  1.0 -0.0509730618
N  N56  1  0.94156000  0.67320000  0.46920000  1.0 -0.2764726423
N  N57  1  0.66185000  0.03480000  0.49611000  1.0 -0.0509730618
N  N58  1  0.73164000  0.05844000  0.52764000  1.0 -0.2764726423
N  N59  1  0.53869000  0.16574000  0.50389000  1.0 -0.0509730618
N  N60  1  0.53080000  0.20400000  0.47236000  1.0 -0.2764726423
N  N61  1  0.46131000  0.96520000  0.62705000  1.0 -0.0509730618
N  N62  1  0.46920000  0.94156000  0.67320000  1.0 -0.2764726423
N  N63  1  0.33815000  0.83426000  0.37295000  1.0 -0.0509730618
N  N64  1  0.26836000  0.79600000  0.32680000  1.0 -0.2764726423
N  N65  1  0.62705000  0.46131000  0.96520000  1.0 -0.0509730618
N  N66  1  0.67320000  0.46920000  0.94156000  1.0 -0.2764726423
N  N67  1  0.37295000  0.33815000  0.83426000  1.0 -0.0509730618
N  N68  1  0.32680000  0.26836000  0.79600000  1.0 -0.2764726423
N  N69  1  0.49611000  0.66185000  0.03480000  1.0 -0.0509730618
N  N70  1  0.52764000  0.73164000  0.05844000  1.0 -0.2764726423
N  N71  1  0.50389000  0.53869000  0.16574000  1.0 -0.0509730618
N  N72  1  0.47236000  0.53080000  0.20400000  1.0 -0.2764726423
N  N73  1  0.46131000  0.49611000  0.83426000  1.0 -0.0509730618
N  N74  1  0.46920000  0.52764000  0.79600000  1.0 -0.2764726423
N  N75  1  0.33815000  0.50389000  0.96520000  1.0 -0.0509730618
N  N76  1  0.26836000  0.47236000  0.94156000  1.0 -0.2764726423
N  N77  1  0.66185000  0.62705000  0.16574000  1.0 -0.0509730618
N  N78  1  0.73164000  0.67320000  0.20400000  1.0 -0.2764726423
N  N79  1  0.53869000  0.37295000  0.03480000  1.0 -0.0509730618
N  N80  1  0.53080000  0.32680000  0.05844000  1.0 -0.2764726423
N  N81  1  0.50389000  0.96520000  0.33815000  1.0 -0.0509730618
N  N82  1  0.47236000  0.94156000  0.26836000  1.0 -0.2764726423
N  N83  1  0.49611000  0.83426000  0.46131000  1.0 -0.0509730618
N  N84  1  0.52764000  0.79600000  0.46920000  1.0 -0.2764726423
N  N85  1  0.37295000  0.03480000  0.53869000  1.0 -0.0509730618
N  N86  1  0.32680000  0.05844000  0.53080000  1.0 -0.2764726423
N  N87  1  0.62705000  0.16574000  0.66185000  1.0 -0.0509730618
N  N88  1  0.67320000  0.20400000  0.73164000  1.0 -0.2764726423
N  N89  1  0.03480000  0.53869000  0.37295000  1.0 -0.0509730618
N  N90  1  0.05844000  0.53080000  0.32680000  1.0 -0.2764726423
N  N91  1  0.16574000  0.66185000  0.62705000  1.0 -0.0509730618
N  N92  1  0.20400000  0.73164000  0.67320000  1.0 -0.2764726423
N  N93  1  0.96520000  0.33815000  0.50389000  1.0 -0.0509730618
N  N94  1  0.94156000  0.26836000  0.47236000  1.0 -0.2764726423
N  N95  1  0.83426000  0.46131000  0.49611000  1.0 -0.0509730618
N  N96  1  0.79600000  0.46920000  0.52764000  1.0 -0.2764726423
N  N97  1  0.59326000  0.59326000  0.59326000  1.0 -0.2901762655
N  N98  1  0.00000000  0.40674000  0.00000000  1.0 -0.2901762655
N  N99  1  0.40674000  0.00000000  0.00000000  1.0 -0.2901762655
N  N100  1  0.00000000  0.00000000  0.40674000  1.0 -0.2901762655
N  N101  1  0.40674000  0.40674000  0.40674000  1.0 -0.2901762655
N  N102  1  0.00000000  0.59326000  0.00000000  1.0 -0.2901762655
N  N103  1  0.00000000  0.00000000  0.59326000  1.0 -0.2901762655
N  N104  1  0.59326000  0.00000000  0.00000000  1.0 -0.2901762655
Cl  Cl1  1  0.00000000  0.50000000  0.50000000  1.0 -0.5105867739
Cl  Cl2  1  0.50000000  0.00000000  0.50000000  1.0 -0.5105867739
Cl  Cl3  1  0.50000000  0.50000000  0.00000000  1.0 -0.5105867739
