# DDEC6 charges by PACMAN v1.1 (https://github.com/mtap-research/PACMAN-charge/)
data_LIVKUW_ASR_pacman
_symmetry_space_group_name_H-M   'P 1'
_cell_length_a   8.64914000
_cell_length_b   8.64914000
_cell_length_c   8.64914000
_cell_angle_alpha   107.96100000
_cell_angle_beta   107.96100000
_cell_angle_gamma   112.53500000
_symmetry_Int_Tables_number   1
_chemical_formula_structural   Co4P4O21
_chemical_formula_sum   'Co4 P4 O21'
_cell_volume   497.00786067
_cell_formula_units_Z   1
loop_
 _symmetry_equiv_pos_site_id
 _symmetry_equiv_pos_as_xyz
  1  'x, y, z'
loop_
 _atom_site_type_symbol
 _atom_site_label
 _atom_site_symmetry_multiplicity
 _atom_site_fract_x
 _atom_site_fract_y
 _atom_site_fract_z
 _atom_site_occupancy
 _atom_site_charge
Co  Co1  1  0.50160000  0.23520000  0.00000000  1.0 1.3192974822
Co  Co2  1  0.49840000  0.49840000  0.73360000  1.0 1.3324179348
Co  Co3  1  0.76480000  0.76480000  0.26640000  1.0 1.3324179348
Co  Co4  1  0.23520000  0.50160000  0.00000000  1.0 1.3324179348
P  P1  1  0.85640000  0.52720000  0.00000000  1.0 1.380907108
P  P2  1  0.14360000  0.14360000  0.67080000  1.0 1.3863665359
P  P3  1  0.47280000  0.47280000  0.32920000  1.0 1.3863665359
P  P4  1  0.52720000  0.85640000  0.00000000  1.0 1.380907108
O  O1  1  0.73810000  0.33790000  0.00000000  1.0 -0.4511238141
O  O2  1  0.26190000  0.26190000  0.59980000  1.0 -0.4511238141
O  O3  1  0.66210000  0.66210000  0.40020000  1.0 -0.4511238141
O  O4  1  0.33790000  0.73810000  0.00000000  1.0 -0.4511238141
O  O5  1  0.91540000  0.69840000  0.17700000  1.0 -0.4999824195
O  O6  1  0.26160000  0.08460000  0.78300000  1.0 -0.4999824195
O  O7  1  0.47860000  0.30160000  0.21700000  1.0 -0.4999824195
O  O8  1  0.52140000  0.73840000  0.82300000  1.0 -0.4999824195
O  O9  1  0.73840000  0.52140000  0.82300000  1.0 -0.4999824195
O  O10  1  0.30160000  0.47860000  0.21700000  1.0 -0.4999824195
O  O11  1  0.08460000  0.26160000  0.78300000  1.0 -0.4999824195
O  O12  1  0.69840000  0.91540000  0.17700000  1.0 -0.4999824195
O  O13  1  0.02800000  0.54500000  0.00100000  1.0 -0.5529378841
O  O14  1  0.97300000  0.97200000  0.51700000  1.0 -0.5529378841
O  O15  1  0.45600000  0.45500000  0.48300000  1.0 -0.5529378841
O  O16  1  0.54400000  0.02700000  0.99900000  1.0 -0.5529378841
O  O17  1  0.02700000  0.54400000  0.99900000  1.0 -0.5529378841
O  O18  1  0.45500000  0.45600000  0.48300000  1.0 -0.5561372741
O  O19  1  0.97200000  0.97300000  0.51700000  1.0 -0.5529378841
O  O20  1  0.54500000  0.02800000  0.00100000  1.0 -0.5529378841
O  O21  1  0.50000000  0.50000000  0.00000000  1.0 -0.6200414999
