# DDEC6 charges by PACMAN v1.1 (https://github.com/mtap-research/PACMAN-charge/)
data_LIWTAP_ASR_pacman
_symmetry_space_group_name_H-M   'P 1'
_cell_length_a   10.26150000
_cell_length_b   17.47600000
_cell_length_c   12.45110000
_cell_angle_alpha   90.00000000
_cell_angle_beta   121.71300000
_cell_angle_gamma   90.00000000
_symmetry_Int_Tables_number   1
_chemical_formula_structural   Zn3H8C22(SO3)4
_chemical_formula_sum   'Zn6 H16 C44 S8 O24'
_cell_volume   1899.47195074
_cell_formula_units_Z   2
loop_
 _symmetry_equiv_pos_site_id
 _symmetry_equiv_pos_as_xyz
  1  'x, y, z'
loop_
 _atom_site_type_symbol
 _atom_site_label
 _atom_site_symmetry_multiplicity
 _atom_site_fract_x
 _atom_site_fract_y
 _atom_site_fract_z
 _atom_site_occupancy
 _atom_site_charge
Zn  Zn1  1  0.69316000  0.44471000  0.19510000  1.0 0.9218258242
Zn  Zn2  1  0.30684000  0.94471000  0.30490000  1.0 0.9218258242
Zn  Zn3  1  0.30684000  0.55529000  0.80490000  1.0 0.9218258242
Zn  Zn4  1  0.69316000  0.05529000  0.69510000  1.0 0.9218258242
Zn  Zn5  1  0.00000000  0.50000000  0.50000000  1.0 1.0502431075
Zn  Zn6  1  0.00000000  0.00000000  0.00000000  1.0 1.0502431075
H  H1  1  0.66630000  0.67060000  0.00600000  1.0 0.1311208872
H  H2  1  0.74780000  0.79770000  0.97680000  1.0 0.1311208872
H  H3  1  0.19810000  0.53720000  0.36670000  1.0 0.1311208872
H  H4  1  0.32490000  0.51570000  0.24640000  1.0 0.1406062952
H  H5  1  0.33370000  0.17060000  0.49400000  1.0 0.1311208872
H  H6  1  0.25220000  0.29770000  0.52320000  1.0 0.1311208872
H  H7  1  0.80190000  0.03720000  0.13330000  1.0 0.1311208872
H  H8  1  0.67510000  0.01570000  0.25360000  1.0 0.1406062952
H  H9  1  0.33370000  0.32940000  0.99400000  1.0 0.1311208872
H  H10  1  0.25220000  0.20230000  0.02320000  1.0 0.1311208872
H  H11  1  0.80190000  0.46280000  0.63330000  1.0 0.1311208872
H  H12  1  0.67510000  0.48430000  0.75360000  1.0 0.1406062952
H  H13  1  0.66630000  0.82940000  0.50600000  1.0 0.1311208872
H  H14  1  0.74780000  0.70230000  0.47680000  1.0 0.1311208872
H  H15  1  0.19810000  0.96280000  0.86670000  1.0 0.1311208872
H  H16  1  0.32490000  0.98430000  0.74640000  1.0 0.1406062952
C  C1  1  0.84480000  0.59095000  0.23660000  1.0 0.608426569
C  C2  1  0.85410000  0.66650000  0.18600000  1.0 -0.1065765173
C  C3  1  0.75610000  0.69606000  0.06910000  1.0 -0.1249762718
C  C4  1  0.80300000  0.76862000  0.05220000  1.0 -0.1270588693
C  C5  1  0.93570000  0.79223000  0.15560000  1.0 -0.1065765173
C  C6  1  0.02150000  0.86296000  0.16640000  1.0 0.6313238423
C  C7  1  0.36580000  0.52431000  0.63000000  1.0 0.4984898846
C  C8  1  0.40410000  0.51330000  0.53110000  1.0 -0.0524143121
C  C9  1  0.30290000  0.52380000  0.40370000  1.0 -0.0819591471
C  C10  1  0.37590000  0.51200000  0.33570000  1.0 -0.0948070109
C  C11  1  0.52550000  0.49500000  0.41070000  1.0 -0.057062991
C  C12  1  0.15520000  0.09095000  0.26340000  1.0 0.608426569
C  C13  1  0.14590000  0.16650000  0.31400000  1.0 -0.1065765173
C  C14  1  0.24390000  0.19606000  0.43090000  1.0 -0.1249762718
C  C15  1  0.19700000  0.26862000  0.44780000  1.0 -0.1270588693
C  C16  1  0.06430000  0.29223000  0.34440000  1.0 -0.1065765173
C  C17  1  0.97850000  0.36296000  0.33360000  1.0 0.6313238423
C  C18  1  0.63420000  0.02431000  0.87000000  1.0 0.4984898846
C  C19  1  0.59590000  0.01330000  0.96890000  1.0 -0.0524143121
C  C20  1  0.69710000  0.02380000  0.09630000  1.0 -0.0819591471
C  C21  1  0.62410000  0.01200000  0.16430000  1.0 -0.0948070109
C  C22  1  0.47450000  0.99500000  0.08930000  1.0 -0.057062991
C  C23  1  0.15520000  0.40905000  0.76340000  1.0 0.608426569
C  C24  1  0.14590000  0.33350000  0.81400000  1.0 -0.1065765173
C  C25  1  0.24390000  0.30394000  0.93090000  1.0 -0.1249762718
C  C26  1  0.19700000  0.23138000  0.94780000  1.0 -0.1270588693
C  C27  1  0.06430000  0.20777000  0.84440000  1.0 -0.1065765173
C  C28  1  0.97850000  0.13704000  0.83360000  1.0 0.6313238423
C  C29  1  0.63420000  0.47569000  0.37000000  1.0 0.4984898846
C  C30  1  0.59590000  0.48670000  0.46890000  1.0 -0.0524143121
C  C31  1  0.69710000  0.47620000  0.59630000  1.0 -0.0819591471
C  C32  1  0.62410000  0.48800000  0.66430000  1.0 -0.0980887805
C  C33  1  0.47450000  0.50500000  0.58930000  1.0 -0.057062991
C  C34  1  0.84480000  0.90905000  0.73660000  1.0 0.608426569
C  C35  1  0.85410000  0.83350000  0.68600000  1.0 -0.1065765173
C  C36  1  0.75610000  0.80394000  0.56910000  1.0 -0.1249762718
C  C37  1  0.80300000  0.73138000  0.55220000  1.0 -0.1270588693
C  C38  1  0.93570000  0.70777000  0.65560000  1.0 -0.1065765173
C  C39  1  0.02150000  0.63704000  0.66640000  1.0 0.6313238423
C  C40  1  0.36580000  0.97569000  0.13000000  1.0 0.4984898846
C  C41  1  0.40410000  0.98670000  0.03110000  1.0 -0.0524143121
C  C42  1  0.30290000  0.97620000  0.90370000  1.0 -0.0819591471
C  C43  1  0.37590000  0.98800000  0.83570000  1.0 -0.0948070109
C  C44  1  0.52550000  0.00500000  0.91070000  1.0 -0.057062991
S  S1  1  0.00414000  0.72686000  0.27631000  1.0 0.1406062952
S  S2  1  0.58441000  0.49295000  0.56752000  1.0 0.0583836063
S  S3  1  0.99586000  0.22686000  0.22369000  1.0 0.1406062952
S  S4  1  0.41559000  0.99295000  0.93248000  1.0 0.0583836063
S  S5  1  0.99586000  0.27314000  0.72369000  1.0 0.1406062952
S  S6  1  0.41559000  0.50705000  0.43248000  1.0 0.0583836063
S  S7  1  0.00414000  0.77314000  0.77631000  1.0 0.1406062952
S  S8  1  0.58441000  0.00705000  0.06752000  1.0 0.0583836063
O  O1  1  0.94360000  0.57408000  0.34640000  1.0 -0.5625622888
O  O2  1  0.73220000  0.54948000  0.15960000  1.0 -0.5625622888
O  O3  1  0.15230000  0.86881000  0.26540000  1.0 -0.5784446616
O  O4  1  0.95670000  0.90931000  0.07790000  1.0 -0.5468400438
O  O5  1  0.22840000  0.53590000  0.57840000  1.0 -0.4723681976
O  O6  1  0.45200000  0.52824000  0.74680000  1.0 -0.4431169723
O  O7  1  0.05640000  0.07408000  0.15360000  1.0 -0.5625622888
O  O8  1  0.26780000  0.04948000  0.34040000  1.0 -0.5625622888
O  O9  1  0.84770000  0.36881000  0.23460000  1.0 -0.5784446616
O  O10  1  0.04330000  0.40931000  0.42210000  1.0 -0.5468400438
O  O11  1  0.77160000  0.03590000  0.92160000  1.0 -0.4723681976
O  O12  1  0.54800000  0.02824000  0.75320000  1.0 -0.4431169723
O  O13  1  0.05640000  0.42592000  0.65360000  1.0 -0.5625622888
O  O14  1  0.26780000  0.45052000  0.84040000  1.0 -0.5625622888
O  O15  1  0.84770000  0.13119000  0.73460000  1.0 -0.5784446616
O  O16  1  0.04330000  0.09069000  0.92210000  1.0 -0.5468400438
O  O17  1  0.77160000  0.46410000  0.42160000  1.0 -0.4723681976
O  O18  1  0.54800000  0.47176000  0.25320000  1.0 -0.4431169723
O  O19  1  0.94360000  0.92592000  0.84640000  1.0 -0.5625622888
O  O20  1  0.73220000  0.95052000  0.65960000  1.0 -0.5625622888
O  O21  1  0.15230000  0.63119000  0.76540000  1.0 -0.5784446616
O  O22  1  0.95670000  0.59069000  0.57790000  1.0 -0.5468400438
O  O23  1  0.22840000  0.96410000  0.07840000  1.0 -0.4723681976
O  O24  1  0.45200000  0.97176000  0.24680000  1.0 -0.4431169723
