# DDEC6 charges by PACMAN v1.1 (https://github.com/mtap-research/PACMAN-charge/)
data_LIZWEX_ion_pacman
_symmetry_space_group_name_H-M   'P 1'
_cell_length_a   31.36580000
_cell_length_b   31.36580000
_cell_length_c   31.36580000
_cell_angle_alpha   60.00000000
_cell_angle_beta   60.00000000
_cell_angle_gamma   60.00000000
_symmetry_Int_Tables_number   1
_chemical_formula_structural   Cu6H9C27N13O40
_chemical_formula_sum   'Cu48 H72 C216 N104 O320'
_cell_volume   21819.96797733
_cell_formula_units_Z   8
loop_
 _symmetry_equiv_pos_site_id
 _symmetry_equiv_pos_as_xyz
  1  'x, y, z'
loop_
 _atom_site_type_symbol
 _atom_site_label
 _atom_site_symmetry_multiplicity
 _atom_site_fract_x
 _atom_site_fract_y
 _atom_site_fract_z
 _atom_site_occupancy
 _atom_site_charge
Cu  Cu1  1  0.16212000  0.83788000  0.50000000  1.0 0.9308339821
Cu  Cu2  1  0.50000000  0.16212000  0.83788000  1.0 0.9308339821
Cu  Cu3  1  0.83788000  0.50000000  0.16212000  1.0 0.9308339821
Cu  Cu4  1  0.83788000  0.16212000  0.50000000  1.0 0.9308339821
Cu  Cu5  1  0.50000000  0.50000000  0.16212000  1.0 0.9308339821
Cu  Cu6  1  0.50000000  0.50000000  0.83788000  1.0 0.9308339821
Cu  Cu7  1  0.50000000  0.83788000  0.50000000  1.0 0.9308339821
Cu  Cu8  1  0.50000000  0.16212000  0.50000000  1.0 0.9308339821
Cu  Cu9  1  0.16212000  0.50000000  0.83788000  1.0 0.9308339821
Cu  Cu10  1  0.16212000  0.50000000  0.50000000  1.0 0.9308339821
Cu  Cu11  1  0.83788000  0.50000000  0.50000000  1.0 0.9308339821
Cu  Cu12  1  0.50000000  0.83788000  0.16212000  1.0 0.9308339821
Cu  Cu13  1  0.24678000  0.75322000  0.50000000  1.0 0.8679406858
Cu  Cu14  1  0.50000000  0.24678000  0.75322000  1.0 0.8679406858
Cu  Cu15  1  0.75322000  0.50000000  0.24678000  1.0 0.8679406858
Cu  Cu16  1  0.75322000  0.24678000  0.50000000  1.0 0.8679406858
Cu  Cu17  1  0.50000000  0.50000000  0.24678000  1.0 0.8679406858
Cu  Cu18  1  0.50000000  0.50000000  0.75322000  1.0 0.8679406858
Cu  Cu19  1  0.50000000  0.75322000  0.50000000  1.0 0.8679406858
Cu  Cu20  1  0.50000000  0.24678000  0.50000000  1.0 0.8679406858
Cu  Cu21  1  0.24678000  0.50000000  0.75322000  1.0 0.8679406858
Cu  Cu22  1  0.24678000  0.50000000  0.50000000  1.0 0.8679406858
Cu  Cu23  1  0.75322000  0.50000000  0.50000000  1.0 0.8679406858
Cu  Cu24  1  0.50000000  0.75322000  0.24678000  1.0 0.8679406858
Cu  Cu25  1  0.22260000  0.11602000  0.11602000  1.0 0.6974110918
Cu  Cu26  1  0.11602000  0.22260000  0.11602000  1.0 0.6974110918
Cu  Cu27  1  0.11602000  0.11602000  0.22260000  1.0 0.6974110918
Cu  Cu28  1  0.77740000  0.88398000  0.45464000  1.0 0.6926417715
Cu  Cu29  1  0.88398000  0.45464000  0.88398000  1.0 0.6926417715
Cu  Cu30  1  0.45464000  0.88398000  0.77740000  1.0 0.6926417715
Cu  Cu31  1  0.88398000  0.77740000  0.45464000  1.0 0.6926417715
Cu  Cu32  1  0.45464000  0.88398000  0.88398000  1.0 0.6926417715
Cu  Cu33  1  0.88398000  0.45464000  0.77740000  1.0 0.6974110918
Cu  Cu34  1  0.88398000  0.88398000  0.45464000  1.0 0.6926417715
Cu  Cu35  1  0.77740000  0.45464000  0.88398000  1.0 0.6974110918
Cu  Cu36  1  0.45464000  0.77740000  0.88398000  1.0 0.6926417715
Cu  Cu37  1  0.11602000  0.22260000  0.54536000  1.0 0.6974110918
Cu  Cu38  1  0.11602000  0.54536000  0.22260000  1.0 0.6974110918
Cu  Cu39  1  0.54536000  0.11602000  0.11602000  1.0 0.6974110918
Cu  Cu40  1  0.54536000  0.11602000  0.22260000  1.0 0.6974110918
Cu  Cu41  1  0.22260000  0.11602000  0.54536000  1.0 0.6926417715
Cu  Cu42  1  0.11602000  0.54536000  0.11602000  1.0 0.6974110918
Cu  Cu43  1  0.22260000  0.54536000  0.11602000  1.0 0.6974110918
Cu  Cu44  1  0.54536000  0.22260000  0.11602000  1.0 0.6974110918
Cu  Cu45  1  0.11602000  0.11602000  0.54536000  1.0 0.6926417715
Cu  Cu46  1  0.88398000  0.77740000  0.88398000  1.0 0.6926417715
Cu  Cu47  1  0.77740000  0.88398000  0.88398000  1.0 0.6926417715
Cu  Cu48  1  0.88398000  0.88398000  0.77740000  1.0 0.6926417715
H  H1  1  0.34070000  0.80130000  0.34070000  1.0 0.1393731168
H  H2  1  0.34070000  0.34070000  0.80130000  1.0 0.1393731168
H  H3  1  0.80130000  0.34070000  0.34070000  1.0 0.1393731168
H  H4  1  0.65930000  0.19870000  0.48270000  1.0 0.1393731168
H  H5  1  0.65930000  0.48270000  0.19870000  1.0 0.1393731168
H  H6  1  0.48270000  0.65930000  0.65930000  1.0 0.1393731168
H  H7  1  0.65930000  0.65930000  0.48270000  1.0 0.1393731168
H  H8  1  0.48270000  0.19870000  0.65930000  1.0 0.1393731168
H  H9  1  0.19870000  0.48270000  0.65930000  1.0 0.1393731168
H  H10  1  0.19870000  0.65930000  0.48270000  1.0 0.1393731168
H  H11  1  0.65930000  0.48270000  0.65930000  1.0 0.1393731168
H  H12  1  0.48270000  0.65930000  0.19870000  1.0 0.1393731168
H  H13  1  0.80130000  0.34070000  0.51730000  1.0 0.1393731168
H  H14  1  0.34070000  0.51730000  0.34070000  1.0 0.1393731168
H  H15  1  0.51730000  0.34070000  0.80130000  1.0 0.1393731168
H  H16  1  0.51730000  0.80130000  0.34070000  1.0 0.1393731168
H  H17  1  0.34070000  0.34070000  0.51730000  1.0 0.1393731168
H  H18  1  0.80130000  0.51730000  0.34070000  1.0 0.1393731168
H  H19  1  0.34070000  0.51730000  0.80130000  1.0 0.1393731168
H  H20  1  0.51730000  0.34070000  0.34070000  1.0 0.1393731168
H  H21  1  0.34070000  0.80130000  0.51730000  1.0 0.1393731168
H  H22  1  0.19870000  0.65930000  0.65930000  1.0 0.1393731168
H  H23  1  0.65930000  0.65930000  0.19870000  1.0 0.1393731168
H  H24  1  0.65930000  0.19870000  0.65930000  1.0 0.1393731168
H  H25  1  0.20690000  0.92330000  0.33710000  1.0 0.1393731168
H  H26  1  0.33710000  0.20690000  0.92330000  1.0 0.1393731168
H  H27  1  0.92330000  0.33710000  0.20690000  1.0 0.1393731168
H  H28  1  0.79310000  0.07670000  0.46730000  1.0 0.1393731168
H  H29  1  0.66290000  0.46730000  0.07670000  1.0 0.1393731168
H  H30  1  0.46730000  0.66290000  0.79310000  1.0 0.1393731168
H  H31  1  0.66290000  0.79310000  0.46730000  1.0 0.1393731168
H  H32  1  0.46730000  0.07670000  0.66290000  1.0 0.1393731168
H  H33  1  0.07670000  0.46730000  0.79310000  1.0 0.1393731168
H  H34  1  0.07670000  0.66290000  0.46730000  1.0 0.1393731168
H  H35  1  0.79310000  0.46730000  0.66290000  1.0 0.1393731168
H  H36  1  0.46730000  0.79310000  0.07670000  1.0 0.1393731168
H  H37  1  0.92330000  0.20690000  0.53270000  1.0 0.1393731168
H  H38  1  0.33710000  0.53270000  0.20690000  1.0 0.1393731168
H  H39  1  0.53270000  0.33710000  0.92330000  1.0 0.1393731168
H  H40  1  0.53270000  0.92330000  0.20690000  1.0 0.1393731168
H  H41  1  0.20690000  0.33710000  0.53270000  1.0 0.1393731168
H  H42  1  0.92330000  0.53270000  0.33710000  1.0 0.1393731168
H  H43  1  0.20690000  0.53270000  0.92330000  1.0 0.1393731168
H  H44  1  0.53270000  0.20690000  0.33710000  1.0 0.1393731168
H  H45  1  0.33710000  0.92330000  0.53270000  1.0 0.1393731168
H  H46  1  0.07670000  0.79310000  0.66290000  1.0 0.1393731168
H  H47  1  0.79310000  0.66290000  0.07670000  1.0 0.1393731168
H  H48  1  0.66290000  0.07670000  0.79310000  1.0 0.1393731168
H  H49  1  0.79310000  0.07670000  0.66290000  1.0 0.1393731168
H  H50  1  0.66290000  0.79310000  0.07670000  1.0 0.1393731168
H  H51  1  0.07670000  0.66290000  0.79310000  1.0 0.1393731168
H  H52  1  0.20690000  0.92330000  0.53270000  1.0 0.1393731168
H  H53  1  0.33710000  0.53270000  0.92330000  1.0 0.1393731168
H  H54  1  0.53270000  0.33710000  0.20690000  1.0 0.1393731168
H  H55  1  0.33710000  0.20690000  0.53270000  1.0 0.1393731168
H  H56  1  0.53270000  0.92330000  0.33710000  1.0 0.1393731168
H  H57  1  0.92330000  0.53270000  0.20690000  1.0 0.1393731168
H  H58  1  0.92330000  0.33710000  0.53270000  1.0 0.1393731168
H  H59  1  0.20690000  0.53270000  0.33710000  1.0 0.1393731168
H  H60  1  0.53270000  0.20690000  0.92330000  1.0 0.1393731168
H  H61  1  0.07670000  0.79310000  0.46730000  1.0 0.1393731168
H  H62  1  0.66290000  0.46730000  0.79310000  1.0 0.1393731168
H  H63  1  0.46730000  0.66290000  0.07670000  1.0 0.1393731168
H  H64  1  0.46730000  0.07670000  0.79310000  1.0 0.1393731168
H  H65  1  0.79310000  0.66290000  0.46730000  1.0 0.1393731168
H  H66  1  0.07670000  0.46730000  0.66290000  1.0 0.1393731168
H  H67  1  0.79310000  0.46730000  0.07670000  1.0 0.1393731168
H  H68  1  0.46730000  0.79310000  0.66290000  1.0 0.1393731168
H  H69  1  0.66290000  0.07670000  0.46730000  1.0 0.1393731168
H  H70  1  0.92330000  0.20690000  0.33710000  1.0 0.1393731168
H  H71  1  0.20690000  0.33710000  0.92330000  1.0 0.1393731168
H  H72  1  0.33710000  0.92330000  0.20690000  1.0 0.1393731168
C  C1  1  0.24530000  0.83570000  0.40230000  1.0 0.5677248964
C  C2  1  0.40230000  0.24530000  0.83570000  1.0 0.5677248964
C  C3  1  0.83570000  0.40230000  0.24530000  1.0 0.5677248964
C  C4  1  0.75470000  0.16430000  0.48330000  1.0 0.5677248964
C  C5  1  0.59770000  0.48330000  0.16430000  1.0 0.5677248964
C  C6  1  0.48330000  0.59770000  0.75470000  1.0 0.5677248964
C  C7  1  0.59770000  0.75470000  0.48330000  1.0 0.5677248964
C  C8  1  0.48330000  0.16430000  0.59770000  1.0 0.5677248964
C  C9  1  0.16430000  0.48330000  0.75470000  1.0 0.5677248964
C  C10  1  0.16430000  0.59770000  0.48330000  1.0 0.5677248964
C  C11  1  0.75470000  0.48330000  0.59770000  1.0 0.5677248964
C  C12  1  0.48330000  0.75470000  0.16430000  1.0 0.5677248964
C  C13  1  0.83570000  0.24530000  0.51670000  1.0 0.5677248964
C  C14  1  0.40230000  0.51670000  0.24530000  1.0 0.5677248964
C  C15  1  0.51670000  0.40230000  0.83570000  1.0 0.5677248964
C  C16  1  0.51670000  0.83570000  0.24530000  1.0 0.5677248964
C  C17  1  0.24530000  0.40230000  0.51670000  1.0 0.5677248964
C  C18  1  0.83570000  0.51670000  0.40230000  1.0 0.5677248964
C  C19  1  0.24530000  0.51670000  0.83570000  1.0 0.5677248964
C  C20  1  0.51670000  0.24530000  0.40230000  1.0 0.5677248964
C  C21  1  0.40230000  0.83570000  0.51670000  1.0 0.5677248964
C  C22  1  0.16430000  0.75470000  0.59770000  1.0 0.5677248964
C  C23  1  0.75470000  0.59770000  0.16430000  1.0 0.5677248964
C  C24  1  0.59770000  0.16430000  0.75470000  1.0 0.5677248964
C  C25  1  0.75470000  0.16430000  0.59770000  1.0 0.5677248964
C  C26  1  0.59770000  0.75470000  0.16430000  1.0 0.5677248964
C  C27  1  0.16430000  0.59770000  0.75470000  1.0 0.5677248964
C  C28  1  0.24530000  0.83570000  0.51670000  1.0 0.5677248964
C  C29  1  0.40230000  0.51670000  0.83570000  1.0 0.5677248964
C  C30  1  0.51670000  0.40230000  0.24530000  1.0 0.5677248964
C  C31  1  0.40230000  0.24530000  0.51670000  1.0 0.5677248964
C  C32  1  0.51670000  0.83570000  0.40230000  1.0 0.5677248964
C  C33  1  0.83570000  0.51670000  0.24530000  1.0 0.5677248964
C  C34  1  0.83570000  0.40230000  0.51670000  1.0 0.5677248964
C  C35  1  0.24530000  0.51670000  0.40230000  1.0 0.5677248964
C  C36  1  0.51670000  0.24530000  0.83570000  1.0 0.5677248964
C  C37  1  0.16430000  0.75470000  0.48330000  1.0 0.5677248964
C  C38  1  0.59770000  0.48330000  0.75470000  1.0 0.5677248964
C  C39  1  0.48330000  0.59770000  0.16430000  1.0 0.5677248964
C  C40  1  0.48330000  0.16430000  0.75470000  1.0 0.5677248964
C  C41  1  0.75470000  0.59770000  0.48330000  1.0 0.5677248964
C  C42  1  0.16430000  0.48330000  0.59770000  1.0 0.5677248964
C  C43  1  0.75470000  0.48330000  0.16430000  1.0 0.5677248964
C  C44  1  0.48330000  0.75470000  0.59770000  1.0 0.5677248964
C  C45  1  0.59770000  0.16430000  0.48330000  1.0 0.5677248964
C  C46  1  0.83570000  0.24530000  0.40230000  1.0 0.5677248964
C  C47  1  0.24530000  0.40230000  0.83570000  1.0 0.5677248964
C  C48  1  0.40230000  0.83570000  0.24530000  1.0 0.5677248964
C  C49  1  0.32240000  0.83540000  0.32240000  1.0 -0.0688649334
C  C50  1  0.32240000  0.32240000  0.83540000  1.0 -0.0688649334
C  C51  1  0.83540000  0.32240000  0.32240000  1.0 -0.0688649334
C  C52  1  0.67760000  0.16460000  0.48020000  1.0 -0.0688649334
C  C53  1  0.67760000  0.48020000  0.16460000  1.0 -0.0688649334
C  C54  1  0.48020000  0.67760000  0.67760000  1.0 -0.0688649334
C  C55  1  0.67760000  0.67760000  0.48020000  1.0 -0.0688649334
C  C56  1  0.48020000  0.16460000  0.67760000  1.0 -0.0688649334
C  C57  1  0.16460000  0.48020000  0.67760000  1.0 -0.0688649334
C  C58  1  0.16460000  0.67760000  0.48020000  1.0 -0.0688649334
C  C59  1  0.67760000  0.48020000  0.67760000  1.0 -0.0688649334
C  C60  1  0.48020000  0.67760000  0.16460000  1.0 -0.0688649334
C  C61  1  0.83540000  0.32240000  0.51980000  1.0 -0.0688649334
C  C62  1  0.32240000  0.51980000  0.32240000  1.0 -0.0688649334
C  C63  1  0.51980000  0.32240000  0.83540000  1.0 -0.0688649334
C  C64  1  0.51980000  0.83540000  0.32240000  1.0 -0.0688649334
C  C65  1  0.32240000  0.32240000  0.51980000  1.0 -0.0688649334
C  C66  1  0.83540000  0.51980000  0.32240000  1.0 -0.0688649334
C  C67  1  0.32240000  0.51980000  0.83540000  1.0 -0.0688649334
C  C68  1  0.51980000  0.32240000  0.32240000  1.0 -0.0688649334
C  C69  1  0.32240000  0.83540000  0.51980000  1.0 -0.0688649334
C  C70  1  0.16460000  0.67760000  0.67760000  1.0 -0.0688649334
C  C71  1  0.67760000  0.67760000  0.16460000  1.0 -0.0688649334
C  C72  1  0.67760000  0.16460000  0.67760000  1.0 -0.0688649334
C  C73  1  0.27110000  0.86030000  0.34690000  1.0 -0.0458282708
C  C74  1  0.34690000  0.27110000  0.86030000  1.0 -0.0458282708
C  C75  1  0.86030000  0.34690000  0.27110000  1.0 -0.0458282708
C  C76  1  0.72890000  0.13970000  0.47830000  1.0 -0.0458282708
C  C77  1  0.65310000  0.47830000  0.13970000  1.0 -0.0458282708
C  C78  1  0.47830000  0.65310000  0.72890000  1.0 -0.0458282708
C  C79  1  0.65310000  0.72890000  0.47830000  1.0 -0.0458282708
C  C80  1  0.47830000  0.13970000  0.65310000  1.0 -0.0458282708
C  C81  1  0.13970000  0.47830000  0.72890000  1.0 -0.0458282708
C  C82  1  0.13970000  0.65310000  0.47830000  1.0 -0.0458282708
C  C83  1  0.72890000  0.47830000  0.65310000  1.0 -0.0458282708
C  C84  1  0.47830000  0.72890000  0.13970000  1.0 -0.0458282708
C  C85  1  0.86030000  0.27110000  0.52170000  1.0 -0.0458282708
C  C86  1  0.34690000  0.52170000  0.27110000  1.0 -0.0458282708
C  C87  1  0.52170000  0.34690000  0.86030000  1.0 -0.0458282708
C  C88  1  0.52170000  0.86030000  0.27110000  1.0 -0.0458282708
C  C89  1  0.27110000  0.34690000  0.52170000  1.0 -0.0458282708
C  C90  1  0.86030000  0.52170000  0.34690000  1.0 -0.0458282708
C  C91  1  0.27110000  0.52170000  0.86030000  1.0 -0.0458282708
C  C92  1  0.52170000  0.27110000  0.34690000  1.0 -0.0458282708
C  C93  1  0.34690000  0.86030000  0.52170000  1.0 -0.0458282708
C  C94  1  0.13970000  0.72890000  0.65310000  1.0 -0.0458282708
C  C95  1  0.72890000  0.65310000  0.13970000  1.0 -0.0458282708
C  C96  1  0.65310000  0.13970000  0.72890000  1.0 -0.0458282708
C  C97  1  0.72890000  0.13970000  0.65310000  1.0 -0.0458282708
C  C98  1  0.65310000  0.72890000  0.13970000  1.0 -0.0458282708
C  C99  1  0.13970000  0.65310000  0.72890000  1.0 -0.0458282708
C  C100  1  0.27110000  0.86030000  0.52170000  1.0 -0.0458282708
C  C101  1  0.34690000  0.52170000  0.86030000  1.0 -0.0458282708
C  C102  1  0.52170000  0.34690000  0.27110000  1.0 -0.0458282708
C  C103  1  0.34690000  0.27110000  0.52170000  1.0 -0.0458282708
C  C104  1  0.52170000  0.86030000  0.34690000  1.0 -0.0458282708
C  C105  1  0.86030000  0.52170000  0.27110000  1.0 -0.0458282708
C  C106  1  0.86030000  0.34690000  0.52170000  1.0 -0.0458282708
C  C107  1  0.27110000  0.52170000  0.34690000  1.0 -0.0458282708
C  C108  1  0.52170000  0.27110000  0.86030000  1.0 -0.0458282708
C  C109  1  0.13970000  0.72890000  0.47830000  1.0 -0.0458282708
C  C110  1  0.65310000  0.47830000  0.72890000  1.0 -0.0458282708
C  C111  1  0.47830000  0.65310000  0.13970000  1.0 -0.0458282708
C  C112  1  0.47830000  0.13970000  0.72890000  1.0 -0.0458282708
C  C113  1  0.72890000  0.65310000  0.47830000  1.0 -0.0458282708
C  C114  1  0.13970000  0.47830000  0.65310000  1.0 -0.0458282708
C  C115  1  0.72890000  0.47830000  0.13970000  1.0 -0.0458282708
C  C116  1  0.47830000  0.72890000  0.65310000  1.0 -0.0458282708
C  C117  1  0.65310000  0.13970000  0.47830000  1.0 -0.0458282708
C  C118  1  0.86030000  0.27110000  0.34690000  1.0 -0.0458282708
C  C119  1  0.27110000  0.34690000  0.86030000  1.0 -0.0458282708
C  C120  1  0.34690000  0.86030000  0.27110000  1.0 -0.0458282708
C  C121  1  0.24290000  0.90790000  0.32050000  1.0 -0.081304038
C  C122  1  0.32050000  0.24290000  0.90790000  1.0 -0.081304038
C  C123  1  0.90790000  0.32050000  0.24290000  1.0 -0.081304038
C  C124  1  0.75710000  0.09210000  0.47130000  1.0 -0.081304038
C  C125  1  0.67950000  0.47130000  0.09210000  1.0 -0.081304038
C  C126  1  0.47130000  0.67950000  0.75710000  1.0 -0.081304038
C  C127  1  0.67950000  0.75710000  0.47130000  1.0 -0.081304038
C  C128  1  0.47130000  0.09210000  0.67950000  1.0 -0.081304038
C  C129  1  0.09210000  0.47130000  0.75710000  1.0 -0.081304038
C  C130  1  0.09210000  0.67950000  0.47130000  1.0 -0.081304038
C  C131  1  0.75710000  0.47130000  0.67950000  1.0 -0.081304038
C  C132  1  0.47130000  0.75710000  0.09210000  1.0 -0.081304038
C  C133  1  0.90790000  0.24290000  0.52870000  1.0 -0.081304038
C  C134  1  0.32050000  0.52870000  0.24290000  1.0 -0.081304038
C  C135  1  0.52870000  0.32050000  0.90790000  1.0 -0.081304038
C  C136  1  0.52870000  0.90790000  0.24290000  1.0 -0.081304038
C  C137  1  0.24290000  0.32050000  0.52870000  1.0 -0.081304038
C  C138  1  0.90790000  0.52870000  0.32050000  1.0 -0.081304038
C  C139  1  0.24290000  0.52870000  0.90790000  1.0 -0.081304038
C  C140  1  0.52870000  0.24290000  0.32050000  1.0 -0.081304038
C  C141  1  0.32050000  0.90790000  0.52870000  1.0 -0.081304038
C  C142  1  0.09210000  0.75710000  0.67950000  1.0 -0.081304038
C  C143  1  0.75710000  0.67950000  0.09210000  1.0 -0.081304038
C  C144  1  0.67950000  0.09210000  0.75710000  1.0 -0.081304038
C  C145  1  0.75710000  0.09210000  0.67950000  1.0 -0.081304038
C  C146  1  0.67950000  0.75710000  0.09210000  1.0 -0.081304038
C  C147  1  0.09210000  0.67950000  0.75710000  1.0 -0.081304038
C  C148  1  0.24290000  0.90790000  0.52870000  1.0 -0.081304038
C  C149  1  0.32050000  0.52870000  0.90790000  1.0 -0.081304038
C  C150  1  0.52870000  0.32050000  0.24290000  1.0 -0.081304038
C  C151  1  0.32050000  0.24290000  0.52870000  1.0 -0.081304038
C  C152  1  0.52870000  0.90790000  0.32050000  1.0 -0.081304038
C  C153  1  0.90790000  0.52870000  0.24290000  1.0 -0.081304038
C  C154  1  0.90790000  0.32050000  0.52870000  1.0 -0.081304038
C  C155  1  0.24290000  0.52870000  0.32050000  1.0 -0.081304038
C  C156  1  0.52870000  0.24290000  0.90790000  1.0 -0.081304038
C  C157  1  0.09210000  0.75710000  0.47130000  1.0 -0.081304038
C  C158  1  0.67950000  0.47130000  0.75710000  1.0 -0.081304038
C  C159  1  0.47130000  0.67950000  0.09210000  1.0 -0.081304038
C  C160  1  0.47130000  0.09210000  0.75710000  1.0 -0.081304038
C  C161  1  0.75710000  0.67950000  0.47130000  1.0 -0.081304038
C  C162  1  0.09210000  0.47130000  0.67950000  1.0 -0.081304038
C  C163  1  0.75710000  0.47130000  0.09210000  1.0 -0.081304038
C  C164  1  0.47130000  0.75710000  0.67950000  1.0 -0.081304038
C  C165  1  0.67950000  0.09210000  0.47130000  1.0 -0.081304038
C  C166  1  0.90790000  0.24290000  0.32050000  1.0 -0.081304038
C  C167  1  0.24290000  0.32050000  0.90790000  1.0 -0.081304038
C  C168  1  0.32050000  0.90790000  0.24290000  1.0 -0.081304038
C  C169  1  0.26800000  0.93420000  0.26800000  1.0 -0.0038968238
C  C170  1  0.26800000  0.26800000  0.93420000  1.0 -0.0038968238
C  C171  1  0.93420000  0.26800000  0.26800000  1.0 -0.0038968238
C  C172  1  0.73200000  0.06580000  0.47020000  1.0 -0.0038968238
C  C173  1  0.73200000  0.47020000  0.06580000  1.0 -0.0038968238
C  C174  1  0.47020000  0.73200000  0.73200000  1.0 -0.0038968238
C  C175  1  0.73200000  0.73200000  0.47020000  1.0 -0.0038968238
C  C176  1  0.47020000  0.06580000  0.73200000  1.0 -0.0038968238
C  C177  1  0.06580000  0.47020000  0.73200000  1.0 -0.0038968238
C  C178  1  0.06580000  0.73200000  0.47020000  1.0 -0.0038968238
C  C179  1  0.73200000  0.47020000  0.73200000  1.0 -0.0038968238
C  C180  1  0.47020000  0.73200000  0.06580000  1.0 -0.0038968238
C  C181  1  0.93420000  0.26800000  0.52980000  1.0 -0.0038968238
C  C182  1  0.26800000  0.52980000  0.26800000  1.0 -0.0038968238
C  C183  1  0.52980000  0.26800000  0.93420000  1.0 -0.0038968238
C  C184  1  0.52980000  0.93420000  0.26800000  1.0 -0.0038968238
C  C185  1  0.26800000  0.26800000  0.52980000  1.0 -0.0038968238
C  C186  1  0.93420000  0.52980000  0.26800000  1.0 -0.0038968238
C  C187  1  0.26800000  0.52980000  0.93420000  1.0 -0.0038968238
C  C188  1  0.52980000  0.26800000  0.26800000  1.0 -0.0038968238
C  C189  1  0.26800000  0.93420000  0.52980000  1.0 -0.0038968238
C  C190  1  0.06580000  0.73200000  0.73200000  1.0 -0.0038968238
C  C191  1  0.73200000  0.73200000  0.06580000  1.0 -0.0038968238
C  C192  1  0.73200000  0.06580000  0.73200000  1.0 -0.0038968238
C  C193  1  0.24080000  0.98320000  0.24080000  1.0 0.2182452956
C  C194  1  0.24080000  0.24080000  0.98320000  1.0 0.2182452956
C  C195  1  0.98320000  0.24080000  0.24080000  1.0 0.2182452956
C  C196  1  0.75920000  0.01680000  0.46480000  1.0 0.2182452956
C  C197  1  0.75920000  0.46480000  0.01680000  1.0 0.2182452956
C  C198  1  0.46480000  0.75920000  0.75920000  1.0 0.2182452956
C  C199  1  0.75920000  0.75920000  0.46480000  1.0 0.2182452956
C  C200  1  0.46480000  0.01680000  0.75920000  1.0 0.2182452956
C  C201  1  0.01680000  0.46480000  0.75920000  1.0 0.2182452956
C  C202  1  0.01680000  0.75920000  0.46480000  1.0 0.2182452956
C  C203  1  0.75920000  0.46480000  0.75920000  1.0 0.2182452956
C  C204  1  0.46480000  0.75920000  0.01680000  1.0 0.2182452956
C  C205  1  0.98320000  0.24080000  0.53520000  1.0 0.2182452956
C  C206  1  0.24080000  0.53520000  0.24080000  1.0 0.2182452956
C  C207  1  0.53520000  0.24080000  0.98320000  1.0 0.2182452956
C  C208  1  0.53520000  0.98320000  0.24080000  1.0 0.2182452956
C  C209  1  0.24080000  0.24080000  0.53520000  1.0 0.2182452956
C  C210  1  0.98320000  0.53520000  0.24080000  1.0 0.2182452956
C  C211  1  0.24080000  0.53520000  0.98320000  1.0 0.2182452956
C  C212  1  0.53520000  0.24080000  0.24080000  1.0 0.2182452956
C  C213  1  0.24080000  0.98320000  0.53520000  1.0 0.2182452956
C  C214  1  0.01680000  0.75920000  0.75920000  1.0 0.2182452956
C  C215  1  0.75920000  0.75920000  0.01680000  1.0 0.2182452956
C  C216  1  0.75920000  0.01680000  0.75920000  1.0 0.2182452956
N  N1  1  0.26030000  0.01090000  0.18990000  1.0 -0.2007589298
N  N2  1  0.18990000  0.26030000  0.01090000  1.0 -0.2007589298
N  N3  1  0.01090000  0.18990000  0.26030000  1.0 -0.2007589298
N  N4  1  0.73970000  0.98910000  0.46110000  1.0 -0.2007589298
N  N5  1  0.81010000  0.46110000  0.98910000  1.0 -0.2007589298
N  N6  1  0.46110000  0.81010000  0.73970000  1.0 -0.2007589298
N  N7  1  0.81010000  0.73970000  0.46110000  1.0 -0.2007589298
N  N8  1  0.46110000  0.98910000  0.81010000  1.0 -0.2007589298
N  N9  1  0.98910000  0.46110000  0.73970000  1.0 -0.2007589298
N  N10  1  0.98910000  0.81010000  0.46110000  1.0 -0.2007589298
N  N11  1  0.73970000  0.46110000  0.81010000  1.0 -0.2007589298
N  N12  1  0.46110000  0.73970000  0.98910000  1.0 -0.2007589298
N  N13  1  0.01090000  0.26030000  0.53890000  1.0 -0.2007589298
N  N14  1  0.18990000  0.53890000  0.26030000  1.0 -0.2007589298
N  N15  1  0.53890000  0.18990000  0.01090000  1.0 -0.2007589298
N  N16  1  0.53890000  0.01090000  0.26030000  1.0 -0.2050838305
N  N17  1  0.26030000  0.18990000  0.53890000  1.0 -0.2007589298
N  N18  1  0.01090000  0.53890000  0.18990000  1.0 -0.2007589298
N  N19  1  0.26030000  0.53890000  0.01090000  1.0 -0.2007589298
N  N20  1  0.53890000  0.26030000  0.18990000  1.0 -0.2007589298
N  N21  1  0.18990000  0.01090000  0.53890000  1.0 -0.2007589298
N  N22  1  0.98910000  0.73970000  0.81010000  1.0 -0.2007589298
N  N23  1  0.73970000  0.81010000  0.98910000  1.0 -0.2007589298
N  N24  1  0.81010000  0.98910000  0.73970000  1.0 -0.2007589298
N  N25  1  0.73970000  0.98910000  0.81010000  1.0 -0.2007589298
N  N26  1  0.81010000  0.73970000  0.98910000  1.0 -0.2007589298
N  N27  1  0.98910000  0.81010000  0.73970000  1.0 -0.2007589298
N  N28  1  0.26030000  0.01090000  0.53890000  1.0 -0.2007589298
N  N29  1  0.18990000  0.53890000  0.01090000  1.0 -0.2007589298
N  N30  1  0.53890000  0.18990000  0.26030000  1.0 -0.2007589298
N  N31  1  0.18990000  0.26030000  0.53890000  1.0 -0.2007589298
N  N32  1  0.53890000  0.01090000  0.18990000  1.0 -0.2007589298
N  N33  1  0.01090000  0.53890000  0.26030000  1.0 -0.2007589298
N  N34  1  0.01090000  0.18990000  0.53890000  1.0 -0.2007589298
N  N35  1  0.26030000  0.53890000  0.18990000  1.0 -0.2007589298
N  N36  1  0.53890000  0.26030000  0.01090000  1.0 -0.2007589298
N  N37  1  0.98910000  0.73970000  0.46110000  1.0 -0.2007589298
N  N38  1  0.81010000  0.46110000  0.73970000  1.0 -0.2007589298
N  N39  1  0.46110000  0.81010000  0.98910000  1.0 -0.2007589298
N  N40  1  0.46110000  0.98910000  0.73970000  1.0 -0.2007589298
N  N41  1  0.73970000  0.81010000  0.46110000  1.0 -0.2007589298
N  N42  1  0.98910000  0.46110000  0.81010000  1.0 -0.2007589298
N  N43  1  0.73970000  0.46110000  0.98910000  1.0 -0.2007589298
N  N44  1  0.46110000  0.73970000  0.81010000  1.0 -0.2007589298
N  N45  1  0.81010000  0.98910000  0.46110000  1.0 -0.2007589298
N  N46  1  0.01090000  0.26030000  0.18990000  1.0 -0.2007589298
N  N47  1  0.26030000  0.18990000  0.01090000  1.0 -0.2007589298
N  N48  1  0.18990000  0.01090000  0.26030000  1.0 -0.2007589298
N  N49  1  0.22320000  0.05760000  0.18140000  1.0 -0.081304038
N  N50  1  0.18140000  0.22320000  0.05760000  1.0 -0.081304038
N  N51  1  0.05760000  0.18140000  0.22320000  1.0 -0.081304038
N  N52  1  0.77680000  0.94240000  0.46220000  1.0 -0.081304038
N  N53  1  0.81860000  0.46220000  0.94240000  1.0 -0.081304038
N  N54  1  0.46220000  0.81860000  0.77680000  1.0 -0.081304038
N  N55  1  0.81860000  0.77680000  0.46220000  1.0 -0.081304038
N  N56  1  0.46220000  0.94240000  0.81860000  1.0 -0.081304038
N  N57  1  0.94240000  0.46220000  0.77680000  1.0 -0.081304038
N  N58  1  0.94240000  0.81860000  0.46220000  1.0 -0.081304038
N  N59  1  0.77680000  0.46220000  0.81860000  1.0 -0.081304038
N  N60  1  0.46220000  0.77680000  0.94240000  1.0 -0.081304038
N  N61  1  0.05760000  0.22320000  0.53780000  1.0 -0.081304038
N  N62  1  0.18140000  0.53780000  0.22320000  1.0 -0.081304038
N  N63  1  0.53780000  0.18140000  0.05760000  1.0 -0.081304038
N  N64  1  0.53780000  0.05760000  0.22320000  1.0 -0.081304038
N  N65  1  0.22320000  0.18140000  0.53780000  1.0 -0.081304038
N  N66  1  0.05760000  0.53780000  0.18140000  1.0 -0.081304038
N  N67  1  0.22320000  0.53780000  0.05760000  1.0 -0.081304038
N  N68  1  0.53780000  0.22320000  0.18140000  1.0 -0.081304038
N  N69  1  0.18140000  0.05760000  0.53780000  1.0 -0.081304038
N  N70  1  0.94240000  0.77680000  0.81860000  1.0 -0.081304038
N  N71  1  0.77680000  0.81860000  0.94240000  1.0 -0.081304038
N  N72  1  0.81860000  0.94240000  0.77680000  1.0 -0.081304038
N  N73  1  0.77680000  0.94240000  0.81860000  1.0 -0.081304038
N  N74  1  0.81860000  0.77680000  0.94240000  1.0 -0.081304038
N  N75  1  0.94240000  0.81860000  0.77680000  1.0 -0.081304038
N  N76  1  0.22320000  0.05760000  0.53780000  1.0 -0.081304038
N  N77  1  0.18140000  0.53780000  0.05760000  1.0 -0.081304038
N  N78  1  0.53780000  0.18140000  0.22320000  1.0 -0.081304038
N  N79  1  0.18140000  0.22320000  0.53780000  1.0 -0.081304038
N  N80  1  0.53780000  0.05760000  0.18140000  1.0 -0.081304038
N  N81  1  0.05760000  0.53780000  0.22320000  1.0 -0.081304038
N  N82  1  0.05760000  0.18140000  0.53780000  1.0 -0.081304038
N  N83  1  0.22320000  0.53780000  0.18140000  1.0 -0.081304038
N  N84  1  0.53780000  0.22320000  0.05760000  1.0 -0.081304038
N  N85  1  0.94240000  0.77680000  0.46220000  1.0 -0.081304038
N  N86  1  0.81860000  0.46220000  0.77680000  1.0 -0.081304038
N  N87  1  0.46220000  0.81860000  0.94240000  1.0 -0.081304038
N  N88  1  0.46220000  0.94240000  0.77680000  1.0 -0.081304038
N  N89  1  0.77680000  0.81860000  0.46220000  1.0 -0.081304038
N  N90  1  0.94240000  0.46220000  0.81860000  1.0 -0.081304038
N  N91  1  0.77680000  0.46220000  0.94240000  1.0 -0.081304038
N  N92  1  0.46220000  0.77680000  0.81860000  1.0 -0.081304038
N  N93  1  0.81860000  0.94240000  0.46220000  1.0 -0.081304038
N  N94  1  0.05760000  0.22320000  0.18140000  1.0 -0.081304038
N  N95  1  0.22320000  0.18140000  0.05760000  1.0 -0.081304038
N  N96  1  0.18140000  0.05760000  0.22320000  1.0 -0.081304038
N  N97  1  0.56240000  0.56240000  0.56240000  1.0 0.6200956271
N  N98  1  0.43760000  0.68720000  0.43760000  1.0 0.6200956271
N  N99  1  0.43760000  0.43760000  0.68720000  1.0 0.6200956271
N  N100  1  0.43760000  0.43760000  0.43760000  1.0 0.6200956271
N  N101  1  0.68720000  0.43760000  0.43760000  1.0 0.6200956271
N  N102  1  0.56240000  0.56240000  0.31280000  1.0 0.6200956271
N  N103  1  0.56240000  0.31280000  0.56240000  1.0 0.6200956271
N  N104  1  0.31280000  0.56240000  0.56240000  1.0 0.6200956271
O  O1  1  0.05470000  0.05470000  0.37770000  1.0 -0.2909349824
O  O2  1  0.37770000  0.05470000  0.05470000  1.0 -0.2986168536
O  O3  1  0.05470000  0.37770000  0.05470000  1.0 -0.2986168536
O  O4  1  0.94530000  0.94530000  0.48710000  1.0 -0.2986168536
O  O5  1  0.62230000  0.48710000  0.94530000  1.0 -0.2986168536
O  O6  1  0.48710000  0.62230000  0.94530000  1.0 -0.2909349824
O  O7  1  0.62230000  0.94530000  0.48710000  1.0 -0.2986168536
O  O8  1  0.48710000  0.94530000  0.62230000  1.0 -0.2909349824
O  O9  1  0.94530000  0.48710000  0.94530000  1.0 -0.2909349824
O  O10  1  0.94530000  0.62230000  0.48710000  1.0 -0.2986168536
O  O11  1  0.94530000  0.48710000  0.62230000  1.0 -0.2909349824
O  O12  1  0.48710000  0.94530000  0.94530000  1.0 -0.2909349824
O  O13  1  0.05470000  0.05470000  0.51290000  1.0 -0.2986168536
O  O14  1  0.37770000  0.51290000  0.05470000  1.0 -0.2986168536
O  O15  1  0.51290000  0.37770000  0.05470000  1.0 -0.2986168536
O  O16  1  0.51290000  0.05470000  0.05470000  1.0 -0.2986168536
O  O17  1  0.05470000  0.37770000  0.51290000  1.0 -0.2909349824
O  O18  1  0.05470000  0.51290000  0.37770000  1.0 -0.2986168536
O  O19  1  0.05470000  0.51290000  0.05470000  1.0 -0.2909349824
O  O20  1  0.51290000  0.05470000  0.37770000  1.0 -0.2909349824
O  O21  1  0.37770000  0.05470000  0.51290000  1.0 -0.2986168536
O  O22  1  0.94530000  0.94530000  0.62230000  1.0 -0.2909349824
O  O23  1  0.94530000  0.62230000  0.94530000  1.0 -0.2986168536
O  O24  1  0.62230000  0.94530000  0.94530000  1.0 -0.2909349824
O  O25  1  0.27119000  0.79111000  0.42519000  1.0 -0.5100495762
O  O26  1  0.42519000  0.27119000  0.79111000  1.0 -0.5100495762
O  O27  1  0.79111000  0.42519000  0.27119000  1.0 -0.5100495762
O  O28  1  0.72881000  0.20889000  0.48749000  1.0 -0.5100495762
O  O29  1  0.57481000  0.48749000  0.20889000  1.0 -0.5100495762
O  O30  1  0.48749000  0.57481000  0.72881000  1.0 -0.5100495762
O  O31  1  0.57481000  0.72881000  0.48749000  1.0 -0.5100495762
O  O32  1  0.48749000  0.20889000  0.57481000  1.0 -0.5100495762
O  O33  1  0.20889000  0.48749000  0.72881000  1.0 -0.5100495762
O  O34  1  0.20889000  0.57481000  0.48749000  1.0 -0.5100495762
O  O35  1  0.72881000  0.48749000  0.57481000  1.0 -0.5100495762
O  O36  1  0.48749000  0.72881000  0.20889000  1.0 -0.5100495762
O  O37  1  0.79111000  0.27119000  0.51251000  1.0 -0.5100495762
O  O38  1  0.42519000  0.51251000  0.27119000  1.0 -0.5100495762
O  O39  1  0.51251000  0.42519000  0.79111000  1.0 -0.5100495762
O  O40  1  0.51251000  0.79111000  0.27119000  1.0 -0.5100495762
O  O41  1  0.27119000  0.42519000  0.51251000  1.0 -0.5100495762
O  O42  1  0.79111000  0.51251000  0.42519000  1.0 -0.5100495762
O  O43  1  0.27119000  0.51251000  0.79111000  1.0 -0.5100495762
O  O44  1  0.51251000  0.27119000  0.42519000  1.0 -0.5100495762
O  O45  1  0.42519000  0.79111000  0.51251000  1.0 -0.5100495762
O  O46  1  0.20889000  0.72881000  0.57481000  1.0 -0.5100495762
O  O47  1  0.72881000  0.57481000  0.20889000  1.0 -0.5100495762
O  O48  1  0.57481000  0.20889000  0.72881000  1.0 -0.5100495762
O  O49  1  0.72881000  0.20889000  0.57481000  1.0 -0.5100495762
O  O50  1  0.57481000  0.72881000  0.20889000  1.0 -0.5100495762
O  O51  1  0.20889000  0.57481000  0.72881000  1.0 -0.5100495762
O  O52  1  0.27119000  0.79111000  0.51251000  1.0 -0.5100495762
O  O53  1  0.42519000  0.51251000  0.79111000  1.0 -0.5100495762
O  O54  1  0.51251000  0.42519000  0.27119000  1.0 -0.5100495762
O  O55  1  0.42519000  0.27119000  0.51251000  1.0 -0.5100495762
O  O56  1  0.51251000  0.79111000  0.42519000  1.0 -0.5100495762
O  O57  1  0.79111000  0.51251000  0.27119000  1.0 -0.5100495762
O  O58  1  0.79111000  0.42519000  0.51251000  1.0 -0.5100495762
O  O59  1  0.27119000  0.51251000  0.42519000  1.0 -0.5100495762
O  O60  1  0.51251000  0.27119000  0.79111000  1.0 -0.5100495762
O  O61  1  0.20889000  0.72881000  0.48749000  1.0 -0.5100495762
O  O62  1  0.57481000  0.48749000  0.72881000  1.0 -0.5100495762
O  O63  1  0.48749000  0.57481000  0.20889000  1.0 -0.5100495762
O  O64  1  0.48749000  0.20889000  0.72881000  1.0 -0.5100495762
O  O65  1  0.72881000  0.57481000  0.48749000  1.0 -0.5100495762
O  O66  1  0.20889000  0.48749000  0.57481000  1.0 -0.5100495762
O  O67  1  0.72881000  0.48749000  0.20889000  1.0 -0.5100495762
O  O68  1  0.48749000  0.72881000  0.57481000  1.0 -0.5100495762
O  O69  1  0.57481000  0.20889000  0.48749000  1.0 -0.5100495762
O  O70  1  0.79111000  0.27119000  0.42519000  1.0 -0.5100495762
O  O71  1  0.27119000  0.42519000  0.79111000  1.0 -0.5100495762
O  O72  1  0.42519000  0.79111000  0.27119000  1.0 -0.5100495762
O  O73  1  0.20006000  0.86172000  0.42544000  1.0 -0.5235590197
O  O74  1  0.42544000  0.20006000  0.86172000  1.0 -0.5235590197
O  O75  1  0.86172000  0.42544000  0.20006000  1.0 -0.5235590197
O  O76  1  0.79994000  0.13828000  0.48722000  1.0 -0.5235590197
O  O77  1  0.57456000  0.48722000  0.13828000  1.0 -0.5235590197
O  O78  1  0.48722000  0.57456000  0.79994000  1.0 -0.5235590197
O  O79  1  0.57456000  0.79994000  0.48722000  1.0 -0.5235590197
O  O80  1  0.48722000  0.13828000  0.57456000  1.0 -0.5250570907
O  O81  1  0.13828000  0.48722000  0.79994000  1.0 -0.5250570907
O  O82  1  0.13828000  0.57456000  0.48722000  1.0 -0.5235590197
O  O83  1  0.79994000  0.48722000  0.57456000  1.0 -0.5235590197
O  O84  1  0.48722000  0.79994000  0.13828000  1.0 -0.5235590197
O  O85  1  0.86172000  0.20006000  0.51278000  1.0 -0.5235590197
O  O86  1  0.42544000  0.51278000  0.20006000  1.0 -0.5235590197
O  O87  1  0.51278000  0.42544000  0.86172000  1.0 -0.5235590197
O  O88  1  0.51278000  0.86172000  0.20006000  1.0 -0.5235590197
O  O89  1  0.20006000  0.42544000  0.51278000  1.0 -0.5250570907
O  O90  1  0.86172000  0.51278000  0.42544000  1.0 -0.5235590197
O  O91  1  0.20006000  0.51278000  0.86172000  1.0 -0.5250570907
O  O92  1  0.51278000  0.20006000  0.42544000  1.0 -0.5235590197
O  O93  1  0.42544000  0.86172000  0.51278000  1.0 -0.5235590197
O  O94  1  0.13828000  0.79994000  0.57456000  1.0 -0.5235590197
O  O95  1  0.79994000  0.57456000  0.13828000  1.0 -0.5235590197
O  O96  1  0.57456000  0.13828000  0.79994000  1.0 -0.5250570907
O  O97  1  0.79994000  0.13828000  0.57456000  1.0 -0.5250570907
O  O98  1  0.57456000  0.79994000  0.13828000  1.0 -0.5235590197
O  O99  1  0.13828000  0.57456000  0.79994000  1.0 -0.5235590197
O  O100  1  0.20006000  0.86172000  0.51278000  1.0 -0.5235590197
O  O101  1  0.42544000  0.51278000  0.86172000  1.0 -0.5235590197
O  O102  1  0.51278000  0.42544000  0.20006000  1.0 -0.5235590197
O  O103  1  0.42544000  0.20006000  0.51278000  1.0 -0.5250570907
O  O104  1  0.51278000  0.86172000  0.42544000  1.0 -0.5235590197
O  O105  1  0.86172000  0.51278000  0.20006000  1.0 -0.5235590197
O  O106  1  0.86172000  0.42544000  0.51278000  1.0 -0.5235590197
O  O107  1  0.20006000  0.51278000  0.42544000  1.0 -0.5250570907
O  O108  1  0.51278000  0.20006000  0.86172000  1.0 -0.5235590197
O  O109  1  0.13828000  0.79994000  0.48722000  1.0 -0.5235590197
O  O110  1  0.57456000  0.48722000  0.79994000  1.0 -0.5235590197
O  O111  1  0.48722000  0.57456000  0.13828000  1.0 -0.5235590197
O  O112  1  0.48722000  0.13828000  0.79994000  1.0 -0.5235590197
O  O113  1  0.79994000  0.57456000  0.48722000  1.0 -0.5235590197
O  O114  1  0.13828000  0.48722000  0.57456000  1.0 -0.5250570907
O  O115  1  0.79994000  0.48722000  0.13828000  1.0 -0.5235590197
O  O116  1  0.48722000  0.79994000  0.57456000  1.0 -0.5235590197
O  O117  1  0.57456000  0.13828000  0.48722000  1.0 -0.5250570907
O  O118  1  0.86172000  0.20006000  0.42544000  1.0 -0.5250570907
O  O119  1  0.20006000  0.42544000  0.86172000  1.0 -0.5235590197
O  O120  1  0.42544000  0.86172000  0.20006000  1.0 -0.5235590197
O  O121  1  0.09440000  0.90560000  0.50000000  1.0 -0.1916534331
O  O122  1  0.50000000  0.09440000  0.90560000  1.0 -0.1916534331
O  O123  1  0.90560000  0.50000000  0.09440000  1.0 -0.1916534331
O  O124  1  0.90560000  0.09440000  0.50000000  1.0 -0.1916534331
O  O125  1  0.50000000  0.50000000  0.09440000  1.0 -0.1916534331
O  O126  1  0.50000000  0.50000000  0.90560000  1.0 -0.1916534331
O  O127  1  0.50000000  0.90560000  0.50000000  1.0 -0.2007589298
O  O128  1  0.50000000  0.09440000  0.50000000  1.0 -0.2007589298
O  O129  1  0.09440000  0.50000000  0.90560000  1.0 -0.1916534331
O  O130  1  0.09440000  0.50000000  0.50000000  1.0 -0.2050838305
O  O131  1  0.90560000  0.50000000  0.50000000  1.0 -0.2007589298
O  O132  1  0.50000000  0.90560000  0.09440000  1.0 -0.2007589298
O  O133  1  0.31420000  0.68580000  0.50000000  1.0 0.1477452891
O  O134  1  0.50000000  0.31420000  0.68580000  1.0 0.1477452891
O  O135  1  0.68580000  0.50000000  0.31420000  1.0 0.1477452891
O  O136  1  0.68580000  0.31420000  0.50000000  1.0 0.1477452891
O  O137  1  0.50000000  0.50000000  0.31420000  1.0 0.1393731168
O  O138  1  0.50000000  0.50000000  0.68580000  1.0 0.1477452891
O  O139  1  0.50000000  0.68580000  0.50000000  1.0 0.1477452891
O  O140  1  0.50000000  0.31420000  0.50000000  1.0 0.1477452891
O  O141  1  0.31420000  0.50000000  0.68580000  1.0 0.1477452891
O  O142  1  0.31420000  0.50000000  0.50000000  1.0 0.1477452891
O  O143  1  0.68580000  0.50000000  0.50000000  1.0 0.1477452891
O  O144  1  0.50000000  0.68580000  0.31420000  1.0 0.1393731168
O  O145  1  0.14880000  0.14880000  0.14880000  1.0 -0.7787343098
O  O146  1  0.85120000  0.85120000  0.44640000  1.0 -0.7787343098
O  O147  1  0.85120000  0.44640000  0.85120000  1.0 -0.7787343098
O  O148  1  0.44640000  0.85120000  0.85120000  1.0 -0.7787343098
O  O149  1  0.14880000  0.14880000  0.55360000  1.0 -0.7787343098
O  O150  1  0.14880000  0.55360000  0.14880000  1.0 -0.7787343098
O  O151  1  0.55360000  0.14880000  0.14880000  1.0 -0.7787343098
O  O152  1  0.85120000  0.85120000  0.85120000  1.0 -0.7787343098
O  O153  1  0.30490000  0.09310000  0.09310000  1.0 0.0319941768
O  O154  1  0.09310000  0.30490000  0.09310000  1.0 0.0405364314
O  O155  1  0.09310000  0.09310000  0.30490000  1.0 0.0405364314
O  O156  1  0.69510000  0.90690000  0.49110000  1.0 0.0405364314
O  O157  1  0.90690000  0.49110000  0.90690000  1.0 0.0319941768
O  O158  1  0.49110000  0.90690000  0.69510000  1.0 0.0405364314
O  O159  1  0.90690000  0.69510000  0.49110000  1.0 0.0405364314
O  O160  1  0.49110000  0.90690000  0.90690000  1.0 0.0498258301
O  O161  1  0.90690000  0.49110000  0.69510000  1.0 0.0405364314
O  O162  1  0.90690000  0.90690000  0.49110000  1.0 0.0405364314
O  O163  1  0.69510000  0.49110000  0.90690000  1.0 0.0405364314
O  O164  1  0.49110000  0.69510000  0.90690000  1.0 0.0405364314
O  O165  1  0.09310000  0.30490000  0.50890000  1.0 0.0405364314
O  O166  1  0.09310000  0.50890000  0.30490000  1.0 0.0405364314
O  O167  1  0.50890000  0.09310000  0.09310000  1.0 0.0405364314
O  O168  1  0.50890000  0.09310000  0.30490000  1.0 0.0555874647
O  O169  1  0.30490000  0.09310000  0.50890000  1.0 0.0405364314
O  O170  1  0.09310000  0.50890000  0.09310000  1.0 0.0405364314
O  O171  1  0.30490000  0.50890000  0.09310000  1.0 0.0405364314
O  O172  1  0.50890000  0.30490000  0.09310000  1.0 0.0319941768
O  O173  1  0.09310000  0.09310000  0.50890000  1.0 0.0405364314
O  O174  1  0.90690000  0.69510000  0.90690000  1.0 0.0405364314
O  O175  1  0.69510000  0.90690000  0.90690000  1.0 0.0405364314
O  O176  1  0.90690000  0.90690000  0.69510000  1.0 0.0405364314
O  O177  1  0.26130000  0.06710000  0.06710000  1.0 0.231074755
O  O178  1  0.06710000  0.26130000  0.06710000  1.0 0.242131585
O  O179  1  0.06710000  0.06710000  0.26130000  1.0 0.231074755
O  O180  1  0.73870000  0.93290000  0.39550000  1.0 0.242131585
O  O181  1  0.93290000  0.39550000  0.93290000  1.0 0.231074755
O  O182  1  0.39550000  0.93290000  0.73870000  1.0 0.242131585
O  O183  1  0.93290000  0.73870000  0.39550000  1.0 0.2520379441
O  O184  1  0.39550000  0.93290000  0.93290000  1.0 0.242131585
O  O185  1  0.93290000  0.39550000  0.73870000  1.0 0.231074755
O  O186  1  0.93290000  0.93290000  0.39550000  1.0 0.242131585
O  O187  1  0.73870000  0.39550000  0.93290000  1.0 0.2520379441
O  O188  1  0.39550000  0.73870000  0.93290000  1.0 0.231074755
O  O189  1  0.06710000  0.26130000  0.60450000  1.0 0.242131585
O  O190  1  0.06710000  0.60450000  0.26130000  1.0 0.231074755
O  O191  1  0.60450000  0.06710000  0.06710000  1.0 0.242131585
O  O192  1  0.60450000  0.06710000  0.26130000  1.0 0.242131585
O  O193  1  0.26130000  0.06710000  0.60450000  1.0 0.231074755
O  O194  1  0.06710000  0.60450000  0.06710000  1.0 0.242131585
O  O195  1  0.26130000  0.60450000  0.06710000  1.0 0.231074755
O  O196  1  0.60450000  0.26130000  0.06710000  1.0 0.242131585
O  O197  1  0.06710000  0.06710000  0.60450000  1.0 0.242131585
O  O198  1  0.93290000  0.73870000  0.93290000  1.0 0.231074755
O  O199  1  0.73870000  0.93290000  0.93290000  1.0 0.231074755
O  O200  1  0.93290000  0.93290000  0.73870000  1.0 0.242131585
O  O201  1  0.24610000  0.13830000  0.13830000  1.0 -0.4921215336
O  O202  1  0.13830000  0.24610000  0.13830000  1.0 -0.4921215336
O  O203  1  0.13830000  0.13830000  0.24610000  1.0 -0.4921215336
O  O204  1  0.75390000  0.86170000  0.52270000  1.0 -0.4921215336
O  O205  1  0.86170000  0.52270000  0.86170000  1.0 -0.4921215336
O  O206  1  0.52270000  0.86170000  0.75390000  1.0 -0.4921215336
O  O207  1  0.86170000  0.75390000  0.52270000  1.0 -0.4921215336
O  O208  1  0.52270000  0.86170000  0.86170000  1.0 -0.4961959256
O  O209  1  0.86170000  0.52270000  0.75390000  1.0 -0.4921215336
O  O210  1  0.86170000  0.86170000  0.52270000  1.0 -0.4921215336
O  O211  1  0.75390000  0.52270000  0.86170000  1.0 -0.4921215336
O  O212  1  0.52270000  0.75390000  0.86170000  1.0 -0.4921215336
O  O213  1  0.13830000  0.24610000  0.47730000  1.0 -0.4921215336
O  O214  1  0.13830000  0.47730000  0.24610000  1.0 -0.4921215336
O  O215  1  0.47730000  0.13830000  0.13830000  1.0 -0.4921215336
O  O216  1  0.47730000  0.13830000  0.24610000  1.0 -0.4961959256
O  O217  1  0.24610000  0.13830000  0.47730000  1.0 -0.4921215336
O  O218  1  0.13830000  0.47730000  0.13830000  1.0 -0.4921215336
O  O219  1  0.24610000  0.47730000  0.13830000  1.0 -0.4921215336
O  O220  1  0.47730000  0.24610000  0.13830000  1.0 -0.4921215336
O  O221  1  0.13830000  0.13830000  0.47730000  1.0 -0.4921215336
O  O222  1  0.86170000  0.75390000  0.86170000  1.0 -0.4921215336
O  O223  1  0.75390000  0.86170000  0.86170000  1.0 -0.4921215336
O  O224  1  0.86170000  0.86170000  0.75390000  1.0 -0.4921215336
O  O225  1  0.28050000  0.07450000  0.07450000  1.0 0.2182452956
O  O226  1  0.07450000  0.28050000  0.07450000  1.0 0.2182452956
O  O227  1  0.07450000  0.07450000  0.28050000  1.0 0.2182452956
O  O228  1  0.71950000  0.92550000  0.42950000  1.0 0.2182452956
O  O229  1  0.92550000  0.42950000  0.92550000  1.0 0.209633434
O  O230  1  0.42950000  0.92550000  0.71950000  1.0 0.2182452956
O  O231  1  0.92550000  0.71950000  0.42950000  1.0 0.209633434
O  O232  1  0.42950000  0.92550000  0.92550000  1.0 0.2182452956
O  O233  1  0.92550000  0.42950000  0.71950000  1.0 0.2182452956
O  O234  1  0.92550000  0.92550000  0.42950000  1.0 0.2009135278
O  O235  1  0.71950000  0.42950000  0.92550000  1.0 0.209633434
O  O236  1  0.42950000  0.71950000  0.92550000  1.0 0.2182452956
O  O237  1  0.07450000  0.28050000  0.57050000  1.0 0.2182452956
O  O238  1  0.07450000  0.57050000  0.28050000  1.0 0.209633434
O  O239  1  0.57050000  0.07450000  0.07450000  1.0 0.209633434
O  O240  1  0.57050000  0.07450000  0.28050000  1.0 0.209633434
O  O241  1  0.28050000  0.07450000  0.57050000  1.0 0.209633434
O  O242  1  0.07450000  0.57050000  0.07450000  1.0 0.2182452956
O  O243  1  0.28050000  0.57050000  0.07450000  1.0 0.209633434
O  O244  1  0.57050000  0.28050000  0.07450000  1.0 0.2009135278
O  O245  1  0.07450000  0.07450000  0.57050000  1.0 0.2009135278
O  O246  1  0.92550000  0.71950000  0.92550000  1.0 0.2009135278
O  O247  1  0.71950000  0.92550000  0.92550000  1.0 0.2182452956
O  O248  1  0.92550000  0.92550000  0.71950000  1.0 0.2182452956
O  O249  1  0.31110000  0.07110000  0.07110000  1.0 0.3486881951
O  O250  1  0.07110000  0.31110000  0.07110000  1.0 0.3396044817
O  O251  1  0.07110000  0.07110000  0.31110000  1.0 0.3396044817
O  O252  1  0.68890000  0.92890000  0.45330000  1.0 0.3396044817
O  O253  1  0.92890000  0.45330000  0.92890000  1.0 0.3486881951
O  O254  1  0.45330000  0.92890000  0.68890000  1.0 0.3396044817
O  O255  1  0.92890000  0.68890000  0.45330000  1.0 0.3396044817
O  O256  1  0.45330000  0.92890000  0.92890000  1.0 0.3396044817
O  O257  1  0.92890000  0.45330000  0.68890000  1.0 0.3396044817
O  O258  1  0.92890000  0.92890000  0.45330000  1.0 0.3486881951
O  O259  1  0.68890000  0.45330000  0.92890000  1.0 0.3396044817
O  O260  1  0.45330000  0.68890000  0.92890000  1.0 0.3396044817
O  O261  1  0.07110000  0.31110000  0.54670000  1.0 0.3396044817
O  O262  1  0.07110000  0.54670000  0.31110000  1.0 0.3486881951
O  O263  1  0.54670000  0.07110000  0.07110000  1.0 0.3396044817
O  O264  1  0.54670000  0.07110000  0.31110000  1.0 0.3396044817
O  O265  1  0.31110000  0.07110000  0.54670000  1.0 0.3486881951
O  O266  1  0.07110000  0.54670000  0.07110000  1.0 0.3396044817
O  O267  1  0.31110000  0.54670000  0.07110000  1.0 0.3486881951
O  O268  1  0.54670000  0.31110000  0.07110000  1.0 0.3486881951
O  O269  1  0.07110000  0.07110000  0.54670000  1.0 0.3486881951
O  O270  1  0.92890000  0.68890000  0.92890000  1.0 0.3486881951
O  O271  1  0.68890000  0.92890000  0.92890000  1.0 0.3396044817
O  O272  1  0.92890000  0.92890000  0.68890000  1.0 0.3396044817
O  O273  1  0.23000000  0.06200000  0.06200000  1.0 -0.0321272784
O  O274  1  0.06200000  0.23000000  0.06200000  1.0 -0.0321272784
O  O275  1  0.06200000  0.06200000  0.23000000  1.0 -0.0321272784
O  O276  1  0.77000000  0.93800000  0.35400000  1.0 -0.0321272784
O  O277  1  0.93800000  0.35400000  0.93800000  1.0 -0.0321272784
O  O278  1  0.35400000  0.93800000  0.77000000  1.0 -0.0321272784
O  O279  1  0.93800000  0.77000000  0.35400000  1.0 -0.0321272784
O  O280  1  0.35400000  0.93800000  0.93800000  1.0 -0.0321272784
O  O281  1  0.93800000  0.35400000  0.77000000  1.0 -0.0321272784
O  O282  1  0.93800000  0.93800000  0.35400000  1.0 -0.0321272784
O  O283  1  0.77000000  0.35400000  0.93800000  1.0 -0.0321272784
O  O284  1  0.35400000  0.77000000  0.93800000  1.0 -0.0321272784
O  O285  1  0.06200000  0.23000000  0.64600000  1.0 -0.035994204
O  O286  1  0.06200000  0.64600000  0.23000000  1.0 -0.0321272784
O  O287  1  0.64600000  0.06200000  0.06200000  1.0 -0.0321272784
O  O288  1  0.64600000  0.06200000  0.23000000  1.0 -0.0321272784
O  O289  1  0.23000000  0.06200000  0.64600000  1.0 -0.0321272784
O  O290  1  0.06200000  0.64600000  0.06200000  1.0 -0.0321272784
O  O291  1  0.23000000  0.64600000  0.06200000  1.0 -0.0321272784
O  O292  1  0.64600000  0.23000000  0.06200000  1.0 -0.0321272784
O  O293  1  0.06200000  0.06200000  0.64600000  1.0 -0.0321272784
O  O294  1  0.93800000  0.77000000  0.93800000  1.0 -0.0321272784
O  O295  1  0.77000000  0.93800000  0.93800000  1.0 -0.0321272784
O  O296  1  0.93800000  0.93800000  0.77000000  1.0 -0.0321272784
O  O297  1  0.58540000  0.51640000  0.58540000  1.0 -0.3435108481
O  O298  1  0.58540000  0.58540000  0.51640000  1.0 -0.3435108481
O  O299  1  0.51640000  0.58540000  0.58540000  1.0 -0.3435108481
O  O300  1  0.48360000  0.68720000  0.41460000  1.0 -0.3435108481
O  O301  1  0.41460000  0.68720000  0.41460000  1.0 -0.3435108481
O  O302  1  0.41460000  0.68720000  0.48360000  1.0 -0.3435108481
O  O303  1  0.41460000  0.48360000  0.68720000  1.0 -0.3435108481
O  O304  1  0.41460000  0.41460000  0.68720000  1.0 -0.3435108481
O  O305  1  0.48360000  0.41460000  0.68720000  1.0 -0.3435108481
O  O306  1  0.48360000  0.41460000  0.41460000  1.0 -0.3435108481
O  O307  1  0.41460000  0.41460000  0.48360000  1.0 -0.3435108481
O  O308  1  0.41460000  0.48360000  0.41460000  1.0 -0.3435108481
O  O309  1  0.68720000  0.41460000  0.41460000  1.0 -0.3435108481
O  O310  1  0.68720000  0.41460000  0.48360000  1.0 -0.3452241256
O  O311  1  0.68720000  0.48360000  0.41460000  1.0 -0.3452241256
O  O312  1  0.58540000  0.51640000  0.31280000  1.0 -0.3435108481
O  O313  1  0.51640000  0.58540000  0.31280000  1.0 -0.3435108481
O  O314  1  0.58540000  0.58540000  0.31280000  1.0 -0.3435108481
O  O315  1  0.51640000  0.31280000  0.58540000  1.0 -0.3435108481
O  O316  1  0.58540000  0.31280000  0.58540000  1.0 -0.3435108481
O  O317  1  0.58540000  0.31280000  0.51640000  1.0 -0.3435108481
O  O318  1  0.31280000  0.58540000  0.51640000  1.0 -0.3452241256
O  O319  1  0.31280000  0.51640000  0.58540000  1.0 -0.3452241256
O  O320  1  0.31280000  0.58540000  0.58540000  1.0 -0.3452241256
