# DDEC6 charges by PACMAN v1.1 (https://github.com/mtap-research/PACMAN-charge/)
data_LODPOK_FSR_pacman
_symmetry_space_group_name_H-M   'P 1'
_cell_length_a   26.95030000
_cell_length_b   26.95030000
_cell_length_c   26.95030000
_cell_angle_alpha   129.08400000
_cell_angle_beta   129.08400000
_cell_angle_gamma   74.87490000
_symmetry_Int_Tables_number   1
_chemical_formula_structural   Co5H40C84(N17O2)2
_chemical_formula_sum   'Co20 H160 C336 N136 O16'
_cell_volume   11487.17942010
_cell_formula_units_Z   4
loop_
 _symmetry_equiv_pos_site_id
 _symmetry_equiv_pos_as_xyz
  1  'x, y, z'
loop_
 _atom_site_type_symbol
 _atom_site_label
 _atom_site_symmetry_multiplicity
 _atom_site_fract_x
 _atom_site_fract_y
 _atom_site_fract_z
 _atom_site_occupancy
 _atom_site_charge
Co  Co1  1  0.43229000  0.78222000  0.61437000  1.0 0.775803713
Co  Co2  1  0.16785000  0.81792000  0.38563000  1.0 0.775803713
Co  Co3  1  0.53222000  0.41785000  0.84993000  1.0 0.775803713
Co  Co4  1  0.56792000  0.68229000  0.15007000  1.0 0.775803713
Co  Co5  1  0.31771000  0.46778000  0.88563000  1.0 0.775803713
Co  Co6  1  0.58215000  0.43208000  0.11437000  1.0 0.775803713
Co  Co7  1  0.21778000  0.83215000  0.65007000  1.0 0.775803713
Co  Co8  1  0.18208000  0.56771000  0.34993000  1.0 0.775803713
Co  Co9  1  0.25000000  0.75000000  0.50000000  1.0 0.3629517535
Co  Co10  1  0.50000000  0.50000000  0.00000000  1.0 0.3654730449
Co  Co11  1  0.68208000  0.33215000  0.61437000  1.0 0.775803713
Co  Co12  1  0.08215000  0.96778000  0.15007000  1.0 0.775803713
Co  Co13  1  0.81771000  0.93208000  0.84993000  1.0 0.775803713
Co  Co14  1  0.71778000  0.06771000  0.38563000  1.0 0.775803713
Co  Co15  1  0.06792000  0.91785000  0.88563000  1.0 0.775803713
Co  Co16  1  0.66785000  0.28222000  0.34993000  1.0 0.775803713
Co  Co17  1  0.93229000  0.31792000  0.65007000  1.0 0.775803713
Co  Co18  1  0.03222000  0.18229000  0.11437000  1.0 0.775803713
Co  Co19  1  0.75000000  0.25000000  0.50000000  1.0 0.3629517535
Co  Co20  1  0.00000000  0.00000000  0.00000000  1.0 0.3654730449
H  H1  1  0.51830000  0.86600000  0.81250000  1.0 0.1388248849
H  H2  1  0.05350000  0.70580000  0.18750000  1.0 0.1388248849
H  H3  1  0.61600000  0.30350000  0.84770000  1.0 0.1388248849
H  H4  1  0.45580000  0.76830000  0.15230000  1.0 0.1388248849
H  H5  1  0.23170000  0.38400000  0.68750000  1.0 0.1388248849
H  H6  1  0.69650000  0.54420000  0.31250000  1.0 0.1388248849
H  H7  1  0.13400000  0.94650000  0.65230000  1.0 0.1388248849
H  H8  1  0.29420000  0.48170000  0.34770000  1.0 0.1388248849
H  H9  1  0.54420000  0.92430000  0.93750000  1.0 0.1152054052
H  H10  1  0.98680000  0.60670000  0.06250000  1.0 0.1152054052
H  H11  1  0.67430000  0.23680000  0.88010000  1.0 0.1152054052
H  H12  1  0.35670000  0.79420000  0.11990000  1.0 0.1152054052
H  H13  1  0.20580000  0.32570000  0.56250000  1.0 0.1152054052
H  H14  1  0.76320000  0.64330000  0.43750000  1.0 0.1152054052
H  H15  1  0.07570000  0.01320000  0.61990000  1.0 0.1152054052
H  H16  1  0.39330000  0.45580000  0.38010000  1.0 0.1152054052
H  H17  1  0.46380000  0.94760000  0.95280000  1.0 0.1104428392
H  H18  1  0.99480000  0.51100000  0.04720000  1.0 0.1104428392
H  H19  1  0.69760000  0.24480000  0.98380000  1.0 0.1104428392
H  H20  1  0.26100000  0.71380000  0.01620000  1.0 0.1104428392
H  H21  1  0.28620000  0.30240000  0.54720000  1.0 0.1104428392
H  H22  1  0.75520000  0.73900000  0.45280000  1.0 0.1104428392
H  H23  1  0.05240000  0.00520000  0.51620000  1.0 0.1104428392
H  H24  1  0.48900000  0.53620000  0.48380000  1.0 0.1104428392
H  H25  1  0.35270000  0.91130000  0.84040000  1.0 0.1388248849
H  H26  1  0.07090000  0.51230000  0.15960000  1.0 0.1388248849
H  H27  1  0.66130000  0.32090000  0.05860000  1.0 0.1388248849
H  H28  1  0.26230000  0.60270000  0.94140000  1.0 0.1388248849
H  H29  1  0.39730000  0.33870000  0.65960000  1.0 0.1388248849
H  H30  1  0.67910000  0.73770000  0.34040000  1.0 0.1388248849
H  H31  1  0.08870000  0.92910000  0.44140000  1.0 0.1388248849
H  H32  1  0.48770000  0.64730000  0.55860000  1.0 0.1388248849
H  H33  1  0.47830000  0.86480000  0.58850000  1.0 0.1314142882
H  H34  1  0.27630000  0.88980000  0.41150000  1.0 0.1314142882
H  H35  1  0.61480000  0.52630000  0.88650000  1.0 0.1314142882
H  H36  1  0.63980000  0.72830000  0.11350000  1.0 0.1314142882
H  H37  1  0.27170000  0.38520000  0.91150000  1.0 0.1314142882
H  H38  1  0.47370000  0.36020000  0.08850000  1.0 0.1314142882
H  H39  1  0.13520000  0.72370000  0.61350000  1.0 0.1314142882
H  H40  1  0.11020000  0.52170000  0.38650000  1.0 0.1314142882
H  H41  1  0.47320000  0.91660000  0.54280000  1.0 0.1314142882
H  H42  1  0.37380000  0.93040000  0.45720000  1.0 0.1314142882
H  H43  1  0.66666667  0.62380000  0.94340000  1.0 0.1314142882
H  H44  1  0.68040000  0.72320000  0.05660000  1.0 0.1314142882
H  H45  1  0.27680000  0.33340000  0.95720000  1.0 0.1314142882
H  H46  1  0.37620000  0.31960000  0.04280000  1.0 0.1314142882
H  H47  1  0.08340000  0.62620000  0.55660000  1.0 0.1314142882
H  H48  1  0.06960000  0.52680000  0.44340000  1.0 0.1314142882
H  H49  1  0.52350000  0.00540000  0.86810000  1.0 0.1314142882
H  H50  1  0.13730000  0.65540000  0.13190000  1.0 0.1314142882
H  H51  1  0.75540000  0.38730000  0.98190000  1.0 0.1314142882
H  H52  1  0.40540000  0.77350000  0.01810000  1.0 0.1314142882
H  H53  1  0.22650000  0.24460000  0.63190000  1.0 0.1314142882
H  H54  1  0.61270000  0.59460000  0.36810000  1.0 0.1314142882
H  H55  1  0.99460000  0.86270000  0.51810000  1.0 0.1314142882
H  H56  1  0.34460000  0.47650000  0.48190000  1.0 0.1314142882
H  H57  1  0.52070000  0.09860000  0.96730000  1.0 0.1314142882
H  H58  1  0.13130000  0.55340000  0.03270000  1.0 0.1314142882
H  H59  1  0.84860000  0.38130000  0.07790000  1.0 0.1314142882
H  H60  1  0.30340000  0.77070000  0.92210000  1.0 0.1314142882
H  H61  1  0.22930000  0.15140000  0.53270000  1.0 0.1314142882
H  H62  1  0.61870000  0.69660000  0.46730000  1.0 0.1314142882
H  H63  1  0.90140000  0.86870000  0.42210000  1.0 0.1314142882
H  H64  1  0.44660000  0.47930000  0.57790000  1.0 0.1314142882
H  H65  1  0.57850000  0.20490000  0.94680000  1.0 0.1314142882
H  H66  1  0.25810000  0.63170000  0.05320000  1.0 0.1314142882
H  H67  1  0.95490000  0.50810000  0.12640000  1.0 0.1314142882
H  H68  1  0.38170000  0.82850000  0.87360000  1.0 0.1314142882
H  H69  1  0.17150000  0.04510000  0.55320000  1.0 0.1314142882
H  H70  1  0.49190000  0.61830000  0.44680000  1.0 0.1314142882
H  H71  1  0.79510000  0.74190000  0.37360000  1.0 0.1314142882
H  H72  1  0.36830000  0.42150000  0.62640000  1.0 0.1314142882
H  H73  1  0.58380000  0.11150000  0.84970000  1.0 0.1314142882
H  H74  1  0.26180000  0.73410000  0.15030000  1.0 0.1314142882
H  H75  1  0.86150000  0.51180000  0.02770000  1.0 0.1314142882
H  H76  1  0.48410000  0.83380000  0.97230000  1.0 0.1314142882
H  H77  1  0.16620000  0.13850000  0.65030000  1.0 0.1314142882
H  H78  1  0.48820000  0.51590000  0.34970000  1.0 0.1314142882
H  H79  1  0.88850000  0.73820000  0.47230000  1.0 0.1314142882
H  H80  1  0.26590000  0.41620000  0.52770000  1.0 0.1314142882
H  H81  1  0.79420000  0.44650000  0.81250000  1.0 0.1388248849
H  H82  1  0.19650000  0.88400000  0.15230000  1.0 0.1388248849
H  H83  1  0.73170000  0.04420000  0.84770000  1.0 0.1388248849
H  H84  1  0.63400000  0.98170000  0.18750000  1.0 0.1388248849
H  H85  1  0.95580000  0.80350000  0.68750000  1.0 0.1388248849
H  H86  1  0.55350000  0.36600000  0.34770000  1.0 0.1388248849
H  H87  1  0.01830000  0.20580000  0.65230000  1.0 0.1388248849
H  H88  1  0.11600000  0.26830000  0.31250000  1.0 0.1388248849
H  H89  1  0.89330000  0.51320000  0.93750000  1.0 0.1152054052
H  H90  1  0.26320000  0.82570000  0.11990000  1.0 0.1152054052
H  H91  1  0.70580000  0.14330000  0.88010000  1.0 0.1152054052
H  H92  1  0.57570000  0.95580000  0.06250000  1.0 0.1152054052
H  H93  1  0.85670000  0.73680000  0.56250000  1.0 0.1152054052
H  H94  1  0.48680000  0.42430000  0.38010000  1.0 0.1152054052
H  H95  1  0.04420000  0.10670000  0.61990000  1.0 0.1152054052
H  H96  1  0.17430000  0.29420000  0.43750000  1.0 0.1152054052
H  H97  1  0.98900000  0.50520000  0.95280000  1.0 0.1104428392
H  H98  1  0.25520000  0.80240000  0.01620000  1.0 0.1104428392
H  H99  1  0.78620000  0.23900000  0.98380000  1.0 0.1104428392
H  H100  1  0.55240000  0.03620000  0.04720000  1.0 0.1104428392
H  H101  1  0.76100000  0.74480000  0.54720000  1.0 0.1104428392
H  H102  1  0.49480000  0.44760000  0.48380000  1.0 0.1104428392
H  H103  1  0.96380000  0.01100000  0.51620000  1.0 0.1104428392
H  H104  1  0.19760000  0.21380000  0.45280000  1.0 0.1104428392
H  H105  1  0.98770000  0.42910000  0.84040000  1.0 0.1388248849
H  H106  1  0.17910000  0.83870000  0.94140000  1.0 0.1388248849
H  H107  1  0.89730000  0.23770000  0.05860000  1.0 0.1388248849
H  H108  1  0.58870000  0.14730000  0.15960000  1.0 0.1388248849
H  H109  1  0.76230000  0.82090000  0.65960000  1.0 0.1388248849
H  H110  1  0.57090000  0.41130000  0.55860000  1.0 0.1388248849
H  H111  1  0.85270000  0.01230000  0.44140000  1.0 0.1388248849
H  H112  1  0.16130000  0.10270000  0.34040000  1.0 0.1388248849
H  H113  1  0.61020000  0.22370000  0.58850000  1.0 0.1314142882
H  H114  1  0.97370000  0.88520000  0.11350000  1.0 0.1314142882
H  H115  1  0.77170000  0.86020000  0.88650000  1.0 0.1314142882
H  H116  1  0.63520000  0.02170000  0.41150000  1.0 0.1314142882
H  H117  1  0.13980000  0.02630000  0.91150000  1.0 0.1314142882
H  H118  1  0.77630000  0.36480000  0.38650000  1.0 0.1314142882
H  H119  1  0.97830000  0.38980000  0.61350000  1.0 0.1314142882
H  H120  1  0.11480000  0.22830000  0.08850000  1.0 0.1314142882
H  H121  1  0.56960000  0.12620000  0.54280000  1.0 0.1314142882
H  H122  1  0.87620000  0.83340000  0.05660000  1.0 0.1314142882
H  H123  1  0.77680000  0.81960000  0.94340000  1.0 0.1314142882
H  H124  1  0.58340000  0.02680000  0.45720000  1.0 0.1314142882
H  H125  1  0.18040000  0.12380000  0.95720000  1.0 0.1314142882
H  H126  1  0.87380000  0.41660000  0.44340000  1.0 0.1314142882
H  H127  1  0.97320000  0.43040000  0.55660000  1.0 0.1314142882
H  H128  1  0.16660000  0.22320000  0.04280000  1.0 0.1314142882
H  H129  1  0.84460000  0.36270000  0.86810000  1.0 0.1314142882
H  H130  1  0.11270000  0.74460000  0.01810000  1.0 0.1314142882
H  H131  1  0.72650000  0.09460000  0.98190000  1.0 0.1314142882
H  H132  1  0.49460000  0.97650000  0.13190000  1.0 0.1314142882
H  H133  1  0.90540000  0.88730000  0.63190000  1.0 0.1314142882
H  H134  1  0.63730000  0.50540000  0.48190000  1.0 0.1314142882
H  H135  1  0.02350000  0.15540000  0.51810000  1.0 0.1314142882
H  H136  1  0.25540000  0.27350000  0.36810000  1.0 0.1314142882
H  H137  1  0.94660000  0.36870000  0.96730000  1.0 0.1314142882
H  H138  1  0.11870000  0.65140000  0.92210000  1.0 0.1314142882
H  H139  1  0.72930000  0.19660000  0.07790000  1.0 0.1314142882
H  H140  1  0.40140000  0.97930000  0.03270000  1.0 0.1314142882
H  H141  1  0.80340000  0.88130000  0.53270000  1.0 0.1314142882
H  H142  1  0.63130000  0.59860000  0.57790000  1.0 0.1314142882
H  H143  1  0.02070000  0.05340000  0.42210000  1.0 0.1314142882
H  H144  1  0.34860000  0.27070000  0.46730000  1.0 0.1314142882
H  H145  1  0.86830000  0.24190000  0.94680000  1.0 0.1314142882
H  H146  1  0.99190000  0.54510000  0.87360000  1.0 0.1314142882
H  H147  1  0.67150000  0.11830000  0.12640000  1.0 0.1314142882
H  H148  1  0.29510000  0.92150000  0.05320000  1.0 0.1314142882
H  H149  1  0.88170000  0.00810000  0.55320000  1.0 0.1314142882
H  H150  1  0.75810000  0.70490000  0.62640000  1.0 0.1314142882
H  H151  1  0.07850000  0.13170000  0.37360000  1.0 0.1314142882
H  H152  1  0.45490000  0.32850000  0.44680000  1.0 0.1314142882
H  H153  1  0.76590000  0.23820000  0.84970000  1.0 0.1314142882
H  H154  1  0.98820000  0.63850000  0.97230000  1.0 0.1314142882
H  H155  1  0.66620000  0.01590000  0.02770000  1.0 0.1314142882
H  H156  1  0.38850000  0.91620000  0.15030000  1.0 0.1314142882
H  H157  1  0.98410000  0.01180000  0.65030000  1.0 0.1314142882
H  H158  1  0.76180000  0.61150000  0.52770000  1.0 0.1314142882
H  H159  1  0.08380000  0.23410000  0.47230000  1.0 0.1314142882
H  H160  1  0.36150000  0.33380000  0.34970000  1.0 0.1314142882
C  C1  1  0.41891000  0.85184000  0.75035000  1.0 0.1314142882
C  C2  1  0.10149000  0.66856000  0.24965000  1.0 0.1314142882
C  C3  1  0.60184000  0.35149000  0.93293000  1.0 0.1314142882
C  C4  1  0.41856000  0.66891000  0.06707000  1.0 0.1314142882
C  C5  1  0.33109000  0.39816000  0.74965000  1.0 0.1314142882
C  C6  1  0.64851000  0.58144000  0.25035000  1.0 0.1314142882
C  C7  1  0.14816000  0.89851000  0.56707000  1.0 0.1314142882
C  C8  1  0.33144000  0.58109000  0.43293000  1.0 0.1314142882
C  C9  1  0.48566000  0.87446000  0.81800000  1.0 -0.1422699078
C  C10  1  0.05646000  0.66766000  0.18200000  1.0 -0.1422699078
C  C11  1  0.62446000  0.30646000  0.88880000  1.0 -0.1422699078
C  C12  1  0.41766000  0.73566000  0.11120000  1.0 -0.1422699078
C  C13  1  0.26434000  0.37554000  0.68200000  1.0 -0.1422699078
C  C14  1  0.69354000  0.58234000  0.31800000  1.0 -0.1422699078
C  C15  1  0.12554000  0.94354000  0.61120000  1.0 -0.1422699078
C  C16  1  0.33234000  0.51434000  0.38880000  1.0 -0.1422699078
C  C17  1  0.50039000  0.90919000  0.89160000  1.0 -0.1115274695
C  C18  1  0.01759000  0.60879000  0.10840000  1.0 -0.1115274695
C  C19  1  0.65919000  0.26759000  0.90880000  1.0 -0.1115274695
C  C20  1  0.35879000  0.75039000  0.09120000  1.0 -0.1115274695
C  C21  1  0.24961000  0.34081000  0.60840000  1.0 -0.1115274695
C  C22  1  0.73241000  0.64121000  0.39160000  1.0 -0.1115274695
C  C23  1  0.09081000  0.98241000  0.59120000  1.0 -0.1115274695
C  C24  1  0.39121000  0.49961000  0.40880000  1.0 -0.1115274695
C  C25  1  0.45144000  0.92314000  0.90090000  1.0 -0.1115274695
C  C26  1  0.02224000  0.55054000  0.09910000  1.0 -0.1115274695
C  C27  1  0.67314000  0.27224000  0.97170000  1.0 -0.1115274695
C  C28  1  0.30054000  0.70144000  0.02830000  1.0 -0.1115274695
C  C29  1  0.29856000  0.32686000  0.59910000  1.0 -0.1115274695
C  C30  1  0.72776000  0.69946000  0.40090000  1.0 -0.1115274695
C  C31  1  0.07686000  0.97776000  0.52830000  1.0 -0.1115274695
C  C32  1  0.44946000  0.54856000  0.47170000  1.0 -0.1115274695
C  C33  1  0.38520000  0.90150000  0.83450000  1.0 -0.1635215377
C  C34  1  0.06700000  0.55070000  0.16550000  1.0 -0.1635215377
C  C35  1  0.65150000  0.31700000  0.01630000  1.0 -0.1635215377
C  C36  1  0.30070000  0.63520000  0.98370000  1.0 -0.1635215377
C  C37  1  0.36480000  0.34850000  0.66550000  1.0 -0.1635215377
C  C38  1  0.68300000  0.69930000  0.33450000  1.0 -0.1635215377
C  C39  1  0.09850000  0.93300000  0.48370000  1.0 -0.1635215377
C  C40  1  0.44930000  0.61480000  0.51630000  1.0 -0.1635215377
C  C41  1  0.37004000  0.86427000  0.75837000  1.0 0.1388248849
C  C42  1  0.10590000  0.61167000  0.24163000  1.0 0.1388248849
C  C43  1  0.61427000  0.35590000  0.99423000  1.0 0.1388248849
C  C44  1  0.36167000  0.62004000  0.00577000  1.0 0.1388248849
C  C45  1  0.37996000  0.38573000  0.74163000  1.0 0.1388248849
C  C46  1  0.64410000  0.63833000  0.25837000  1.0 0.1388248849
C  C47  1  0.13573000  0.89410000  0.50577000  1.0 0.1388248849
C  C48  1  0.38833000  0.62996000  0.49423000  1.0 0.1388248849
C  C49  1  0.37885000  0.84515000  0.52590000  1.0 0.1388248849
C  C50  1  0.31925000  0.85295000  0.47410000  1.0 0.1388248849
C  C51  1  0.59515000  0.56925000  0.96630000  1.0 0.1388248849
C  C52  1  0.60295000  0.62885000  0.03370000  1.0 0.1388248849
C  C53  1  0.37115000  0.40485000  0.97410000  1.0 0.1388248849
C  C54  1  0.43075000  0.39705000  0.02590000  1.0 0.1388248849
C  C55  1  0.15485000  0.68075000  0.53370000  1.0 0.1388248849
C  C56  1  0.14705000  0.62115000  0.46630000  1.0 0.1388248849
C  C57  1  0.43843000  0.86953000  0.55350000  1.0 -0.1525125113
C  C58  1  0.31603000  0.88493000  0.44650000  1.0 -0.1525125113
C  C59  1  0.61953000  0.56603000  0.93110000  1.0 -0.1525125113
C  C60  1  0.63493000  0.68843000  0.06890000  1.0 -0.1525125113
C  C61  1  0.31157000  0.38047000  0.94650000  1.0 -0.1525125113
C  C62  1  0.43397000  0.36507000  0.05350000  1.0 -0.1525125113
C  C63  1  0.13047000  0.68397000  0.56890000  1.0 -0.1525125113
C  C64  1  0.11507000  0.56157000  0.43110000  1.0 -0.1525125113
C  C65  1  0.43495000  0.90055000  0.52640000  1.0 -0.0764053241
C  C66  1  0.37415000  0.90855000  0.47360000  1.0 -0.0764053241
C  C67  1  0.65055000  0.62415000  0.96560000  1.0 -0.0764053241
C  C68  1  0.65855000  0.68495000  0.03440000  1.0 -0.0764053241
C  C69  1  0.31505000  0.34945000  0.97360000  1.0 -0.0764053241
C  C70  1  0.37585000  0.34145000  0.02640000  1.0 -0.0764053241
C  C71  1  0.09945000  0.62585000  0.53440000  1.0 -0.0764053241
C  C72  1  0.09145000  0.56505000  0.46560000  1.0 -0.0764053241
C  C73  1  0.58429000  0.99079000  0.75650000  1.0 0.2562038208
C  C74  1  0.23429000  0.82779000  0.24350000  1.0 0.2562038208
C  C75  1  0.74079000  0.48429000  0.90650000  1.0 0.2562038208
C  C76  1  0.57779000  0.83429000  0.09350000  1.0 0.2562038208
C  C77  1  0.16571000  0.25921000  0.74350000  1.0 0.2562038208
C  C78  1  0.51571000  0.42221000  0.25650000  1.0 0.2562038208
C  C79  1  0.00921000  0.76571000  0.59350000  1.0 0.2562038208
C  C80  1  0.17221000  0.41571000  0.40650000  1.0 0.2562038208
C  C81  1  0.52804000  0.92637000  0.74713000  1.0 0.302155761
C  C82  1  0.17924000  0.78091000  0.25287000  1.0 0.302155761
C  C83  1  0.67637000  0.42924000  0.89833000  1.0 0.302155761
C  C84  1  0.53091000  0.77804000  0.10167000  1.0 0.302155761
C  C85  1  0.22196000  0.32363000  0.75287000  1.0 0.302155761
C  C86  1  0.57076000  0.46909000  0.24713000  1.0 0.302155761
C  C87  1  0.07363000  0.82076000  0.60167000  1.0 0.302155761
C  C88  1  0.21909000  0.47196000  0.39833000  1.0 0.302155761
C  C89  1  0.55846000  0.98896000  0.78750000  1.0 -0.1295595747
C  C90  1  0.20146000  0.77096000  0.21250000  1.0 -0.1295595747
C  C91  1  0.73896000  0.45146000  0.93050000  1.0 -0.1295595747
C  C92  1  0.52096000  0.80846000  0.06950000  1.0 -0.1295595747
C  C93  1  0.19154000  0.26104000  0.71250000  1.0 -0.1295595747
C  C94  1  0.54854000  0.47904000  0.28750000  1.0 -0.1295595747
C  C95  1  0.01104000  0.79854000  0.56950000  1.0 -0.1295595747
C  C96  1  0.22904000  0.44154000  0.43050000  1.0 -0.1295595747
C  C97  1  0.55604000  0.04704000  0.84880000  1.0 0.1104428392
C  C98  1  0.19824000  0.70724000  0.15120000  1.0 0.1104428392
C  C99  1  0.79704000  0.44824000  0.99100000  1.0 0.1104428392
C  C100  1  0.45724000  0.80604000  0.00900000  1.0 0.1104428392
C  C101  1  0.19396000  0.20296000  0.65120000  1.0 0.1104428392
C  C102  1  0.55176000  0.54276000  0.34880000  1.0 0.1104428392
C  C103  1  0.95296000  0.80176000  0.50900000  1.0 0.1104428392
C  C104  1  0.29276000  0.44396000  0.49100000  1.0 0.1104428392
C  C105  1  0.53576000  0.04566000  0.88510000  1.0 -0.1422699078
C  C106  1  0.16056000  0.65066000  0.11490000  1.0 -0.1422699078
C  C107  1  0.79566000  0.41056000  0.00990000  1.0 -0.1422699078
C  C108  1  0.40066000  0.78576000  0.99010000  1.0 -0.1422699078
C  C109  1  0.21424000  0.20434000  0.61490000  1.0 -0.1422699078
C  C110  1  0.58944000  0.59934000  0.38510000  1.0 -0.1422699078
C  C111  1  0.95434000  0.83944000  0.49010000  1.0 -0.1422699078
C  C112  1  0.34934000  0.46424000  0.50990000  1.0 -0.1422699078
C  C113  1  0.53349000  0.10119000  0.94390000  1.0 -0.1295595747
C  C114  1  0.15729000  0.58959000  0.05610000  1.0 -0.1295595747
C  C115  1  0.85119000  0.40729000  0.06770000  1.0 -0.1295595747
C  C116  1  0.33959000  0.78349000  0.93230000  1.0 -0.1295595747
C  C117  1  0.21651000  0.14881000  0.55610000  1.0 -0.1295595747
C  C118  1  0.59271000  0.66041000  0.44390000  1.0 -0.1295595747
C  C119  1  0.89881000  0.84271000  0.43230000  1.0 -0.1295595747
C  C120  1  0.41041000  0.46651000  0.56770000  1.0 -0.1295595747
C  C121  1  0.55057000  0.16367000  0.97010000  1.0 0.1104428392
C  C122  1  0.19357000  0.58047000  0.02990000  1.0 0.1104428392
C  C123  1  0.91367000  0.44357000  0.11310000  1.0 0.1104428392
C  C124  1  0.33047000  0.80057000  0.88690000  1.0 0.1104428392
C  C125  1  0.19943000  0.08633000  0.52990000  1.0 0.1104428392
C  C126  1  0.55643000  0.66953000  0.47010000  1.0 0.1104428392
C  C127  1  0.83633000  0.80643000  0.38690000  1.0 0.1104428392
C  C128  1  0.41953000  0.44943000  0.61310000  1.0 0.1104428392
C  C129  1  0.56840000  0.16490000  0.93190000  1.0 -0.1422699078
C  C130  1  0.23300000  0.63650000  0.06810000  1.0 -0.1422699078
C  C131  1  0.91490000  0.48300000  0.09650000  1.0 -0.1422699078
C  C132  1  0.38650000  0.81840000  0.90350000  1.0 -0.1422699078
C  C133  1  0.18160000  0.08510000  0.56810000  1.0 -0.1422699078
C  C134  1  0.51700000  0.61350000  0.43190000  1.0 -0.1422699078
C  C135  1  0.83510000  0.76700000  0.40350000  1.0 -0.1422699078
C  C136  1  0.36350000  0.43160000  0.59650000  1.0 -0.1422699078
C  C137  1  0.57143000  0.10903000  0.87360000  1.0 -0.1422699078
C  C138  1  0.23543000  0.69783000  0.12640000  1.0 -0.1422699078
C  C139  1  0.85903000  0.48543000  0.03760000  1.0 -0.1422699078
C  C140  1  0.44783000  0.82143000  0.96240000  1.0 -0.1422699078
C  C141  1  0.17857000  0.14097000  0.62640000  1.0 -0.1422699078
C  C142  1  0.51457000  0.55217000  0.37360000  1.0 -0.1422699078
C  C143  1  0.89097000  0.76457000  0.46240000  1.0 -0.1422699078
C  C144  1  0.30217000  0.42857000  0.53760000  1.0 -0.1422699078
C  C145  1  0.54842000  0.22232000  0.03190000  1.0 -0.1295595747
C  C146  1  0.19042000  0.51652000  0.96810000  1.0 -0.1295595747
C  C147  1  0.97232000  0.44042000  0.17390000  1.0 -0.1295595747
C  C148  1  0.26652000  0.79842000  0.82610000  1.0 -0.1295595747
C  C149  1  0.20158000  0.02768000  0.46810000  1.0 -0.1295595747
C  C150  1  0.55958000  0.73348000  0.53190000  1.0 -0.1295595747
C  C151  1  0.77768000  0.80958000  0.32610000  1.0 -0.1295595747
C  C152  1  0.48348000  0.45158000  0.67390000  1.0 -0.1295595747
C  C153  1  0.55948000  0.28366000  0.05338000  1.0 0.30516191
C  C154  1  0.23028000  0.50610000  0.94662000  1.0 0.30516191
C  C155  1  0.03366000  0.48028000  0.22418000  1.0 0.30516191
C  C156  1  0.25610000  0.80948000  0.77582000  1.0 0.30516191
C  C157  1  0.19052000  0.96634000  0.44662000  1.0 0.30516191
C  C158  1  0.51972000  0.74390000  0.55338000  1.0 0.30516191
C  C159  1  0.71634000  0.76972000  0.27582000  1.0 0.30516191
C  C160  1  0.49390000  0.44052000  0.72418000  1.0 0.30516191
C  C161  1  0.53324000  0.22384000  0.07420000  1.0 0.2507061604
C  C162  1  0.14964000  0.45904000  0.92580000  1.0 0.2507061604
C  C163  1  0.97384000  0.39964000  0.19060000  1.0 0.2507061604
C  C164  1  0.20904000  0.78324000  0.80940000  1.0 0.2507061604
C  C165  1  0.21676000  0.02616000  0.42580000  1.0 0.2507061604
C  C166  1  0.60036000  0.79096000  0.57420000  1.0 0.2507061604
C  C167  1  0.77616000  0.85036000  0.30940000  1.0 0.2507061604
C  C168  1  0.54096000  0.46676000  0.69060000  1.0 0.2507061604
C  C169  1  0.83144000  0.39851000  0.75035000  1.0 0.1314142882
C  C170  1  0.14851000  0.89816000  0.06707000  1.0 0.1314142882
C  C171  1  0.83109000  0.08144000  0.93293000  1.0 0.1314142882
C  C172  1  0.64816000  0.08109000  0.24965000  1.0 0.1314142882
C  C173  1  0.91856000  0.85149000  0.74965000  1.0 0.1314142882
C  C174  1  0.60149000  0.35184000  0.43293000  1.0 0.1314142882
C  C175  1  0.91891000  0.16856000  0.56707000  1.0 0.1314142882
C  C176  1  0.10184000  0.16891000  0.25035000  1.0 0.1314142882
C  C177  1  0.83234000  0.44354000  0.81800000  1.0 -0.1422699078
C  C178  1  0.19354000  0.87554000  0.11120000  1.0 -0.1422699078
C  C179  1  0.76434000  0.08234000  0.88880000  1.0 -0.1422699078
C  C180  1  0.62554000  0.01434000  0.18200000  1.0 -0.1422699078
C  C181  1  0.91766000  0.80646000  0.68200000  1.0 -0.1422699078
C  C182  1  0.55646000  0.37446000  0.38880000  1.0 -0.1422699078
C  C183  1  0.98566000  0.16766000  0.61120000  1.0 -0.1422699078
C  C184  1  0.12446000  0.23566000  0.31800000  1.0 -0.1422699078
C  C185  1  0.89121000  0.48241000  0.89160000  1.0 -0.1115274695
C  C186  1  0.23241000  0.84081000  0.09120000  1.0 -0.1115274695
C  C187  1  0.74961000  0.14121000  0.90880000  1.0 -0.1115274695
C  C188  1  0.59081000  0.99961000  0.10840000  1.0 -0.1115274695
C  C189  1  0.85879000  0.76759000  0.60840000  1.0 -0.1115274695
C  C190  1  0.51759000  0.40919000  0.40880000  1.0 -0.1115274695
C  C191  1  0.00039000  0.10879000  0.59120000  1.0 -0.1115274695
C  C192  1  0.15919000  0.25039000  0.39160000  1.0 -0.1115274695
C  C193  1  0.94946000  0.47776000  0.90090000  1.0 -0.1115274695
C  C194  1  0.22776000  0.82686000  0.02830000  1.0 -0.1115274695
C  C195  1  0.79856000  0.19946000  0.97170000  1.0 -0.1115274695
C  C196  1  0.57686000  0.04856000  0.09910000  1.0 -0.1115274695
C  C197  1  0.80054000  0.77224000  0.59910000  1.0 -0.1115274695
C  C198  1  0.52224000  0.42314000  0.47170000  1.0 -0.1115274695
C  C199  1  0.95144000  0.05054000  0.52830000  1.0 -0.1115274695
C  C200  1  0.17314000  0.20144000  0.40090000  1.0 -0.1115274695
C  C201  1  0.94930000  0.43300000  0.83450000  1.0 -0.1635215377
C  C202  1  0.18300000  0.84850000  0.98370000  1.0 -0.1635215377
C  C203  1  0.86480000  0.19930000  0.01630000  1.0 -0.1635215377
C  C204  1  0.59850000  0.11480000  0.16550000  1.0 -0.1635215377
C  C205  1  0.80070000  0.81700000  0.66550000  1.0 -0.1635215377
C  C206  1  0.56700000  0.40150000  0.51630000  1.0 -0.1635215377
C  C207  1  0.88520000  0.05070000  0.48370000  1.0 -0.1635215377
C  C208  1  0.15150000  0.13520000  0.33450000  1.0 -0.1635215377
C  C209  1  0.88833000  0.39410000  0.75837000  1.0 0.1388248849
C  C210  1  0.14410000  0.88573000  0.00577000  1.0 0.1388248849
C  C211  1  0.87996000  0.13833000  0.99423000  1.0 0.1388248849
C  C212  1  0.63573000  0.12996000  0.24163000  1.0 0.1388248849
C  C213  1  0.86167000  0.85590000  0.74163000  1.0 0.1388248849
C  C214  1  0.60590000  0.36427000  0.49423000  1.0 0.1388248849
C  C215  1  0.87004000  0.11167000  0.50577000  1.0 0.1388248849
C  C216  1  0.11427000  0.12004000  0.25837000  1.0 0.1388248849
C  C217  1  0.64705000  0.18075000  0.52590000  1.0 0.1388248849
C  C218  1  0.93075000  0.90485000  0.03370000  1.0 0.1388248849
C  C219  1  0.87115000  0.89705000  0.96630000  1.0 0.1388248849
C  C220  1  0.65485000  0.12115000  0.47410000  1.0 0.1388248849
C  C221  1  0.10295000  0.06925000  0.97410000  1.0 0.1388248849
C  C222  1  0.81925000  0.34515000  0.46630000  1.0 0.1388248849
C  C223  1  0.87885000  0.35295000  0.53370000  1.0 0.1388248849
C  C224  1  0.09515000  0.12885000  0.02590000  1.0 0.1388248849
C  C225  1  0.61507000  0.18397000  0.55350000  1.0 -0.1525125113
C  C226  1  0.93397000  0.88047000  0.06890000  1.0 -0.1525125113
C  C227  1  0.81157000  0.86507000  0.93110000  1.0 -0.1525125113
C  C228  1  0.63047000  0.06157000  0.44650000  1.0 -0.1525125113
C  C229  1  0.13493000  0.06603000  0.94650000  1.0 -0.1525125113
C  C230  1  0.81603000  0.36953000  0.43110000  1.0 -0.1525125113
C  C231  1  0.93843000  0.38493000  0.56890000  1.0 -0.1525125113
C  C232  1  0.11953000  0.18843000  0.05350000  1.0 -0.1525125113
C  C233  1  0.59145000  0.12585000  0.52640000  1.0 -0.0764053241
C  C234  1  0.87585000  0.84945000  0.03440000  1.0 -0.0764053241
C  C235  1  0.81505000  0.84145000  0.96560000  1.0 -0.0764053241
C  C236  1  0.59945000  0.06505000  0.47360000  1.0 -0.0764053241
C  C237  1  0.15855000  0.12415000  0.97360000  1.0 -0.0764053241
C  C238  1  0.87415000  0.40055000  0.46560000  1.0 -0.0764053241
C  C239  1  0.93495000  0.40855000  0.53440000  1.0 -0.0764053241
C  C240  1  0.15055000  0.18495000  0.02640000  1.0 -0.0764053241
C  C241  1  0.67221000  0.26571000  0.75650000  1.0 0.2562038208
C  C242  1  0.01571000  0.75921000  0.09350000  1.0 0.2562038208
C  C243  1  0.66571000  0.92221000  0.90650000  1.0 0.2562038208
C  C244  1  0.50921000  0.91571000  0.24350000  1.0 0.2562038208
C  C245  1  0.07779000  0.98429000  0.74350000  1.0 0.2562038208
C  C246  1  0.73429000  0.49079000  0.40650000  1.0 0.2562038208
C  C247  1  0.08429000  0.32779000  0.59350000  1.0 0.2562038208
C  C248  1  0.24079000  0.33429000  0.25650000  1.0 0.2562038208
C  C249  1  0.71909000  0.32076000  0.74713000  1.0 0.302155761
C  C250  1  0.07076000  0.82363000  0.10167000  1.0 0.302155761
C  C251  1  0.72196000  0.96909000  0.89833000  1.0 0.302155761
C  C252  1  0.57363000  0.97196000  0.25287000  1.0 0.302155761
C  C253  1  0.03091000  0.92924000  0.75287000  1.0 0.302155761
C  C254  1  0.67924000  0.42637000  0.39833000  1.0 0.302155761
C  C255  1  0.02804000  0.28091000  0.60167000  1.0 0.302155761
C  C256  1  0.17637000  0.27804000  0.24713000  1.0 0.302155761
C  C257  1  0.72904000  0.29854000  0.78750000  1.0 -0.1295595747
C  C258  1  0.04854000  0.76104000  0.06950000  1.0 -0.1295595747
C  C259  1  0.69154000  0.97904000  0.93050000  1.0 -0.1295595747
C  C260  1  0.51104000  0.94154000  0.21250000  1.0 -0.1295595747
C  C261  1  0.02096000  0.95146000  0.71250000  1.0 -0.1295595747
C  C262  1  0.70146000  0.48896000  0.43050000  1.0 -0.1295595747
C  C263  1  0.05846000  0.27096000  0.56950000  1.0 -0.1295595747
C  C264  1  0.23896000  0.30846000  0.28750000  1.0 -0.1295595747
C  C265  1  0.79276000  0.30176000  0.84880000  1.0 0.1104428392
C  C266  1  0.05176000  0.70296000  0.00900000  1.0 0.1104428392
C  C267  1  0.69396000  0.04276000  0.99100000  1.0 0.1104428392
C  C268  1  0.45296000  0.94396000  0.15120000  1.0 0.1104428392
C  C269  1  0.95724000  0.94824000  0.65120000  1.0 0.1104428392
C  C270  1  0.69824000  0.54704000  0.49100000  1.0 0.1104428392
C  C271  1  0.05604000  0.20724000  0.50900000  1.0 0.1104428392
C  C272  1  0.29704000  0.30604000  0.34880000  1.0 0.1104428392
C  C273  1  0.84934000  0.33944000  0.88510000  1.0 -0.1422699078
C  C274  1  0.08944000  0.70434000  0.99010000  1.0 -0.1422699078
C  C275  1  0.71424000  0.09934000  0.00990000  1.0 -0.1422699078
C  C276  1  0.45434000  0.96424000  0.11490000  1.0 -0.1422699078
C  C277  1  0.90066000  0.91056000  0.61490000  1.0 -0.1422699078
C  C278  1  0.66056000  0.54566000  0.50990000  1.0 -0.1422699078
C  C279  1  0.03576000  0.15066000  0.49010000  1.0 -0.1422699078
C  C280  1  0.29566000  0.28576000  0.38510000  1.0 -0.1422699078
C  C281  1  0.91041000  0.34271000  0.94390000  1.0 -0.1295595747
C  C282  1  0.09271000  0.64881000  0.93230000  1.0 -0.1295595747
C  C283  1  0.71651000  0.16041000  0.06770000  1.0 -0.1295595747
C  C284  1  0.39881000  0.96651000  0.05610000  1.0 -0.1295595747
C  C285  1  0.83959000  0.90729000  0.55610000  1.0 -0.1295595747
C  C286  1  0.65729000  0.60119000  0.56770000  1.0 -0.1295595747
C  C287  1  0.03349000  0.08959000  0.43230000  1.0 -0.1295595747
C  C288  1  0.35119000  0.28349000  0.44390000  1.0 -0.1295595747
C  C289  1  0.91953000  0.30643000  0.97010000  1.0 0.1104428392
C  C290  1  0.05643000  0.58633000  0.88690000  1.0 0.1104428392
C  C291  1  0.69943000  0.16953000  0.11310000  1.0 0.1104428392
C  C292  1  0.33633000  0.94943000  0.02990000  1.0 0.1104428392
C  C293  1  0.83047000  0.94357000  0.52990000  1.0 0.1104428392
C  C294  1  0.69357000  0.66367000  0.61310000  1.0 0.1104428392
C  C295  1  0.05057000  0.08047000  0.38690000  1.0 0.1104428392
C  C296  1  0.41367000  0.30057000  0.47010000  1.0 0.1104428392
C  C297  1  0.86350000  0.26700000  0.93190000  1.0 -0.1422699078
C  C298  1  0.01700000  0.58510000  0.90350000  1.0 -0.1422699078
C  C299  1  0.68160000  0.11350000  0.09650000  1.0 -0.1422699078
C  C300  1  0.33510000  0.93160000  0.06810000  1.0 -0.1422699078
C  C301  1  0.88650000  0.98300000  0.56810000  1.0 -0.1422699078
C  C302  1  0.73300000  0.66490000  0.59650000  1.0 -0.1422699078
C  C303  1  0.06840000  0.13650000  0.40350000  1.0 -0.1422699078
C  C304  1  0.41490000  0.31840000  0.43190000  1.0 -0.1422699078
C  C305  1  0.80217000  0.26457000  0.87360000  1.0 -0.1422699078
C  C306  1  0.01457000  0.64097000  0.96240000  1.0 -0.1422699078
C  C307  1  0.67857000  0.05217000  0.03760000  1.0 -0.1422699078
C  C308  1  0.39097000  0.92857000  0.12640000  1.0 -0.1422699078
C  C309  1  0.94783000  0.98543000  0.62640000  1.0 -0.1422699078
C  C310  1  0.73543000  0.60903000  0.53760000  1.0 -0.1422699078
C  C311  1  0.07143000  0.19783000  0.46240000  1.0 -0.1422699078
C  C312  1  0.35903000  0.32143000  0.37360000  1.0 -0.1422699078
C  C313  1  0.98348000  0.30958000  0.03190000  1.0 -0.1295595747
C  C314  1  0.05958000  0.52768000  0.82610000  1.0 -0.1295595747
C  C315  1  0.70158000  0.23348000  0.17390000  1.0 -0.1295595747
C  C316  1  0.27768000  0.95158000  0.96810000  1.0 -0.1295595747
C  C317  1  0.76652000  0.94042000  0.46810000  1.0 -0.1295595747
C  C318  1  0.69042000  0.72232000  0.67390000  1.0 -0.1295595747
C  C319  1  0.04842000  0.01652000  0.32610000  1.0 -0.1295595747
C  C320  1  0.47232000  0.29842000  0.53190000  1.0 -0.1295595747
C  C321  1  0.99390000  0.26972000  0.05338000  1.0 0.30516191
C  C322  1  0.01972000  0.46634000  0.77582000  1.0 0.30516191
C  C323  1  0.69052000  0.24390000  0.22418000  1.0 0.30516191
C  C324  1  0.21634000  0.94052000  0.94662000  1.0 0.30516191
C  C325  1  0.75610000  0.98028000  0.44662000  1.0 0.30516191
C  C326  1  0.73028000  0.78366000  0.72418000  1.0 0.30516191
C  C327  1  0.05948000  0.00610000  0.27582000  1.0 0.30516191
C  C328  1  0.53366000  0.30948000  0.55338000  1.0 0.30516191
C  C329  1  0.04096000  0.35036000  0.07420000  1.0 0.2507061604
C  C330  1  0.10036000  0.52616000  0.80940000  1.0 0.2507061604
C  C331  1  0.71676000  0.29096000  0.19060000  1.0 0.2507061604
C  C332  1  0.27616000  0.96676000  0.92580000  1.0 0.2507061604
C  C333  1  0.70904000  0.89964000  0.42580000  1.0 0.2507061604
C  C334  1  0.64964000  0.72384000  0.69060000  1.0 0.2507061604
C  C335  1  0.03324000  0.95904000  0.30940000  1.0 0.2507061604
C  C336  1  0.47384000  0.28324000  0.57420000  1.0 0.2507061604
N  N1  1  0.38784000  0.81493000  0.66855000  1.0 -0.2116529266
N  N2  1  0.14638000  0.71929000  0.33145000  1.0 -0.2116529266
N  N3  1  0.56493000  0.39638000  0.92709000  1.0 -0.2116529266
N  N4  1  0.46929000  0.63784000  0.07291000  1.0 -0.2116529266
N  N5  1  0.36216000  0.43507000  0.83145000  1.0 -0.2116529266
N  N6  1  0.60362000  0.53071000  0.16855000  1.0 -0.2116529266
N  N7  1  0.18507000  0.85362000  0.57291000  1.0 -0.2116529266
N  N8  1  0.28071000  0.61216000  0.42709000  1.0 -0.2116529266
N  N9  1  0.32380000  0.80575000  0.63003000  1.0 0.0001099809
N  N10  1  0.17572000  0.69377000  0.36997000  1.0 0.0001099809
N  N11  1  0.55575000  0.42572000  0.98195000  1.0 0.0001099809
N  N12  1  0.44377000  0.57380000  0.01805000  1.0 0.0001099809
N  N13  1  0.42620000  0.44425000  0.86997000  1.0 0.0001099809
N  N14  1  0.57428000  0.55623000  0.13003000  1.0 -0.0008200201
N  N15  1  0.19425000  0.82428000  0.51805000  1.0 0.0001099809
N  N16  1  0.30623000  0.67620000  0.48195000  1.0 0.0001099809
N  N17  1  0.31102000  0.83447000  0.68191000  1.0 -0.2116529266
N  N18  1  0.15256000  0.62911000  0.31809000  1.0 -0.2116529266
N  N19  1  0.58447000  0.40256000  0.02345000  1.0 -0.2116529266
N  N20  1  0.37911000  0.56102000  0.97655000  1.0 -0.2116529266
N  N21  1  0.43898000  0.41553000  0.81809000  1.0 -0.2116529266
N  N22  1  0.59744000  0.62089000  0.18191000  1.0 -0.2116529266
N  N23  1  0.16553000  0.84744000  0.47655000  1.0 -0.2116529266
N  N24  1  0.37089000  0.68898000  0.52345000  1.0 -0.2116529266
N  N25  1  0.36615000  0.81239000  0.54132000  1.0 -0.2381576244
N  N26  1  0.27107000  0.82483000  0.45868000  1.0 -0.2381576244
N  N27  1  0.56239000  0.52107000  0.94624000  1.0 -0.2381576244
N  N28  1  0.57483000  0.61615000  0.05376000  1.0 -0.2381576244
N  N29  1  0.38385000  0.43761000  0.95868000  1.0 -0.2381576244
N  N30  1  0.47893000  0.42517000  0.04132000  1.0 -0.2381576244
N  N31  1  0.18761000  0.72893000  0.55376000  1.0 -0.2381576244
N  N32  1  0.17517000  0.63385000  0.44624000  1.0 -0.2381576244
N  N33  1  0.30129000  0.80129000  0.50000000  1.0 0.0160687938
N  N34  1  0.55129000  0.55129000  0.00000000  1.0 0.0160687938
N  N35  1  0.44871000  0.44871000  0.00000000  1.0 0.0160687938
N  N36  1  0.19871000  0.69871000  0.50000000  1.0 0.0160687938
N  N37  1  0.60473000  0.99323000  0.73150000  1.0 -0.3550581839
N  N38  1  0.26173000  0.87323000  0.26850000  1.0 -0.3550581839
N  N39  1  0.74323000  0.51173000  0.88850000  1.0 -0.3550581839
N  N40  1  0.62323000  0.85473000  0.11150000  1.0 -0.3550581839
N  N41  1  0.14527000  0.25677000  0.76850000  1.0 -0.3550581839
N  N42  1  0.48827000  0.37677000  0.23150000  1.0 -0.3550581839
N  N43  1  0.00677000  0.73827000  0.61150000  1.0 -0.3550581839
N  N44  1  0.12677000  0.39527000  0.38850000  1.0 -0.3550581839
N  N45  1  0.50071000  0.87463000  0.70916000  1.0 -0.386562571
N  N46  1  0.16547000  0.79155000  0.29084000  1.0 -0.386562571
N  N47  1  0.62463000  0.41547000  0.87392000  1.0 -0.386562571
N  N48  1  0.54155000  0.75071000  0.12608000  1.0 -0.386562571
N  N49  1  0.24929000  0.37537000  0.79084000  1.0 -0.386562571
N  N50  1  0.58453000  0.45845000  0.20916000  1.0 -0.386562571
N  N51  1  0.12537000  0.83453000  0.62608000  1.0 -0.386562571
N  N52  1  0.20845000  0.49929000  0.37392000  1.0 -0.386562571
N  N53  1  0.56783000  0.33373000  0.07060000  1.0 -0.386562571
N  N54  1  0.26313000  0.49723000  0.92940000  1.0 -0.386562571
N  N55  1  0.08373000  0.51313000  0.26590000  1.0 -0.386562571
N  N56  1  0.24723000  0.81783000  0.73410000  1.0 -0.386562571
N  N57  1  0.18217000  0.91627000  0.42940000  1.0 -0.386562571
N  N58  1  0.48687000  0.75277000  0.57060000  1.0 -0.386562571
N  N59  1  0.66627000  0.73687000  0.23410000  1.0 -0.386562571
N  N60  1  0.50277000  0.43217000  0.76590000  1.0 -0.386562571
N  N61  1  0.52041000  0.22291000  0.10710000  1.0 -0.3296578639
N  N62  1  0.11581000  0.41331000  0.89290000  1.0 -0.3296578639
N  N63  1  0.97291000  0.36581000  0.20250000  1.0 -0.3296578639
N  N64  1  0.16331000  0.77041000  0.79750000  1.0 -0.3296578639
N  N65  1  0.22959000  0.02709000  0.39290000  1.0 -0.3296578639
N  N66  1  0.63419000  0.83669000  0.60710000  1.0 -0.3296578639
N  N67  1  0.77709000  0.88419000  0.29750000  1.0 -0.3296578639
N  N68  1  0.58669000  0.47959000  0.70250000  1.0 -0.3296578639
N  N69  1  0.78071000  0.35362000  0.66855000  1.0 -0.2116529266
N  N70  1  0.10362000  0.93507000  0.07291000  1.0 -0.2116529266
N  N71  1  0.86216000  0.03071000  0.92709000  1.0 -0.2116529266
N  N72  1  0.68507000  0.11216000  0.33145000  1.0 -0.2116529266
N  N73  1  0.96929000  0.89638000  0.83145000  1.0 -0.2116529266
N  N74  1  0.64638000  0.31493000  0.42709000  1.0 -0.2116529266
N  N75  1  0.88784000  0.21929000  0.57291000  1.0 -0.2116529266
N  N76  1  0.06493000  0.13784000  0.16855000  1.0 -0.2116529266
N  N77  1  0.80623000  0.32428000  0.63003000  1.0 0.0001099809
N  N78  1  0.07428000  0.94425000  0.01805000  1.0 0.0001099809
N  N79  1  0.92620000  0.05623000  0.98195000  1.0 0.0001099809
N  N80  1  0.69425000  0.17620000  0.36997000  1.0 0.0001099809
N  N81  1  0.94377000  0.92572000  0.86997000  1.0 0.0001099809
N  N82  1  0.67572000  0.30575000  0.48195000  1.0 0.0001099809
N  N83  1  0.82380000  0.19377000  0.51805000  1.0 0.0001099809
N  N84  1  0.05575000  0.07380000  0.13003000  1.0 0.0001099809
N  N85  1  0.87089000  0.34744000  0.68191000  1.0 -0.2116529266
N  N86  1  0.09744000  0.91553000  0.97655000  1.0 -0.2116529266
N  N87  1  0.93898000  0.12089000  0.02345000  1.0 -0.2116529266
N  N88  1  0.66553000  0.18898000  0.31809000  1.0 -0.2116529266
N  N89  1  0.87911000  0.90256000  0.81809000  1.0 -0.2116529266
N  N90  1  0.65256000  0.33447000  0.52345000  1.0 -0.2116529266
N  N91  1  0.81102000  0.12911000  0.47655000  1.0 -0.2116529266
N  N92  1  0.08447000  0.06102000  0.18191000  1.0 -0.2116529266
N  N93  1  0.67517000  0.22893000  0.54132000  1.0 -0.2381576244
N  N94  1  0.97893000  0.93761000  0.05376000  1.0 -0.2381576244
N  N95  1  0.88385000  0.92517000  0.94624000  1.0 -0.2381576244
N  N96  1  0.68761000  0.13385000  0.45868000  1.0 -0.2381576244
N  N97  1  0.07483000  0.02107000  0.95868000  1.0 -0.2381576244
N  N98  1  0.77107000  0.31239000  0.44624000  1.0 -0.2381576244
N  N99  1  0.86615000  0.32483000  0.55376000  1.0 -0.2381576244
N  N100  1  0.06239000  0.11615000  0.04132000  1.0 -0.2381576244
N  N101  1  0.69871000  0.19871000  0.50000000  1.0 0.0160687938
N  N102  1  0.94871000  0.94871000  0.00000000  1.0 0.0160687938
N  N103  1  0.05129000  0.05129000  0.00000000  1.0 0.0160687938
N  N104  1  0.80129000  0.30129000  0.50000000  1.0 0.0160687938
N  N105  1  0.62677000  0.23827000  0.73150000  1.0 -0.3550581839
N  N106  1  0.98827000  0.75677000  0.11150000  1.0 -0.3550581839
N  N107  1  0.64527000  0.87677000  0.88850000  1.0 -0.3550581839
N  N108  1  0.50677000  0.89527000  0.26850000  1.0 -0.3550581839
N  N109  1  0.12323000  0.01173000  0.76850000  1.0 -0.3550581839
N  N110  1  0.76173000  0.49323000  0.38850000  1.0 -0.3550581839
N  N111  1  0.10473000  0.37323000  0.61150000  1.0 -0.3550581839
N  N112  1  0.24323000  0.35473000  0.23150000  1.0 -0.3550581839
N  N113  1  0.70845000  0.33453000  0.70916000  1.0 -0.386562571
N  N114  1  0.08453000  0.87537000  0.12608000  1.0 -0.386562571
N  N115  1  0.74929000  0.95845000  0.87392000  1.0 -0.386562571
N  N116  1  0.62537000  0.99929000  0.29084000  1.0 -0.386562571
N  N117  1  0.04155000  0.91547000  0.79084000  1.0 -0.386562571
N  N118  1  0.66547000  0.37463000  0.37392000  1.0 -0.386562571
N  N119  1  0.00071000  0.29155000  0.62608000  1.0 -0.386562571
N  N120  1  0.12463000  0.25071000  0.20916000  1.0 -0.386562571
N  N121  1  0.00277000  0.23687000  0.07060000  1.0 -0.386562571
N  N122  1  0.98687000  0.41627000  0.73410000  1.0 -0.386562571
N  N123  1  0.68217000  0.25277000  0.26590000  1.0 -0.386562571
N  N124  1  0.16627000  0.93217000  0.92940000  1.0 -0.386562571
N  N125  1  0.74723000  0.01313000  0.42940000  1.0 -0.386562571
N  N126  1  0.76313000  0.83373000  0.76590000  1.0 -0.386562571
N  N127  1  0.06783000  0.99723000  0.23410000  1.0 -0.386562571
N  N128  1  0.58373000  0.31783000  0.57060000  1.0 -0.386562571
N  N129  1  0.08669000  0.38419000  0.10710000  1.0 -0.3296578639
N  N130  1  0.13419000  0.52709000  0.79750000  1.0 -0.3296578639
N  N131  1  0.72959000  0.33669000  0.20250000  1.0 -0.3296578639
N  N132  1  0.27709000  0.97959000  0.89290000  1.0 -0.3296578639
N  N133  1  0.66331000  0.86581000  0.39290000  1.0 -0.3296578639
N  N134  1  0.61581000  0.72291000  0.70250000  1.0 -0.3296578639
N  N135  1  0.02041000  0.91331000  0.29750000  1.0 -0.3296578639
N  N136  1  0.47291000  0.27041000  0.60710000  1.0 -0.3296578639
O  O1  1  0.49885000  0.75281000  0.68658000  1.0 -0.2187931249
O  O2  1  0.06623000  0.81227000  0.31342000  1.0 -0.2187931249
O  O3  1  0.50281000  0.31623000  0.75396000  1.0 -0.2187931249
O  O4  1  0.56227000  0.74885000  0.24604000  1.0 -0.2187931249
O  O5  1  0.25115000  0.49719000  0.81342000  1.0 -0.2187931249
O  O6  1  0.68377000  0.43773000  0.18658000  1.0 -0.2116529266
O  O7  1  0.24719000  0.93377000  0.74604000  1.0 -0.2187931249
O  O8  1  0.18773000  0.50115000  0.25396000  1.0 -0.2187931249
O  O9  1  0.68773000  0.43377000  0.68658000  1.0 -0.2187931249
O  O10  1  0.18377000  0.99719000  0.24604000  1.0 -0.2187931249
O  O11  1  0.75115000  0.93773000  0.75396000  1.0 -0.2187931249
O  O12  1  0.74719000  0.00115000  0.31342000  1.0 -0.2187931249
O  O13  1  0.06227000  0.81623000  0.81342000  1.0 -0.2187931249
O  O14  1  0.56623000  0.25281000  0.25396000  1.0 -0.2187931249
O  O15  1  0.99885000  0.31227000  0.74604000  1.0 -0.2187931249
O  O16  1  0.00281000  0.24885000  0.18658000  1.0 -0.2187931249
