# DDEC6 charges by PACMAN v1.1 (https://github.com/mtap-research/PACMAN-charge/)
data_LODPUQ_ASR_pacman
_symmetry_space_group_name_H-M   'P 1'
_cell_length_a   26.69610000
_cell_length_b   26.69610000
_cell_length_c   26.69610000
_cell_angle_alpha   128.77500000
_cell_angle_beta   128.77500000
_cell_angle_gamma   75.37340000
_symmetry_Int_Tables_number   1
_chemical_formula_structural   Ni5H40(C42N17)2
_chemical_formula_sum   'Ni20 H160 C336 N136'
_cell_volume   11254.23114818
_cell_formula_units_Z   4
loop_
 _symmetry_equiv_pos_site_id
 _symmetry_equiv_pos_as_xyz
  1  'x, y, z'
loop_
 _atom_site_type_symbol
 _atom_site_label
 _atom_site_symmetry_multiplicity
 _atom_site_fract_x
 _atom_site_fract_y
 _atom_site_fract_z
 _atom_site_occupancy
 _atom_site_charge
Ni  Ni1  1  0.43066000  0.81406000  0.64530000  1.0 0.6136004321
Ni  Ni2  1  0.16876000  0.78536000  0.35470000  1.0 0.6136004321
Ni  Ni3  1  0.56406000  0.41876000  0.88340000  1.0 0.6136004321
Ni  Ni4  1  0.53536000  0.68066000  0.11660000  1.0 0.6136004321
Ni  Ni5  1  0.31934000  0.43594000  0.85470000  1.0 0.6136004321
Ni  Ni6  1  0.58124000  0.46464000  0.14530000  1.0 0.6136004321
Ni  Ni7  1  0.18594000  0.83124000  0.61660000  1.0 0.6136004321
Ni  Ni8  1  0.21464000  0.56934000  0.38340000  1.0 0.6136004321
Ni  Ni9  1  0.25000000  0.75000000  0.50000000  1.0 0.3069428057
Ni  Ni10  1  0.50000000  0.50000000  0.00000000  1.0 0.3069428057
Ni  Ni11  1  0.71464000  0.33124000  0.64530000  1.0 0.6136004321
Ni  Ni12  1  0.08124000  0.93594000  0.11660000  1.0 0.6136004321
Ni  Ni13  1  0.81934000  0.96464000  0.88340000  1.0 0.6136004321
Ni  Ni14  1  0.68594000  0.06934000  0.35470000  1.0 0.6136004321
Ni  Ni15  1  0.03536000  0.91876000  0.85470000  1.0 0.6136004321
Ni  Ni16  1  0.66876000  0.31406000  0.38340000  1.0 0.6136004321
Ni  Ni17  1  0.93066000  0.28536000  0.61660000  1.0 0.6136004321
Ni  Ni18  1  0.06406000  0.18066000  0.14530000  1.0 0.6136004321
Ni  Ni19  1  0.75000000  0.25000000  0.50000000  1.0 0.3069428057
Ni  Ni20  1  0.00000000  0.00000000  0.00000000  1.0 0.3069428057
H  H1  1  0.51710000  0.70250000  0.64820000  1.0 0.1378103594
H  H2  1  0.05430000  0.86890000  0.35180000  1.0 0.1378103594
H  H3  1  0.45250000  0.30430000  0.68540000  1.0 0.1378103594
H  H4  1  0.61890000  0.76710000  0.31460000  1.0 0.1378103594
H  H5  1  0.23290000  0.54750000  0.85180000  1.0 0.1378103594
H  H6  1  0.69570000  0.38110000  0.14820000  1.0 0.1378103594
H  H7  1  0.29750000  0.94570000  0.81460000  1.0 0.1378103594
H  H8  1  0.13110000  0.48290000  0.18540000  1.0 0.1378103594
H  H9  1  0.54080000  0.60140000  0.61180000  1.0 0.1125153747
H  H10  1  0.98960000  0.92900000  0.38820000  1.0 0.1125153747
H  H11  1  0.35140000  0.23960000  0.56060000  1.0 0.1125153747
H  H12  1  0.67900000  0.79080000  0.43940000  1.0 0.1125153747
H  H13  1  0.20920000  0.64860000  0.88820000  1.0 0.1125153747
H  H14  1  0.76040000  0.32100000  0.11180000  1.0 0.1125153747
H  H15  1  0.39860000  0.01040000  0.93940000  1.0 0.1125153747
H  H16  1  0.07100000  0.45920000  0.06060000  1.0 0.1125153747
H  H17  1  0.45810000  0.50590000  0.50560000  1.0 0.1125153747
H  H18  1  0.00030000  0.95250000  0.49440000  1.0 0.1125153747
H  H19  1  0.25590000  0.25030000  0.54780000  1.0 0.1125153747
H  H20  1  0.70250000  0.70810000  0.45220000  1.0 0.1125153747
H  H21  1  0.29190000  0.74410000  0.99440000  1.0 0.1125153747
H  H22  1  0.74970000  0.29750000  0.00560000  1.0 0.1125153747
H  H23  1  0.49410000  0.99970000  0.95220000  1.0 0.1125153747
H  H24  1  0.04750000  0.54190000  0.04780000  1.0 0.1125153747
H  H25  1  0.34810000  0.50840000  0.43490000  1.0 0.1378103594
H  H26  1  0.07350000  0.91320000  0.56510000  1.0 0.1378103594
H  H27  1  0.25840000  0.32350000  0.66030000  1.0 0.1378103594
H  H28  1  0.66320000  0.59810000  0.33970000  1.0 0.1378103594
H  H29  1  0.40190000  0.74160000  0.06510000  1.0 0.1378103594
H  H30  1  0.67650000  0.33680000  0.93490000  1.0 0.1378103594
H  H31  1  0.49160000  0.92650000  0.83970000  1.0 0.1378103594
H  H32  1  0.08680000  0.65190000  0.16030000  1.0 0.1378103594
H  H33  1  0.47950000  0.88760000  0.61170000  1.0 0.1288408746
H  H34  1  0.27590000  0.86780000  0.38830000  1.0 0.1288408746
H  H35  1  0.63760000  0.52590000  0.90810000  1.0 0.1288408746
H  H36  1  0.61780000  0.72950000  0.09190000  1.0 0.1288408746
H  H37  1  0.27050000  0.36240000  0.88830000  1.0 0.1288408746
H  H38  1  0.47410000  0.38220000  0.11170000  1.0 0.1288408746
H  H39  1  0.11240000  0.72410000  0.59190000  1.0 0.1288408746
H  H40  1  0.13220000  0.52050000  0.40810000  1.0 0.1288408746
H  H41  1  0.47480000  0.92910000  0.55490000  1.0 0.1288408746
H  H42  1  0.37420000  0.91990000  0.44510000  1.0 0.1288408746
H  H43  1  0.67910000  0.62420000  0.95430000  1.0 0.1288408746
H  H44  1  0.66990000  0.72480000  0.04570000  1.0 0.1288408746
H  H45  1  0.27520000  0.32090000  0.94510000  1.0 0.1288408746
H  H46  1  0.37580000  0.33010000  0.05490000  1.0 0.1288408746
H  H47  1  0.07090000  0.62580000  0.54570000  1.0 0.1288408746
H  H48  1  0.08010000  0.52520000  0.45430000  1.0 0.1288408746
H  H49  1  0.58160000  0.72940000  0.46500000  1.0 0.1288408746
H  H50  1  0.26440000  0.11660000  0.53500000  1.0 0.1288408746
H  H51  1  0.47940000  0.51440000  0.64780000  1.0 0.1288408746
H  H52  1  0.86660000  0.83160000  0.35220000  1.0 0.1288408746
H  H53  1  0.16840000  0.52060000  0.03500000  1.0 0.1288408746
H  H54  1  0.48560000  0.13340000  0.96500000  1.0 0.1288408746
H  H55  1  0.27060000  0.73560000  0.85220000  1.0 0.1288408746
H  H56  1  0.88340000  0.41840000  0.14780000  1.0 0.1288408746
H  H57  1  0.57570000  0.62690000  0.36560000  1.0 0.1225121034
H  H58  1  0.26130000  0.21010000  0.63440000  1.0 0.1225121034
H  H59  1  0.37690000  0.51130000  0.55120000  1.0 0.1225121034
H  H60  1  0.96010000  0.82570000  0.44880000  1.0 0.1225121034
H  H61  1  0.17430000  0.62310000  0.13440000  1.0 0.1225121034
H  H62  1  0.48870000  0.03990000  0.86560000  1.0 0.1225121034
H  H63  1  0.37310000  0.73870000  0.94880000  1.0 0.1225121034
H  H64  1  0.78990000  0.42430000  0.05120000  1.0 0.1225121034
H  H65  1  0.52210000  0.54710000  0.41780000  1.0 0.1225121034
H  H66  1  0.12930000  0.10430000  0.58220000  1.0 0.1225121034
H  H67  1  0.29710000  0.37930000  0.52500000  1.0 0.1225121034
H  H68  1  0.85430000  0.77210000  0.47500000  1.0 0.1225121034
H  H69  1  0.22790000  0.70290000  0.08220000  1.0 0.1225121034
H  H70  1  0.62070000  0.14570000  0.91780000  1.0 0.1225121034
H  H71  1  0.45290000  0.87070000  0.97500000  1.0 0.1225121034
H  H72  1  0.89570000  0.47790000  0.02500000  1.0 0.1225121034
H  H73  1  0.52480000  0.65000000  0.51520000  1.0 0.1225121034
H  H74  1  0.13480000  0.00960000  0.48480000  1.0 0.1225121034
H  H75  1  0.40000000  0.38480000  0.62520000  1.0 0.1225121034
H  H76  1  0.75960000  0.77480000  0.37480000  1.0 0.1225121034
H  H77  1  0.22520000  0.60000000  0.98480000  1.0 0.1225121034
H  H78  1  0.61520000  0.24040000  0.01520000  1.0 0.1225121034
H  H79  1  0.35000000  0.86520000  0.87480000  1.0 0.1225121034
H  H80  1  0.99040000  0.47520000  0.12520000  1.0 0.1225121034
H  H81  1  0.63110000  0.44570000  0.64820000  1.0 0.1378103594
H  H82  1  0.19570000  0.04750000  0.31460000  1.0 0.1378103594
H  H83  1  0.73290000  0.88110000  0.68540000  1.0 0.1378103594
H  H84  1  0.79750000  0.98290000  0.35180000  1.0 0.1378103594
H  H85  1  0.11890000  0.80430000  0.85180000  1.0 0.1378103594
H  H86  1  0.55430000  0.20250000  0.18540000  1.0 0.1378103594
H  H87  1  0.01710000  0.36890000  0.81460000  1.0 0.1378103594
H  H88  1  0.95250000  0.26710000  0.14820000  1.0 0.1378103594
H  H89  1  0.57100000  0.51040000  0.61180000  1.0 0.1125153747
H  H90  1  0.26040000  0.14860000  0.43940000  1.0 0.1125153747
H  H91  1  0.70920000  0.82100000  0.56060000  1.0 0.1125153747
H  H92  1  0.89860000  0.95920000  0.38820000  1.0 0.1125153747
H  H93  1  0.17900000  0.73960000  0.88820000  1.0 0.1125153747
H  H94  1  0.48960000  0.10140000  0.06060000  1.0 0.1125153747
H  H95  1  0.04080000  0.42900000  0.93940000  1.0 0.1125153747
H  H96  1  0.85140000  0.29080000  0.11180000  1.0 0.1125153747
H  H97  1  0.54750000  0.49970000  0.50560000  1.0 0.1125153747
H  H98  1  0.24970000  0.24410000  0.45220000  1.0 0.1125153747
H  H99  1  0.79190000  0.79750000  0.54780000  1.0 0.1125153747
H  H100  1  0.99410000  0.04190000  0.49440000  1.0 0.1125153747
H  H101  1  0.20250000  0.75030000  0.99440000  1.0 0.1125153747
H  H102  1  0.50030000  0.00590000  0.04780000  1.0 0.1125153747
H  H103  1  0.95810000  0.45250000  0.95220000  1.0 0.1125153747
H  H104  1  0.75590000  0.20810000  0.00560000  1.0 0.1125153747
H  H105  1  0.58680000  0.42650000  0.43490000  1.0 0.1378103594
H  H106  1  0.17650000  0.24160000  0.33970000  1.0 0.1378103594
H  H107  1  0.90190000  0.83680000  0.66030000  1.0 0.1378103594
H  H108  1  0.99160000  0.15190000  0.56510000  1.0 0.1378103594
H  H109  1  0.16320000  0.82350000  0.06510000  1.0 0.1378103594
H  H110  1  0.57350000  0.00840000  0.16030000  1.0 0.1378103594
H  H111  1  0.84810000  0.41320000  0.83970000  1.0 0.1378103594
H  H112  1  0.75840000  0.09810000  0.93490000  1.0 0.1378103594
H  H113  1  0.63220000  0.22410000  0.61170000  1.0 0.1288408746
H  H114  1  0.97410000  0.86240000  0.09190000  1.0 0.1288408746
H  H115  1  0.77050000  0.88220000  0.90810000  1.0 0.1288408746
H  H116  1  0.61240000  0.02050000  0.38830000  1.0 0.1288408746
H  H117  1  0.11780000  0.02590000  0.88830000  1.0 0.1288408746
H  H118  1  0.77590000  0.38760000  0.40810000  1.0 0.1288408746
H  H119  1  0.97950000  0.36780000  0.59190000  1.0 0.1288408746
H  H120  1  0.13760000  0.22950000  0.11170000  1.0 0.1288408746
H  H121  1  0.58010000  0.12580000  0.55490000  1.0 0.1288408746
H  H122  1  0.87580000  0.82090000  0.04570000  1.0 0.1288408746
H  H123  1  0.77520000  0.83010000  0.95430000  1.0 0.1288408746
H  H124  1  0.57090000  0.02520000  0.44510000  1.0 0.1288408746
H  H125  1  0.16990000  0.12420000  0.94510000  1.0 0.1288408746
H  H126  1  0.87420000  0.42910000  0.45430000  1.0 0.1288408746
H  H127  1  0.97480000  0.41990000  0.54570000  1.0 0.1288408746
H  H128  1  0.17910000  0.22480000  0.05490000  1.0 0.1288408746
H  H129  1  0.38340000  0.23560000  0.46500000  1.0 0.1288408746
H  H130  1  0.98560000  0.02060000  0.35220000  1.0 0.1288408746
H  H131  1  0.66840000  0.63340000  0.64780000  1.0 0.1288408746
H  H132  1  0.77060000  0.91840000  0.53500000  1.0 0.1288408746
H  H133  1  0.36660000  0.01440000  0.03500000  1.0 0.1288408746
H  H134  1  0.76440000  0.22940000  0.14780000  1.0 0.1288408746
H  H135  1  0.08160000  0.61660000  0.85220000  1.0 0.1288408746
H  H136  1  0.97940000  0.33160000  0.96500000  1.0 0.1288408746
H  H137  1  0.28990000  0.23870000  0.36560000  1.0 0.1225121034
H  H138  1  0.98870000  0.12310000  0.44880000  1.0 0.1225121034
H  H139  1  0.67430000  0.53990000  0.55120000  1.0 0.1225121034
H  H140  1  0.87310000  0.92430000  0.63440000  1.0 0.1225121034
H  H141  1  0.46010000  0.01130000  0.13440000  1.0 0.1225121034
H  H142  1  0.76130000  0.12690000  0.05120000  1.0 0.1225121034
H  H143  1  0.07570000  0.71010000  0.94880000  1.0 0.1225121034
H  H144  1  0.87690000  0.32570000  0.86560000  1.0 0.1225121034
H  H145  1  0.39570000  0.37070000  0.41780000  1.0 0.1225121034
H  H146  1  0.12070000  0.20290000  0.47500000  1.0 0.1225121034
H  H147  1  0.72790000  0.64570000  0.52500000  1.0 0.1225121034
H  H148  1  0.95290000  0.97790000  0.58220000  1.0 0.1225121034
H  H149  1  0.35430000  0.87930000  0.08220000  1.0 0.1225121034
H  H150  1  0.62930000  0.04710000  0.02500000  1.0 0.1225121034
H  H151  1  0.02210000  0.60430000  0.97500000  1.0 0.1225121034
H  H152  1  0.79710000  0.27210000  0.91780000  1.0 0.1225121034
H  H153  1  0.49040000  0.36520000  0.51520000  1.0 0.1225121034
H  H154  1  0.11520000  0.10000000  0.37480000  1.0 0.1225121034
H  H155  1  0.72520000  0.74040000  0.62520000  1.0 0.1225121034
H  H156  1  0.85000000  0.97520000  0.48480000  1.0 0.1225121034
H  H157  1  0.25960000  0.88480000  0.98480000  1.0 0.1225121034
H  H158  1  0.63480000  0.15000000  0.12520000  1.0 0.1225121034
H  H159  1  0.02480000  0.50960000  0.87480000  1.0 0.1225121034
H  H160  1  0.90000000  0.27480000  0.01520000  1.0 0.1225121034
C  C1  1  0.41602000  0.66621000  0.56203000  1.0 0.1288408746
C  C2  1  0.10418000  0.85399000  0.43797000  1.0 0.1288408746
C  C3  1  0.41621000  0.35418000  0.75019000  1.0 0.1288408746
C  C4  1  0.60399000  0.66602000  0.24981000  1.0 0.1288408746
C  C5  1  0.33398000  0.58379000  0.93797000  1.0 0.1288408746
C  C6  1  0.64582000  0.39601000  0.06203000  1.0 0.1288408746
C  C7  1  0.33379000  0.89582000  0.74981000  1.0 0.1288408746
C  C8  1  0.14601000  0.58398000  0.25019000  1.0 0.1288408746
C  C9  1  0.48370000  0.66445000  0.60617000  1.0 -0.1463464382
C  C10  1  0.05828000  0.87753000  0.39383000  1.0 -0.1463464382
C  C11  1  0.41445000  0.30828000  0.68075000  1.0 -0.1463464382
C  C12  1  0.62753000  0.73370000  0.31925000  1.0 -0.1463464382
C  C13  1  0.26630000  0.58555000  0.89383000  1.0 -0.1463464382
C  C14  1  0.69172000  0.37247000  0.10617000  1.0 -0.1463464382
C  C15  1  0.33555000  0.94172000  0.81925000  1.0 -0.1463464382
C  C16  1  0.12247000  0.51630000  0.18075000  1.0 -0.1463464382
C  C17  1  0.49695000  0.60435000  0.58380000  1.0 -0.106695025
C  C18  1  0.02055000  0.91315000  0.41620000  1.0 -0.106695025
C  C19  1  0.35435000  0.27055000  0.60740000  1.0 -0.106695025
C  C20  1  0.66315000  0.74695000  0.39260000  1.0 -0.106695025
C  C21  1  0.25305000  0.64565000  0.91620000  1.0 -0.106695025
C  C22  1  0.72945000  0.33685000  0.08380000  1.0 -0.106695025
C  C23  1  0.39565000  0.97945000  0.89260000  1.0 -0.106695025
C  C24  1  0.08685000  0.50305000  0.10740000  1.0 -0.106695025
C  C25  1  0.44642000  0.54602000  0.51940000  1.0 -0.106695025
C  C26  1  0.02662000  0.92702000  0.48060000  1.0 -0.106695025
C  C27  1  0.29602000  0.27662000  0.59960000  1.0 -0.106695025
C  C28  1  0.67702000  0.69642000  0.40040000  1.0 -0.106695025
C  C29  1  0.30358000  0.70398000  0.98060000  1.0 -0.106695025
C  C30  1  0.72338000  0.32298000  0.01940000  1.0 -0.106695025
C  C31  1  0.45398000  0.97338000  0.90040000  1.0 -0.106695025
C  C32  1  0.07298000  0.55358000  0.09960000  1.0 -0.106695025
C  C33  1  0.38118000  0.54696000  0.47702000  1.0 -0.160134367
C  C34  1  0.06994000  0.90416000  0.52298000  1.0 -0.160134367
C  C35  1  0.29696000  0.31994000  0.66578000  1.0 -0.160134367
C  C36  1  0.65416000  0.63118000  0.33422000  1.0 -0.160134367
C  C37  1  0.36882000  0.70304000  0.02298000  1.0 -0.160134367
C  C38  1  0.68006000  0.34584000  0.97702000  1.0 -0.160134367
C  C39  1  0.45304000  0.93006000  0.83422000  1.0 -0.160134367
C  C40  1  0.09584000  0.61882000  0.16578000  1.0 -0.160134367
C  C41  1  0.36630000  0.60945000  0.50027000  1.0 0.1288408746
C  C42  1  0.10918000  0.86603000  0.49973000  1.0 0.1288408746
C  C43  1  0.35945000  0.35918000  0.74315000  1.0 0.1288408746
C  C44  1  0.61603000  0.61630000  0.25685000  1.0 0.1288408746
C  C45  1  0.38370000  0.64055000  0.99973000  1.0 0.1288408746
C  C46  1  0.64082000  0.38397000  0.00027000  1.0 0.1288408746
C  C47  1  0.39055000  0.89082000  0.75685000  1.0 0.1288408746
C  C48  1  0.13397000  0.63370000  0.24315000  1.0 0.1288408746
C  C49  1  0.37898000  0.85217000  0.53301000  1.0 0.1288408746
C  C50  1  0.31916000  0.84597000  0.46699000  1.0 0.1288408746
C  C51  1  0.60217000  0.56916000  0.97319000  1.0 0.1288408746
C  C52  1  0.59597000  0.62898000  0.02681000  1.0 0.1288408746
C  C53  1  0.37102000  0.39783000  0.96699000  1.0 0.1288408746
C  C54  1  0.43084000  0.40403000  0.03301000  1.0 0.1288408746
C  C55  1  0.14783000  0.68084000  0.52681000  1.0 0.1288408746
C  C56  1  0.15403000  0.62102000  0.47319000  1.0 0.1288408746
C  C57  1  0.43939000  0.88369000  0.56770000  1.0 -0.160134367
C  C58  1  0.31599000  0.87169000  0.43230000  1.0 -0.160134367
C  C59  1  0.63369000  0.56599000  0.94430000  1.0 -0.160134367
C  C60  1  0.62169000  0.68939000  0.05570000  1.0 -0.160134367
C  C61  1  0.31061000  0.36631000  0.93230000  1.0 -0.160134367
C  C62  1  0.43401000  0.37831000  0.06770000  1.0 -0.160134367
C  C63  1  0.11631000  0.68401000  0.55570000  1.0 -0.160134367
C  C64  1  0.12831000  0.56061000  0.44430000  1.0 -0.160134367
C  C65  1  0.43596000  0.90816000  0.53360000  1.0 -0.0757428503
C  C66  1  0.37456000  0.90236000  0.46640000  1.0 -0.0757428503
C  C67  1  0.65816000  0.62456000  0.97220000  1.0 -0.0757428503
C  C68  1  0.65236000  0.68596000  0.02780000  1.0 -0.0757428503
C  C69  1  0.31404000  0.34184000  0.96640000  1.0 -0.0757428503
C  C70  1  0.37544000  0.34764000  0.03360000  1.0 -0.0757428503
C  C71  1  0.09184000  0.62544000  0.52780000  1.0 -0.0757428503
C  C72  1  0.09764000  0.56404000  0.47220000  1.0 -0.0757428503
C  C73  1  0.52540000  0.77649000  0.59579000  1.0 0.3069428057
C  C74  1  0.18070000  0.92961000  0.40421000  1.0 0.3069428057
C  C75  1  0.52649000  0.43070000  0.75109000  1.0 0.3069428057
C  C76  1  0.67961000  0.77540000  0.24891000  1.0 0.3069428057
C  C77  1  0.22460000  0.47351000  0.90421000  1.0 0.3069428057
C  C78  1  0.56930000  0.32039000  0.09579000  1.0 0.3069428057
C  C79  1  0.22351000  0.81930000  0.74891000  1.0 0.3069428057
C  C80  1  0.07039000  0.47460000  0.25109000  1.0 0.3069428057
C  C81  1  0.58253000  0.82373000  0.58700000  1.0 0.256486674
C  C82  1  0.23673000  0.99553000  0.41300000  1.0 0.256486674
C  C83  1  0.57373000  0.48673000  0.74120000  1.0 0.256486674
C  C84  1  0.74553000  0.83253000  0.25880000  1.0 0.256486674
C  C85  1  0.16747000  0.42627000  0.91300000  1.0 0.256486674
C  C86  1  0.51327000  0.25447000  0.08700000  1.0 0.256486674
C  C87  1  0.17627000  0.76327000  0.75880000  1.0 0.256486674
C  C88  1  0.00447000  0.41747000  0.24120000  1.0 0.256486674
C  C89  1  0.55731000  0.76637000  0.56406000  1.0 -0.1321266091
C  C90  1  0.20231000  0.99325000  0.43594000  1.0 -0.1321266091
C  C91  1  0.51637000  0.45231000  0.70906000  1.0 -0.1321266091
C  C92  1  0.74325000  0.80731000  0.29094000  1.0 -0.1321266091
C  C93  1  0.19269000  0.48363000  0.93594000  1.0 -0.1321266091
C  C94  1  0.54769000  0.25675000  0.06406000  1.0 -0.1321266091
C  C95  1  0.23363000  0.79769000  0.79094000  1.0 -0.1321266091
C  C96  1  0.00675000  0.44269000  0.20906000  1.0 -0.1321266091
C  C97  1  0.55456000  0.70230000  0.50330000  1.0 0.1125153747
C  C98  1  0.19900000  0.05126000  0.49670000  1.0 0.1125153747
C  C99  1  0.45230000  0.44900000  0.64774000  1.0 0.1125153747
C  C100  1  0.80126000  0.80456000  0.35226000  1.0 0.1125153747
C  C101  1  0.19544000  0.54770000  0.99670000  1.0 0.1125153747
C  C102  1  0.55100000  0.19874000  0.00330000  1.0 0.1125153747
C  C103  1  0.29770000  0.80100000  0.85226000  1.0 0.1125153747
C  C104  1  0.94874000  0.44544000  0.14774000  1.0 0.1125153747
C  C105  1  0.56954000  0.69293000  0.45559000  1.0 -0.1429071164
C  C106  1  0.23734000  0.11395000  0.54441000  1.0 -0.1429071164
C  C107  1  0.44293000  0.48734000  0.62339000  1.0 -0.1429071164
C  C108  1  0.86395000  0.81954000  0.37661000  1.0 -0.1429071164
C  C109  1  0.18046000  0.55707000  0.04441000  1.0 -0.1429071164
C  C110  1  0.51266000  0.13605000  0.95559000  1.0 -0.1429071164
C  C111  1  0.30707000  0.76266000  0.87661000  1.0 -0.1429071164
C  C112  1  0.88605000  0.43046000  0.12339000  1.0 -0.1429071164
C  C113  1  0.56659000  0.63160000  0.39661000  1.0 -0.1463464382
C  C114  1  0.23499000  0.16998000  0.60339000  1.0 -0.1463464382
C  C115  1  0.38160000  0.48499000  0.56501000  1.0 -0.1463464382
C  C116  1  0.91998000  0.81659000  0.43499000  1.0 -0.1463464382
C  C117  1  0.18341000  0.61840000  0.10339000  1.0 -0.1463464382
C  C118  1  0.51501000  0.08002000  0.89661000  1.0 -0.1463464382
C  C119  1  0.36840000  0.76501000  0.93499000  1.0 -0.1463464382
C  C120  1  0.83002000  0.43341000  0.06501000  1.0 -0.1463464382
C  C121  1  0.54990000  0.57499000  0.38139000  1.0 0.1125153747
C  C122  1  0.19360000  0.16851000  0.61861000  1.0 0.1125153747
C  C123  1  0.32499000  0.44360000  0.52509000  1.0 0.1125153747
C  C124  1  0.91851000  0.79990000  0.47491000  1.0 0.1125153747
C  C125  1  0.20010000  0.67501000  0.11861000  1.0 0.1125153747
C  C126  1  0.55640000  0.08149000  0.88139000  1.0 0.1125153747
C  C127  1  0.42501000  0.80640000  0.97491000  1.0 0.1125153747
C  C128  1  0.83149000  0.45010000  0.02509000  1.0 0.1125153747
C  C129  1  0.53403000  0.58367000  0.42724000  1.0 -0.1429071164
C  C130  1  0.15643000  0.10679000  0.57276000  1.0 -0.1429071164
C  C131  1  0.33367000  0.40643000  0.54964000  1.0 -0.1429071164
C  C132  1  0.85679000  0.78403000  0.45036000  1.0 -0.1429071164
C  C133  1  0.21597000  0.66633000  0.07276000  1.0 -0.1429071164
C  C134  1  0.59357000  0.14321000  0.92724000  1.0 -0.1429071164
C  C135  1  0.41633000  0.84357000  0.95036000  1.0 -0.1429071164
C  C136  1  0.89321000  0.46597000  0.04964000  1.0 -0.1429071164
C  C137  1  0.53607000  0.64561000  0.48614000  1.0 -0.1463464382
C  C138  1  0.15947000  0.04993000  0.51386000  1.0 -0.1463464382
C  C139  1  0.39561000  0.40947000  0.60954000  1.0 -0.1463464382
C  C140  1  0.79993000  0.78607000  0.39046000  1.0 -0.1463464382
C  C141  1  0.21393000  0.60439000  0.01386000  1.0 -0.1463464382
C  C142  1  0.59053000  0.20007000  0.98614000  1.0 -0.1463464382
C  C143  1  0.35439000  0.84053000  0.89046000  1.0 -0.1463464382
C  C144  1  0.95007000  0.46393000  0.10954000  1.0 -0.1463464382
C  C145  1  0.54844000  0.51106000  0.32068000  1.0 -0.1321266091
C  C146  1  0.19038000  0.22776000  0.67932000  1.0 -0.1321266091
C  C147  1  0.26106000  0.44038000  0.46262000  1.0 -0.1321266091
C  C148  1  0.97776000  0.79844000  0.53738000  1.0 -0.1321266091
C  C149  1  0.20156000  0.73894000  0.17932000  1.0 -0.1321266091
C  C150  1  0.55962000  0.02224000  0.82068000  1.0 -0.1321266091
C  C151  1  0.48894000  0.80962000  0.03738000  1.0 -0.1321266091
C  C152  1  0.77224000  0.45156000  0.96262000  1.0 -0.1321266091
C  C153  1  0.53316000  0.45376000  0.30420000  1.0 0.2440647233
C  C154  1  0.14956000  0.22896000  0.69580000  1.0 0.2440647233
C  C155  1  0.20376000  0.39956000  0.42060000  1.0 0.2440647233
C  C156  1  0.97896000  0.78316000  0.57940000  1.0 0.2440647233
C  C157  1  0.21684000  0.79624000  0.19580000  1.0 0.2440647233
C  C158  1  0.60044000  0.02104000  0.80420000  1.0 0.2440647233
C  C159  1  0.54624000  0.85044000  0.07940000  1.0 0.2440647233
C  C160  1  0.77104000  0.46684000  0.92060000  1.0 0.2440647233
C  C161  1  0.55979000  0.50190000  0.27069000  1.0 0.3069428057
C  C162  1  0.23121000  0.28910000  0.72931000  1.0 0.3069428057
C  C163  1  0.25190000  0.48121000  0.44211000  1.0 0.3069428057
C  C164  1  0.03910000  0.80979000  0.55789000  1.0 0.3069428057
C  C165  1  0.19021000  0.74810000  0.22931000  1.0 0.3069428057
C  C166  1  0.51879000  0.96090000  0.77069000  1.0 0.3069428057
C  C167  1  0.49810000  0.76879000  0.05789000  1.0 0.3069428057
C  C168  1  0.71090000  0.44021000  0.94211000  1.0 0.3069428057
C  C169  1  0.64601000  0.39582000  0.56203000  1.0 0.1288408746
C  C170  1  0.14582000  0.08379000  0.24981000  1.0 0.1288408746
C  C171  1  0.83398000  0.89601000  0.75019000  1.0 0.1288408746
C  C172  1  0.83379000  0.08398000  0.43797000  1.0 0.1288408746
C  C173  1  0.10399000  0.85418000  0.93797000  1.0 0.1288408746
C  C174  1  0.60418000  0.16621000  0.25019000  1.0 0.1288408746
C  C175  1  0.91602000  0.35399000  0.74981000  1.0 0.1288408746
C  C176  1  0.91621000  0.16602000  0.06203000  1.0 0.1288408746
C  C177  1  0.62247000  0.44172000  0.60617000  1.0 -0.1463464382
C  C178  1  0.19172000  0.08555000  0.31925000  1.0 -0.1463464382
C  C179  1  0.76630000  0.87247000  0.68075000  1.0 -0.1463464382
C  C180  1  0.83555000  0.01630000  0.39383000  1.0 -0.1463464382
C  C181  1  0.12753000  0.80828000  0.89383000  1.0 -0.1463464382
C  C182  1  0.55828000  0.16445000  0.18075000  1.0 -0.1463464382
C  C183  1  0.98370000  0.37753000  0.81925000  1.0 -0.1463464382
C  C184  1  0.91445000  0.23370000  0.10617000  1.0 -0.1463464382
C  C185  1  0.58685000  0.47945000  0.58380000  1.0 -0.106695025
C  C186  1  0.22945000  0.14565000  0.39260000  1.0 -0.106695025
C  C187  1  0.75305000  0.83685000  0.60740000  1.0 -0.106695025
C  C188  1  0.89565000  0.00305000  0.41620000  1.0 -0.106695025
C  C189  1  0.16315000  0.77055000  0.91620000  1.0 -0.106695025
C  C190  1  0.52055000  0.10435000  0.10740000  1.0 -0.106695025
C  C191  1  0.99695000  0.41315000  0.89260000  1.0 -0.106695025
C  C192  1  0.85435000  0.24695000  0.08380000  1.0 -0.106695025
C  C193  1  0.57298000  0.47338000  0.51940000  1.0 -0.106695025
C  C194  1  0.22338000  0.20398000  0.40040000  1.0 -0.106695025
C  C195  1  0.80358000  0.82298000  0.59960000  1.0 -0.106695025
C  C196  1  0.95398000  0.05358000  0.48060000  1.0 -0.106695025
C  C197  1  0.17702000  0.77662000  0.98060000  1.0 -0.106695025
C  C198  1  0.52662000  0.04602000  0.09960000  1.0 -0.106695025
C  C199  1  0.94642000  0.42702000  0.90040000  1.0 -0.106695025
C  C200  1  0.79602000  0.19642000  0.01940000  1.0 -0.106695025
C  C201  1  0.59584000  0.43006000  0.47702000  1.0 -0.160134367
C  C202  1  0.18006000  0.20304000  0.33422000  1.0 -0.160134367
C  C203  1  0.86882000  0.84584000  0.66578000  1.0 -0.160134367
C  C204  1  0.95304000  0.11882000  0.52298000  1.0 -0.160134367
C  C205  1  0.15416000  0.81994000  0.02298000  1.0 -0.160134367
C  C206  1  0.56994000  0.04696000  0.16578000  1.0 -0.160134367
C  C207  1  0.88118000  0.40416000  0.83422000  1.0 -0.160134367
C  C208  1  0.79696000  0.13118000  0.97702000  1.0 -0.160134367
C  C209  1  0.63397000  0.39082000  0.50027000  1.0 0.1288408746
C  C210  1  0.14082000  0.14055000  0.25685000  1.0 0.1288408746
C  C211  1  0.88370000  0.88397000  0.74315000  1.0 0.1288408746
C  C212  1  0.89055000  0.13370000  0.49973000  1.0 0.1288408746
C  C213  1  0.11603000  0.85918000  0.99973000  1.0 0.1288408746
C  C214  1  0.60918000  0.10945000  0.24315000  1.0 0.1288408746
C  C215  1  0.86630000  0.36603000  0.75685000  1.0 0.1288408746
C  C216  1  0.85945000  0.11630000  0.00027000  1.0 0.1288408746
C  C217  1  0.65403000  0.18084000  0.53301000  1.0 0.1288408746
C  C218  1  0.93084000  0.89783000  0.02681000  1.0 0.1288408746
C  C219  1  0.87102000  0.90403000  0.97319000  1.0 0.1288408746
C  C220  1  0.64783000  0.12102000  0.46699000  1.0 0.1288408746
C  C221  1  0.09597000  0.06916000  0.96699000  1.0 0.1288408746
C  C222  1  0.81916000  0.35217000  0.47319000  1.0 0.1288408746
C  C223  1  0.87898000  0.34597000  0.52681000  1.0 0.1288408746
C  C224  1  0.10217000  0.12898000  0.03301000  1.0 0.1288408746
C  C225  1  0.62831000  0.18401000  0.56770000  1.0 -0.160134367
C  C226  1  0.93401000  0.86631000  0.05570000  1.0 -0.160134367
C  C227  1  0.81061000  0.87831000  0.94430000  1.0 -0.160134367
C  C228  1  0.61631000  0.06061000  0.43230000  1.0 -0.160134367
C  C229  1  0.12169000  0.06599000  0.93230000  1.0 -0.160134367
C  C230  1  0.81599000  0.38369000  0.44430000  1.0 -0.160134367
C  C231  1  0.93939000  0.37169000  0.55570000  1.0 -0.160134367
C  C232  1  0.13369000  0.18939000  0.06770000  1.0 -0.160134367
C  C233  1  0.59764000  0.12544000  0.53360000  1.0 -0.0757428503
C  C234  1  0.87544000  0.84184000  0.02780000  1.0 -0.0757428503
C  C235  1  0.81404000  0.84764000  0.97220000  1.0 -0.0757428503
C  C236  1  0.59184000  0.06404000  0.46640000  1.0 -0.0757428503
C  C237  1  0.15236000  0.12456000  0.96640000  1.0 -0.0757428503
C  C238  1  0.87456000  0.40816000  0.47220000  1.0 -0.0757428503
C  C239  1  0.93596000  0.40236000  0.52780000  1.0 -0.0757428503
C  C240  1  0.15816000  0.18596000  0.03360000  1.0 -0.0757428503
C  C241  1  0.57039000  0.31930000  0.59579000  1.0 0.3069428057
C  C242  1  0.06930000  0.97351000  0.24891000  1.0 0.3069428057
C  C243  1  0.72460000  0.82039000  0.75109000  1.0 0.3069428057
C  C244  1  0.72351000  0.97460000  0.40421000  1.0 0.3069428057
C  C245  1  0.17961000  0.93070000  0.90421000  1.0 0.3069428057
C  C246  1  0.68070000  0.27649000  0.25109000  1.0 0.3069428057
C  C247  1  0.02540000  0.42961000  0.74891000  1.0 0.3069428057
C  C248  1  0.02649000  0.27540000  0.09579000  1.0 0.3069428057
C  C249  1  0.50447000  0.26327000  0.58700000  1.0 0.256486674
C  C250  1  0.01327000  0.92627000  0.25880000  1.0 0.256486674
C  C251  1  0.66747000  0.75447000  0.74120000  1.0 0.256486674
C  C252  1  0.67627000  0.91747000  0.41300000  1.0 0.256486674
C  C253  1  0.24553000  0.98673000  0.91300000  1.0 0.256486674
C  C254  1  0.73673000  0.32373000  0.24120000  1.0 0.256486674
C  C255  1  0.08253000  0.49553000  0.75880000  1.0 0.256486674
C  C256  1  0.07373000  0.33253000  0.08700000  1.0 0.256486674
C  C257  1  0.50675000  0.29769000  0.56406000  1.0 -0.1321266091
C  C258  1  0.04769000  0.98363000  0.29094000  1.0 -0.1321266091
C  C259  1  0.69269000  0.75675000  0.70906000  1.0 -0.1321266091
C  C260  1  0.73363000  0.94269000  0.43594000  1.0 -0.1321266091
C  C261  1  0.24325000  0.95231000  0.93594000  1.0 -0.1321266091
C  C262  1  0.70231000  0.26637000  0.20906000  1.0 -0.1321266091
C  C263  1  0.05731000  0.49325000  0.79094000  1.0 -0.1321266091
C  C264  1  0.01637000  0.30731000  0.06406000  1.0 -0.1321266091
C  C265  1  0.44874000  0.30100000  0.50330000  1.0 0.1125153747
C  C266  1  0.05100000  0.04770000  0.35226000  1.0 0.1125153747
C  C267  1  0.69544000  0.69874000  0.64774000  1.0 0.1125153747
C  C268  1  0.79770000  0.94544000  0.49670000  1.0 0.1125153747
C  C269  1  0.30126000  0.94900000  0.99670000  1.0 0.1125153747
C  C270  1  0.69900000  0.20230000  0.14774000  1.0 0.1125153747
C  C271  1  0.05456000  0.55126000  0.85226000  1.0 0.1125153747
C  C272  1  0.95230000  0.30456000  0.00330000  1.0 0.1125153747
C  C273  1  0.38605000  0.26266000  0.45559000  1.0 -0.1429071164
C  C274  1  0.01266000  0.05707000  0.37661000  1.0 -0.1429071164
C  C275  1  0.68046000  0.63605000  0.62339000  1.0 -0.1429071164
C  C276  1  0.80707000  0.93046000  0.54441000  1.0 -0.1429071164
C  C277  1  0.36395000  0.98734000  0.04441000  1.0 -0.1429071164
C  C278  1  0.73734000  0.19293000  0.12339000  1.0 -0.1429071164
C  C279  1  0.06954000  0.61395000  0.87661000  1.0 -0.1429071164
C  C280  1  0.94293000  0.31954000  0.95559000  1.0 -0.1429071164
C  C281  1  0.33002000  0.26501000  0.39661000  1.0 -0.1463464382
C  C282  1  0.01501000  0.11840000  0.43499000  1.0 -0.1463464382
C  C283  1  0.68341000  0.58002000  0.56501000  1.0 -0.1463464382
C  C284  1  0.86840000  0.93341000  0.60339000  1.0 -0.1463464382
C  C285  1  0.41998000  0.98499000  0.10339000  1.0 -0.1463464382
C  C286  1  0.73499000  0.13160000  0.06501000  1.0 -0.1463464382
C  C287  1  0.06659000  0.66998000  0.93499000  1.0 -0.1463464382
C  C288  1  0.88160000  0.31659000  0.89661000  1.0 -0.1463464382
C  C289  1  0.33149000  0.30640000  0.38139000  1.0 0.1125153747
C  C290  1  0.05640000  0.17501000  0.47491000  1.0 0.1125153747
C  C291  1  0.70010000  0.58149000  0.52509000  1.0 0.1125153747
C  C292  1  0.92501000  0.95010000  0.61861000  1.0 0.1125153747
C  C293  1  0.41851000  0.94360000  0.11861000  1.0 0.1125153747
C  C294  1  0.69360000  0.07499000  0.02509000  1.0 0.1125153747
C  C295  1  0.04990000  0.66851000  0.97491000  1.0 0.1125153747
C  C296  1  0.82499000  0.29990000  0.88139000  1.0 0.1125153747
C  C297  1  0.39321000  0.34357000  0.42724000  1.0 -0.1429071164
C  C298  1  0.09357000  0.16633000  0.45036000  1.0 -0.1429071164
C  C299  1  0.71597000  0.64321000  0.54964000  1.0 -0.1429071164
C  C300  1  0.91633000  0.96597000  0.57276000  1.0 -0.1429071164
C  C301  1  0.35679000  0.90643000  0.07276000  1.0 -0.1429071164
C  C302  1  0.65643000  0.08367000  0.04964000  1.0 -0.1429071164
C  C303  1  0.03403000  0.60679000  0.95036000  1.0 -0.1429071164
C  C304  1  0.83367000  0.28403000  0.92724000  1.0 -0.1429071164
C  C305  1  0.45007000  0.34053000  0.48614000  1.0 -0.1463464382
C  C306  1  0.09053000  0.10439000  0.39046000  1.0 -0.1463464382
C  C307  1  0.71393000  0.70007000  0.60954000  1.0 -0.1463464382
C  C308  1  0.85439000  0.96393000  0.51386000  1.0 -0.1463464382
C  C309  1  0.29993000  0.90947000  0.01386000  1.0 -0.1463464382
C  C310  1  0.65947000  0.14561000  0.10954000  1.0 -0.1463464382
C  C311  1  0.03607000  0.54993000  0.89046000  1.0 -0.1463464382
C  C312  1  0.89561000  0.28607000  0.98614000  1.0 -0.1463464382
C  C313  1  0.27224000  0.30962000  0.32068000  1.0 -0.1321266091
C  C314  1  0.05962000  0.23894000  0.53738000  1.0 -0.1321266091
C  C315  1  0.70156000  0.52224000  0.46262000  1.0 -0.1321266091
C  C316  1  0.98894000  0.95156000  0.67932000  1.0 -0.1321266091
C  C317  1  0.47776000  0.94038000  0.17932000  1.0 -0.1321266091
C  C318  1  0.69038000  0.01106000  0.96262000  1.0 -0.1321266091
C  C319  1  0.04844000  0.72776000  0.03738000  1.0 -0.1321266091
C  C320  1  0.76106000  0.29844000  0.82068000  1.0 -0.1321266091
C  C321  1  0.27104000  0.35044000  0.30420000  1.0 0.2440647233
C  C322  1  0.10044000  0.29624000  0.57940000  1.0 0.2440647233
C  C323  1  0.71684000  0.52104000  0.42060000  1.0 0.2440647233
C  C324  1  0.04624000  0.96684000  0.69580000  1.0 0.2440647233
C  C325  1  0.47896000  0.89956000  0.19580000  1.0 0.2440647233
C  C326  1  0.64956000  0.95376000  0.92060000  1.0 0.2440647233
C  C327  1  0.03316000  0.72896000  0.07940000  1.0 0.2440647233
C  C328  1  0.70376000  0.28316000  0.80420000  1.0 0.2440647233
C  C329  1  0.21090000  0.26879000  0.27069000  1.0 0.3069428057
C  C330  1  0.01879000  0.24810000  0.55789000  1.0 0.3069428057
C  C331  1  0.69021000  0.46090000  0.44211000  1.0 0.3069428057
C  C332  1  0.99810000  0.94021000  0.72931000  1.0 0.3069428057
C  C333  1  0.53910000  0.98121000  0.22931000  1.0 0.3069428057
C  C334  1  0.73121000  0.00190000  0.94211000  1.0 0.3069428057
C  C335  1  0.05979000  0.78910000  0.05789000  1.0 0.3069428057
C  C336  1  0.75190000  0.30979000  0.77069000  1.0 0.3069428057
N  N1  1  0.32171000  0.69283000  0.51484000  1.0 0.0178120726
N  N2  1  0.17799000  0.80687000  0.48516000  1.0 0.0178120726
N  N3  1  0.44283000  0.42799000  0.87112000  1.0 0.0178120726
N  N4  1  0.55687000  0.57171000  0.12888000  1.0 0.0178120726
N  N5  1  0.42829000  0.55717000  0.98516000  1.0 0.0178120726
N  N6  1  0.57201000  0.44313000  0.01484000  1.0 0.0178120726
N  N7  1  0.30717000  0.82201000  0.62888000  1.0 0.0178120726
N  N8  1  0.19313000  0.67829000  0.37112000  1.0 0.0178120726
N  N9  1  0.38616000  0.71763000  0.56903000  1.0 -0.2064574376
N  N10  1  0.14860000  0.81713000  0.43097000  1.0 -0.2064574376
N  N11  1  0.46763000  0.39860000  0.83147000  1.0 -0.2064574376
N  N12  1  0.56713000  0.63616000  0.16853000  1.0 -0.2064574376
N  N13  1  0.36384000  0.53237000  0.93097000  1.0 -0.2064574376
N  N14  1  0.60140000  0.43287000  0.06903000  1.0 -0.2049298592
N  N15  1  0.28237000  0.85140000  0.66853000  1.0 -0.2064574376
N  N16  1  0.18287000  0.61384000  0.33147000  1.0 -0.2064574376
N  N17  1  0.30794000  0.62805000  0.47251000  1.0 -0.2064574376
N  N18  1  0.15554000  0.83543000  0.52749000  1.0 -0.2064574376
N  N19  1  0.37805000  0.40554000  0.82011000  1.0 -0.2064574376
N  N20  1  0.58543000  0.55794000  0.17989000  1.0 -0.2064574376
N  N21  1  0.44206000  0.62195000  0.02749000  1.0 -0.2064574376
N  N22  1  0.59446000  0.41457000  0.97251000  1.0 -0.2064574376
N  N23  1  0.37195000  0.84446000  0.67989000  1.0 -0.2064574376
N  N24  1  0.16457000  0.69206000  0.32011000  1.0 -0.2064574376
N  N25  1  0.36579000  0.82289000  0.55220000  1.0 -0.2064574376
N  N26  1  0.27069000  0.81359000  0.44780000  1.0 -0.2064574376
N  N27  1  0.57289000  0.52069000  0.95710000  1.0 -0.2064574376
N  N28  1  0.56359000  0.61579000  0.04290000  1.0 -0.2064574376
N  N29  1  0.38421000  0.42711000  0.94780000  1.0 -0.2064574376
N  N30  1  0.47931000  0.43641000  0.05220000  1.0 -0.2049298592
N  N31  1  0.17711000  0.72931000  0.54290000  1.0 -0.2064574376
N  N32  1  0.18641000  0.63421000  0.45710000  1.0 -0.2064574376
N  N33  1  0.30050000  0.80050000  0.50000000  1.0 0.0120632892
N  N34  1  0.55050000  0.55050000  0.00000000  1.0 0.0120632892
N  N35  1  0.44950000  0.44950000  0.00000000  1.0 0.0120632892
N  N36  1  0.19950000  0.69950000  0.50000000  1.0 0.0120632892
N  N37  1  0.49710000  0.78681000  0.61917000  1.0 -0.3702719578
N  N38  1  0.16764000  0.87793000  0.38083000  1.0 -0.3763255657
N  N39  1  0.53681000  0.41764000  0.78971000  1.0 -0.3702719578
N  N40  1  0.62793000  0.74710000  0.21029000  1.0 -0.3702719578
N  N41  1  0.25290000  0.46319000  0.88083000  1.0 -0.3702719578
N  N42  1  0.58236000  0.37207000  0.11917000  1.0 -0.3702719578
N  N43  1  0.21319000  0.83236000  0.71029000  1.0 -0.3763255657
N  N44  1  0.12207000  0.50290000  0.28971000  1.0 -0.3702719578
N  N45  1  0.60409000  0.86979000  0.60630000  1.0 -0.3597591787
N  N46  1  0.26349000  0.99779000  0.39370000  1.0 -0.3597591787
N  N47  1  0.61979000  0.51349000  0.76570000  1.0 -0.3597591787
N  N48  1  0.74779000  0.85409000  0.23430000  1.0 -0.3597591787
N  N49  1  0.14591000  0.38021000  0.89370000  1.0 -0.3597591787
N  N50  1  0.48651000  0.25221000  0.10630000  1.0 -0.3597591787
N  N51  1  0.13021000  0.73651000  0.73430000  1.0 -0.3597591787
N  N52  1  0.00221000  0.39591000  0.26570000  1.0 -0.3597591787
N  N53  1  0.52061000  0.40631000  0.29070000  1.0 -0.3702719578
N  N54  1  0.11561000  0.22991000  0.70930000  1.0 -0.3702719578
N  N55  1  0.15631000  0.36561000  0.38570000  1.0 -0.3702719578
N  N56  1  0.97991000  0.77061000  0.61430000  1.0 -0.3702719578
N  N57  1  0.22939000  0.84369000  0.20930000  1.0 -0.3702719578
N  N58  1  0.63439000  0.02009000  0.79070000  1.0 -0.3702719578
N  N59  1  0.59369000  0.88439000  0.11430000  1.0 -0.3702719578
N  N60  1  0.77009000  0.47939000  0.88570000  1.0 -0.3702719578
N  N61  1  0.56786000  0.49322000  0.22832000  1.0 -0.3763255657
N  N62  1  0.26490000  0.33954000  0.77168000  1.0 -0.3763255657
N  N63  1  0.24322000  0.51490000  0.42536000  1.0 -0.3763255657
N  N64  1  0.08954000  0.81786000  0.57464000  1.0 -0.3763255657
N  N65  1  0.18214000  0.75678000  0.27168000  1.0 -0.3763255657
N  N66  1  0.48510000  0.91046000  0.72832000  1.0 -0.3763255657
N  N67  1  0.50678000  0.73510000  0.07464000  1.0 -0.3763255657
N  N68  1  0.66046000  0.43214000  0.92536000  1.0 -0.3763255657
N  N69  1  0.69313000  0.32201000  0.51484000  1.0 0.0178120726
N  N70  1  0.07201000  0.05717000  0.12888000  1.0 0.0178120726
N  N71  1  0.92829000  0.94313000  0.87112000  1.0 0.0178120726
N  N72  1  0.80717000  0.17829000  0.48516000  1.0 0.0178120726
N  N73  1  0.05687000  0.92799000  0.98516000  1.0 0.0178120726
N  N74  1  0.67799000  0.19283000  0.37112000  1.0 0.0178120726
N  N75  1  0.82171000  0.30687000  0.62888000  1.0 0.0178120726
N  N76  1  0.94283000  0.07171000  0.01484000  1.0 0.0178120726
N  N77  1  0.68287000  0.35140000  0.56903000  1.0 -0.2064574376
N  N78  1  0.10140000  0.03237000  0.16853000  1.0 -0.2064574376
N  N79  1  0.86384000  0.93287000  0.83147000  1.0 -0.2064574376
N  N80  1  0.78237000  0.11384000  0.43097000  1.0 -0.2049298592
N  N81  1  0.06713000  0.89860000  0.93097000  1.0 -0.2064574376
N  N82  1  0.64860000  0.21763000  0.33147000  1.0 -0.2049298592
N  N83  1  0.88616000  0.31713000  0.66853000  1.0 -0.2064574376
N  N84  1  0.96763000  0.13616000  0.06903000  1.0 -0.2049298592
N  N85  1  0.66457000  0.34446000  0.47251000  1.0 -0.2064574376
N  N86  1  0.09446000  0.12195000  0.17989000  1.0 -0.2064574376
N  N87  1  0.94206000  0.91457000  0.82011000  1.0 -0.2064574376
N  N88  1  0.87195000  0.19206000  0.52749000  1.0 -0.2064574376
N  N89  1  0.08543000  0.90554000  0.02749000  1.0 -0.2064574376
N  N90  1  0.65554000  0.12805000  0.32011000  1.0 -0.2064574376
N  N91  1  0.80794000  0.33543000  0.67989000  1.0 -0.2064574376
N  N92  1  0.87805000  0.05794000  0.97251000  1.0 -0.2064574376
N  N93  1  0.68641000  0.22931000  0.55220000  1.0 -0.2064574376
N  N94  1  0.97931000  0.92711000  0.04290000  1.0 -0.2049298592
N  N95  1  0.88421000  0.93641000  0.95710000  1.0 -0.2049298592
N  N96  1  0.67711000  0.13421000  0.44780000  1.0 -0.2064574376
N  N97  1  0.06359000  0.02069000  0.94780000  1.0 -0.2064574376
N  N98  1  0.77069000  0.32289000  0.45710000  1.0 -0.2049298592
N  N99  1  0.86579000  0.31359000  0.54290000  1.0 -0.2064574376
N  N100  1  0.07289000  0.11579000  0.05220000  1.0 -0.2064574376
N  N101  1  0.69950000  0.19950000  0.50000000  1.0 0.0120632892
N  N102  1  0.94950000  0.94950000  0.00000000  1.0 0.0120632892
N  N103  1  0.05050000  0.05050000  0.00000000  1.0 0.0120632892
N  N104  1  0.80050000  0.30050000  0.50000000  1.0 0.0120632892
N  N105  1  0.62207000  0.33236000  0.61917000  1.0 -0.3702719578
N  N106  1  0.08236000  0.96319000  0.21029000  1.0 -0.3702719578
N  N107  1  0.75290000  0.87207000  0.78971000  1.0 -0.3702719578
N  N108  1  0.71319000  0.00290000  0.38083000  1.0 -0.3702719578
N  N109  1  0.12793000  0.91764000  0.88083000  1.0 -0.3763255657
N  N110  1  0.66764000  0.28681000  0.28971000  1.0 -0.3702719578
N  N111  1  0.99710000  0.37793000  0.71029000  1.0 -0.3702719578
N  N112  1  0.03681000  0.24710000  0.11917000  1.0 -0.3702719578
N  N113  1  0.50221000  0.23651000  0.60630000  1.0 -0.3597591787
N  N114  1  0.98651000  0.88021000  0.23430000  1.0 -0.3597591787
N  N115  1  0.64591000  0.75221000  0.76570000  1.0 -0.3597591787
N  N116  1  0.63021000  0.89591000  0.39370000  1.0 -0.3597591787
N  N117  1  0.24779000  0.01349000  0.89370000  1.0 -0.3597591787
N  N118  1  0.76349000  0.36979000  0.26570000  1.0 -0.3597591787
N  N119  1  0.10409000  0.49779000  0.73430000  1.0 -0.3597591787
N  N120  1  0.11979000  0.35409000  0.10630000  1.0 -0.3597591787
N  N121  1  0.27009000  0.38439000  0.29070000  1.0 -0.3702719578
N  N122  1  0.13439000  0.34369000  0.61430000  1.0 -0.3702719578
N  N123  1  0.72939000  0.52009000  0.38570000  1.0 -0.3702719578
N  N124  1  0.09369000  0.97939000  0.70930000  1.0 -0.3702719578
N  N125  1  0.47991000  0.86561000  0.20930000  1.0 -0.3702719578
N  N126  1  0.61561000  0.90631000  0.88570000  1.0 -0.3702719578
N  N127  1  0.02061000  0.72991000  0.11430000  1.0 -0.3702719578
N  N128  1  0.65631000  0.27061000  0.79070000  1.0 -0.3702719578
N  N129  1  0.16046000  0.23510000  0.22832000  1.0 -0.3763255657
N  N130  1  0.98510000  0.25678000  0.57464000  1.0 -0.3763255657
N  N131  1  0.68214000  0.41046000  0.42536000  1.0 -0.3763255657
N  N132  1  0.00678000  0.93214000  0.77168000  1.0 -0.3763255657
N  N133  1  0.58954000  0.01490000  0.27168000  1.0 -0.3763255657
N  N134  1  0.76490000  0.99322000  0.92536000  1.0 -0.3763255657
N  N135  1  0.06786000  0.83954000  0.07464000  1.0 -0.3763255657
N  N136  1  0.74322000  0.31786000  0.72832000  1.0 -0.3763255657
