# DDEC6 charges by PACMAN v1.1 (https://github.com/mtap-research/PACMAN-charge/)
data_LOFCUF_FSR_pacman
_symmetry_space_group_name_H-M   'P 1'
_cell_length_a   18.65800000
_cell_length_b   20.08900000
_cell_length_c   21.13700000
_cell_angle_alpha   90.00000000
_cell_angle_beta   90.00000000
_cell_angle_gamma   90.00000000
_symmetry_Int_Tables_number   1
_chemical_formula_structural   Ni2Mo5P2H49C48N24O25
_chemical_formula_sum   'Ni8 Mo20 P8 H196 C192 N96 O100'
_cell_volume   7922.58221899
_cell_formula_units_Z   4
loop_
 _symmetry_equiv_pos_site_id
 _symmetry_equiv_pos_as_xyz
  1  'x, y, z'
loop_
 _atom_site_type_symbol
 _atom_site_label
 _atom_site_symmetry_multiplicity
 _atom_site_fract_x
 _atom_site_fract_y
 _atom_site_fract_z
 _atom_site_occupancy
 _atom_site_charge
Ni  Ni1  1  0.45082000  0.85616000  0.18906000  1.0 0.8381323535
Ni  Ni2  1  0.04918000  0.14384000  0.68906000  1.0 0.8381323535
Ni  Ni3  1  0.95082000  0.64384000  0.81094000  1.0 0.8381323535
Ni  Ni4  1  0.54918000  0.35616000  0.31094000  1.0 0.8381323535
Ni  Ni5  1  0.78044000  0.00745000  0.98640000  1.0 0.7674769033
Ni  Ni6  1  0.71956000  0.99255000  0.48640000  1.0 0.7674769033
Ni  Ni7  1  0.28044000  0.49255000  0.01360000  1.0 0.7674769033
Ni  Ni8  1  0.21956000  0.50745000  0.51360000  1.0 0.7674769033
Mo  Mo1  1  0.39045000  0.45191000  0.27533000  1.0 2.1161439288
Mo  Mo2  1  0.10955000  0.54809000  0.77533000  1.0 2.1161439288
Mo  Mo3  1  0.89045000  0.04809000  0.72467000  1.0 2.1161439288
Mo  Mo4  1  0.60955000  0.95191000  0.22467000  1.0 2.1161439288
Mo  Mo5  1  0.36292000  0.55796000  0.39945000  1.0 1.9741248954
Mo  Mo6  1  0.13708000  0.44204000  0.89945000  1.0 1.9741248954
Mo  Mo7  1  0.86292000  0.94204000  0.60055000  1.0 1.9741248954
Mo  Mo8  1  0.63708000  0.05796000  0.10055000  1.0 1.9741248954
Mo  Mo9  1  0.31260000  0.70712000  0.34157000  1.0 2.1511240113
Mo  Mo10  1  0.18740000  0.29288000  0.84157000  1.0 2.1511240113
Mo  Mo11  1  0.81260000  0.79288000  0.65843000  1.0 2.1511240113
Mo  Mo12  1  0.68740000  0.20712000  0.15843000  1.0 2.1511240113
Mo  Mo13  1  0.33016000  0.70563000  0.18046000  1.0 2.1411496951
Mo  Mo14  1  0.16984000  0.29437000  0.68046000  1.0 2.1411496951
Mo  Mo15  1  0.83016000  0.79437000  0.81954000  1.0 2.1511240113
Mo  Mo16  1  0.66984000  0.20563000  0.31954000  1.0 2.1411496951
Mo  Mo17  1  0.40811000  0.55903000  0.13798000  1.0 2.1411496951
Mo  Mo18  1  0.09189000  0.44097000  0.63798000  1.0 2.1411496951
Mo  Mo19  1  0.90811000  0.94097000  0.86202000  1.0 2.1411496951
Mo  Mo20  1  0.59189000  0.05903000  0.36202000  1.0 2.1411496951
P  P1  1  0.26770000  0.56750000  0.25501000  1.0 1.5525457728
P  P2  1  0.23230000  0.43250000  0.75501000  1.0 1.5525457728
P  P3  1  0.76770000  0.93250000  0.74499000  1.0 1.5525457728
P  P4  1  0.73230000  0.06750000  0.24499000  1.0 1.5525457728
P  P5  1  0.45900000  0.62094000  0.27648000  1.0 1.5281794537
P  P6  1  0.04100000  0.37906000  0.77648000  1.0 1.5281794537
P  P7  1  0.95900000  0.87906000  0.72352000  1.0 1.5281794537
P  P8  1  0.54100000  0.12094000  0.22352000  1.0 1.5281794537
H  H1  1  0.41850000  0.00550000  0.23820000  1.0 0.1385042605
H  H2  1  0.08150000  0.99450000  0.73820000  1.0 0.1385042605
H  H3  1  0.91850000  0.49450000  0.76180000  1.0 0.1385042605
H  H4  1  0.58150000  0.50550000  0.26180000  1.0 0.1385042605
H  H5  1  0.28510000  0.85770000  0.24990000  1.0 0.1385042605
H  H6  1  0.21490000  0.14230000  0.74990000  1.0 0.1385042605
H  H7  1  0.78510000  0.64230000  0.75010000  1.0 0.1385042605
H  H8  1  0.71490000  0.35770000  0.25010000  1.0 0.1385042605
H  H9  1  0.16280000  0.94160000  0.25930000  1.0 0.1299910601
H  H10  1  0.33720000  0.05840000  0.75930000  1.0 0.1203819728
H  H11  1  0.66280000  0.55840000  0.74070000  1.0 0.1203819728
H  H12  1  0.83720000  0.44160000  0.24070000  1.0 0.1203819728
H  H13  1  0.18270000  0.00240000  0.30250000  1.0 0.1385042605
H  H14  1  0.31730000  0.99760000  0.80250000  1.0 0.1385042605
H  H15  1  0.68270000  0.49760000  0.69750000  1.0 0.1385042605
H  H16  1  0.81730000  0.50240000  0.19750000  1.0 0.1385042605
H  H17  1  0.12900000  0.10010000  0.26590000  1.0 0.1203819728
H  H18  1  0.37100000  0.89990000  0.76590000  1.0 0.1203819728
H  H19  1  0.62900000  0.39990000  0.73410000  1.0 0.1203819728
H  H20  1  0.87100000  0.60010000  0.23410000  1.0 0.1203819728
H  H21  1  0.06490000  0.14830000  0.17540000  1.0 0.1203819728
H  H22  1  0.43510000  0.85170000  0.67540000  1.0 0.1203819728
H  H23  1  0.56490000  0.35170000  0.82460000  1.0 0.1203819728
H  H24  1  0.93510000  0.64830000  0.32460000  1.0 0.1203819728
H  H25  1  0.13990000  0.99210000  0.06680000  1.0 0.1203819728
H  H26  1  0.36010000  0.00790000  0.56680000  1.0 0.1203819728
H  H27  1  0.63990000  0.50790000  0.93320000  1.0 0.1203819728
H  H28  1  0.86010000  0.49210000  0.43320000  1.0 0.1203819728
H  H29  1  0.20670000  0.95510000  0.14840000  1.0 0.1203819728
H  H30  1  0.29330000  0.04490000  0.64840000  1.0 0.1203819728
H  H31  1  0.70670000  0.54490000  0.85160000  1.0 0.1203819728
H  H32  1  0.79330000  0.45510000  0.35160000  1.0 0.1203819728
H  H33  1  0.05130000  0.15150000  0.06130000  1.0 0.1299910601
H  H34  1  0.44870000  0.84850000  0.56130000  1.0 0.1299910601
H  H35  1  0.55130000  0.34850000  0.93870000  1.0 0.1299910601
H  H36  1  0.94870000  0.65150000  0.43870000  1.0 0.1299910601
H  H37  1  0.07160000  0.08910000  0.02000000  1.0 0.1385042605
H  H38  1  0.42840000  0.91090000  0.52000000  1.0 0.1385042605
H  H39  1  0.57160000  0.41090000  0.98000000  1.0 0.1385042605
H  H40  1  0.92840000  0.58910000  0.48000000  1.0 0.1385042605
H  H41  1  0.95450000  0.02800000  0.98250000  1.0 0.1299910601
H  H42  1  0.54550000  0.97200000  0.48250000  1.0 0.1299910601
H  H43  1  0.45450000  0.47200000  0.01750000  1.0 0.1299910601
H  H44  1  0.04550000  0.52800000  0.51750000  1.0 0.1299910601
H  H45  1  0.82630000  0.08620000  0.11540000  1.0 0.1299910601
H  H46  1  0.67370000  0.91380000  0.61540000  1.0 0.1299910601
H  H47  1  0.32630000  0.41380000  0.88460000  1.0 0.1299910601
H  H48  1  0.17370000  0.58620000  0.38460000  1.0 0.1299910601
H  H49  1  0.32200000  0.65020000  0.02910000  1.0 0.1299910601
H  H50  1  0.17800000  0.34980000  0.52910000  1.0 0.1299910601
H  H51  1  0.82200000  0.84980000  0.97090000  1.0 0.1299910601
H  H52  1  0.67800000  0.15020000  0.47090000  1.0 0.1299910601
H  H53  1  0.26230000  0.56230000  0.87610000  1.0 0.1299910601
H  H54  1  0.23770000  0.43770000  0.37610000  1.0 0.1299910601
H  H55  1  0.76230000  0.93770000  0.12390000  1.0 0.1299910601
H  H56  1  0.73770000  0.06230000  0.62390000  1.0 0.1299910601
H  H57  1  0.27440000  0.78350000  0.93180000  1.0 0.1299910601
H  H58  1  0.22560000  0.21650000  0.43180000  1.0 0.1299910601
H  H59  1  0.77440000  0.71650000  0.06820000  1.0 0.1299910601
H  H60  1  0.72560000  0.28350000  0.56820000  1.0 0.1299910601
H  H61  1  0.31380000  0.77080000  0.99620000  1.0 0.1299910601
H  H62  1  0.18620000  0.22920000  0.49620000  1.0 0.1299910601
H  H63  1  0.81380000  0.72920000  0.00380000  1.0 0.1299910601
H  H64  1  0.68620000  0.27080000  0.50380000  1.0 0.1299910601
H  H65  1  0.42950000  0.79610000  0.00860000  1.0 0.1203819728
H  H66  1  0.07050000  0.20390000  0.50860000  1.0 0.1203819728
H  H67  1  0.92950000  0.70390000  0.99140000  1.0 0.1203819728
H  H68  1  0.57050000  0.29610000  0.49140000  1.0 0.1203819728
H  H69  1  0.54070000  0.82880000  0.96710000  1.0 0.1116479955
H  H70  1  0.95930000  0.17120000  0.46710000  1.0 0.1116479955
H  H71  1  0.04070000  0.67120000  0.03290000  1.0 0.1116479955
H  H72  1  0.45930000  0.32880000  0.53290000  1.0 0.1116479955
H  H73  1  0.47170000  0.81310000  0.79430000  1.0 0.1116479955
H  H74  1  0.02830000  0.18690000  0.29430000  1.0 0.1116479955
H  H75  1  0.97170000  0.68690000  0.20570000  1.0 0.1116479955
H  H76  1  0.52830000  0.31310000  0.70570000  1.0 0.1116479955
H  H77  1  0.35860000  0.77470000  0.82940000  1.0 0.1203819728
H  H78  1  0.14140000  0.22530000  0.32940000  1.0 0.1203819728
H  H79  1  0.85860000  0.72530000  0.17060000  1.0 0.1203819728
H  H80  1  0.64140000  0.27470000  0.67060000  1.0 0.1203819728
H  H81  1  0.57190000  0.87310000  0.80890000  1.0 0.1299910601
H  H82  1  0.92810000  0.12690000  0.30890000  1.0 0.1299910601
H  H83  1  0.07190000  0.62690000  0.19110000  1.0 0.1299910601
H  H84  1  0.42810000  0.37310000  0.69110000  1.0 0.1299910601
H  H85  1  0.61490000  0.82070000  0.84820000  1.0 0.1385042605
H  H86  1  0.88510000  0.17930000  0.34820000  1.0 0.1385042605
H  H87  1  0.11490000  0.67930000  0.15180000  1.0 0.1385042605
H  H88  1  0.38510000  0.32070000  0.65180000  1.0 0.1385042605
H  H89  1  0.71330000  0.87880000  0.91340000  1.0 0.1299910601
H  H90  1  0.78670000  0.12120000  0.41340000  1.0 0.1299910601
H  H91  1  0.21330000  0.62120000  0.08660000  1.0 0.1299910601
H  H92  1  0.28670000  0.37880000  0.58660000  1.0 0.1299910601
H  H93  1  0.61830000  0.04760000  0.93100000  1.0 0.1116479955
H  H94  1  0.88170000  0.95240000  0.43100000  1.0 0.1116479955
H  H95  1  0.11830000  0.45240000  0.06900000  1.0 0.1116479955
H  H96  1  0.38170000  0.54760000  0.56900000  1.0 0.1116479955
H  H97  1  0.31550000  0.85750000  0.09460000  1.0 0.1116479955
H  H98  1  0.18450000  0.14250000  0.59460000  1.0 0.1116479955
H  H99  1  0.81550000  0.64250000  0.90540000  1.0 0.1116479955
H  H100  1  0.68450000  0.35750000  0.40540000  1.0 0.1116479955
H  H101  1  0.47740000  0.97290000  0.08460000  1.0 0.1385042605
H  H102  1  0.02260000  0.02710000  0.58460000  1.0 0.1385042605
H  H103  1  0.97740000  0.52710000  0.91540000  1.0 0.1385042605
H  H104  1  0.52260000  0.47290000  0.41540000  1.0 0.1385042605
H  H105  1  0.38100000  0.01520000  0.94960000  1.0 0.1299910601
H  H106  1  0.11900000  0.98480000  0.44960000  1.0 0.1299910601
H  H107  1  0.88100000  0.48480000  0.05040000  1.0 0.1299910601
H  H108  1  0.61900000  0.51520000  0.55040000  1.0 0.1299910601
H  H109  1  0.44190000  0.04710000  0.99110000  1.0 0.1385042605
H  H110  1  0.05810000  0.95290000  0.49110000  1.0 0.1385042605
H  H111  1  0.94190000  0.45290000  0.00890000  1.0 0.1385042605
H  H112  1  0.55810000  0.54710000  0.50890000  1.0 0.1385042605
H  H113  1  0.37960000  0.08560000  0.10070000  1.0 0.1299910601
H  H114  1  0.12040000  0.91440000  0.60070000  1.0 0.1299910601
H  H115  1  0.87960000  0.41440000  0.89930000  1.0 0.1299910601
H  H116  1  0.62040000  0.58560000  0.39930000  1.0 0.1299910601
H  H117  1  0.30260000  0.16030000  0.13710000  1.0 0.1299910601
H  H118  1  0.19740000  0.83970000  0.63710000  1.0 0.1299910601
H  H119  1  0.80260000  0.33970000  0.86290000  1.0 0.1299910601
H  H120  1  0.69740000  0.66030000  0.36290000  1.0 0.1299910601
H  H121  1  0.21330000  0.17990000  0.96750000  1.0 0.1203819728
H  H122  1  0.28670000  0.82010000  0.46750000  1.0 0.1203819728
H  H123  1  0.71330000  0.32010000  0.03250000  1.0 0.1203819728
H  H124  1  0.78670000  0.67990000  0.53250000  1.0 0.1203819728
H  H125  1  0.28390000  0.09800000  0.93520000  1.0 0.1299910601
H  H126  1  0.21610000  0.90200000  0.43520000  1.0 0.1299910601
H  H127  1  0.78390000  0.40200000  0.06480000  1.0 0.1299910601
H  H128  1  0.71610000  0.59800000  0.56480000  1.0 0.1299910601
H  H129  1  0.16610000  0.22810000  0.11560000  1.0 0.1299910601
H  H130  1  0.33390000  0.77190000  0.61560000  1.0 0.1299910601
H  H131  1  0.66610000  0.27190000  0.88440000  1.0 0.1299910601
H  H132  1  0.83390000  0.72810000  0.38440000  1.0 0.1299910601
H  H133  1  0.15440000  0.24170000  0.04310000  1.0 0.1299910601
H  H134  1  0.34560000  0.75830000  0.54310000  1.0 0.1299910601
H  H135  1  0.65440000  0.25830000  0.95690000  1.0 0.1299910601
H  H136  1  0.84560000  0.74170000  0.45690000  1.0 0.1299910601
H  H137  1  0.30060000  0.41210000  0.15010000  1.0 0.1299910601
H  H138  1  0.19940000  0.58790000  0.65010000  1.0 0.1299910601
H  H139  1  0.80060000  0.08790000  0.84990000  1.0 0.1299910601
H  H140  1  0.69940000  0.91210000  0.34990000  1.0 0.1299910601
H  H141  1  0.23430000  0.34180000  0.99340000  1.0 0.1299910601
H  H142  1  0.26570000  0.65820000  0.49340000  1.0 0.1299910601
H  H143  1  0.73430000  0.15820000  0.00660000  1.0 0.1299910601
H  H144  1  0.76570000  0.84180000  0.50660000  1.0 0.1299910601
H  H145  1  0.59210000  0.87280000  0.09600000  1.0 0.1116479955
H  H146  1  0.90790000  0.12720000  0.59600000  1.0 0.1116479955
H  H147  1  0.09210000  0.62720000  0.90400000  1.0 0.1116479955
H  H148  1  0.40790000  0.37280000  0.40400000  1.0 0.1116479955
H  H149  1  0.50410000  0.71020000  0.15020000  1.0 0.1508571971
H  H150  1  0.99590000  0.28980000  0.65020000  1.0 0.1508571971
H  H151  1  0.00410000  0.78980000  0.84980000  1.0 0.1508571971
H  H152  1  0.49590000  0.21020000  0.34980000  1.0 0.1508571971
H  H153  1  0.65750000  0.65400000  0.06260000  1.0 0.1299910601
H  H154  1  0.84250000  0.34600000  0.56260000  1.0 0.1299910601
H  H155  1  0.15750000  0.84600000  0.93740000  1.0 0.1299910601
H  H156  1  0.34250000  0.15400000  0.43740000  1.0 0.1299910601
H  H157  1  0.58200000  0.62630000  0.08210000  1.0 0.1508571971
H  H158  1  0.91800000  0.37370000  0.58210000  1.0 0.1508571971
H  H159  1  0.08200000  0.87370000  0.91790000  1.0 0.1508571971
H  H160  1  0.41800000  0.12630000  0.41790000  1.0 0.1508571971
H  H161  1  0.67750000  0.69470000  0.95480000  1.0 0.1203819728
H  H162  1  0.82250000  0.30530000  0.45480000  1.0 0.1203819728
H  H163  1  0.17750000  0.80530000  0.04520000  1.0 0.1203819728
H  H164  1  0.32250000  0.19470000  0.54520000  1.0 0.1203819728
H  H165  1  0.64840000  0.68780000  0.84890000  1.0 0.1203819728
H  H166  1  0.85160000  0.31220000  0.34890000  1.0 0.1203819728
H  H167  1  0.14840000  0.81220000  0.15110000  1.0 0.1203819728
H  H168  1  0.35160000  0.18780000  0.65110000  1.0 0.1203819728
H  H169  1  0.45250000  0.62200000  0.89630000  1.0 0.1116479955
H  H170  1  0.04750000  0.37800000  0.39630000  1.0 0.1116479955
H  H171  1  0.95250000  0.87800000  0.10370000  1.0 0.1116479955
H  H172  1  0.54750000  0.12200000  0.60370000  1.0 0.1116479955
H  H173  1  0.48720000  0.62050000  0.00280000  1.0 0.1203819728
H  H174  1  0.01280000  0.37950000  0.50280000  1.0 0.1203819728
H  H175  1  0.98720000  0.87950000  0.99720000  1.0 0.1203819728
H  H176  1  0.51280000  0.12050000  0.49720000  1.0 0.1203819728
H  H177  1  0.57700000  0.60560000  0.77660000  1.0 0.1203819728
H  H178  1  0.92300000  0.39440000  0.27660000  1.0 0.1203819728
H  H179  1  0.07700000  0.89440000  0.22340000  1.0 0.1203819728
H  H180  1  0.42300000  0.10560000  0.72340000  1.0 0.1203819728
H  H181  1  0.54340000  0.67670000  0.76820000  1.0 0.1385042605
H  H182  1  0.95660000  0.32330000  0.26820000  1.0 0.1385042605
H  H183  1  0.04340000  0.82330000  0.23180000  1.0 0.1385042605
H  H184  1  0.45660000  0.17670000  0.73180000  1.0 0.1385042605
H  H185  1  0.31440000  0.59520000  0.75030000  1.0 0.1385042605
H  H186  1  0.18560000  0.40480000  0.25030000  1.0 0.1385042605
H  H187  1  0.81440000  0.90480000  0.24970000  1.0 0.1385042605
H  H188  1  0.68560000  0.09520000  0.74970000  1.0 0.1385042605
H  H189  1  0.48720000  0.50430000  0.79480000  1.0 0.1299910601
H  H190  1  0.01280000  0.49570000  0.29480000  1.0 0.1299910601
H  H191  1  0.98720000  0.99570000  0.20520000  1.0 0.1299910601
H  H192  1  0.51280000  0.00430000  0.70520000  1.0 0.1299910601
H  H193  1  0.37060000  0.48990000  0.75940000  1.0 0.3184231687
H  H194  1  0.12940000  0.51010000  0.25940000  1.0 0.3184231687
H  H195  1  0.87060000  0.01010000  0.24060000  1.0 0.3184231687
H  H196  1  0.62940000  0.98990000  0.74060000  1.0 0.3184231687
C  C1  1  0.37670000  0.98130000  0.24450000  1.0 0.1933636535
C  C2  1  0.12330000  0.01870000  0.74450000  1.0 0.1933636535
C  C3  1  0.87670000  0.51870000  0.75550000  1.0 0.1933636535
C  C4  1  0.62330000  0.48130000  0.25550000  1.0 0.1933636535
C  C5  1  0.30600000  0.89970000  0.25030000  1.0 0.0653208811
C  C6  1  0.19400000  0.10030000  0.75030000  1.0 0.0646908674
C  C7  1  0.80600000  0.60030000  0.74970000  1.0 0.0653208811
C  C8  1  0.69400000  0.39970000  0.24970000  1.0 0.0653208811
C  C9  1  0.19350000  0.98050000  0.26270000  1.0 -0.2084373589
C  C10  1  0.30650000  0.01950000  0.76270000  1.0 -0.2084373589
C  C11  1  0.69350000  0.51950000  0.73730000  1.0 -0.2084373589
C  C12  1  0.80650000  0.48050000  0.23730000  1.0 -0.2084373589
C  C13  1  0.17800000  0.02470000  0.21210000  1.0 0.0976906356
C  C14  1  0.32200000  0.97530000  0.71210000  1.0 0.0976906356
C  C15  1  0.67800000  0.47530000  0.78790000  1.0 0.0976906356
C  C16  1  0.82200000  0.52470000  0.28790000  1.0 0.0976906356
C  C17  1  0.13210000  0.08170000  0.22560000  1.0 -0.1811873447
C  C18  1  0.36790000  0.91830000  0.72560000  1.0 -0.1811873447
C  C19  1  0.63210000  0.41830000  0.77440000  1.0 -0.1811873447
C  C20  1  0.86790000  0.58170000  0.27440000  1.0 -0.1811873447
C  C21  1  0.09060000  0.10880000  0.17140000  1.0 -0.1876158156
C  C22  1  0.40940000  0.89120000  0.67140000  1.0 -0.1876158156
C  C23  1  0.59060000  0.39120000  0.82860000  1.0 -0.1876158156
C  C24  1  0.90940000  0.60880000  0.32860000  1.0 -0.1876158156
C  C25  1  0.09110000  0.07420000  0.11500000  1.0 0.0976906356
C  C26  1  0.40890000  0.92580000  0.61500000  1.0 0.0898260236
C  C27  1  0.59110000  0.42580000  0.88500000  1.0 0.0976906356
C  C28  1  0.90890000  0.57420000  0.38500000  1.0 0.0976906356
C  C29  1  0.13850000  0.01390000  0.10560000  1.0 -0.1346332561
C  C30  1  0.36150000  0.98610000  0.60560000  1.0 -0.1380224686
C  C31  1  0.63850000  0.48610000  0.89440000  1.0 -0.1380224686
C  C32  1  0.86150000  0.51390000  0.39440000  1.0 -0.1346332561
C  C33  1  0.17810000  0.99260000  0.15380000  1.0 -0.1479645532
C  C34  1  0.32190000  0.00740000  0.65380000  1.0 -0.1479645532
C  C35  1  0.67810000  0.50740000  0.84620000  1.0 -0.1479645532
C  C36  1  0.82190000  0.49260000  0.34620000  1.0 -0.1479645532
C  C37  1  0.04990000  0.10330000  0.05950000  1.0 -0.1876158156
C  C38  1  0.45010000  0.89670000  0.55950000  1.0 -0.1876158156
C  C39  1  0.54990000  0.39670000  0.94050000  1.0 -0.1876158156
C  C40  1  0.95010000  0.60330000  0.44050000  1.0 -0.1876158156
C  C41  1  0.93600000  0.04670000  0.01920000  1.0 0.0898260236
C  C42  1  0.56400000  0.95330000  0.51920000  1.0 0.0898260236
C  C43  1  0.43600000  0.45330000  0.98080000  1.0 0.0898260236
C  C44  1  0.06400000  0.54670000  0.48080000  1.0 0.0898260236
C  C45  1  0.86780000  0.07840000  0.09220000  1.0 0.1798855731
C  C46  1  0.63220000  0.92160000  0.59220000  1.0 0.1798855731
C  C47  1  0.36780000  0.42160000  0.90780000  1.0 0.1798855731
C  C48  1  0.13220000  0.57840000  0.40780000  1.0 0.1798855731
C  C49  1  0.30820000  0.64170000  0.98760000  1.0 0.1116479955
C  C50  1  0.19180000  0.35830000  0.48760000  1.0 0.1116479955
C  C51  1  0.80820000  0.85830000  0.01240000  1.0 0.1116479955
C  C52  1  0.69180000  0.14170000  0.51240000  1.0 0.1116479955
C  C53  1  0.27570000  0.59560000  0.90430000  1.0 0.1385042605
C  C54  1  0.22430000  0.40440000  0.40430000  1.0 0.1385042605
C  C55  1  0.77570000  0.90440000  0.09570000  1.0 0.1385042605
C  C56  1  0.72430000  0.09560000  0.59570000  1.0 0.1385042605
C  C57  1  0.31420000  0.76020000  0.95140000  1.0 -0.1993121021
C  C58  1  0.18580000  0.23980000  0.45140000  1.0 -0.1993121021
C  C59  1  0.81420000  0.73980000  0.04860000  1.0 -0.1993121021
C  C60  1  0.68580000  0.26020000  0.54860000  1.0 -0.1993121021
C  C61  1  0.38070000  0.78420000  0.92400000  1.0 0.0976906356
C  C62  1  0.11930000  0.21580000  0.42400000  1.0 0.0976906356
C  C63  1  0.88070000  0.71580000  0.07600000  1.0 0.0976906356
C  C64  1  0.61930000  0.28420000  0.57600000  1.0 0.0976906356
C  C65  1  0.43580000  0.79960000  0.96510000  1.0 -0.1479645532
C  C66  1  0.06420000  0.20040000  0.46510000  1.0 -0.1479645532
C  C67  1  0.93580000  0.70040000  0.03490000  1.0 -0.1479645532
C  C68  1  0.56420000  0.29960000  0.53490000  1.0 -0.1479645532
C  C69  1  0.50300000  0.82130000  0.93920000  1.0 -0.1591620893
C  C70  1  0.99700000  0.17870000  0.43920000  1.0 -0.1591620893
C  C71  1  0.00300000  0.67870000  0.06080000  1.0 -0.1591620893
C  C72  1  0.49700000  0.32130000  0.56080000  1.0 -0.1591620893
C  C73  1  0.51490000  0.83140000  0.87680000  1.0 0.0898260236
C  C74  1  0.98510000  0.16860000  0.37680000  1.0 0.0898260236
C  C75  1  0.01490000  0.66860000  0.12320000  1.0 0.0898260236
C  C76  1  0.48510000  0.33140000  0.62320000  1.0 0.0898260236
C  C77  1  0.46280000  0.81150000  0.83750000  1.0 -0.1740516132
C  C78  1  0.03720000  0.18850000  0.33750000  1.0 -0.1740516132
C  C79  1  0.96280000  0.68850000  0.16250000  1.0 -0.1740516132
C  C80  1  0.53720000  0.31150000  0.66250000  1.0 -0.1740516132
C  C81  1  0.39350000  0.78750000  0.85840000  1.0 -0.1591620893
C  C82  1  0.10650000  0.21250000  0.35840000  1.0 -0.1591620893
C  C83  1  0.89350000  0.71250000  0.14160000  1.0 -0.1591620893
C  C84  1  0.60650000  0.28750000  0.64160000  1.0 -0.1591620893
C  C85  1  0.58100000  0.85710000  0.85140000  1.0 -0.1740516132
C  C86  1  0.91900000  0.14290000  0.35140000  1.0 -0.1740516132
C  C87  1  0.08100000  0.64290000  0.14860000  1.0 -0.1740516132
C  C88  1  0.41900000  0.35710000  0.64860000  1.0 -0.1740516132
C  C89  1  0.67980000  0.91320000  0.91290000  1.0 0.1116479955
C  C90  1  0.82020000  0.08680000  0.41290000  1.0 0.1116479955
C  C91  1  0.17980000  0.58680000  0.08710000  1.0 0.1116479955
C  C92  1  0.32020000  0.41320000  0.58710000  1.0 0.1116479955
C  C93  1  0.62630000  0.00330000  0.92040000  1.0 0.1606838707
C  C94  1  0.87370000  0.99670000  0.42040000  1.0 0.1606838707
C  C95  1  0.12630000  0.49670000  0.07960000  1.0 0.1606838707
C  C96  1  0.37370000  0.50330000  0.57960000  1.0 0.1606838707
C  C97  1  0.34690000  0.89110000  0.08250000  1.0 0.1508571971
C  C98  1  0.15310000  0.10890000  0.58250000  1.0 0.1508571971
C  C99  1  0.84690000  0.60890000  0.91750000  1.0 0.1508571971
C  C100  1  0.65310000  0.39110000  0.41750000  1.0 0.1508571971
C  C101  1  0.43320000  0.95320000  0.07660000  1.0 0.0845095832
C  C102  1  0.06680000  0.04680000  0.57660000  1.0 0.0898260236
C  C103  1  0.93320000  0.54680000  0.92340000  1.0 0.0845095832
C  C104  1  0.56680000  0.45320000  0.42340000  1.0 0.0898260236
C  C105  1  0.39340000  0.02960000  0.99200000  1.0 -0.1876158156
C  C106  1  0.10660000  0.97040000  0.49200000  1.0 -0.1876158156
C  C107  1  0.89340000  0.47040000  0.00800000  1.0 -0.1876158156
C  C108  1  0.60660000  0.52960000  0.50800000  1.0 -0.1876158156
C  C109  1  0.34130000  0.08400000  0.01380000  1.0 0.0976906356
C  C110  1  0.15870000  0.91600000  0.51380000  1.0 0.0976906356
C  C111  1  0.84130000  0.41600000  0.98620000  1.0 0.0976906356
C  C112  1  0.65870000  0.58400000  0.48620000  1.0 0.0976906356
C  C113  1  0.34500000  0.10350000  0.07400000  1.0 -0.1346332561
C  C114  1  0.15500000  0.89650000  0.57400000  1.0 -0.1380224686
C  C115  1  0.84500000  0.39650000  0.92600000  1.0 -0.1380224686
C  C116  1  0.65500000  0.60350000  0.42600000  1.0 -0.1380224686
C  C117  1  0.29800000  0.15050000  0.09420000  1.0 -0.1380224686
C  C118  1  0.20200000  0.84950000  0.59420000  1.0 -0.1346332561
C  C119  1  0.79800000  0.34950000  0.90580000  1.0 -0.1346332561
C  C120  1  0.70200000  0.65050000  0.40580000  1.0 -0.1346332561
C  C121  1  0.24190000  0.18900000  0.06140000  1.0 0.0898260236
C  C122  1  0.25810000  0.81100000  0.56140000  1.0 0.0898260236
C  C123  1  0.74190000  0.31100000  0.93860000  1.0 0.0898260236
C  C124  1  0.75810000  0.68900000  0.43860000  1.0 0.0898260236
C  C125  1  0.24480000  0.16190000  0.99700000  1.0 -0.1591620893
C  C126  1  0.25520000  0.83810000  0.49700000  1.0 -0.1591620893
C  C127  1  0.74480000  0.33810000  0.00300000  1.0 -0.1591620893
C  C128  1  0.75520000  0.66190000  0.50300000  1.0 -0.1591620893
C  C129  1  0.28900000  0.11300000  0.97660000  1.0 -0.1479645532
C  C130  1  0.21100000  0.88700000  0.47660000  1.0 -0.1479645532
C  C131  1  0.78900000  0.38700000  0.02340000  1.0 -0.1479645532
C  C132  1  0.71100000  0.61300000  0.52340000  1.0 -0.1479645532
C  C133  1  0.19010000  0.23910000  0.07630000  1.0 -0.1993121021
C  C134  1  0.30990000  0.76090000  0.57630000  1.0 -0.1993121021
C  C135  1  0.69010000  0.26090000  0.92370000  1.0 -0.1993121021
C  C136  1  0.80990000  0.73910000  0.42370000  1.0 -0.1993121021
C  C137  1  0.27650000  0.38460000  0.12190000  1.0 0.1606838707
C  C138  1  0.22350000  0.61540000  0.62190000  1.0 0.1606838707
C  C139  1  0.77650000  0.11540000  0.87810000  1.0 0.1606838707
C  C140  1  0.72350000  0.88460000  0.37810000  1.0 0.1606838707
C  C141  1  0.24220000  0.34870000  0.03630000  1.0 0.1116479955
C  C142  1  0.25780000  0.65130000  0.53630000  1.0 0.1116479955
C  C143  1  0.74220000  0.15130000  0.96370000  1.0 0.1116479955
C  C144  1  0.75780000  0.84870000  0.46370000  1.0 0.1116479955
C  C145  1  0.58200000  0.82760000  0.09930000  1.0 0.1385042605
C  C146  1  0.91800000  0.17240000  0.59930000  1.0 0.1385042605
C  C147  1  0.08200000  0.67240000  0.90070000  1.0 0.1385042605
C  C148  1  0.41800000  0.32760000  0.40070000  1.0 0.1385042605
C  C149  1  0.53200000  0.74180000  0.12950000  1.0 0.1116479955
C  C150  1  0.96800000  0.25820000  0.62950000  1.0 0.1116479955
C  C151  1  0.03200000  0.75820000  0.87050000  1.0 0.1116479955
C  C152  1  0.46800000  0.24180000  0.37050000  1.0 0.1116479955
C  C153  1  0.60620000  0.66080000  0.05810000  1.0 -0.1876158156
C  C154  1  0.89380000  0.33920000  0.55810000  1.0 -0.1876158156
C  C155  1  0.10620000  0.83920000  0.94190000  1.0 -0.1876158156
C  C156  1  0.39380000  0.16080000  0.44190000  1.0 -0.1876158156
C  C157  1  0.58580000  0.65550000  0.98970000  1.0 0.0976906356
C  C158  1  0.91420000  0.34450000  0.48970000  1.0 0.0976906356
C  C159  1  0.08580000  0.84450000  0.01030000  1.0 0.0976906356
C  C160  1  0.41420000  0.15550000  0.51030000  1.0 0.0976906356
C  C161  1  0.63330000  0.67730000  0.94300000  1.0 -0.1479645532
C  C162  1  0.86670000  0.32270000  0.44300000  1.0 -0.1479645532
C  C163  1  0.13330000  0.82270000  0.05700000  1.0 -0.1479645532
C  C164  1  0.36670000  0.17730000  0.55700000  1.0 -0.1479645532
C  C165  1  0.61560000  0.67340000  0.87910000  1.0 -0.1591620893
C  C166  1  0.88440000  0.32660000  0.37910000  1.0 -0.1591620893
C  C167  1  0.11560000  0.82660000  0.12090000  1.0 -0.1591620893
C  C168  1  0.38440000  0.17340000  0.62090000  1.0 -0.1591620893
C  C169  1  0.54960000  0.64820000  0.85970000  1.0 0.0898260236
C  C170  1  0.95040000  0.35180000  0.35970000  1.0 0.0898260236
C  C171  1  0.04960000  0.85180000  0.14030000  1.0 0.0976906356
C  C172  1  0.45040000  0.14820000  0.64030000  1.0 0.0898260236
C  C173  1  0.49930000  0.63300000  0.90730000  1.0 -0.1740516132
C  C174  1  0.00070000  0.36700000  0.40730000  1.0 -0.1740516132
C  C175  1  0.99930000  0.86700000  0.09270000  1.0 -0.1740516132
C  C176  1  0.50070000  0.13300000  0.59270000  1.0 -0.1740516132
C  C177  1  0.51960000  0.63430000  0.97210000  1.0 -0.1479645532
C  C178  1  0.98040000  0.36570000  0.47210000  1.0 -0.1479645532
C  C179  1  0.01960000  0.86570000  0.02790000  1.0 -0.1479645532
C  C180  1  0.48040000  0.13430000  0.52790000  1.0 -0.1479645532
C  C181  1  0.53960000  0.63520000  0.79140000  1.0 -0.2084373589
C  C182  1  0.96040000  0.36480000  0.29140000  1.0 -0.2084373589
C  C183  1  0.03960000  0.86480000  0.20860000  1.0 -0.2084373589
C  C184  1  0.46040000  0.13520000  0.70860000  1.0 -0.2084373589
C  C185  1  0.36300000  0.58780000  0.75720000  1.0 0.1606838707
C  C186  1  0.13700000  0.41220000  0.25720000  1.0 0.1606838707
C  C187  1  0.86300000  0.91220000  0.24280000  1.0 0.1606838707
C  C188  1  0.63700000  0.08780000  0.74280000  1.0 0.1606838707
C  C189  1  0.45470000  0.53680000  0.78220000  1.0 0.0303730397
C  C190  1  0.04530000  0.46320000  0.28220000  1.0 0.0303730397
C  C191  1  0.95470000  0.96320000  0.21780000  1.0 0.0303730397
C  C192  1  0.54530000  0.03680000  0.71780000  1.0 0.0303730397
N  N1  1  0.37520000  0.91390000  0.23840000  1.0 -0.3004449379
N  N2  1  0.12480000  0.08610000  0.73840000  1.0 -0.3004449379
N  N3  1  0.87520000  0.58610000  0.76160000  1.0 -0.3004449379
N  N4  1  0.62480000  0.41390000  0.26160000  1.0 -0.3004449379
N  N5  1  0.32210000  0.00750000  0.25840000  1.0 -0.2580635703
N  N6  1  0.17790000  0.99250000  0.75840000  1.0 -0.2580635703
N  N7  1  0.82210000  0.49250000  0.74160000  1.0 -0.2580635703
N  N8  1  0.67790000  0.50750000  0.24160000  1.0 -0.2580635703
N  N9  1  0.27270000  0.95800000  0.26280000  1.0 0.1606838707
N  N10  1  0.22730000  0.04200000  0.76280000  1.0 0.1606838707
N  N11  1  0.77270000  0.54200000  0.73720000  1.0 0.1606838707
N  N12  1  0.72730000  0.45800000  0.23720000  1.0 0.1606838707
N  N13  1  0.86840000  0.04500000  0.03650000  1.0 -0.3004449379
N  N14  1  0.63160000  0.95500000  0.53650000  1.0 -0.3004449379
N  N15  1  0.36840000  0.45500000  0.96350000  1.0 -0.3004449379
N  N16  1  0.13160000  0.54500000  0.46350000  1.0 -0.3004449379
N  N17  1  0.92870000  0.09780000  0.10960000  1.0 -0.2580635703
N  N18  1  0.57130000  0.90220000  0.60960000  1.0 -0.2580635703
N  N19  1  0.42870000  0.40220000  0.89040000  1.0 -0.2580635703
N  N20  1  0.07130000  0.59780000  0.39040000  1.0 -0.2580635703
N  N21  1  0.97380000  0.07960000  0.06270000  1.0 0.1606838707
N  N22  1  0.52620000  0.92040000  0.56270000  1.0 0.1606838707
N  N23  1  0.47380000  0.42040000  0.93730000  1.0 0.1606838707
N  N24  1  0.02620000  0.57960000  0.43730000  1.0 0.1606838707
N  N25  1  0.29140000  0.58310000  0.96520000  1.0 -0.3004449379
N  N26  1  0.20860000  0.41690000  0.46520000  1.0 -0.3004449379
N  N27  1  0.79140000  0.91690000  0.03480000  1.0 -0.3004449379
N  N28  1  0.70860000  0.08310000  0.53480000  1.0 -0.3004449379
N  N29  1  0.28080000  0.66040000  0.88700000  1.0 -0.2580635703
N  N30  1  0.21920000  0.33960000  0.38700000  1.0 -0.2580635703
N  N31  1  0.78080000  0.83960000  0.11300000  1.0 -0.2580635703
N  N32  1  0.71920000  0.16040000  0.61300000  1.0 -0.2580635703
N  N33  1  0.30290000  0.68630000  0.94350000  1.0 0.1671445314
N  N34  1  0.19710000  0.31370000  0.44350000  1.0 0.1671445314
N  N35  1  0.80290000  0.81370000  0.05650000  1.0 0.1671445314
N  N36  1  0.69710000  0.18630000  0.55650000  1.0 0.1671445314
N  N37  1  0.68890000  0.97370000  0.93800000  1.0 -0.3187163751
N  N38  1  0.81110000  0.02630000  0.43800000  1.0 -0.3187163751
N  N39  1  0.18890000  0.52630000  0.06200000  1.0 -0.3187163751
N  N40  1  0.31110000  0.47370000  0.56200000  1.0 -0.3187163751
N  N41  1  0.57730000  0.97050000  0.88900000  1.0 -0.2901803907
N  N42  1  0.92270000  0.02950000  0.38900000  1.0 -0.2901803907
N  N43  1  0.07730000  0.52950000  0.11100000  1.0 -0.2901803907
N  N44  1  0.42270000  0.47050000  0.61100000  1.0 -0.2901803907
N  N45  1  0.61440000  0.91030000  0.88710000  1.0 0.1671445314
N  N46  1  0.88560000  0.08970000  0.38710000  1.0 0.1671445314
N  N47  1  0.11440000  0.58970000  0.11290000  1.0 0.1671445314
N  N48  1  0.38560000  0.41030000  0.61290000  1.0 0.1671445314
N  N49  1  0.40870000  0.89930000  0.10840000  1.0 -0.3187163751
N  N50  1  0.09130000  0.10070000  0.60840000  1.0 -0.3187163751
N  N51  1  0.90870000  0.60070000  0.89160000  1.0 -0.3187163751
N  N52  1  0.59130000  0.39930000  0.39160000  1.0 -0.3187163751
N  N53  1  0.33090000  0.93570000  0.03560000  1.0 -0.2580635703
N  N54  1  0.16910000  0.06430000  0.53560000  1.0 -0.2580635703
N  N55  1  0.83090000  0.56430000  0.96440000  1.0 -0.2580635703
N  N56  1  0.66910000  0.43570000  0.46440000  1.0 -0.2580635703
N  N57  1  0.38980000  0.97420000  0.03450000  1.0 0.1798855731
N  N58  1  0.11020000  0.02580000  0.53450000  1.0 0.1798855731
N  N59  1  0.88980000  0.52580000  0.96550000  1.0 0.1798855731
N  N60  1  0.61020000  0.47420000  0.46550000  1.0 0.1798855731
N  N61  1  0.26850000  0.40200000  0.05930000  1.0 -0.3004449379
N  N62  1  0.23150000  0.59800000  0.55930000  1.0 -0.3004449379
N  N63  1  0.76850000  0.09800000  0.94070000  1.0 -0.3004449379
N  N64  1  0.73150000  0.90200000  0.44070000  1.0 -0.3004449379
N  N65  1  0.22700000  0.30290000  0.08250000  1.0 0.1299910601
N  N66  1  0.27300000  0.69710000  0.58250000  1.0 0.1299910601
N  N67  1  0.72700000  0.19710000  0.91750000  1.0 0.1299910601
N  N68  1  0.77300000  0.80290000  0.41750000  1.0 0.1299910601
N  N69  1  0.24890000  0.32830000  0.13990000  1.0 -0.2580635703
N  N70  1  0.25110000  0.67170000  0.63990000  1.0 -0.2580635703
N  N71  1  0.74890000  0.17170000  0.86010000  1.0 -0.2580635703
N  N72  1  0.75110000  0.82830000  0.36010000  1.0 -0.2580635703
N  N73  1  0.52820000  0.80500000  0.13640000  1.0 -0.2901803907
N  N74  1  0.97180000  0.19500000  0.63640000  1.0 -0.2901803907
N  N75  1  0.02820000  0.69500000  0.86360000  1.0 -0.2901803907
N  N76  1  0.47180000  0.30500000  0.36360000  1.0 -0.2901803907
N  N77  1  0.61950000  0.78290000  0.06810000  1.0 -0.2443863433
N  N78  1  0.88050000  0.21710000  0.56810000  1.0 -0.2443863433
N  N79  1  0.11950000  0.71710000  0.93190000  1.0 -0.2443863433
N  N80  1  0.38050000  0.28290000  0.43190000  1.0 -0.2443863433
N  N81  1  0.58600000  0.72870000  0.08460000  1.0 0.1957139838
N  N82  1  0.91400000  0.27130000  0.58460000  1.0 0.1957139838
N  N83  1  0.08600000  0.77130000  0.91540000  1.0 0.1957139838
N  N84  1  0.41400000  0.22870000  0.41540000  1.0 0.1957139838
N  N85  1  0.40940000  0.63430000  0.76030000  1.0 -0.2196855713
N  N86  1  0.09060000  0.36570000  0.26030000  1.0 -0.2196855713
N  N87  1  0.90940000  0.86570000  0.23970000  1.0 -0.2196855713
N  N88  1  0.59060000  0.13430000  0.73970000  1.0 -0.2196855713
N  N89  1  0.39150000  0.52750000  0.76500000  1.0 -0.1380224686
N  N90  1  0.10850000  0.47250000  0.26500000  1.0 -0.1380224686
N  N91  1  0.89150000  0.97250000  0.23500000  1.0 -0.1380224686
N  N92  1  0.60850000  0.02750000  0.73500000  1.0 -0.1380224686
N  N93  1  0.46720000  0.60410000  0.77900000  1.0 0.1798855731
N  N94  1  0.03280000  0.39590000  0.27900000  1.0 0.1798855731
N  N95  1  0.96720000  0.89590000  0.22100000  1.0 0.1798855731
N  N96  1  0.53280000  0.10410000  0.72100000  1.0 0.1798855731
O  O1  1  0.47780000  0.43210000  0.29420000  1.0 -0.7165609431
O  O2  1  0.02220000  0.56790000  0.79420000  1.0 -0.7165609431
O  O3  1  0.97780000  0.06790000  0.70580000  1.0 -0.7165609431
O  O4  1  0.52220000  0.93210000  0.20580000  1.0 -0.7165609431
O  O5  1  0.35570000  0.37580000  0.26330000  1.0 -0.5803563129
O  O6  1  0.14430000  0.62420000  0.76330000  1.0 -0.5803563129
O  O7  1  0.85570000  0.12420000  0.73670000  1.0 -0.5803563129
O  O8  1  0.64430000  0.87580000  0.23670000  1.0 -0.5803563129
O  O9  1  0.40690000  0.48750000  0.19170000  1.0 -0.8286458309
O  O10  1  0.09310000  0.51250000  0.69170000  1.0 -0.8286458309
O  O11  1  0.90690000  0.01250000  0.80830000  1.0 -0.8286458309
O  O12  1  0.59310000  0.98750000  0.30830000  1.0 -0.8286458309
O  O13  1  0.35840000  0.47370000  0.35700000  1.0 -0.8286458309
O  O14  1  0.14160000  0.52630000  0.85700000  1.0 -0.8286458309
O  O15  1  0.85840000  0.02630000  0.64300000  1.0 -0.8286458309
O  O16  1  0.64160000  0.97370000  0.14300000  1.0 -0.8286458309
O  O17  1  0.42450000  0.56310000  0.30940000  1.0 -0.6173839252
O  O18  1  0.07550000  0.43690000  0.80940000  1.0 -0.6173839252
O  O19  1  0.92450000  0.93690000  0.69060000  1.0 -0.6173839252
O  O20  1  0.57550000  0.06310000  0.19060000  1.0 -0.6173839252
O  O21  1  0.28530000  0.49470000  0.25570000  1.0 -0.8286458309
O  O22  1  0.21470000  0.50530000  0.75570000  1.0 -0.8286458309
O  O23  1  0.78530000  0.00530000  0.74430000  1.0 -0.8286458309
O  O24  1  0.71470000  0.99470000  0.24430000  1.0 -0.8286458309
O  O25  1  0.43090000  0.54430000  0.44940000  1.0 -0.3004449379
O  O26  1  0.06910000  0.45570000  0.94940000  1.0 -0.3004449379
O  O27  1  0.93090000  0.95570000  0.55060000  1.0 -0.3004449379
O  O28  1  0.56910000  0.04430000  0.05060000  1.0 -0.3004449379
O  O29  1  0.28940000  0.54470000  0.44420000  1.0 -0.6735580694
O  O30  1  0.21060000  0.45530000  0.94420000  1.0 -0.6735580694
O  O31  1  0.78940000  0.95530000  0.55580000  1.0 -0.6735580694
O  O32  1  0.71060000  0.04470000  0.05580000  1.0 -0.6735580694
O  O33  1  0.36590000  0.65390000  0.39880000  1.0 -0.8286458309
O  O34  1  0.13410000  0.34610000  0.89880000  1.0 -0.8286458309
O  O35  1  0.86590000  0.84610000  0.60120000  1.0 -0.8286458309
O  O36  1  0.63410000  0.15390000  0.10120000  1.0 -0.8286458309
O  O37  1  0.28710000  0.59920000  0.31920000  1.0 -0.8963371795
O  O38  1  0.21290000  0.40080000  0.81920000  1.0 -0.8963371795
O  O39  1  0.78710000  0.90080000  0.68080000  1.0 -0.8963371795
O  O40  1  0.71290000  0.09920000  0.18080000  1.0 -0.8963371795
O  O41  1  0.23380000  0.71370000  0.38100000  1.0 -0.652294619
O  O42  1  0.26620000  0.28630000  0.88100000  1.0 -0.652294619
O  O43  1  0.73380000  0.78630000  0.61900000  1.0 -0.652294619
O  O44  1  0.76620000  0.21370000  0.11900000  1.0 -0.652294619
O  O45  1  0.35210000  0.78250000  0.35470000  1.0 -0.6261779498
O  O46  1  0.14790000  0.21750000  0.85470000  1.0 -0.6261779498
O  O47  1  0.85210000  0.71750000  0.64530000  1.0 -0.6261779498
O  O48  1  0.64790000  0.28250000  0.14530000  1.0 -0.6261779498
O  O49  1  0.27670000  0.71920000  0.25600000  1.0 -0.8471668493
O  O50  1  0.22330000  0.28080000  0.75600000  1.0 -0.8471668493
O  O51  1  0.77670000  0.78080000  0.74400000  1.0 -0.8471668493
O  O52  1  0.72330000  0.21920000  0.24400000  1.0 -0.8471668493
O  O53  1  0.40740000  0.68040000  0.27290000  1.0 -0.8674918544
O  O54  1  0.09260000  0.31960000  0.77290000  1.0 -0.8674918544
O  O55  1  0.90740000  0.81960000  0.72710000  1.0 -0.8674918544
O  O56  1  0.59260000  0.18040000  0.22710000  1.0 -0.8674918544
O  O57  1  0.26540000  0.71800000  0.12710000  1.0 -0.6832729857
O  O58  1  0.23460000  0.28200000  0.62710000  1.0 -0.6832729857
O  O59  1  0.76540000  0.78200000  0.87290000  1.0 -0.6832729857
O  O60  1  0.73460000  0.21800000  0.37290000  1.0 -0.6832729857
O  O61  1  0.38020000  0.77790000  0.17800000  1.0 -0.7165609431
O  O62  1  0.11980000  0.22210000  0.67800000  1.0 -0.7165609431
O  O63  1  0.88020000  0.72210000  0.82200000  1.0 -0.7165609431
O  O64  1  0.61980000  0.27790000  0.32200000  1.0 -0.7165609431
O  O65  1  0.39370000  0.65340000  0.12910000  1.0 -0.8821398746
O  O66  1  0.10630000  0.34660000  0.62910000  1.0 -0.8821398746
O  O67  1  0.89370000  0.84660000  0.87090000  1.0 -0.8821398746
O  O68  1  0.60630000  0.15340000  0.37090000  1.0 -0.8821398746
O  O69  1  0.34430000  0.53200000  0.08590000  1.0 -0.7139718067
O  O70  1  0.15570000  0.46800000  0.58590000  1.0 -0.7139718067
O  O71  1  0.84430000  0.96800000  0.91410000  1.0 -0.7139718067
O  O72  1  0.65570000  0.03200000  0.41410000  1.0 -0.7139718067
O  O73  1  0.48380000  0.54550000  0.09770000  1.0 -0.6408712845
O  O74  1  0.01620000  0.45450000  0.59770000  1.0 -0.6408712845
O  O75  1  0.98380000  0.95450000  0.90230000  1.0 -0.6408712845
O  O76  1  0.51620000  0.04550000  0.40230000  1.0 -0.6408712845
O  O77  1  0.48070000  0.59900000  0.20970000  1.0 -0.8216064107
O  O78  1  0.01930000  0.40100000  0.70970000  1.0 -0.8216064107
O  O79  1  0.98070000  0.90100000  0.79030000  1.0 -0.8216064107
O  O80  1  0.51930000  0.09900000  0.29030000  1.0 -0.8216064107
O  O81  1  0.31030000  0.60090000  0.20100000  1.0 -0.8963371795
O  O82  1  0.18970000  0.39910000  0.70100000  1.0 -0.8963371795
O  O83  1  0.81030000  0.89910000  0.79900000  1.0 -0.8963371795
O  O84  1  0.68970000  0.10090000  0.29900000  1.0 -0.8963371795
O  O85  1  0.18680000  0.57540000  0.24310000  1.0 -0.7717346978
O  O86  1  0.31320000  0.42460000  0.74310000  1.0 -0.7717346978
O  O87  1  0.68680000  0.92460000  0.75690000  1.0 -0.7717346978
O  O88  1  0.81320000  0.07540000  0.25690000  1.0 -0.7717346978
O  O89  1  0.52650000  0.64040000  0.31100000  1.0 -0.7039083969
O  O90  1  0.97350000  0.35960000  0.81100000  1.0 -0.7039083969
O  O91  1  0.02650000  0.85960000  0.68900000  1.0 -0.7039083969
O  O92  1  0.47350000  0.14040000  0.18900000  1.0 -0.7039083969
O  O93  1  0.48630000  0.80990000  0.27110000  1.0 -0.2580635703
O  O94  1  0.01370000  0.19010000  0.77110000  1.0 -0.2580635703
O  O95  1  0.98630000  0.69010000  0.72890000  1.0 -0.2580635703
O  O96  1  0.51370000  0.30990000  0.22890000  1.0 -0.2580635703
O  O97  1  0.46400000  0.54500000  0.38600000  1.0 -0.2196855713
O  O98  1  0.03600000  0.45500000  0.88600000  1.0 -0.2196855713
O  O99  1  0.96400000  0.95500000  0.61400000  1.0 -0.2196855713
O  O100  1  0.53600000  0.04500000  0.11400000  1.0 -0.2196855713
