# DDEC6 charges by PACMAN v1.1 (https://github.com/mtap-research/PACMAN-charge/)
data_LOFVUY_FSR_pacman
_symmetry_space_group_name_H-M   'P 1'
_cell_length_a   13.10200000
_cell_length_b   26.27900000
_cell_length_c   26.10400000
_cell_angle_alpha   90.00000000
_cell_angle_beta   93.92300000
_cell_angle_gamma   90.00000000
_symmetry_Int_Tables_number   1
_chemical_formula_structural   TbV6H42C44(N2O9)3
_chemical_formula_sum   'Tb4 V24 H168 C176 N24 O108'
_cell_volume   8966.74252337
_cell_formula_units_Z   4
loop_
 _symmetry_equiv_pos_site_id
 _symmetry_equiv_pos_as_xyz
  1  'x, y, z'
loop_
 _atom_site_type_symbol
 _atom_site_label
 _atom_site_symmetry_multiplicity
 _atom_site_fract_x
 _atom_site_fract_y
 _atom_site_fract_z
 _atom_site_occupancy
 _atom_site_charge
Tb  Tb1  1  0.47276000  0.20988000  0.88343000  1.0 1.9763435725
Tb  Tb2  1  0.47276000  0.29012000  0.38343000  1.0 1.9763435725
Tb  Tb3  1  0.52724000  0.70988000  0.61657000  1.0 1.9763435725
Tb  Tb4  1  0.52724000  0.79012000  0.11657000  1.0 1.9763435725
V  V1  1  0.13884000  0.70389000  0.80448000  1.0 1.8788789365
V  V2  1  0.13884000  0.79611000  0.30448000  1.0 1.8788789365
V  V3  1  0.12083000  0.69337000  0.92886000  1.0 1.8788789365
V  V4  1  0.12083000  0.80663000  0.42886000  1.0 1.889393628
V  V5  1  0.93185000  0.65410000  0.84844000  1.0 1.9092963639
V  V6  1  0.93185000  0.84590000  0.34844000  1.0 1.9092963639
V  V7  1  0.91427000  0.74461000  0.91840000  1.0 1.8980560477
V  V8  1  0.91427000  0.75539000  0.41840000  1.0 1.8980560477
V  V9  1  0.93249000  0.75571000  0.79457000  1.0 1.8788789365
V  V10  1  0.93249000  0.74429000  0.29457000  1.0 1.8788789365
V  V11  1  0.12121000  0.79497000  0.87497000  1.0 1.889393628
V  V12  1  0.12121000  0.70503000  0.37497000  1.0 1.8980560477
V  V13  1  0.86116000  0.20389000  0.69552000  1.0 1.8788789365
V  V14  1  0.86116000  0.29611000  0.19552000  1.0 1.8788789365
V  V15  1  0.87917000  0.19337000  0.57114000  1.0 1.889393628
V  V16  1  0.87917000  0.30663000  0.07114000  1.0 1.889393628
V  V17  1  0.06815000  0.15410000  0.65156000  1.0 1.9092963639
V  V18  1  0.06815000  0.34590000  0.15156000  1.0 1.9092963639
V  V19  1  0.08573000  0.24461000  0.58160000  1.0 1.8980560477
V  V20  1  0.08573000  0.25539000  0.08160000  1.0 1.8980560477
V  V21  1  0.06751000  0.25571000  0.70543000  1.0 1.8716735843
V  V22  1  0.06751000  0.24429000  0.20543000  1.0 1.8788789365
V  V23  1  0.87879000  0.29497000  0.62503000  1.0 1.8980560477
V  V24  1  0.87879000  0.20503000  0.12503000  1.0 1.8980560477
H  H1  1  0.02360000  0.89220000  0.82710000  1.0 0.1195909173
H  H2  1  0.02360000  0.60780000  0.32710000  1.0 0.1195909173
H  H3  1  0.93090000  0.87260000  0.78870000  1.0 0.1195909173
H  H4  1  0.93090000  0.62740000  0.28870000  1.0 0.1195909173
H  H5  1  0.77540000  0.83520000  0.82330000  1.0 0.099264615
H  H6  1  0.77540000  0.66480000  0.32330000  1.0 0.099264615
H  H7  1  0.76600000  0.82800000  0.88380000  1.0 0.1105511799
H  H8  1  0.76600000  0.67200000  0.38380000  1.0 0.1105511799
H  H9  1  0.90900000  0.86210000  0.94640000  1.0 0.1195909173
H  H10  1  0.90900000  0.63790000  0.44640000  1.0 0.1195909173
H  H11  1  0.01070000  0.88430000  0.92330000  1.0 0.1285663638
H  H12  1  0.01070000  0.61570000  0.42330000  1.0 0.1285663638
H  H13  1  0.85060000  0.93990000  0.80010000  1.0 0.1105511799
H  H14  1  0.85060000  0.56010000  0.30010000  1.0 0.1105511799
H  H15  1  0.75230000  0.90890000  0.81600000  1.0 0.1195909173
H  H16  1  0.75230000  0.59110000  0.31600000  1.0 0.1195909173
H  H17  1  0.11730000  0.57570000  0.93670000  1.0 0.1285663638
H  H18  1  0.11730000  0.92430000  0.43670000  1.0 0.1285663638
H  H19  1  0.02820000  0.55710000  0.89570000  1.0 0.1195909173
H  H20  1  0.02820000  0.94290000  0.39570000  1.0 0.1195909173
H  H21  1  0.04790000  0.56680000  0.79860000  1.0 0.1195909173
H  H22  1  0.04790000  0.93320000  0.29860000  1.0 0.1195909173
H  H23  1  0.14970000  0.59250000  0.77980000  1.0 0.1105511799
H  H24  1  0.14970000  0.90750000  0.27980000  1.0 0.1105511799
H  H25  1  0.28990000  0.61870000  0.84350000  1.0 0.1105511799
H  H26  1  0.28990000  0.88130000  0.34350000  1.0 0.1105511799
H  H27  1  0.27820000  0.61560000  0.90400000  1.0 0.1195909173
H  H28  1  0.27820000  0.88440000  0.40400000  1.0 0.1195909173
H  H29  1  0.25030000  0.51220000  0.79480000  1.0 0.1105511799
H  H30  1  0.25030000  0.98780000  0.29480000  1.0 0.1105511799
H  H31  1  0.33880000  0.53360000  0.83500000  1.0 0.1195909173
H  H32  1  0.33880000  0.96640000  0.33500000  1.0 0.1195909173
H  H33  1  0.24200000  0.43540000  0.77580000  1.0 0.099264615
H  H34  1  0.24200000  0.06460000  0.27580000  1.0 0.099264615
H  H35  1  0.29120000  0.34490000  0.79540000  1.0 0.1415832475
H  H36  1  0.29120000  0.15510000  0.29540000  1.0 0.1415832475
H  H37  1  0.40810000  0.36780000  0.93660000  1.0 0.1604102314
H  H38  1  0.40810000  0.13220000  0.43660000  1.0 0.1604102314
H  H39  1  0.36470000  0.46090000  0.92470000  1.0 0.1285663638
H  H40  1  0.36470000  0.03910000  0.42470000  1.0 0.1285663638
H  H41  1  0.54150000  0.02290000  0.88980000  1.0 0.1195909173
H  H42  1  0.54150000  0.47710000  0.38980000  1.0 0.1195909173
H  H43  1  0.62980000  0.94880000  0.86680000  1.0 0.1285663638
H  H44  1  0.62980000  0.55120000  0.36680000  1.0 0.1285663638
H  H45  1  0.84890000  0.03630000  0.81040000  1.0 0.1285663638
H  H46  1  0.84890000  0.46370000  0.31040000  1.0 0.1285663638
H  H47  1  0.76090000  0.11150000  0.83320000  1.0 0.1285663638
H  H48  1  0.76090000  0.38850000  0.33320000  1.0 0.1285663638
H  H49  1  0.58510000  0.17980000  0.76560000  1.0 0.1500024084
H  H50  1  0.58510000  0.32020000  0.26560000  1.0 0.1500024084
H  H51  1  0.61370000  0.20470000  0.68410000  1.0 0.1604102314
H  H52  1  0.61370000  0.29530000  0.18410000  1.0 0.1604102314
H  H53  1  0.31150000  0.23050000  0.65690000  1.0 0.1604102314
H  H54  1  0.31150000  0.26950000  0.15690000  1.0 0.1604102314
H  H55  1  0.28850000  0.20340000  0.73830000  1.0 0.1722099028
H  H56  1  0.28850000  0.29660000  0.23830000  1.0 0.1722099028
H  H57  1  0.36700000  0.26770000  0.49750000  1.0 0.1415832475
H  H58  1  0.36700000  0.23230000  0.99750000  1.0 0.1415832475
H  H59  1  0.33900000  0.23480000  0.58020000  1.0 0.1604102314
H  H60  1  0.33900000  0.26520000  0.08020000  1.0 0.1604102314
H  H61  1  0.63890000  0.24900000  0.61910000  1.0 0.1604102314
H  H62  1  0.63890000  0.25100000  0.11910000  1.0 0.1604102314
H  H63  1  0.66630000  0.27570000  0.53930000  1.0 0.1794094025
H  H64  1  0.66630000  0.22430000  0.03930000  1.0 0.1794094025
H  H65  1  0.71420000  0.23840000  0.80580000  1.0 0.1500024084
H  H66  1  0.71420000  0.26160000  0.30580000  1.0 0.1500024084
H  H67  1  0.88840000  0.22590000  0.81430000  1.0 0.1722099028
H  H68  1  0.88840000  0.27410000  0.31430000  1.0 0.1722099028
H  H69  1  0.88730000  0.25510000  0.96570000  1.0 0.1604102314
H  H70  1  0.88730000  0.24490000  0.46570000  1.0 0.1604102314
H  H71  1  0.71310000  0.27330000  0.95240000  1.0 0.1500024084
H  H72  1  0.71310000  0.22670000  0.45240000  1.0 0.1500024084
H  H73  1  0.22070000  0.22180000  0.83160000  1.0 0.1500024084
H  H74  1  0.22070000  0.27820000  0.33160000  1.0 0.1500024084
H  H75  1  0.05200000  0.24680000  0.82510000  1.0 0.1722099028
H  H76  1  0.05200000  0.25320000  0.32510000  1.0 0.1722099028
H  H77  1  0.02600000  0.20500000  0.97010000  1.0 0.1604102314
H  H78  1  0.02600000  0.29500000  0.47010000  1.0 0.1604102314
H  H79  1  0.19140000  0.17500000  0.97460000  1.0 0.1500024084
H  H80  1  0.19140000  0.32500000  0.47460000  1.0 0.1500024084
H  H81  1  0.86260000  0.93940000  0.89910000  1.0 0.2628898028
H  H82  1  0.86260000  0.56060000  0.39910000  1.0 0.2628898028
H  H83  1  0.17770000  0.50890000  0.88610000  1.0 0.2459129695
H  H84  1  0.17770000  0.99110000  0.38610000  1.0 0.2459129695
H  H85  1  0.97640000  0.39220000  0.67290000  1.0 0.1195909173
H  H86  1  0.97640000  0.10780000  0.17290000  1.0 0.1195909173
H  H87  1  0.06910000  0.37260000  0.71130000  1.0 0.1195909173
H  H88  1  0.06910000  0.12740000  0.21130000  1.0 0.1195909173
H  H89  1  0.22460000  0.33520000  0.67670000  1.0 0.099264615
H  H90  1  0.22460000  0.16480000  0.17670000  1.0 0.099264615
H  H91  1  0.23400000  0.32800000  0.61620000  1.0 0.1105511799
H  H92  1  0.23400000  0.17200000  0.11620000  1.0 0.1105511799
H  H93  1  0.09100000  0.36210000  0.55360000  1.0 0.1195909173
H  H94  1  0.09100000  0.13790000  0.05360000  1.0 0.1195909173
H  H95  1  0.98930000  0.38430000  0.57670000  1.0 0.1285663638
H  H96  1  0.98930000  0.11570000  0.07670000  1.0 0.1285663638
H  H97  1  0.14940000  0.43990000  0.69990000  1.0 0.1105511799
H  H98  1  0.14940000  0.06010000  0.19990000  1.0 0.1105511799
H  H99  1  0.24770000  0.40890000  0.68400000  1.0 0.1195909173
H  H100  1  0.24770000  0.09110000  0.18400000  1.0 0.1195909173
H  H101  1  0.88270000  0.07570000  0.56330000  1.0 0.1285663638
H  H102  1  0.88270000  0.42430000  0.06330000  1.0 0.1285663638
H  H103  1  0.97180000  0.05710000  0.60430000  1.0 0.1195909173
H  H104  1  0.97180000  0.44290000  0.10430000  1.0 0.1195909173
H  H105  1  0.95210000  0.06680000  0.70140000  1.0 0.1195909173
H  H106  1  0.95210000  0.43320000  0.20140000  1.0 0.1195909173
H  H107  1  0.85030000  0.09250000  0.72020000  1.0 0.1105511799
H  H108  1  0.85030000  0.40750000  0.22020000  1.0 0.1105511799
H  H109  1  0.71010000  0.11870000  0.65650000  1.0 0.1105511799
H  H110  1  0.71010000  0.38130000  0.15650000  1.0 0.1105511799
H  H111  1  0.72180000  0.11560000  0.59600000  1.0 0.1195909173
H  H112  1  0.72180000  0.38440000  0.09600000  1.0 0.1195909173
H  H113  1  0.74970000  0.01220000  0.70520000  1.0 0.1105511799
H  H114  1  0.74970000  0.48780000  0.20520000  1.0 0.1105511799
H  H115  1  0.66120000  0.03360000  0.66500000  1.0 0.1195909173
H  H116  1  0.66120000  0.46640000  0.16500000  1.0 0.1195909173
H  H117  1  0.75800000  0.93540000  0.72420000  1.0 0.099264615
H  H118  1  0.75800000  0.56460000  0.22420000  1.0 0.099264615
H  H119  1  0.70880000  0.84490000  0.70460000  1.0 0.1415832475
H  H120  1  0.70880000  0.65510000  0.20460000  1.0 0.1415832475
H  H121  1  0.59190000  0.86780000  0.56340000  1.0 0.1604102314
H  H122  1  0.59190000  0.63220000  0.06340000  1.0 0.1604102314
H  H123  1  0.63530000  0.96090000  0.57530000  1.0 0.1285663638
H  H124  1  0.63530000  0.53910000  0.07530000  1.0 0.1285663638
H  H125  1  0.45850000  0.52290000  0.61020000  1.0 0.1195909173
H  H126  1  0.45850000  0.97710000  0.11020000  1.0 0.1195909173
H  H127  1  0.37020000  0.44880000  0.63320000  1.0 0.1285663638
H  H128  1  0.37020000  0.05120000  0.13320000  1.0 0.1285663638
H  H129  1  0.15110000  0.53630000  0.68960000  1.0 0.1285663638
H  H130  1  0.15110000  0.96370000  0.18960000  1.0 0.1285663638
H  H131  1  0.23910000  0.61150000  0.66680000  1.0 0.1285663638
H  H132  1  0.23910000  0.88850000  0.16680000  1.0 0.1285663638
H  H133  1  0.41490000  0.67980000  0.73440000  1.0 0.1500024084
H  H134  1  0.41490000  0.82020000  0.23440000  1.0 0.1500024084
H  H135  1  0.38630000  0.70470000  0.81590000  1.0 0.1604102314
H  H136  1  0.38630000  0.79530000  0.31590000  1.0 0.1604102314
H  H137  1  0.68850000  0.73050000  0.84310000  1.0 0.1604102314
H  H138  1  0.68850000  0.76950000  0.34310000  1.0 0.1604102314
H  H139  1  0.71150000  0.70340000  0.76170000  1.0 0.1794094025
H  H140  1  0.71150000  0.79660000  0.26170000  1.0 0.1722099028
H  H141  1  0.63300000  0.76770000  0.00250000  1.0 0.1415832475
H  H142  1  0.63300000  0.73230000  0.50250000  1.0 0.1415832475
H  H143  1  0.66100000  0.73480000  0.91980000  1.0 0.1604102314
H  H144  1  0.66100000  0.76520000  0.41980000  1.0 0.1604102314
H  H145  1  0.36110000  0.74900000  0.88090000  1.0 0.1604102314
H  H146  1  0.36110000  0.75100000  0.38090000  1.0 0.1604102314
H  H147  1  0.33370000  0.77570000  0.96070000  1.0 0.1794094025
H  H148  1  0.33370000  0.72430000  0.46070000  1.0 0.1794094025
H  H149  1  0.28580000  0.73840000  0.69420000  1.0 0.1500024084
H  H150  1  0.28580000  0.76160000  0.19420000  1.0 0.1500024084
H  H151  1  0.11160000  0.72590000  0.68570000  1.0 0.1794094025
H  H152  1  0.11160000  0.77410000  0.18570000  1.0 0.1722099028
H  H153  1  0.11270000  0.75510000  0.53430000  1.0 0.1604102314
H  H154  1  0.11270000  0.74490000  0.03430000  1.0 0.1604102314
H  H155  1  0.28690000  0.77330000  0.54760000  1.0 0.1500024084
H  H156  1  0.28690000  0.72670000  0.04760000  1.0 0.1500024084
H  H157  1  0.77930000  0.72180000  0.66840000  1.0 0.1500024084
H  H158  1  0.77930000  0.77820000  0.16840000  1.0 0.1500024084
H  H159  1  0.94800000  0.74680000  0.67490000  1.0 0.1604102314
H  H160  1  0.94800000  0.75320000  0.17490000  1.0 0.1722099028
H  H161  1  0.97400000  0.70500000  0.52990000  1.0 0.1604102314
H  H162  1  0.97400000  0.79500000  0.02990000  1.0 0.1604102314
H  H163  1  0.80860000  0.67500000  0.52540000  1.0 0.1500024084
H  H164  1  0.80860000  0.82500000  0.02540000  1.0 0.1500024084
H  H165  1  0.13740000  0.43940000  0.60090000  1.0 0.2628898028
H  H166  1  0.13740000  0.06060000  0.10090000  1.0 0.2628898028
H  H167  1  0.82230000  0.00890000  0.61390000  1.0 0.2459129695
H  H168  1  0.82230000  0.49110000  0.11390000  1.0 0.2459129695
C  C1  1  0.97120000  0.86530000  0.82130000  1.0 -0.0685335146
C  C2  1  0.97120000  0.63470000  0.32130000  1.0 -0.0685335146
C  C3  1  0.81380000  0.82630000  0.85610000  1.0 -0.0775890214
C  C4  1  0.81380000  0.67370000  0.35610000  1.0 -0.0775890214
C  C5  1  0.89940000  0.86410000  0.86690000  1.0 0.1722099028
C  C6  1  0.89940000  0.63590000  0.36690000  1.0 0.1722099028
C  C7  1  0.95630000  0.85830000  0.91860000  1.0 -0.0976576429
C  C8  1  0.95630000  0.64170000  0.41860000  1.0 -0.0976576429
C  C9  1  0.80300000  0.93540000  0.82740000  1.0 -0.1111321409
C  C10  1  0.80300000  0.56460000  0.32740000  1.0 -0.1111321409
C  C11  1  0.08110000  0.58350000  0.90310000  1.0 -0.0894635568
C  C12  1  0.08110000  0.91650000  0.40310000  1.0 -0.0894635568
C  C13  1  0.09940000  0.59380000  0.80630000  1.0 -0.0685335146
C  C14  1  0.09940000  0.90620000  0.30630000  1.0 -0.0685335146
C  C15  1  0.15650000  0.58330000  0.86140000  1.0 0.2014160011
C  C16  1  0.15650000  0.91670000  0.36140000  1.0 0.2014160011
C  C17  1  0.24080000  0.62240000  0.87050000  1.0 -0.0775890214
C  C18  1  0.24080000  0.87760000  0.37050000  1.0 -0.0775890214
C  C19  1  0.27700000  0.51220000  0.83120000  1.0 -0.1297262253
C  C20  1  0.27700000  0.98780000  0.33120000  1.0 -0.1297262253
C  C21  1  0.30000000  0.45700000  0.85010000  1.0 0.099264615
C  C22  1  0.30000000  0.04300000  0.35010000  1.0 0.099264615
C  C23  1  0.27420000  0.42460000  0.80770000  1.0 -0.1928128873
C  C24  1  0.27420000  0.07540000  0.30770000  1.0 -0.1928128873
C  C25  1  0.30510000  0.37040000  0.82070000  1.0 -0.0575430576
C  C26  1  0.30510000  0.12960000  0.32070000  1.0 -0.0575430576
C  C27  1  0.34850000  0.35730000  0.86350000  1.0 -0.0415447462
C  C28  1  0.34850000  0.14270000  0.36350000  1.0 -0.0338234358
C  C29  1  0.37600000  0.38200000  0.90610000  1.0 -0.0976576429
C  C30  1  0.37600000  0.11800000  0.40610000  1.0 -0.0976576429
C  C31  1  0.34900000  0.43800000  0.89750000  1.0 -0.1928128873
C  C32  1  0.34900000  0.06200000  0.39750000  1.0 -0.1928128873
C  C33  1  0.38250000  0.30530000  0.87020000  1.0 0.5601156953
C  C34  1  0.38250000  0.19470000  0.37020000  1.0 0.5601156953
C  C35  1  0.58650000  0.12070000  0.87610000  1.0 0.5854597095
C  C36  1  0.58650000  0.37930000  0.37610000  1.0 0.5854597095
C  C37  1  0.64210000  0.07310000  0.86390000  1.0 -0.0168672606
C  C38  1  0.64210000  0.42690000  0.36390000  1.0 -0.0168672606
C  C39  1  0.60400000  0.02590000  0.87360000  1.0 -0.0775890214
C  C40  1  0.60400000  0.47410000  0.37360000  1.0 -0.0775890214
C  C41  1  0.65720000  0.98130000  0.85970000  1.0 -0.1702003736
C  C42  1  0.65720000  0.51870000  0.35970000  1.0 -0.1702003736
C  C43  1  0.74790000  0.98460000  0.83620000  1.0 0.042278143
C  C44  1  0.74790000  0.51540000  0.33620000  1.0 0.042278143
C  C45  1  0.78630000  0.03340000  0.82650000  1.0 -0.1825476323
C  C46  1  0.78630000  0.46660000  0.32650000  1.0 -0.1825476323
C  C47  1  0.73420000  0.07880000  0.84010000  1.0 -0.0894635568
C  C48  1  0.73420000  0.42120000  0.34010000  1.0 -0.0894635568
C  C49  1  0.52910000  0.19010000  0.74300000  1.0 -0.0475913283
C  C50  1  0.52910000  0.30990000  0.24300000  1.0 -0.0475913283
C  C51  1  0.54600000  0.20540000  0.69500000  1.0 -0.1400653489
C  C52  1  0.54600000  0.29460000  0.19500000  1.0 -0.1400653489
C  C53  1  0.46950000  0.22130000  0.66250000  1.0 0.099264615
C  C54  1  0.46950000  0.27870000  0.16250000  1.0 0.099264615
C  C55  1  0.36830000  0.22020000  0.67910000  1.0 -0.1297262253
C  C56  1  0.36830000  0.27980000  0.17910000  1.0 -0.1297262253
C  C57  1  0.35560000  0.20430000  0.72660000  1.0 -0.0108175826
C  C58  1  0.35560000  0.29570000  0.22660000  1.0 -0.0108175826
C  C59  1  0.48510000  0.23760000  0.60790000  1.0 0.0884625012
C  C60  1  0.48510000  0.26240000  0.10790000  1.0 0.0884625012
C  C61  1  0.42290000  0.26340000  0.52230000  1.0 -0.0415447462
C  C62  1  0.42290000  0.23660000  0.02230000  1.0 -0.0415447462
C  C63  1  0.40630000  0.24370000  0.57210000  1.0 -0.1634213623
C  C64  1  0.40630000  0.25630000  0.07210000  1.0 -0.1634213623
C  C65  1  0.58260000  0.25160000  0.59430000  1.0 -0.1297262253
C  C66  1  0.58260000  0.24840000  0.09430000  1.0 -0.1297262253
C  C67  1  0.59820000  0.26850000  0.54750000  1.0 -0.0415447462
C  C68  1  0.59820000  0.23150000  0.04750000  1.0 -0.0415447462
C  C69  1  0.75090000  0.24420000  0.83790000  1.0 -0.0108175826
C  C70  1  0.75090000  0.25580000  0.33790000  1.0 -0.0108175826
C  C71  1  0.85350000  0.23520000  0.84360000  1.0 -0.1450624612
C  C72  1  0.85350000  0.26480000  0.34360000  1.0 -0.1450624612
C  C73  1  0.90770000  0.23930000  0.88980000  1.0 0.099264615
C  C74  1  0.90770000  0.26070000  0.38980000  1.0 0.099264615
C  C75  1  0.85390000  0.25310000  0.93230000  1.0 -0.1400653489
C  C76  1  0.85390000  0.24690000  0.43230000  1.0 -0.1400653489
C  C77  1  0.75050000  0.26380000  0.92400000  1.0 -0.0108175826
C  C78  1  0.75050000  0.23620000  0.42400000  1.0 -0.0108175826
C  C79  1  0.17990000  0.21780000  0.86000000  1.0 -0.0338234358
C  C80  1  0.17990000  0.28220000  0.36000000  1.0 -0.0338234358
C  C81  1  0.08060000  0.23230000  0.85620000  1.0 -0.1400653489
C  C82  1  0.08060000  0.26770000  0.35620000  1.0 -0.1400653489
C  C83  1  0.02090000  0.22610000  0.89710000  1.0 0.0884625012
C  C84  1  0.02090000  0.27390000  0.39710000  1.0 0.0884625012
C  C85  1  0.06480000  0.20720000  0.94070000  1.0 -0.1400653489
C  C86  1  0.06480000  0.29280000  0.44070000  1.0 -0.1400653489
C  C87  1  0.16310000  0.19100000  0.94420000  1.0 -0.0415447462
C  C88  1  0.16310000  0.30900000  0.44420000  1.0 -0.0415447462
C  C89  1  0.02880000  0.36530000  0.67870000  1.0 -0.0775890214
C  C90  1  0.02880000  0.13470000  0.17870000  1.0 -0.0775890214
C  C91  1  0.18620000  0.32630000  0.64390000  1.0 -0.0775890214
C  C92  1  0.18620000  0.17370000  0.14390000  1.0 -0.0775890214
C  C93  1  0.10060000  0.36410000  0.63310000  1.0 0.1722099028
C  C94  1  0.10060000  0.13590000  0.13310000  1.0 0.1722099028
C  C95  1  0.04370000  0.35830000  0.58140000  1.0 -0.0976576429
C  C96  1  0.04370000  0.14170000  0.08140000  1.0 -0.0976576429
C  C97  1  0.19700000  0.43540000  0.67260000  1.0 -0.1111321409
C  C98  1  0.19700000  0.06460000  0.17260000  1.0 -0.1111321409
C  C99  1  0.91890000  0.08350000  0.59690000  1.0 -0.0894635568
C  C100  1  0.91890000  0.41650000  0.09690000  1.0 -0.0894635568
C  C101  1  0.90060000  0.09380000  0.69370000  1.0 -0.0685335146
C  C102  1  0.90060000  0.40620000  0.19370000  1.0 -0.0685335146
C  C103  1  0.84350000  0.08330000  0.63860000  1.0 0.2014160011
C  C104  1  0.84350000  0.41670000  0.13860000  1.0 0.2014160011
C  C105  1  0.75920000  0.12240000  0.62950000  1.0 -0.0775890214
C  C106  1  0.75920000  0.37760000  0.12950000  1.0 -0.0775890214
C  C107  1  0.72300000  0.01220000  0.66880000  1.0 -0.1297262253
C  C108  1  0.72300000  0.48780000  0.16880000  1.0 -0.1297262253
C  C109  1  0.70000000  0.95700000  0.64990000  1.0 0.099264615
C  C110  1  0.70000000  0.54300000  0.14990000  1.0 0.099264615
C  C111  1  0.72580000  0.92460000  0.69230000  1.0 -0.1928128873
C  C112  1  0.72580000  0.57540000  0.19230000  1.0 -0.1928128873
C  C113  1  0.69490000  0.87040000  0.67930000  1.0 -0.0575430576
C  C114  1  0.69490000  0.62960000  0.17930000  1.0 -0.0575430576
C  C115  1  0.65150000  0.85730000  0.63650000  1.0 -0.0338234358
C  C116  1  0.65150000  0.64270000  0.13650000  1.0 -0.0415447462
C  C117  1  0.62400000  0.88200000  0.59390000  1.0 -0.0976576429
C  C118  1  0.62400000  0.61800000  0.09390000  1.0 -0.0976576429
C  C119  1  0.65100000  0.93800000  0.60250000  1.0 -0.1985251602
C  C120  1  0.65100000  0.56200000  0.10250000  1.0 -0.1928128873
C  C121  1  0.61750000  0.80530000  0.62980000  1.0 0.5601156953
C  C122  1  0.61750000  0.69470000  0.12980000  1.0 0.5601156953
C  C123  1  0.41350000  0.62070000  0.62390000  1.0 0.5854597095
C  C124  1  0.41350000  0.87930000  0.12390000  1.0 0.5854597095
C  C125  1  0.35790000  0.57310000  0.63610000  1.0 -0.0168672606
C  C126  1  0.35790000  0.92690000  0.13610000  1.0 -0.0168672606
C  C127  1  0.39600000  0.52590000  0.62640000  1.0 -0.0775890214
C  C128  1  0.39600000  0.97410000  0.12640000  1.0 -0.0775890214
C  C129  1  0.34280000  0.48130000  0.64030000  1.0 -0.1702003736
C  C130  1  0.34280000  0.01870000  0.14030000  1.0 -0.1702003736
C  C131  1  0.25210000  0.48460000  0.66380000  1.0 0.042278143
C  C132  1  0.25210000  0.01540000  0.16380000  1.0 0.042278143
C  C133  1  0.21370000  0.53340000  0.67350000  1.0 -0.1825476323
C  C134  1  0.21370000  0.96660000  0.17350000  1.0 -0.1825476323
C  C135  1  0.26580000  0.57880000  0.65990000  1.0 -0.0894635568
C  C136  1  0.26580000  0.92120000  0.15990000  1.0 -0.0894635568
C  C137  1  0.47090000  0.69010000  0.75700000  1.0 -0.0475913283
C  C138  1  0.47090000  0.80990000  0.25700000  1.0 -0.0475913283
C  C139  1  0.45400000  0.70540000  0.80500000  1.0 -0.1400653489
C  C140  1  0.45400000  0.79460000  0.30500000  1.0 -0.1400653489
C  C141  1  0.53050000  0.72130000  0.83750000  1.0 0.099264615
C  C142  1  0.53050000  0.77870000  0.33750000  1.0 0.099264615
C  C143  1  0.63170000  0.72020000  0.82090000  1.0 -0.1297262253
C  C144  1  0.63170000  0.77980000  0.32090000  1.0 -0.1297262253
C  C145  1  0.64440000  0.70430000  0.77340000  1.0 -0.0108175826
C  C146  1  0.64440000  0.79570000  0.27340000  1.0 -0.0108175826
C  C147  1  0.51490000  0.73760000  0.89210000  1.0 0.0884625012
C  C148  1  0.51490000  0.76240000  0.39210000  1.0 0.0884625012
C  C149  1  0.57710000  0.76340000  0.97770000  1.0 -0.0415447462
C  C150  1  0.57710000  0.73660000  0.47770000  1.0 -0.0415447462
C  C151  1  0.59370000  0.74370000  0.92790000  1.0 -0.1634213623
C  C152  1  0.59370000  0.75630000  0.42790000  1.0 -0.1634213623
C  C153  1  0.41740000  0.75160000  0.90570000  1.0 -0.1297262253
C  C154  1  0.41740000  0.74840000  0.40570000  1.0 -0.1242920902
C  C155  1  0.40180000  0.76850000  0.95250000  1.0 -0.0415447462
C  C156  1  0.40180000  0.73150000  0.45250000  1.0 -0.0415447462
C  C157  1  0.24910000  0.74420000  0.66210000  1.0 -0.0108175826
C  C158  1  0.24910000  0.75580000  0.16210000  1.0 -0.0108175826
C  C159  1  0.14650000  0.73520000  0.65640000  1.0 -0.1400653489
C  C160  1  0.14650000  0.76480000  0.15640000  1.0 -0.1450624612
C  C161  1  0.09230000  0.73930000  0.61020000  1.0 0.099264615
C  C162  1  0.09230000  0.76070000  0.11020000  1.0 0.099264615
C  C163  1  0.14610000  0.75310000  0.56770000  1.0 -0.1400653489
C  C164  1  0.14610000  0.74690000  0.06770000  1.0 -0.1400653489
C  C165  1  0.24950000  0.76380000  0.57600000  1.0 -0.0108175826
C  C166  1  0.24950000  0.73620000  0.07600000  1.0 -0.0108175826
C  C167  1  0.82010000  0.71780000  0.64000000  1.0 -0.0338234358
C  C168  1  0.82010000  0.78220000  0.14000000  1.0 -0.0338234358
C  C169  1  0.91940000  0.73230000  0.64380000  1.0 -0.1400653489
C  C170  1  0.91940000  0.76770000  0.14380000  1.0 -0.1400653489
C  C171  1  0.97910000  0.72610000  0.60290000  1.0 0.0884625012
C  C172  1  0.97910000  0.77390000  0.10290000  1.0 0.0884625012
C  C173  1  0.93520000  0.70720000  0.55930000  1.0 -0.1400653489
C  C174  1  0.93520000  0.79280000  0.05930000  1.0 -0.1400653489
C  C175  1  0.83690000  0.69100000  0.55580000  1.0 -0.0415447462
C  C176  1  0.83690000  0.80900000  0.05580000  1.0 -0.0415447462
N  N1  1  0.85450000  0.92040000  0.87140000  1.0 -0.2789313939
N  N2  1  0.85450000  0.57960000  0.37140000  1.0 -0.2789313939
N  N3  1  0.20040000  0.53020000  0.86350000  1.0 -0.3525421244
N  N4  1  0.20040000  0.96980000  0.36350000  1.0 -0.3525421244
N  N5  1  0.22010000  0.19800000  0.90370000  1.0 0.3378247846
N  N6  1  0.22010000  0.30200000  0.40370000  1.0 0.3378247846
N  N7  1  0.43530000  0.18940000  0.75890000  1.0 0.3378247846
N  N8  1  0.43530000  0.31060000  0.25890000  1.0 0.3378247846
N  N9  1  0.70240000  0.26110000  0.87810000  1.0 0.3246442083
N  N10  1  0.70240000  0.23890000  0.37810000  1.0 0.3246442083
N  N11  1  0.51980000  0.27600000  0.51040000  1.0 0.3730874959
N  N12  1  0.51980000  0.22400000  0.01040000  1.0 0.3730874959
N  N13  1  0.14550000  0.42040000  0.62860000  1.0 -0.2789313939
N  N14  1  0.14550000  0.07960000  0.12860000  1.0 -0.2789313939
N  N15  1  0.79960000  0.03020000  0.63650000  1.0 -0.3525421244
N  N16  1  0.79960000  0.46980000  0.13650000  1.0 -0.3525421244
N  N17  1  0.77990000  0.69800000  0.59630000  1.0 0.3378247846
N  N18  1  0.77990000  0.80200000  0.09630000  1.0 0.3378247846
N  N19  1  0.56470000  0.68940000  0.74110000  1.0 0.3378247846
N  N20  1  0.56470000  0.81060000  0.24110000  1.0 0.3378247846
N  N21  1  0.29760000  0.76110000  0.62190000  1.0 0.3246442083
N  N22  1  0.29760000  0.73890000  0.12190000  1.0 0.3246442083
N  N23  1  0.48020000  0.77600000  0.98960000  1.0 0.3730874959
N  N24  1  0.48020000  0.72400000  0.48960000  1.0 0.3730874959
O  O1  1  0.17840000  0.84670000  0.88690000  1.0 -0.6003843364
O  O2  1  0.17840000  0.65330000  0.38690000  1.0 -0.6003843364
O  O3  1  0.01990000  0.81570000  0.81880000  1.0 -0.6199024987
O  O4  1  0.01990000  0.68430000  0.31880000  1.0 -0.6199024987
O  O5  1  0.00150000  0.80620000  0.91950000  1.0 -0.6199024987
O  O6  1  0.00150000  0.69380000  0.41950000  1.0 -0.6199024987
O  O7  1  0.86470000  0.78500000  0.74980000  1.0 -0.6488104658
O  O8  1  0.86470000  0.71500000  0.24980000  1.0 -0.6488104658
O  O9  1  0.85250000  0.77650000  0.85290000  1.0 -0.6115914346
O  O10  1  0.85250000  0.72350000  0.35290000  1.0 -0.6115914346
O  O11  1  0.82980000  0.76690000  0.95410000  1.0 -0.6488104658
O  O12  1  0.82980000  0.73310000  0.45410000  1.0 -0.6488104658
O  O13  1  0.19870000  0.76390000  0.82820000  1.0 -0.9099139717
O  O14  1  0.19870000  0.73610000  0.32820000  1.0 -0.9099139717
O  O15  1  0.04580000  0.73450000  0.76140000  1.0 -0.8793505973
O  O16  1  0.04580000  0.76550000  0.26140000  1.0 -0.8793505973
O  O17  1  0.17630000  0.75470000  0.92940000  1.0 -0.8895971325
O  O18  1  0.17630000  0.74530000  0.42940000  1.0 -0.8895971325
O  O19  1  0.02590000  0.72450000  0.86250000  1.0 -1.2038799521
O  O20  1  0.02590000  0.77550000  0.36250000  1.0 -1.2038799521
O  O21  1  0.87550000  0.69350000  0.79560000  1.0 -0.8895971325
O  O22  1  0.87550000  0.80650000  0.29560000  1.0 -0.8895971325
O  O23  1  0.00710000  0.71410000  0.96190000  1.0 -0.8793505973
O  O24  1  0.00710000  0.78590000  0.46190000  1.0 -0.8793505973
O  O25  1  0.85660000  0.68550000  0.89500000  1.0 -0.8793505973
O  O26  1  0.85660000  0.81450000  0.39500000  1.0 -0.8793505973
O  O27  1  0.22290000  0.68170000  0.76810000  1.0 -0.6488104658
O  O28  1  0.22290000  0.81830000  0.26810000  1.0 -0.6400322553
O  O29  1  0.20290000  0.67350000  0.87000000  1.0 -0.6115914346
O  O30  1  0.20290000  0.82650000  0.37000000  1.0 -0.6115914346
O  O31  1  0.04970000  0.64240000  0.80450000  1.0 -0.6115914346
O  O32  1  0.04970000  0.85760000  0.30450000  1.0 -0.6115914346
O  O33  1  0.18570000  0.66330000  0.97380000  1.0 -0.6400322553
O  O34  1  0.18570000  0.83670000  0.47380000  1.0 -0.629562318
O  O35  1  0.03350000  0.63280000  0.90520000  1.0 -0.6115914346
O  O36  1  0.03350000  0.86720000  0.40520000  1.0 -0.6115914346
O  O37  1  0.88200000  0.59980000  0.84020000  1.0 -0.5931795037
O  O38  1  0.88200000  0.90020000  0.34020000  1.0 -0.5931795037
O  O39  1  0.38820000  0.27440000  0.83390000  1.0 -0.6115914346
O  O40  1  0.38820000  0.22560000  0.33390000  1.0 -0.6115914346
O  O41  1  0.40390000  0.28760000  0.91630000  1.0 -0.6400322553
O  O42  1  0.40390000  0.21240000  0.41630000  1.0 -0.6400322553
O  O43  1  0.62340000  0.16310000  0.86430000  1.0 -0.6608129737
O  O44  1  0.62340000  0.33690000  0.36430000  1.0 -0.6608129737
O  O45  1  0.50010000  0.11830000  0.89570000  1.0 -0.6115914346
O  O46  1  0.50010000  0.38170000  0.39570000  1.0 -0.6115914346
O  O47  1  0.31720000  0.18220000  0.90850000  1.0 -0.6003843364
O  O48  1  0.31720000  0.31780000  0.40850000  1.0 -0.6003843364
O  O49  1  0.41720000  0.17070000  0.80450000  1.0 -0.5572478395
O  O50  1  0.41720000  0.32930000  0.30450000  1.0 -0.5572478395
O  O51  1  0.60060000  0.26980000  0.87190000  1.0 -0.629562318
O  O52  1  0.60060000  0.23020000  0.37190000  1.0 -0.629562318
O  O53  1  0.53990000  0.29670000  0.46680000  1.0 -0.5572478395
O  O54  1  0.53990000  0.20330000  0.96680000  1.0 -0.5572478395
O  O55  1  0.82160000  0.34670000  0.61310000  1.0 -0.6003843364
O  O56  1  0.82160000  0.15330000  0.11310000  1.0 -0.6003843364
O  O57  1  0.98010000  0.31570000  0.68120000  1.0 -0.6199024987
O  O58  1  0.98010000  0.18430000  0.18120000  1.0 -0.6199024987
O  O59  1  0.99850000  0.30620000  0.58050000  1.0 -0.6199024987
O  O60  1  0.99850000  0.19380000  0.08050000  1.0 -0.6199024987
O  O61  1  0.13530000  0.28500000  0.75020000  1.0 -0.6488104658
O  O62  1  0.13530000  0.21500000  0.25020000  1.0 -0.6488104658
O  O63  1  0.14750000  0.27650000  0.64710000  1.0 -0.6115914346
O  O64  1  0.14750000  0.22350000  0.14710000  1.0 -0.6115914346
O  O65  1  0.17020000  0.26690000  0.54590000  1.0 -0.6488104658
O  O66  1  0.17020000  0.23310000  0.04590000  1.0 -0.6488104658
O  O67  1  0.80130000  0.26390000  0.67180000  1.0 -0.9099139717
O  O68  1  0.80130000  0.23610000  0.17180000  1.0 -0.9099139717
O  O69  1  0.95420000  0.23450000  0.73860000  1.0 -0.8793505973
O  O70  1  0.95420000  0.26550000  0.23860000  1.0 -0.8793505973
O  O71  1  0.82370000  0.25470000  0.57060000  1.0 -0.8895971325
O  O72  1  0.82370000  0.24530000  0.07060000  1.0 -0.8895971325
O  O73  1  0.97410000  0.22450000  0.63750000  1.0 -1.2038799521
O  O74  1  0.97410000  0.27550000  0.13750000  1.0 -1.2038799521
O  O75  1  0.12450000  0.19350000  0.70440000  1.0 -0.8895971325
O  O76  1  0.12450000  0.30650000  0.20440000  1.0 -0.8895971325
O  O77  1  0.99290000  0.21410000  0.53810000  1.0 -0.8793505973
O  O78  1  0.99290000  0.28590000  0.03810000  1.0 -0.8793505973
O  O79  1  0.14340000  0.18550000  0.60500000  1.0 -0.8793505973
O  O80  1  0.14340000  0.31450000  0.10500000  1.0 -0.8793505973
O  O81  1  0.77710000  0.18170000  0.73190000  1.0 -0.6400322553
O  O82  1  0.77710000  0.31830000  0.23190000  1.0 -0.6400322553
O  O83  1  0.79710000  0.17350000  0.63000000  1.0 -0.6115914346
O  O84  1  0.79710000  0.32650000  0.13000000  1.0 -0.6115914346
O  O85  1  0.95030000  0.14240000  0.69550000  1.0 -0.6115914346
O  O86  1  0.95030000  0.35760000  0.19550000  1.0 -0.6115914346
O  O87  1  0.81430000  0.16330000  0.52620000  1.0 -0.6400322553
O  O88  1  0.81430000  0.33670000  0.02620000  1.0 -0.6400322553
O  O89  1  0.96650000  0.13280000  0.59480000  1.0 -0.6115914346
O  O90  1  0.96650000  0.36720000  0.09480000  1.0 -0.6115914346
O  O91  1  0.11800000  0.09980000  0.65980000  1.0 -0.6003843364
O  O92  1  0.11800000  0.40020000  0.15980000  1.0 -0.5931795037
O  O93  1  0.61180000  0.77440000  0.66610000  1.0 -0.6115914346
O  O94  1  0.61180000  0.72560000  0.16610000  1.0 -0.6115914346
O  O95  1  0.59610000  0.78760000  0.58370000  1.0 -0.6400322553
O  O96  1  0.59610000  0.71240000  0.08370000  1.0 -0.6400322553
O  O97  1  0.37660000  0.66310000  0.63570000  1.0 -0.6608129737
O  O98  1  0.37660000  0.83690000  0.13570000  1.0 -0.6608129737
O  O99  1  0.49990000  0.61830000  0.60430000  1.0 -0.6003843364
O  O100  1  0.49990000  0.88170000  0.10430000  1.0 -0.6115914346
O  O101  1  0.68280000  0.68220000  0.59150000  1.0 -0.6003843364
O  O102  1  0.68280000  0.81780000  0.09150000  1.0 -0.6003843364
O  O103  1  0.58280000  0.67070000  0.69550000  1.0 -0.5572478395
O  O104  1  0.58280000  0.82930000  0.19550000  1.0 -0.5572478395
O  O105  1  0.39940000  0.76980000  0.62810000  1.0 -0.629562318
O  O106  1  0.39940000  0.73020000  0.12810000  1.0 -0.629562318
O  O107  1  0.46010000  0.79670000  0.03320000  1.0 -0.5572478395
O  O108  1  0.46010000  0.70330000  0.53320000  1.0 -0.5572478395
