# DDEC6 charges by PACMAN v1.1 (https://github.com/mtap-research/PACMAN-charge/)
data_LOFZUB_ASR_pacman
_symmetry_space_group_name_H-M   'P 1'
_cell_length_a   18.77320000
_cell_length_b   18.77320000
_cell_length_c   9.45370000
_cell_angle_alpha   90.00000000
_cell_angle_beta   90.00000000
_cell_angle_gamma   90.00000000
_symmetry_Int_Tables_number   1
_chemical_formula_structural   AlPO4
_chemical_formula_sum   'Al24 P24 O96'
_cell_volume   3331.79621361
_cell_formula_units_Z   24
loop_
 _symmetry_equiv_pos_site_id
 _symmetry_equiv_pos_as_xyz
  1  'x, y, z'
loop_
 _atom_site_type_symbol
 _atom_site_label
 _atom_site_symmetry_multiplicity
 _atom_site_fract_x
 _atom_site_fract_y
 _atom_site_fract_z
 _atom_site_occupancy
 _atom_site_charge
Al  Al1  1  0.41568000  0.31412000  0.08090000  1.0 1.7465115542
Al  Al2  1  0.81412000  0.08432000  0.08090000  1.0 1.7443100686
Al  Al3  1  0.18588000  0.91568000  0.08090000  1.0 1.7465115542
Al  Al4  1  0.91568000  0.81412000  0.91910000  1.0 1.7443100686
Al  Al5  1  0.08432000  0.18588000  0.91910000  1.0 1.7465115542
Al  Al6  1  0.68588000  0.41568000  0.91910000  1.0 1.7443100686
Al  Al7  1  0.31412000  0.58432000  0.91910000  1.0 1.7465115542
Al  Al8  1  0.58432000  0.68588000  0.08090000  1.0 1.7465115542
Al  Al9  1  0.20577000  0.41401000  0.15780000  1.0 1.7614550019
Al  Al10  1  0.91401000  0.29423000  0.15780000  1.0 1.7614550019
Al  Al11  1  0.08599000  0.70577000  0.15780000  1.0 1.7614550019
Al  Al12  1  0.70577000  0.91401000  0.84220000  1.0 1.7614550019
Al  Al13  1  0.29423000  0.08599000  0.84220000  1.0 1.7614550019
Al  Al14  1  0.58599000  0.20577000  0.84220000  1.0 1.7614550019
Al  Al15  1  0.41401000  0.79423000  0.84220000  1.0 1.7614550019
Al  Al16  1  0.79423000  0.58599000  0.15780000  1.0 1.7614550019
Al  Al17  1  0.18481000  0.19930000  0.33580000  1.0 1.7302962269
Al  Al18  1  0.69930000  0.31519000  0.33580000  1.0 1.7302962269
Al  Al19  1  0.30070000  0.68481000  0.33580000  1.0 1.7302962269
Al  Al20  1  0.68481000  0.69930000  0.66420000  1.0 1.7302962269
Al  Al21  1  0.31519000  0.30070000  0.66420000  1.0 1.7302962269
Al  Al22  1  0.80070000  0.18481000  0.66420000  1.0 1.7302962269
Al  Al23  1  0.19930000  0.81519000  0.66420000  1.0 1.7302962269
Al  Al24  1  0.81519000  0.80070000  0.33580000  1.0 1.7302962269
P  P1  1  0.30768000  0.31413000  0.33630000  1.0 1.4394397134
P  P2  1  0.81413000  0.19232000  0.33630000  1.0 1.4327097808
P  P3  1  0.18587000  0.80768000  0.33630000  1.0 1.4327097808
P  P4  1  0.80768000  0.81413000  0.66370000  1.0 1.4327097808
P  P5  1  0.19232000  0.18587000  0.66370000  1.0 1.4394397134
P  P6  1  0.68587000  0.30768000  0.66370000  1.0 1.4327097808
P  P7  1  0.31413000  0.69232000  0.66370000  1.0 1.4327097808
P  P8  1  0.69232000  0.68587000  0.33630000  1.0 1.4327097808
P  P9  1  0.08315000  0.30021000  0.16220000  1.0 1.4479748035
P  P10  1  0.80021000  0.41685000  0.16220000  1.0 1.4479748035
P  P11  1  0.19979000  0.58315000  0.16220000  1.0 1.4479748035
P  P12  1  0.58315000  0.80021000  0.83780000  1.0 1.4479748035
P  P13  1  0.41685000  0.19979000  0.83780000  1.0 1.4479748035
P  P14  1  0.69979000  0.08315000  0.83780000  1.0 1.4479748035
P  P15  1  0.30021000  0.91685000  0.83780000  1.0 1.4479748035
P  P16  1  0.91685000  0.69979000  0.16220000  1.0 1.4479748035
P  P17  1  0.18376000  0.08420000  0.09420000  1.0 1.4394397134
P  P18  1  0.58420000  0.31624000  0.09420000  1.0 1.4394397134
P  P19  1  0.41580000  0.68376000  0.09420000  1.0 1.4394397134
P  P20  1  0.68376000  0.58420000  0.90580000  1.0 1.4394397134
P  P21  1  0.31624000  0.41580000  0.90580000  1.0 1.4394397134
P  P22  1  0.91580000  0.18376000  0.90580000  1.0 1.4394397134
P  P23  1  0.08420000  0.81624000  0.90580000  1.0 1.4394397134
P  P24  1  0.81624000  0.91580000  0.09420000  1.0 1.4394397134
O  O1  1  0.37430000  0.30740000  0.24630000  1.0 -0.7694483822
O  O2  1  0.80740000  0.12570000  0.24630000  1.0 -0.7694483822
O  O3  1  0.19260000  0.87430000  0.24630000  1.0 -0.7694483822
O  O4  1  0.87430000  0.80740000  0.75370000  1.0 -0.7694483822
O  O5  1  0.12570000  0.19260000  0.75370000  1.0 -0.7694483822
O  O6  1  0.69260000  0.37430000  0.75370000  1.0 -0.7694483822
O  O7  1  0.30740000  0.62570000  0.75370000  1.0 -0.7694483822
O  O8  1  0.62570000  0.69260000  0.24630000  1.0 -0.7694483822
O  O9  1  0.33070000  0.32540000  0.48780000  1.0 -0.7694483822
O  O10  1  0.82540000  0.16930000  0.48780000  1.0 -0.7694483822
O  O11  1  0.17460000  0.83070000  0.48780000  1.0 -0.7694483822
O  O12  1  0.83070000  0.82540000  0.51220000  1.0 -0.7694483822
O  O13  1  0.16930000  0.17460000  0.51220000  1.0 -0.7694483822
O  O14  1  0.67460000  0.33070000  0.51220000  1.0 -0.7694483822
O  O15  1  0.32540000  0.66930000  0.51220000  1.0 -0.7694483822
O  O16  1  0.66930000  0.67460000  0.48780000  1.0 -0.7694483822
O  O17  1  0.26280000  0.37730000  0.29030000  1.0 -0.8292999143
O  O18  1  0.87730000  0.23720000  0.29030000  1.0 -0.8292999143
O  O19  1  0.12270000  0.76280000  0.29030000  1.0 -0.8292999143
O  O20  1  0.76280000  0.87730000  0.70970000  1.0 -0.8292999143
O  O21  1  0.23720000  0.12270000  0.70970000  1.0 -0.8292999143
O  O22  1  0.62270000  0.26280000  0.70970000  1.0 -0.8292999143
O  O23  1  0.37730000  0.73720000  0.70970000  1.0 -0.8292999143
O  O24  1  0.73720000  0.62270000  0.29030000  1.0 -0.8292999143
O  O25  1  0.26620000  0.24500000  0.32390000  1.0 -0.8292999143
O  O26  1  0.74500000  0.23380000  0.32390000  1.0 -0.8292999143
O  O27  1  0.25500000  0.76620000  0.32390000  1.0 -0.8292999143
O  O28  1  0.76620000  0.74500000  0.67610000  1.0 -0.8292999143
O  O29  1  0.23380000  0.25500000  0.67610000  1.0 -0.8292999143
O  O30  1  0.75500000  0.26620000  0.67610000  1.0 -0.8292999143
O  O31  1  0.24500000  0.73380000  0.67610000  1.0 -0.8292999143
O  O32  1  0.73380000  0.75500000  0.32390000  1.0 -0.8292999143
O  O33  1  0.09330000  0.26510000  0.01890000  1.0 -0.8188654408
O  O34  1  0.76510000  0.40670000  0.01890000  1.0 -0.8188654408
O  O35  1  0.23490000  0.59330000  0.01890000  1.0 -0.8188654408
O  O36  1  0.59330000  0.76510000  0.98110000  1.0 -0.8188654408
O  O37  1  0.40670000  0.23490000  0.98110000  1.0 -0.8188654408
O  O38  1  0.73490000  0.09330000  0.98110000  1.0 -0.8188654408
O  O39  1  0.26510000  0.90670000  0.98110000  1.0 -0.8188654408
O  O40  1  0.90670000  0.73490000  0.01890000  1.0 -0.8188654408
O  O41  1  0.11410000  0.25260000  0.27750000  1.0 -0.8188654408
O  O42  1  0.75260000  0.38590000  0.27750000  1.0 -0.8188654408
O  O43  1  0.24740000  0.61410000  0.27750000  1.0 -0.8188654408
O  O44  1  0.61410000  0.75260000  0.72250000  1.0 -0.8188654408
O  O45  1  0.38590000  0.24740000  0.72250000  1.0 -0.8188654408
O  O46  1  0.74740000  0.11410000  0.72250000  1.0 -0.8188654408
O  O47  1  0.25260000  0.88590000  0.72250000  1.0 -0.8188654408
O  O48  1  0.88590000  0.74740000  0.27750000  1.0 -0.8188654408
O  O49  1  0.12080000  0.37210000  0.15980000  1.0 -0.7634532948
O  O50  1  0.87210000  0.37920000  0.15980000  1.0 -0.7634532948
O  O51  1  0.12790000  0.62080000  0.15980000  1.0 -0.7634532948
O  O52  1  0.62080000  0.87210000  0.84020000  1.0 -0.7634532948
O  O53  1  0.37920000  0.12790000  0.84020000  1.0 -0.7634532948
O  O54  1  0.62790000  0.12080000  0.84020000  1.0 -0.7634532948
O  O55  1  0.37210000  0.87920000  0.84020000  1.0 -0.7634532948
O  O56  1  0.87920000  0.62790000  0.15980000  1.0 -0.7634532948
O  O57  1  0.00580000  0.31240000  0.19320000  1.0 -0.7694483822
O  O58  1  0.81240000  0.49420000  0.19320000  1.0 -0.7694483822
O  O59  1  0.18760000  0.50580000  0.19320000  1.0 -0.7694483822
O  O60  1  0.50580000  0.81240000  0.80680000  1.0 -0.7694483822
O  O61  1  0.49420000  0.18760000  0.80680000  1.0 -0.7694483822
O  O62  1  0.68760000  0.00580000  0.80680000  1.0 -0.7694483822
O  O63  1  0.31240000  0.99420000  0.80680000  1.0 -0.7694483822
O  O64  1  0.99420000  0.68760000  0.19320000  1.0 -0.7694483822
O  O65  1  0.25210000  0.09490000  0.01270000  1.0 -0.8292999143
O  O66  1  0.59490000  0.24790000  0.01270000  1.0 -0.8292999143
O  O67  1  0.40510000  0.75210000  0.01270000  1.0 -0.8292999143
O  O68  1  0.75210000  0.59490000  0.98730000  1.0 -0.8292999143
O  O69  1  0.24790000  0.40510000  0.98730000  1.0 -0.8292999143
O  O70  1  0.90510000  0.25210000  0.98730000  1.0 -0.8292999143
O  O71  1  0.09490000  0.74790000  0.98730000  1.0 -0.8292999143
O  O72  1  0.74790000  0.90510000  0.01270000  1.0 -0.8292999143
O  O73  1  0.12030000  0.11300000  0.01460000  1.0 -0.8188654408
O  O74  1  0.61300000  0.37970000  0.01460000  1.0 -0.8188654408
O  O75  1  0.38700000  0.62030000  0.01460000  1.0 -0.8188654408
O  O76  1  0.62030000  0.61300000  0.98540000  1.0 -0.8188654408
O  O77  1  0.37970000  0.38700000  0.98540000  1.0 -0.8188654408
O  O78  1  0.88700000  0.12030000  0.98540000  1.0 -0.8188654408
O  O79  1  0.11300000  0.87970000  0.98540000  1.0 -0.8188654408
O  O80  1  0.87970000  0.88700000  0.01460000  1.0 -0.8188654408
O  O81  1  0.19010000  0.12030000  0.23630000  1.0 -0.7634532948
O  O82  1  0.62030000  0.30990000  0.23630000  1.0 -0.7634532948
O  O83  1  0.37970000  0.69010000  0.23630000  1.0 -0.7634532948
O  O84  1  0.69010000  0.62030000  0.76370000  1.0 -0.7634532948
O  O85  1  0.30990000  0.37970000  0.76370000  1.0 -0.7634532948
O  O86  1  0.87970000  0.19010000  0.76370000  1.0 -0.7634532948
O  O87  1  0.12030000  0.80990000  0.76370000  1.0 -0.7634532948
O  O88  1  0.80990000  0.87970000  0.23630000  1.0 -0.7634532948
O  O89  1  0.17050000  0.00560000  0.12070000  1.0 -0.7794962053
O  O90  1  0.50560000  0.32950000  0.12070000  1.0 -0.7794962053
O  O91  1  0.49440000  0.67050000  0.12070000  1.0 -0.7794962053
O  O92  1  0.67050000  0.50560000  0.87930000  1.0 -0.7794962053
O  O93  1  0.32950000  0.49440000  0.87930000  1.0 -0.7794962053
O  O94  1  0.99440000  0.17050000  0.87930000  1.0 -0.7794962053
O  O95  1  0.00560000  0.82950000  0.87930000  1.0 -0.7794962053
O  O96  1  0.82950000  0.99440000  0.12070000  1.0 -0.7794962053
