# DDEC6 charges by PACMAN v1.1 (https://github.com/mtap-research/PACMAN-charge/)
data_LOGXEM_ASR_pacman
_symmetry_space_group_name_H-M   'P 1'
_cell_length_a   36.61520000
_cell_length_b   36.61520000
_cell_length_c   36.61520000
_cell_angle_alpha   121.93600000
_cell_angle_beta   121.93600000
_cell_angle_gamma   86.67850000
_symmetry_Int_Tables_number   1
_chemical_formula_structural   Cd16C52Se7S19
_chemical_formula_sum   'Cd128 C416 Se56 S152'
_cell_volume   33633.84460664
_cell_formula_units_Z   8
loop_
 _symmetry_equiv_pos_site_id
 _symmetry_equiv_pos_as_xyz
  1  'x, y, z'
loop_
 _atom_site_type_symbol
 _atom_site_label
 _atom_site_symmetry_multiplicity
 _atom_site_fract_x
 _atom_site_fract_y
 _atom_site_fract_z
 _atom_site_occupancy
 _atom_site_charge
Cd  Cd1  1  0.22767000  0.34825000  0.27682000  1.0 0.696345827
Cd  Cd2  1  0.07143000  0.95085000  0.72318000  1.0 0.694368582
Cd  Cd3  1  0.70085000  0.32143000  0.22318000  1.0 0.694368582
Cd  Cd4  1  0.09825000  0.47767000  0.77682000  1.0 0.694368582
Cd  Cd5  1  0.15028000  0.28409000  0.11637000  1.0 0.4911978429
Cd  Cd6  1  0.16772000  0.03391000  0.88363000  1.0 0.4911978429
Cd  Cd7  1  0.78391000  0.41772000  0.38363000  1.0 0.4911978429
Cd  Cd8  1  0.03409000  0.40028000  0.61637000  1.0 0.4911978429
Cd  Cd9  1  0.27553000  0.25874000  0.19565000  1.0 0.5913732519
Cd  Cd10  1  0.06309000  0.07988000  0.80435000  1.0 0.5913732519
Cd  Cd11  1  0.82988000  0.31309000  0.30435000  1.0 0.5913732519
Cd  Cd12  1  0.00874000  0.52553000  0.69565000  1.0 0.5913732519
Cd  Cd13  1  0.27673000  0.38902000  0.22375000  1.0 0.7771448901
Cd  Cd14  1  0.16527000  0.05298000  0.77625000  1.0 0.7578546514
Cd  Cd15  1  0.80298000  0.41527000  0.27625000  1.0 0.7578546514
Cd  Cd16  1  0.13902000  0.52673000  0.72375000  1.0 0.7578546514
Cd  Cd17  1  0.22393000  0.14184000  0.03805000  1.0 0.4911978429
Cd  Cd18  1  0.10379000  0.18588000  0.96195000  1.0 0.4911978429
Cd  Cd19  1  0.93588000  0.35379000  0.46195000  1.0 0.4911978429
Cd  Cd20  1  0.89184000  0.47393000  0.53805000  1.0 0.4911978429
Cd  Cd21  1  0.12749000  0.31527000  0.01122000  1.0 0.4811128264
Cd  Cd22  1  0.30405000  0.11627000  0.98878000  1.0 0.4811128264
Cd  Cd23  1  0.86627000  0.55405000  0.48878000  1.0 0.4811128264
Cd  Cd24  1  0.06527000  0.37749000  0.51122000  1.0 0.4811128264
Cd  Cd25  1  0.24129000  0.27265000  0.07574000  1.0 0.4629918894
Cd  Cd26  1  0.19691000  0.16555000  0.92426000  1.0 0.4629918894
Cd  Cd27  1  0.91555000  0.44691000  0.42426000  1.0 0.4629918894
Cd  Cd28  1  0.02265000  0.49129000  0.57574000  1.0 0.4690298299
Cd  Cd29  1  0.26718000  0.40846000  0.12050000  1.0 0.5206093931
Cd  Cd30  1  0.28796000  0.14668000  0.87950000  1.0 0.5206093931
Cd  Cd31  1  0.89668000  0.53796000  0.37950000  1.0 0.5278188597
Cd  Cd32  1  0.15846000  0.51718000  0.62050000  1.0 0.5206093931
Cd  Cd33  1  0.35042000  0.22171000  0.13881000  1.0 0.5674190333
Cd  Cd34  1  0.08290000  0.21161000  0.86119000  1.0 0.5615287533
Cd  Cd35  1  0.96161000  0.33290000  0.36119000  1.0 0.5615287533
Cd  Cd36  1  0.97171000  0.60042000  0.63881000  1.0 0.5615287533
Cd  Cd37  1  0.37104000  0.36791000  0.18871000  1.0 0.738261204
Cd  Cd38  1  0.17920000  0.18233000  0.81129000  1.0 0.738261204
Cd  Cd39  1  0.93233000  0.42920000  0.31129000  1.0 0.7316631367
Cd  Cd40  1  0.11791000  0.62104000  0.68871000  1.0 0.7316631367
Cd  Cd41  1  0.43258000  0.20009000  0.08975000  1.0 0.5206093931
Cd  Cd42  1  0.11034000  0.34283000  0.91025000  1.0 0.5100568121
Cd  Cd43  1  0.09283000  0.36034000  0.41025000  1.0 0.5206093931
Cd  Cd44  1  0.95009000  0.68258000  0.58975000  1.0 0.5100568121
Cd  Cd45  1  0.32749000  0.25287000  0.03392000  1.0 0.4629918894
Cd  Cd46  1  0.21895000  0.29357000  0.96608000  1.0 0.4629918894
Cd  Cd47  1  0.04357000  0.46895000  0.46608000  1.0 0.4690298299
Cd  Cd48  1  0.00287000  0.57749000  0.53392000  1.0 0.4690298299
Cd  Cd49  1  0.41813000  0.24214000  0.99487000  1.0 0.5010857096
Cd  Cd50  1  0.24727000  0.42326000  0.00513000  1.0 0.5010857096
Cd  Cd51  1  0.17326000  0.49727000  0.50513000  1.0 0.5010857096
Cd  Cd52  1  0.99214000  0.66813000  0.49487000  1.0 0.5010857096
Cd  Cd53  1  0.30444000  0.27130000  0.91658000  1.0 0.5100568121
Cd  Cd54  1  0.35472000  0.38786000  0.08342000  1.0 0.5100568121
Cd  Cd55  1  0.13786000  0.60472000  0.58342000  1.0 0.5100568121
Cd  Cd56  1  0.02130000  0.55444000  0.41658000  1.0 0.5100568121
Cd  Cd57  1  0.46130000  0.34507000  0.15345000  1.0 0.5812318852
Cd  Cd58  1  0.19162000  0.30785000  0.84655000  1.0 0.5913732519
Cd  Cd59  1  0.05785000  0.44162000  0.34655000  1.0 0.5812318852
Cd  Cd60  1  0.09507000  0.71130000  0.65345000  1.0 0.5913732519
Cd  Cd61  1  0.54272000  0.27205000  0.12343000  1.0 0.6140324285
Cd  Cd62  1  0.14862000  0.41929000  0.87657000  1.0 0.6140324285
Cd  Cd63  1  0.16929000  0.39862000  0.37657000  1.0 0.6140324285
Cd  Cd64  1  0.02205000  0.79272000  0.62343000  1.0 0.6140324285
Cd  Cd65  1  0.65175000  0.92857000  0.87942000  1.0 0.694368582
Cd  Cd66  1  0.04915000  0.77233000  0.12058000  1.0 0.694368582
Cd  Cd67  1  0.52233000  0.29915000  0.62058000  1.0 0.696345827
Cd  Cd68  1  0.67857000  0.90175000  0.37942000  1.0 0.696345827
Cd  Cd69  1  0.71591000  0.83228000  0.86619000  1.0 0.4911978429
Cd  Cd70  1  0.96609000  0.84972000  0.13381000  1.0 0.4911978429
Cd  Cd71  1  0.59972000  0.21609000  0.63381000  1.0 0.4911978429
Cd  Cd72  1  0.58228000  0.96591000  0.36619000  1.0 0.4911978429
Cd  Cd73  1  0.74126000  0.93691000  0.01679000  1.0 0.5913732519
Cd  Cd74  1  0.92012000  0.72447000  0.98321000  1.0 0.603125911
Cd  Cd75  1  0.47447000  0.17012000  0.48321000  1.0 0.5913732519
Cd  Cd76  1  0.68691000  0.99126000  0.51679000  1.0 0.5913732519
Cd  Cd77  1  0.61098000  0.83473000  0.88771000  1.0 0.7578546514
Cd  Cd78  1  0.94702000  0.72327000  0.11229000  1.0 0.7578546514
Cd  Cd79  1  0.47327000  0.19702000  0.61229000  1.0 0.7578546514
Cd  Cd80  1  0.58473000  0.86098000  0.38771000  1.0 0.7703346422
Cd  Cd81  1  0.85816000  0.89621000  0.08209000  1.0 0.4911978429
Cd  Cd82  1  0.81412000  0.77607000  0.91791000  1.0 0.4911978429
Cd  Cd83  1  0.52607000  0.06412000  0.41791000  1.0 0.4911978429
Cd  Cd84  1  0.64621000  0.10816000  0.58209000  1.0 0.4911978429
Cd  Cd85  1  0.68473000  0.69595000  0.81222000  1.0 0.4811128264
Cd  Cd86  1  0.88373000  0.87251000  0.18778000  1.0 0.4811128264
Cd  Cd87  1  0.62251000  0.13373000  0.68778000  1.0 0.4811128264
Cd  Cd88  1  0.44595000  0.93473000  0.31222000  1.0 0.4811128264
Cd  Cd89  1  0.72735000  0.80309000  0.96864000  1.0 0.4629918894
Cd  Cd90  1  0.83445000  0.75871000  0.03136000  1.0 0.4629918894
Cd  Cd91  1  0.50871000  0.08445000  0.53136000  1.0 0.4690298299
Cd  Cd92  1  0.55309000  0.97735000  0.46864000  1.0 0.4629918894
Cd  Cd93  1  0.59154000  0.71204000  0.85872000  1.0 0.5206093931
Cd  Cd94  1  0.85332000  0.73282000  0.14128000  1.0 0.5206093931
Cd  Cd95  1  0.48282000  0.10332000  0.64128000  1.0 0.5278188597
Cd  Cd96  1  0.46204000  0.84154000  0.35872000  1.0 0.5278188597
Cd  Cd97  1  0.77829000  0.91710000  0.12871000  1.0 0.5615287533
Cd  Cd98  1  0.78839000  0.64958000  0.87129000  1.0 0.5615287533
Cd  Cd99  1  0.39958000  0.03839000  0.37129000  1.0 0.5615287533
Cd  Cd100  1  0.66710000  0.02829000  0.62871000  1.0 0.5674190333
Cd  Cd101  1  0.63209000  0.82080000  0.00313000  1.0 0.7316631367
Cd  Cd102  1  0.81767000  0.62896000  0.99687000  1.0 0.738261204
Cd  Cd103  1  0.37896000  0.06767000  0.49687000  1.0 0.7316631367
Cd  Cd104  1  0.57080000  0.88209000  0.50313000  1.0 0.7316631367
Cd  Cd105  1  0.79991000  0.88966000  0.23249000  1.0 0.5206093931
Cd  Cd106  1  0.65717000  0.56742000  0.76751000  1.0 0.5100568121
Cd  Cd107  1  0.31742000  0.90717000  0.26751000  1.0 0.5100568121
Cd  Cd108  1  0.63966000  0.04991000  0.73249000  1.0 0.5206093931
Cd  Cd109  1  0.74713000  0.78105000  0.07462000  1.0 0.4629918894
Cd  Cd110  1  0.70643000  0.67251000  0.92538000  1.0 0.4690298299
Cd  Cd111  1  0.42251000  0.95643000  0.42538000  1.0 0.4690298299
Cd  Cd112  1  0.53105000  0.99713000  0.57462000  1.0 0.4629918894
Cd  Cd113  1  0.75786000  0.75273000  0.17599000  1.0 0.5010857096
Cd  Cd114  1  0.57674000  0.58187000  0.82401000  1.0 0.5010857096
Cd  Cd115  1  0.33187000  0.82674000  0.32401000  1.0 0.5010857096
Cd  Cd116  1  0.50273000  0.00786000  0.67599000  1.0 0.5010857096
Cd  Cd117  1  0.72870000  0.64528000  0.03314000  1.0 0.5100568121
Cd  Cd118  1  0.61214000  0.69556000  0.96686000  1.0 0.5100568121
Cd  Cd119  1  0.44556000  0.86214000  0.46686000  1.0 0.5100568121
Cd  Cd120  1  0.39528000  0.97870000  0.53314000  1.0 0.5100568121
Cd  Cd121  1  0.65493000  0.80838000  0.11623000  1.0 0.5812318852
Cd  Cd122  1  0.69215000  0.53870000  0.88377000  1.0 0.5812318852
Cd  Cd123  1  0.28870000  0.94215000  0.38377000  1.0 0.5913732519
Cd  Cd124  1  0.55838000  0.90493000  0.61623000  1.0 0.5812318852
Cd  Cd125  1  0.72795000  0.85138000  0.27067000  1.0 0.616046082
Cd  Cd126  1  0.58071000  0.45728000  0.72933000  1.0 0.616046082
Cd  Cd127  1  0.20728000  0.83071000  0.22933000  1.0 0.6140324285
Cd  Cd128  1  0.60138000  0.97795000  0.77067000  1.0 0.6140324285
C  C1  1  0.13660000  0.26300000  0.19380000  1.0 0.1102042849
C  C2  1  0.06920000  0.94280000  0.80620000  1.0 0.1102042849
C  C3  1  0.69280000  0.31920000  0.30620000  1.0 0.1102042849
C  C4  1  0.01300000  0.38660000  0.69380000  1.0 0.1102042849
C  C5  1  0.12410000  0.27370000  0.22860000  1.0 -0.0294821609
C  C6  1  0.04510000  0.89550000  0.77140000  1.0 -0.0294821609
C  C7  1  0.64550000  0.29510000  0.27140000  1.0 -0.0294821609
C  C8  1  0.02370000  0.37410000  0.72860000  1.0 -0.0294821609
C  C9  1  0.11650000  0.23580000  0.23030000  1.0 0.1010739836
C  C10  1  0.00550000  0.88620000  0.76970000  1.0 0.1010739836
C  C11  1  0.63620000  0.25550000  0.26970000  1.0 0.1010739836
C  C12  1  0.98580000  0.36650000  0.73030000  1.0 0.1010739836
C  C13  1  0.12110000  0.18740000  0.19650000  1.0 0.0506129773
C  C14  1  0.99090000  0.92460000  0.80350000  1.0 0.0506129773
C  C15  1  0.67460000  0.24090000  0.30350000  1.0 0.0506129773
C  C16  1  0.93740000  0.37110000  0.69650000  1.0 0.0506129773
C  C17  1  0.13410000  0.18630000  0.16620000  1.0 0.0806261575
C  C18  1  0.02010000  0.96790000  0.83380000  1.0 0.0806261575
C  C19  1  0.71790000  0.27010000  0.33380000  1.0 0.0806261575
C  C20  1  0.93630000  0.38410000  0.66620000  1.0 0.0806261575
C  C21  1  0.14740000  0.22590000  0.16790000  1.0 -0.0829534346
C  C22  1  0.05800000  0.97950000  0.83210000  1.0 -0.0880850123
C  C23  1  0.72950000  0.30800000  0.33210000  1.0 -0.0880850123
C  C24  1  0.97590000  0.39740000  0.66790000  1.0 -0.0880850123
C  C25  1  0.33240000  0.33190000  0.34950000  1.0 0.1407203842
C  C26  1  0.98240000  0.98290000  0.65050000  1.0 0.1407203842
C  C27  1  0.73290000  0.23240000  0.15050000  1.0 0.1407203842
C  C28  1  0.08190000  0.58240000  0.84950000  1.0 0.1407203842
C  C29  1  0.17870000  0.02360000  0.97470000  1.0 0.1317085166
C  C30  1  0.04890000  0.20400000  0.02530000  1.0 0.1317085166
C  C31  1  0.95400000  0.29890000  0.52530000  1.0 0.1317085166
C  C32  1  0.77360000  0.42870000  0.47470000  1.0 0.1317085166
C  C33  1  0.14610000  0.99690000  0.96680000  1.0 -0.0102291719
C  C34  1  0.03010000  0.17930000  0.03320000  1.0 -0.0102291719
C  C35  1  0.92930000  0.28010000  0.53320000  1.0 -0.0102291719
C  C36  1  0.74690000  0.39610000  0.46680000  1.0 -0.0043883456
C  C37  1  0.15590000  0.96400000  0.97570000  1.0 0.0702574077
C  C38  1  0.98830000  0.18020000  0.02430000  1.0 0.0702574077
C  C39  1  0.93020000  0.23830000  0.52430000  1.0 0.0702574077
C  C40  1  0.71400000  0.40590000  0.47570000  1.0 0.0702574077
C  C41  1  0.19820000  0.95780000  0.99260000  1.0 0.0180585698
C  C42  1  0.96520000  0.20560000  0.00740000  1.0 0.0180585698
C  C43  1  0.95560000  0.21520000  0.50740000  1.0 0.0180585698
C  C44  1  0.70780000  0.44820000  0.49260000  1.0 0.0180585698
C  C45  1  0.23080000  0.98440000  0.00040000  1.0 0.0594594388
C  C46  1  0.98400000  0.23040000  0.99960000  1.0 0.0594594388
C  C47  1  0.98040000  0.23400000  0.49960000  1.0 0.0594594388
C  C48  1  0.73440000  0.48080000  0.50040000  1.0 0.0594594388
C  C49  1  0.22100000  0.01730000  0.99150000  1.0 -0.0880850123
C  C50  1  0.02580000  0.22950000  0.00850000  1.0 -0.0880850123
C  C51  1  0.97950000  0.27580000  0.50850000  1.0 -0.0880850123
C  C52  1  0.76730000  0.47100000  0.49150000  1.0 -0.0880850123
C  C53  1  0.08250000  0.34860000  0.08830000  1.0 0.1102042849
C  C54  1  0.26030000  0.99420000  0.91170000  1.0 0.1102042849
C  C55  1  0.74420000  0.51030000  0.41170000  1.0 0.1102042849
C  C56  1  0.09860000  0.33250000  0.58830000  1.0 0.1102042849
C  C57  1  0.04760000  0.34310000  0.03650000  1.0 0.0806261575
C  C58  1  0.30660000  0.01110000  0.96350000  1.0 0.0702574077
C  C59  1  0.76110000  0.55660000  0.46350000  1.0 0.0806261575
C  C60  1  0.09310000  0.29760000  0.53650000  1.0 0.0702574077
C  C61  1  0.00050000  0.35340000  0.03110000  1.0 0.0702574077
C  C62  1  0.32230000  0.96940000  0.96890000  1.0 0.0702574077
C  C63  1  0.71940000  0.57230000  0.46890000  1.0 0.0702574077
C  C64  1  0.10340000  0.25050000  0.53110000  1.0 0.0702574077
C  C65  1  0.99710000  0.36530000  0.07180000  1.0 0.0180585698
C  C66  1  0.29350000  0.92530000  0.92820000  1.0 0.0180585698
C  C67  1  0.67530000  0.54350000  0.42820000  1.0 0.0180585698
C  C68  1  0.11530000  0.24710000  0.57180000  1.0 0.0180585698
C  C69  1  0.05000000  0.37480000  0.12740000  1.0 0.0127337911
C  C70  1  0.24740000  0.92260000  0.87260000  1.0 0.0127337911
C  C71  1  0.67260000  0.49740000  0.37260000  1.0 0.0127337911
C  C72  1  0.12480000  0.30000000  0.62740000  1.0 0.0127337911
C  C73  1  0.08110000  0.36150000  0.12880000  1.0 -0.0620027643
C  C74  1  0.23270000  0.95230000  0.87120000  1.0 -0.0620027643
C  C75  1  0.70230000  0.48270000  0.37120000  1.0 -0.0620027643
C  C76  1  0.11150000  0.33110000  0.62880000  1.0 -0.0620027643
C  C77  1  0.23330000  0.14740000  0.13970000  1.0 0.1204953772
C  C78  1  0.00770000  0.09360000  0.86030000  1.0 0.1204953772
C  C79  1  0.84360000  0.25770000  0.36030000  1.0 0.1204953772
C  C80  1  0.89740000  0.48330000  0.63970000  1.0 0.1204953772
C  C81  1  0.24190000  0.10700000  0.11530000  1.0 -0.046546496
C  C82  1  0.99170000  0.12660000  0.88470000  1.0 -0.046546496
C  C83  1  0.87660000  0.24170000  0.38470000  1.0 -0.046546496
C  C84  1  0.85700000  0.49190000  0.61530000  1.0 -0.0385925192
C  C85  1  0.24590000  0.07870000  0.13080000  1.0 0.0594594388
C  C86  1  0.94790000  0.11510000  0.86920000  1.0 0.0594594388
C  C87  1  0.86510000  0.19790000  0.36920000  1.0 0.0594594388
C  C88  1  0.82870000  0.49590000  0.63080000  1.0 0.0506129773
C  C89  1  0.24130000  0.09080000  0.17070000  1.0 -0.0179293609
C  C90  1  0.92010000  0.07060000  0.82930000  1.0 -0.0102291719
C  C91  1  0.82060000  0.17010000  0.32930000  1.0 -0.0102291719
C  C92  1  0.84080000  0.49130000  0.67070000  1.0 -0.0102291719
C  C93  1  0.23270000  0.13130000  0.19520000  1.0 0.1010739836
C  C94  1  0.93610000  0.03750000  0.80480000  1.0 0.1010739836
C  C95  1  0.78750000  0.18610000  0.30480000  1.0 0.1010739836
C  C96  1  0.88130000  0.48270000  0.69520000  1.0 0.1010739836
C  C97  1  0.22860000  0.15940000  0.17960000  1.0 -0.0179293609
C  C98  1  0.97980000  0.04900000  0.82040000  1.0 -0.0102291719
C  C99  1  0.79900000  0.22980000  0.32040000  1.0 -0.0179293609
C  C100  1  0.90940000  0.47860000  0.67960000  1.0 -0.0179293609
C  C101  1  0.31200000  0.49060000  0.25720000  1.0 0.0331216823
C  C102  1  0.23340000  0.05480000  0.74280000  1.0 0.0331216823
C  C103  1  0.80480000  0.48340000  0.24280000  1.0 0.0331216823
C  C104  1  0.24060000  0.56200000  0.75720000  1.0 0.0331216823
C  C105  1  0.40790000  0.08370000  0.02800000  1.0 0.0806261575
C  C106  1  0.05570000  0.37990000  0.97200000  1.0 0.0806261575
C  C107  1  0.12990000  0.30570000  0.47200000  1.0 0.0806261575
C  C108  1  0.83370000  0.65790000  0.52800000  1.0 0.0806261575
C  C109  1  0.41230000  0.08510000  0.06620000  1.0 -0.1907257874
C  C110  1  0.01890000  0.34610000  0.93380000  1.0 -0.1907257874
C  C111  1  0.09610000  0.26890000  0.43380000  1.0 -0.1907257874
C  C112  1  0.83510000  0.66230000  0.56620000  1.0 -0.1907257874
C  C113  1  0.39690000  0.12940000  0.88330000  1.0 0.0806261575
C  C114  1  0.24610000  0.51360000  0.11670000  1.0 0.0806261575
C  C115  1  0.26360000  0.49610000  0.61670000  1.0 0.0806261575
C  C116  1  0.87940000  0.64690000  0.38330000  1.0 0.0806261575
C  C117  1  0.45940000  0.20230000  0.19630000  1.0 0.1204953772
C  C118  1  0.00600000  0.26310000  0.80370000  1.0 0.1204953772
C  C119  1  0.01310000  0.25600000  0.30370000  1.0 0.1204953772
C  C120  1  0.95230000  0.70940000  0.69630000  1.0 0.1204953772
C  C121  1  0.50360000  0.20570000  0.21290000  1.0 -0.0385925192
C  C122  1  0.99280000  0.29070000  0.78710000  1.0 -0.0385925192
C  C123  1  0.04070000  0.24280000  0.28710000  1.0 -0.0385925192
C  C124  1  0.95570000  0.75360000  0.71290000  1.0 -0.0385925192
C  C125  1  0.52470000  0.17810000  0.23180000  1.0 0.1010739836
C  C126  1  0.94630000  0.29290000  0.76820000  1.0 0.1010739836
C  C127  1  0.04290000  0.19630000  0.26820000  1.0 0.1010739836
C  C128  1  0.92810000  0.77470000  0.73180000  1.0 0.1010739836
C  C129  1  0.49540000  0.15600000  0.23560000  1.0 -0.0179293609
C  C130  1  0.92040000  0.25980000  0.76440000  1.0 -0.0179293609
C  C131  1  0.00980000  0.17040000  0.26440000  1.0 -0.0179293609
C  C132  1  0.90600000  0.74540000  0.73560000  1.0 -0.0294821609
C  C133  1  0.44990000  0.14770000  0.21580000  1.0 0.0888392128
C  C134  1  0.93190000  0.23410000  0.78420000  1.0 0.0888392128
C  C135  1  0.98410000  0.18190000  0.28420000  1.0 0.0888392128
C  C136  1  0.89770000  0.69990000  0.71580000  1.0 0.1010739836
C  C137  1  0.43500000  0.17910000  0.20330000  1.0 -0.0294821609
C  C138  1  0.97580000  0.23170000  0.79670000  1.0 -0.0294821609
C  C139  1  0.98170000  0.22580000  0.29670000  1.0 -0.0294821609
C  C140  1  0.92910000  0.68500000  0.70330000  1.0 -0.0294821609
C  C141  1  0.51800000  0.15840000  0.07880000  1.0 0.1317085166
C  C142  1  0.07960000  0.43920000  0.92120000  1.0 0.1317085166
C  C143  1  0.18920000  0.32960000  0.42120000  1.0 0.1317085166
C  C144  1  0.90840000  0.76800000  0.57880000  1.0 0.1317085166
C  C145  1  0.48890000  0.13770000  0.02260000  1.0 -0.0043883456
C  C146  1  0.11510000  0.46630000  0.97740000  1.0 -0.0102291719
C  C147  1  0.21630000  0.36510000  0.47740000  1.0 -0.0102291719
C  C148  1  0.88770000  0.73890000  0.52260000  1.0 -0.0102291719
C  C149  1  0.49070000  0.09720000  0.98590000  1.0 0.0331216823
C  C150  1  0.11130000  0.50480000  0.01410000  1.0 0.0331216823
C  C151  1  0.25480000  0.36130000  0.51410000  1.0 0.0331216823
C  C152  1  0.84720000  0.74070000  0.48590000  1.0 0.0331216823
C  C153  1  0.52080000  0.08020000  0.01000000  1.0 0.0415769509
C  C154  1  0.07020000  0.51080000  0.99000000  1.0 0.0415769509
C  C155  1  0.26080000  0.32020000  0.49000000  1.0 0.0415769509
C  C156  1  0.83020000  0.77080000  0.51000000  1.0 0.0506129773
C  C157  1  0.53890000  0.09420000  0.06130000  1.0 -0.0294821609
C  C158  1  0.03290000  0.47760000  0.93870000  1.0 -0.0385925192
C  C159  1  0.22760000  0.28290000  0.43870000  1.0 -0.0294821609
C  C160  1  0.84420000  0.78890000  0.56130000  1.0 -0.0385925192
C  C161  1  0.54650000  0.13420000  0.10130000  1.0 0.0127337911
C  C162  1  0.03290000  0.44520000  0.89870000  1.0 0.0127337911
C  C163  1  0.19520000  0.28290000  0.39870000  1.0 0.0127337911
C  C164  1  0.88420000  0.79650000  0.60130000  1.0 0.0180585698
C  C165  1  0.40680000  0.26870000  0.91370000  1.0 0.1732938449
C  C166  1  0.35500000  0.49310000  0.08630000  1.0 0.1732938449
C  C167  1  0.24310000  0.60500000  0.58630000  1.0 0.1732938449
C  C168  1  0.01870000  0.65680000  0.41370000  1.0 0.1732938449
C  C169  1  0.38440000  0.22610000  0.87150000  1.0 -0.1525467674
C  C170  1  0.35460000  0.51290000  0.12850000  1.0 -0.1525467674
C  C171  1  0.26290000  0.60460000  0.62850000  1.0 -0.1525467674
C  C172  1  0.97610000  0.63440000  0.37150000  1.0 -0.1525467674
C  C173  1  0.52180000  0.29960000  0.03540000  1.0 0.1204953772
C  C174  1  0.26420000  0.48640000  0.96460000  1.0 0.1204953772
C  C175  1  0.23640000  0.51420000  0.46460000  1.0 0.1204953772
C  C176  1  0.04960000  0.77180000  0.53540000  1.0 0.1204953772
C  C177  1  0.47760000  0.44400000  0.16200000  1.0 0.2481220862
C  C178  1  0.28200000  0.31560000  0.83800000  1.0 0.2443827004
C  C179  1  0.06560000  0.53200000  0.33800000  1.0 0.2481220862
C  C180  1  0.19400000  0.72760000  0.66200000  1.0 0.2481220862
C  C181  1  0.45270000  0.48200000  0.17370000  1.0 -0.2176756749
C  C182  1  0.30830000  0.27900000  0.82630000  1.0 -0.1907257874
C  C183  1  0.02900000  0.55830000  0.32630000  1.0 -0.205714787
C  C184  1  0.23200000  0.70270000  0.67370000  1.0 -0.205714787
C  C185  1  0.56480000  0.35250000  0.24930000  1.0 0.1204953772
C  C186  1  0.10320000  0.31550000  0.75070000  1.0 0.1204953772
C  C187  1  0.06550000  0.35320000  0.25070000  1.0 0.1204953772
C  C188  1  0.10250000  0.81480000  0.74930000  1.0 0.1204953772
C  C189  1  0.54320000  0.31950000  0.24550000  1.0 -0.0102291719
C  C190  1  0.07400000  0.29770000  0.75450000  1.0 -0.0102291719
C  C191  1  0.04770000  0.32400000  0.25450000  1.0 -0.0102291719
C  C192  1  0.06950000  0.79320000  0.74550000  1.0 -0.0102291719
C  C193  1  0.56050000  0.32030000  0.29020000  1.0 0.0702574077
C  C194  1  0.03010000  0.27030000  0.70980000  1.0 0.0594594388
C  C195  1  0.02030000  0.28010000  0.20980000  1.0 0.0594594388
C  C196  1  0.07030000  0.81050000  0.79020000  1.0 0.0594594388
C  C197  1  0.59960000  0.35440000  0.33880000  1.0 0.0415769509
C  C198  1  0.01560000  0.26080000  0.66120000  1.0 0.0331216823
C  C199  1  0.01080000  0.26560000  0.16120000  1.0 0.0415769509
C  C200  1  0.10440000  0.84960000  0.83880000  1.0 0.0331216823
C  C201  1  0.62130000  0.38760000  0.34270000  1.0 0.0127337911
C  C202  1  0.04490000  0.27860000  0.65730000  1.0 0.0127337911
C  C203  1  0.02860000  0.29490000  0.15730000  1.0 0.0127337911
C  C204  1  0.13760000  0.87130000  0.84270000  1.0 0.0127337911
C  C205  1  0.60390000  0.38660000  0.29790000  1.0 0.0180585698
C  C206  1  0.08870000  0.30600000  0.70210000  1.0 0.0180585698
C  C207  1  0.05600000  0.33870000  0.20210000  1.0 0.0180585698
C  C208  1  0.13660000  0.85390000  0.79790000  1.0 0.0180585698
C  C209  1  0.73700000  0.93080000  0.87360000  1.0 0.1102042849
C  C210  1  0.05720000  0.86340000  0.12640000  1.0 0.1102042849
C  C211  1  0.61340000  0.30720000  0.62640000  1.0 0.1102042849
C  C212  1  0.68080000  0.98700000  0.37360000  1.0 0.1102042849
C  C213  1  0.72630000  0.95490000  0.85040000  1.0 -0.0294821609
C  C214  1  0.10450000  0.87590000  0.14960000  1.0 -0.0294821609
C  C215  1  0.62590000  0.35450000  0.64960000  1.0 -0.0294821609
C  C216  1  0.70490000  0.97630000  0.35040000  1.0 -0.0294821609
C  C217  1  0.76420000  0.99450000  0.88070000  1.0 0.1010739836
C  C218  1  0.11380000  0.88350000  0.11930000  1.0 0.1010739836
C  C219  1  0.63350000  0.36380000  0.61930000  1.0 0.1010739836
C  C220  1  0.74450000  0.01420000  0.38070000  1.0 0.1010739836
C  C221  1  0.81260000  0.00910000  0.93370000  1.0 0.0506129773
C  C222  1  0.07540000  0.87890000  0.06630000  1.0 0.0506129773
C  C223  1  0.62890000  0.32540000  0.56630000  1.0 0.0506129773
C  C224  1  0.75910000  0.06260000  0.43370000  1.0 0.0506129773
C  C225  1  0.81370000  0.97990000  0.94780000  1.0 0.0806261575
C  C226  1  0.03210000  0.86590000  0.05220000  1.0 0.0806261575
C  C227  1  0.61590000  0.28210000  0.55220000  1.0 0.0806261575
C  C228  1  0.72990000  0.06370000  0.44780000  1.0 0.0806261575
C  C229  1  0.77410000  0.94200000  0.92150000  1.0 -0.0880850123
C  C230  1  0.02050000  0.85260000  0.07850000  1.0 -0.0829534346
C  C231  1  0.60260000  0.27050000  0.57850000  1.0 -0.0880850123
C  C232  1  0.69200000  0.02410000  0.42150000  1.0 -0.0829534346
C  C233  1  0.66810000  0.01760000  0.00050000  1.0 0.1407203842
C  C234  1  0.01710000  0.66760000  0.99950000  1.0 0.1407203842
C  C235  1  0.41760000  0.26710000  0.49950000  1.0 0.1407203842
C  C236  1  0.76760000  0.91810000  0.50050000  1.0 0.1407203842
C  C237  1  0.97640000  0.95110000  0.15510000  1.0 0.1317085166
C  C238  1  0.79600000  0.82130000  0.84490000  1.0 0.1317085166
C  C239  1  0.57130000  0.04600000  0.34490000  1.0 0.1317085166
C  C240  1  0.70110000  0.22640000  0.65510000  1.0 0.1317085166
C  C241  1  0.00310000  0.96990000  0.14920000  1.0 -0.0043883456
C  C242  1  0.82070000  0.85390000  0.85080000  1.0 -0.0102291719
C  C243  1  0.60390000  0.07070000  0.35080000  1.0 -0.0043883456
C  C244  1  0.71990000  0.25310000  0.64920000  1.0 -0.0102291719
C  C245  1  0.03600000  0.01170000  0.19190000  1.0 0.0702574077
C  C246  1  0.81980000  0.84410000  0.80810000  1.0 0.0702574077
C  C247  1  0.59410000  0.06980000  0.30810000  1.0 0.0702574077
C  C248  1  0.76170000  0.28600000  0.69190000  1.0 0.0702574077
C  C249  1  0.04220000  0.03480000  0.24040000  1.0 0.0180585698
C  C250  1  0.79440000  0.80180000  0.75960000  1.0 0.0180585698
C  C251  1  0.55180000  0.04440000  0.25960000  1.0 0.0180585698
C  C252  1  0.78480000  0.29220000  0.74040000  1.0 0.0180585698
C  C253  1  0.01560000  0.01600000  0.24640000  1.0 0.0594594388
C  C254  1  0.76960000  0.76920000  0.75360000  1.0 0.0506129773
C  C255  1  0.51920000  0.01960000  0.25360000  1.0 0.0594594388
C  C256  1  0.76600000  0.26560000  0.74640000  1.0 0.0594594388
C  C257  1  0.98270000  0.97420000  0.20370000  1.0 -0.0880850123
C  C258  1  0.77050000  0.77900000  0.79630000  1.0 -0.0880850123
C  C259  1  0.52900000  0.02050000  0.29630000  1.0 -0.0880850123
C  C260  1  0.72420000  0.23270000  0.70370000  1.0 -0.0880850123
C  C261  1  0.65140000  0.73970000  0.73390000  1.0 0.1010739836
C  C262  1  0.00580000  0.91750000  0.26610000  1.0 0.1102042849
C  C263  1  0.66750000  0.25580000  0.76610000  1.0 0.1102042849
C  C264  1  0.48970000  0.90140000  0.23390000  1.0 0.1102042849
C  C265  1  0.65690000  0.69340000  0.70450000  1.0 0.0702574077
C  C266  1  0.98890000  0.95240000  0.29550000  1.0 0.0702574077
C  C267  1  0.70240000  0.23890000  0.79550000  1.0 0.0702574077
C  C268  1  0.44340000  0.90690000  0.20450000  1.0 0.0702574077
C  C269  1  0.64660000  0.67770000  0.64710000  1.0 0.0702574077
C  C270  1  0.03060000  0.99950000  0.35290000  1.0 0.0702574077
C  C271  1  0.74950000  0.28060000  0.85290000  1.0 0.0702574077
C  C272  1  0.42770000  0.89660000  0.14710000  1.0 0.0702574077
C  C273  1  0.63470000  0.70650000  0.63180000  1.0 0.0180585698
C  C274  1  0.07470000  0.00290000  0.36820000  1.0 0.0180585698
C  C275  1  0.75290000  0.32470000  0.86820000  1.0 0.0180585698
C  C276  1  0.45650000  0.88470000  0.13180000  1.0 0.0127337911
C  C277  1  0.62520000  0.75260000  0.67520000  1.0 0.0127337911
C  C278  1  0.07740000  0.95000000  0.32480000  1.0 0.0127337911
C  C279  1  0.70000000  0.32740000  0.82480000  1.0 0.0127337911
C  C280  1  0.50260000  0.87520000  0.17520000  1.0 0.0127337911
C  C281  1  0.63850000  0.76730000  0.71960000  1.0 -0.0620027643
C  C282  1  0.04770000  0.91890000  0.28040000  1.0 -0.0620027643
C  C283  1  0.66890000  0.29770000  0.78040000  1.0 -0.0620027643
C  C284  1  0.51730000  0.88850000  0.21960000  1.0 -0.0620027643
C  C285  1  0.85260000  0.99230000  0.08590000  1.0 0.1204953772
C  C286  1  0.90640000  0.76670000  0.91410000  1.0 0.1204953772
C  C287  1  0.51670000  0.15640000  0.41410000  1.0 0.1204953772
C  C288  1  0.74230000  0.10260000  0.58590000  1.0 0.1204953772
C  C289  1  0.89300000  0.00830000  0.13490000  1.0 -0.046546496
C  C290  1  0.87340000  0.75810000  0.86510000  1.0 -0.0385925192
C  C291  1  0.50810000  0.12340000  0.36510000  1.0 -0.046546496
C  C292  1  0.75830000  0.14300000  0.63490000  1.0 -0.046546496
C  C293  1  0.92130000  0.05210000  0.16720000  1.0 0.0594594388
C  C294  1  0.88490000  0.75410000  0.83280000  1.0 0.0506129773
C  C295  1  0.50410000  0.13490000  0.33280000  1.0 0.0594594388
C  C296  1  0.80210000  0.17130000  0.66720000  1.0 0.0594594388
C  C297  1  0.90920000  0.07990000  0.15050000  1.0 -0.0179293609
C  C298  1  0.92940000  0.75870000  0.84950000  1.0 -0.0179293609
C  C299  1  0.50870000  0.17940000  0.34950000  1.0 -0.0102291719
C  C300  1  0.82990000  0.15920000  0.65050000  1.0 -0.0179293609
C  C301  1  0.86870000  0.06390000  0.10140000  1.0 0.1010739836
C  C302  1  0.96250000  0.76730000  0.89860000  1.0 0.1010739836
C  C303  1  0.51730000  0.21250000  0.39860000  1.0 0.1010739836
C  C304  1  0.81390000  0.11870000  0.60140000  1.0 0.1010739836
C  C305  1  0.84060000  0.02020000  0.06920000  1.0 -0.0179293609
C  C306  1  0.95100000  0.77140000  0.93080000  1.0 -0.0102291719
C  C307  1  0.52140000  0.20100000  0.43080000  1.0 -0.0179293609
C  C308  1  0.77020000  0.09060000  0.56920000  1.0 -0.0102291719
C  C309  1  0.50940000  0.76660000  0.82140000  1.0 0.0331216823
C  C310  1  0.94520000  0.68800000  0.17860000  1.0 0.0331216823
C  C311  1  0.43800000  0.19520000  0.67860000  1.0 0.0331216823
C  C312  1  0.51660000  0.75940000  0.32140000  1.0 0.0331216823
C  C313  1  0.91630000  0.94430000  0.32420000  1.0 0.0806261575
C  C314  1  0.62010000  0.59210000  0.67580000  1.0 0.0806261575
C  C315  1  0.34210000  0.87010000  0.17580000  1.0 0.0806261575
C  C316  1  0.69430000  0.16630000  0.82420000  1.0 0.0806261575
C  C317  1  0.91490000  0.98110000  0.32720000  1.0 -0.1841192732
C  C318  1  0.65390000  0.58770000  0.67280000  1.0 -0.1907257874
C  C319  1  0.33770000  0.90390000  0.17280000  1.0 -0.1907257874
C  C320  1  0.73110000  0.16490000  0.82720000  1.0 -0.1907257874
C  C321  1  0.87060000  0.75390000  0.26750000  1.0 0.0888392128
C  C322  1  0.48640000  0.60310000  0.73250000  1.0 0.0806261575
C  C323  1  0.35310000  0.73640000  0.23250000  1.0 0.0806261575
C  C324  1  0.50390000  0.12060000  0.76750000  1.0 0.0888392128
C  C325  1  0.79770000  0.99400000  0.25710000  1.0 0.1204953772
C  C326  1  0.73690000  0.54060000  0.74290000  1.0 0.1204953772
C  C327  1  0.29060000  0.98690000  0.24290000  1.0 0.1204953772
C  C328  1  0.74400000  0.04770000  0.75710000  1.0 0.1204953772
C  C329  1  0.79430000  0.00720000  0.29790000  1.0 -0.0385925192
C  C330  1  0.70930000  0.49640000  0.70210000  1.0 -0.0385925192
C  C331  1  0.24640000  0.95930000  0.20210000  1.0 -0.0385925192
C  C332  1  0.75720000  0.04430000  0.79790000  1.0 -0.0385925192
C  C333  1  0.82190000  0.05370000  0.34660000  1.0 0.1010739836
C  C334  1  0.70710000  0.47530000  0.65340000  1.0 0.1010739836
C  C335  1  0.22530000  0.95710000  0.15340000  1.0 0.1010739836
C  C336  1  0.80370000  0.07190000  0.84660000  1.0 0.1010739836
C  C337  1  0.84400000  0.07960000  0.33940000  1.0 -0.0179293609
C  C338  1  0.74020000  0.50460000  0.66060000  1.0 -0.0294821609
C  C339  1  0.25460000  0.99020000  0.16060000  1.0 -0.0294821609
C  C340  1  0.82960000  0.09400000  0.83940000  1.0 -0.0294821609
C  C341  1  0.85230000  0.06810000  0.30220000  1.0 0.0888392128
C  C342  1  0.76590000  0.55010000  0.69780000  1.0 0.1010739836
C  C343  1  0.30010000  0.01590000  0.19780000  1.0 0.1010739836
C  C344  1  0.81810000  0.10230000  0.80220000  1.0 0.1010739836
C  C345  1  0.82090000  0.02420000  0.25590000  1.0 -0.0294821609
C  C346  1  0.76830000  0.56500000  0.74410000  1.0 -0.0294821609
C  C347  1  0.31500000  0.01830000  0.24410000  1.0 -0.0294821609
C  C348  1  0.77420000  0.07090000  0.75590000  1.0 -0.0294821609
C  C349  1  0.84160000  0.92040000  0.35960000  1.0 0.1407203842
C  C350  1  0.56080000  0.48200000  0.64040000  1.0 0.1317085166
C  C351  1  0.23200000  0.81080000  0.14040000  1.0 0.1317085166
C  C352  1  0.67040000  0.09160000  0.85960000  1.0 0.1317085166
C  C353  1  0.86230000  0.88490000  0.35120000  1.0 -0.0102291719
C  C354  1  0.53370000  0.51110000  0.64880000  1.0 -0.0043883456
C  C355  1  0.26110000  0.78370000  0.14880000  1.0 -0.0102291719
C  C356  1  0.63490000  0.11230000  0.85120000  1.0 -0.0102291719
C  C357  1  0.90280000  0.88870000  0.39350000  1.0 0.0331216823
C  C358  1  0.49520000  0.50930000  0.60650000  1.0 0.0415769509
C  C359  1  0.25930000  0.74520000  0.10650000  1.0 0.0331216823
C  C360  1  0.63870000  0.15280000  0.89350000  1.0 0.0331216823
C  C361  1  0.91980000  0.92980000  0.44060000  1.0 0.0415769509
C  C362  1  0.48920000  0.47920000  0.55940000  1.0 0.0415769509
C  C363  1  0.22920000  0.73920000  0.05940000  1.0 0.0415769509
C  C364  1  0.67980000  0.16980000  0.94060000  1.0 0.0506129773
C  C365  1  0.90580000  0.96710000  0.44470000  1.0 -0.0179293609
C  C366  1  0.52240000  0.46110000  0.55530000  1.0 -0.0385925192
C  C367  1  0.21110000  0.77240000  0.05530000  1.0 -0.0294821609
C  C368  1  0.71710000  0.15580000  0.94470000  1.0 -0.0385925192
C  C369  1  0.86580000  0.96710000  0.41230000  1.0 0.0026740812
C  C370  1  0.55480000  0.45350000  0.58770000  1.0 0.0127337911
C  C371  1  0.20350000  0.80480000  0.08770000  1.0 0.0127337911
C  C372  1  0.71710000  0.11580000  0.91230000  1.0 0.0180585698
C  C373  1  0.73130000  0.64500000  0.13810000  1.0 0.1757087817
C  C374  1  0.50690000  0.59320000  0.86190000  1.0 0.1732938449
C  C375  1  0.34320000  0.75690000  0.36190000  1.0 0.1732938449
C  C376  1  0.39500000  0.98130000  0.63810000  1.0 0.1757087817
C  C377  1  0.77390000  0.64540000  0.15830000  1.0 -0.1525467674
C  C378  1  0.48710000  0.61560000  0.84170000  1.0 -0.1525467674
C  C379  1  0.36560000  0.73710000  0.34170000  1.0 -0.1525467674
C  C380  1  0.39540000  0.02390000  0.65830000  1.0 -0.1608860532
C  C381  1  0.70040000  0.73580000  0.22220000  1.0 0.1317085166
C  C382  1  0.51360000  0.47820000  0.77780000  1.0 0.1204953772
C  C383  1  0.22820000  0.76360000  0.27780000  1.0 0.1204953772
C  C384  1  0.48580000  0.95040000  0.72220000  1.0 0.1204953772
C  C385  1  0.55600000  0.71800000  0.03360000  1.0 0.2443827004
C  C386  1  0.68440000  0.52240000  0.96640000  1.0 0.2481220862
C  C387  1  0.27240000  0.93440000  0.46640000  1.0 0.2443827004
C  C388  1  0.46800000  0.80600000  0.53360000  1.0 0.2481220862
C  C389  1  0.51800000  0.69170000  0.97070000  1.0 -0.2009080206
C  C390  1  0.72100000  0.54730000  0.02930000  1.0 -0.1907257874
C  C391  1  0.29730000  0.97100000  0.52930000  1.0 -0.1907257874
C  C392  1  0.44170000  0.76800000  0.47070000  1.0 -0.1907257874
C  C393  1  0.64750000  0.89680000  0.21230000  1.0 0.1204953772
C  C394  1  0.68450000  0.43520000  0.78770000  1.0 0.1204953772
C  C395  1  0.18520000  0.93450000  0.28770000  1.0 0.1204953772
C  C396  1  0.64680000  0.89750000  0.71230000  1.0 0.1204953772
C  C397  1  0.68050000  0.92600000  0.22370000  1.0 -0.0102291719
C  C398  1  0.70230000  0.45680000  0.77630000  1.0 -0.0102291719
C  C399  1  0.20680000  0.95230000  0.27630000  1.0 -0.0102291719
C  C400  1  0.67600000  0.93050000  0.72370000  1.0 -0.0102291719
C  C401  1  0.67970000  0.96990000  0.24020000  1.0 0.0594594388
C  C402  1  0.72970000  0.43950000  0.75980000  1.0 0.0702574077
C  C403  1  0.18950000  0.97970000  0.25980000  1.0 0.0594594388
C  C404  1  0.71990000  0.92970000  0.74020000  1.0 0.0594594388
C  C405  1  0.64560000  0.98440000  0.24520000  1.0 0.0331216823
C  C406  1  0.73920000  0.40040000  0.75480000  1.0 0.0331216823
C  C407  1  0.15040000  0.98920000  0.25480000  1.0 0.0331216823
C  C408  1  0.73440000  0.89560000  0.74520000  1.0 0.0331216823
C  C409  1  0.61240000  0.95510000  0.23370000  1.0 0.0127337911
C  C410  1  0.72140000  0.37870000  0.76630000  1.0 0.0127337911
C  C411  1  0.12870000  0.97140000  0.26630000  1.0 0.0127337911
C  C412  1  0.70510000  0.86240000  0.73370000  1.0 0.0127337911
C  C413  1  0.61340000  0.91130000  0.21730000  1.0 0.0180585698
C  C414  1  0.69400000  0.39610000  0.78270000  1.0 0.0180585698
C  C415  1  0.14610000  0.94400000  0.28270000  1.0 0.0180585698
C  C416  1  0.66130000  0.86340000  0.71730000  1.0 0.0180585698
Se  Se1  1  0.18918000  0.18918000  0.00000000  1.0 -0.5419729881
Se  Se2  1  0.93918000  0.43918000  0.50000000  1.0 -0.5491679116
Se  Se3  1  0.23609000  0.30232000  0.15467000  1.0 -0.6005115206
Se  Se4  1  0.14765000  0.08142000  0.84533000  1.0 -0.6005115206
Se  Se5  1  0.83142000  0.39765000  0.34533000  1.0 -0.6005115206
Se  Se6  1  0.05232000  0.48609000  0.65467000  1.0 -0.6005115206
Se  Se7  1  0.21261000  0.32455000  0.04460000  1.0 -0.5307689398
Se  Se8  1  0.27995000  0.16801000  0.95540000  1.0 -0.5307689398
Se  Se9  1  0.91801000  0.52995000  0.45540000  1.0 -0.5307689398
Se  Se10  1  0.07455000  0.46261000  0.54460000  1.0 -0.5419729881
Se  Se11  1  0.32657000  0.28006000  0.11527000  1.0 -0.5809540596
Se  Se12  1  0.16479000  0.21130000  0.88473000  1.0 -0.5809540596
Se  Se13  1  0.96130000  0.41479000  0.38473000  1.0 -0.5809540596
Se  Se14  1  0.03006000  0.57657000  0.61527000  1.0 -0.5809540596
Se  Se15  1  0.41247000  0.26061000  0.07084000  1.0 -0.5565834234
Se  Se16  1  0.18977000  0.34163000  0.92916000  1.0 -0.5491679116
Se  Se17  1  0.09163000  0.43977000  0.42916000  1.0 -0.5565834234
Se  Se18  1  0.01061000  0.66247000  0.57084000  1.0 -0.5565834234
Se  Se19  1  0.30337000  0.30337000  0.00000000  1.0 -0.5491679116
Se  Se20  1  0.05337000  0.55337000  0.50000000  1.0 -0.5565834234
Se  Se21  1  0.30419000  0.13686000  0.06817000  1.0 -0.5491679116
Se  Se22  1  0.06869000  0.23602000  0.93183000  1.0 -0.5419729881
Se  Se23  1  0.98602000  0.31869000  0.43183000  1.0 -0.5419729881
Se  Se24  1  0.88686000  0.55419000  0.56817000  1.0 -0.5419729881
Se  Se25  1  0.35257000  0.42433000  0.16428000  1.0 -0.5419729881
Se  Se26  1  0.26005000  0.18829000  0.83572000  1.0 -0.5491679116
Se  Se27  1  0.93829000  0.51005000  0.33572000  1.0 -0.5419729881
Se  Se28  1  0.17433000  0.60257000  0.66428000  1.0 -0.5491679116
Se  Se29  1  0.81082000  0.81082000  0.00000000  1.0 -0.5419729881
Se  Se30  1  0.56082000  0.06082000  0.50000000  1.0 -0.5419729881
Se  Se31  1  0.69768000  0.85235000  0.93377000  1.0 -0.6005115206
Se  Se32  1  0.91858000  0.76391000  0.06623000  1.0 -0.6005115206
Se  Se33  1  0.51391000  0.16858000  0.56623000  1.0 -0.6005115206
Se  Se34  1  0.60235000  0.94768000  0.43377000  1.0 -0.6005115206
Se  Se35  1  0.67545000  0.72005000  0.88806000  1.0 -0.5307689398
Se  Se36  1  0.83199000  0.78739000  0.11194000  1.0 -0.5307689398
Se  Se37  1  0.53739000  0.08199000  0.61194000  1.0 -0.5307689398
Se  Se38  1  0.47005000  0.92545000  0.38806000  1.0 -0.5419729881
Se  Se39  1  0.71994000  0.83521000  0.04651000  1.0 -0.5809540596
Se  Se40  1  0.78870000  0.67343000  0.95349000  1.0 -0.5809540596
Se  Se41  1  0.42343000  0.03870000  0.45349000  1.0 -0.5926080981
Se  Se42  1  0.58521000  0.96994000  0.54651000  1.0 -0.5809540596
Se  Se43  1  0.73939000  0.81023000  0.15186000  1.0 -0.5491679116
Se  Se44  1  0.65837000  0.58753000  0.84814000  1.0 -0.5491679116
Se  Se45  1  0.33753000  0.90837000  0.34814000  1.0 -0.5565834234
Se  Se46  1  0.56023000  0.98939000  0.65186000  1.0 -0.5565834234
Se  Se47  1  0.69663000  0.69663000  0.00000000  1.0 -0.5491679116
Se  Se48  1  0.44663000  0.94663000  0.50000000  1.0 -0.5491679116
Se  Se49  1  0.86314000  0.93131000  0.16733000  1.0 -0.5419729881
Se  Se50  1  0.76398000  0.69581000  0.83267000  1.0 -0.5491679116
Se  Se51  1  0.44581000  0.01398000  0.33267000  1.0 -0.5491679116
Se  Se52  1  0.68131000  0.11314000  0.66733000  1.0 -0.5491679116
Se  Se53  1  0.57567000  0.73995000  0.92824000  1.0 -0.5419729881
Se  Se54  1  0.81171000  0.64743000  0.07176000  1.0 -0.5419729881
Se  Se55  1  0.39743000  0.06171000  0.57176000  1.0 -0.5491679116
Se  Se56  1  0.48995000  0.82567000  0.42824000  1.0 -0.5419729881
S  S1  1  0.62100000  0.26610000  0.14830000  1.0 -0.6669305989
S  S2  1  0.11780000  0.47270000  0.85170000  1.0 -0.6638930231
S  S3  1  0.22270000  0.36780000  0.35170000  1.0 -0.6638930231
S  S4  1  0.01610000  0.87100000  0.64830000  1.0 -0.6669305989
S  S5  1  0.14792000  0.30902000  0.19430000  1.0 -0.2505366578
S  S6  1  0.11472000  0.95362000  0.80570000  1.0 -0.2505366578
S  S7  1  0.70362000  0.36472000  0.30570000  1.0 -0.2448032985
S  S8  1  0.05902000  0.39792000  0.69430000  1.0 -0.2505366578
S  S9  1  0.27307000  0.29317000  0.27410000  1.0 -0.3813306617
S  S10  1  0.01907000  0.99897000  0.72590000  1.0 -0.3728971193
S  S11  1  0.74897000  0.26907000  0.22590000  1.0 -0.3728971193
S  S12  1  0.04317000  0.52307000  0.77410000  1.0 -0.3728971193
S  S13  1  0.26762000  0.41822000  0.29860000  1.0 -0.6005115206
S  S14  1  0.11962000  0.96902000  0.70140000  1.0 -0.5926080981
S  S15  1  0.71902000  0.36962000  0.20140000  1.0 -0.6005115206
S  S16  1  0.16822000  0.51762000  0.79860000  1.0 -0.6005115206
S  S17  1  0.16173000  0.06403000  0.95870000  1.0 -0.2872643301
S  S18  1  0.10533000  0.20303000  0.04130000  1.0 -0.2872643301
S  S19  1  0.95303000  0.35533000  0.54130000  1.0 -0.2872643301
S  S20  1  0.81403000  0.41173000  0.45870000  1.0 -0.2872643301
S  S21  1  0.13337000  0.34247000  0.09610000  1.0 -0.2009080206
S  S22  1  0.24637000  0.03727000  0.90390000  1.0 -0.2009080206
S  S23  1  0.78727000  0.49637000  0.40390000  1.0 -0.2009080206
S  S24  1  0.09247000  0.38337000  0.59610000  1.0 -0.2009080206
S  S25  1  0.21843000  0.17943000  0.11680000  1.0 -0.1702542437
S  S26  1  0.06263000  0.10163000  0.88320000  1.0 -0.1702542437
S  S27  1  0.85163000  0.31263000  0.38320000  1.0 -0.1702542437
S  S28  1  0.92943000  0.46843000  0.61680000  1.0 -0.1702542437
S  S29  1  0.25169000  0.43669000  0.19060000  1.0 -0.301734516
S  S30  1  0.24609000  0.06109000  0.80940000  1.0 -0.301734516
S  S31  1  0.81109000  0.49609000  0.30940000  1.0 -0.301734516
S  S32  1  0.18669000  0.50169000  0.69060000  1.0 -0.3090179393
S  S33  1  0.35110000  0.25090000  0.22000000  1.0 -0.6005115206
S  S34  1  0.03090000  0.13110000  0.78000000  1.0 -0.6069868097
S  S35  1  0.88110000  0.28090000  0.28000000  1.0 -0.6005115206
S  S36  1  0.00090000  0.60110000  0.72000000  1.0 -0.6005115206
S  S37  1  0.35653000  0.38333000  0.25560000  1.0 -0.5192410197
S  S38  1  0.12773000  0.10093000  0.74440000  1.0 -0.5192410197
S  S39  1  0.85093000  0.37773000  0.24440000  1.0 -0.5135265777
S  S40  1  0.13333000  0.60653000  0.75560000  1.0 -0.5192410197
S  S41  1  0.38405000  0.12085000  0.01040000  1.0 -0.1702542437
S  S42  1  0.11045000  0.37365000  0.98960000  1.0 -0.1702542437
S  S43  1  0.12365000  0.36045000  0.48960000  1.0 -0.1702542437
S  S44  1  0.87085000  0.63405000  0.51040000  1.0 -0.1702542437
S  S45  1  0.37394000  0.15784000  0.93050000  1.0 -0.2557874659
S  S46  1  0.22734000  0.44344000  0.06950000  1.0 -0.2505366578
S  S47  1  0.19344000  0.47734000  0.56950000  1.0 -0.2505366578
S  S48  1  0.90784000  0.62394000  0.43050000  1.0 -0.2505366578
S  S49  1  0.43337000  0.23417000  0.17240000  1.0 -0.2009080206
S  S50  1  0.06177000  0.26097000  0.82760000  1.0 -0.205714787
S  S51  1  0.01097000  0.31177000  0.32760000  1.0 -0.2009080206
S  S52  1  0.98417000  0.68337000  0.67240000  1.0 -0.2009080206
S  S53  1  0.45333000  0.36803000  0.22510000  1.0 -0.6248112509
S  S54  1  0.14293000  0.22823000  0.77490000  1.0 -0.626182592
S  S55  1  0.97823000  0.39293000  0.27490000  1.0 -0.626182592
S  S56  1  0.11803000  0.70333000  0.72510000  1.0 -0.626182592
S  S57  1  0.51621000  0.21231000  0.12690000  1.0 -0.3552322576
S  S58  1  0.08541000  0.38931000  0.87310000  1.0 -0.3514687309
S  S59  1  0.13931000  0.33541000  0.37310000  1.0 -0.3514687309
S  S60  1  0.96231000  0.76621000  0.62690000  1.0 -0.3514687309
S  S61  1  0.39050000  0.29080000  0.96290000  1.0 -0.3514687309
S  S62  1  0.32790000  0.42760000  0.03710000  1.0 -0.3514687309
S  S63  1  0.17760000  0.57790000  0.53710000  1.0 -0.3514687309
S  S64  1  0.04080000  0.64050000  0.46290000  1.0 -0.3514687309
S  S65  1  0.50006000  0.25006000  0.03100000  1.0 -0.2773002872
S  S66  1  0.21906000  0.46906000  0.96900000  1.0 -0.2773002872
S  S67  1  0.21906000  0.46906000  0.46900000  1.0 -0.2773002872
S  S68  1  0.00006000  0.75006000  0.53100000  1.0 -0.2773002872
S  S69  1  0.43582000  0.38572000  0.11130000  1.0 -0.3878080735
S  S70  1  0.27442000  0.32452000  0.88870000  1.0 -0.3813306617
S  S71  1  0.07452000  0.52442000  0.38870000  1.0 -0.3878080735
S  S72  1  0.13572000  0.68582000  0.61130000  1.0 -0.3878080735
S  S73  1  0.54419000  0.34879000  0.18920000  1.0 -0.3090179393
S  S74  1  0.15959000  0.35499000  0.81080000  1.0 -0.3090179393
S  S75  1  0.10499000  0.40959000  0.31080000  1.0 -0.3090179393
S  S76  1  0.09879000  0.79419000  0.68920000  1.0 -0.3090179393
S  S77  1  0.73390000  0.88220000  0.35490000  1.0 -0.6669305989
S  S78  1  0.52730000  0.37900000  0.64510000  1.0 -0.6669305989
S  S79  1  0.12900000  0.77730000  0.14510000  1.0 -0.6638930231
S  S80  1  0.63220000  0.98390000  0.85490000  1.0 -0.6669305989
S  S81  1  0.69098000  0.88528000  0.83890000  1.0 -0.2505366578
S  S82  1  0.04638000  0.85208000  0.16110000  1.0 -0.2505366578
S  S83  1  0.60208000  0.29638000  0.66110000  1.0 -0.2505366578
S  S84  1  0.63528000  0.94098000  0.33890000  1.0 -0.2505366578
S  S85  1  0.70683000  0.98093000  0.97990000  1.0 -0.3813306617
S  S86  1  0.00103000  0.72693000  0.02010000  1.0 -0.3728971193
S  S87  1  0.47693000  0.25103000  0.52010000  1.0 -0.3728971193
S  S88  1  0.73093000  0.95683000  0.47990000  1.0 -0.3813306617
S  S89  1  0.58178000  0.88038000  0.84940000  1.0 -0.6005115206
S  S90  1  0.03098000  0.73238000  0.15060000  1.0 -0.6005115206
S  S91  1  0.48238000  0.28098000  0.65060000  1.0 -0.5926080981
S  S92  1  0.63038000  0.83178000  0.34940000  1.0 -0.5926080981
S  S93  1  0.93597000  0.89467000  0.09770000  1.0 -0.2872643301
S  S94  1  0.79697000  0.83827000  0.90230000  1.0 -0.2872643301
S  S95  1  0.58827000  0.04697000  0.40230000  1.0 -0.2872643301
S  S96  1  0.64467000  0.18597000  0.59770000  1.0 -0.2872643301
S  S97  1  0.65753000  0.75363000  0.79090000  1.0 -0.1907257874
S  S98  1  0.96273000  0.86663000  0.20910000  1.0 -0.2009080206
S  S99  1  0.61663000  0.21273000  0.70910000  1.0 -0.2009080206
S  S100  1  0.50363000  0.90753000  0.29090000  1.0 -0.2009080206
S  S101  1  0.82057000  0.93737000  0.03900000  1.0 -0.1702542437
S  S102  1  0.89837000  0.78157000  0.96100000  1.0 -0.1702542437
S  S103  1  0.53157000  0.14837000  0.46100000  1.0 -0.1702542437
S  S104  1  0.68737000  0.07057000  0.53900000  1.0 -0.1702542437
S  S105  1  0.56331000  0.75391000  0.81500000  1.0 -0.301734516
S  S106  1  0.93891000  0.74831000  0.18500000  1.0 -0.3090179393
S  S107  1  0.49831000  0.18891000  0.68500000  1.0 -0.301734516
S  S108  1  0.50391000  0.81331000  0.31500000  1.0 -0.301734516
S  S109  1  0.74910000  0.96910000  0.10020000  1.0 -0.6005115206
S  S110  1  0.86890000  0.64890000  0.89980000  1.0 -0.6069868097
S  S111  1  0.39890000  0.11890000  0.39980000  1.0 -0.6069868097
S  S112  1  0.71910000  0.99910000  0.60020000  1.0 -0.6069868097
S  S113  1  0.61667000  0.87227000  0.97320000  1.0 -0.5192410197
S  S114  1  0.89907000  0.64347000  0.02680000  1.0 -0.5192410197
S  S115  1  0.39347000  0.14907000  0.52680000  1.0 -0.5192410197
S  S116  1  0.62227000  0.86667000  0.47320000  1.0 -0.5192410197
S  S117  1  0.87915000  0.88955000  0.26320000  1.0 -0.1702542437
S  S118  1  0.62635000  0.61595000  0.73680000  1.0 -0.1702542437
S  S119  1  0.36595000  0.87635000  0.23680000  1.0 -0.1702542437
S  S120  1  0.63955000  0.12915000  0.76320000  1.0 -0.1702542437
S  S121  1  0.84216000  0.77266000  0.21610000  1.0 -0.2505366578
S  S122  1  0.55656000  0.62606000  0.78390000  1.0 -0.2505366578
S  S123  1  0.37606000  0.80656000  0.28390000  1.0 -0.2505366578
S  S124  1  0.52266000  0.09216000  0.71610000  1.0 -0.2557874659
S  S125  1  0.76583000  0.93823000  0.19920000  1.0 -0.205714787
S  S126  1  0.73903000  0.56663000  0.80080000  1.0 -0.2009080206
S  S127  1  0.31663000  0.98903000  0.30080000  1.0 -0.2009080206
S  S128  1  0.68823000  0.01583000  0.69920000  1.0 -0.205714787
S  S129  1  0.63197000  0.85707000  0.08530000  1.0 -0.626182592
S  S130  1  0.77177000  0.54667000  0.91470000  1.0 -0.626182592
S  S131  1  0.29667000  0.02177000  0.41470000  1.0 -0.626182592
S  S132  1  0.60707000  0.88197000  0.58530000  1.0 -0.626182592
S  S133  1  0.78769000  0.91459000  0.30390000  1.0 -0.3514687309
S  S134  1  0.61069000  0.48379000  0.69610000  1.0 -0.3514687309
S  S135  1  0.23379000  0.86069000  0.19610000  1.0 -0.3514687309
S  S136  1  0.66459000  0.03769000  0.80390000  1.0 -0.3514687309
S  S137  1  0.70920000  0.67210000  0.09970000  1.0 -0.3514687309
S  S138  1  0.57240000  0.60950000  0.90030000  1.0 -0.3514687309
S  S139  1  0.35950000  0.82240000  0.40030000  1.0 -0.3514687309
S  S140  1  0.42210000  0.95920000  0.59970000  1.0 -0.3552322576
S  S141  1  0.74994000  0.78094000  0.25000000  1.0 -0.2872643301
S  S142  1  0.53094000  0.49994000  0.75000000  1.0 -0.2872643301
S  S143  1  0.24994000  0.78094000  0.25000000  1.0 -0.2773002872
S  S144  1  0.53094000  0.99994000  0.75000000  1.0 -0.2773002872
S  S145  1  0.61428000  0.72558000  0.05010000  1.0 -0.3813306617
S  S146  1  0.67548000  0.56418000  0.94990000  1.0 -0.3813306617
S  S147  1  0.31418000  0.92548000  0.44990000  1.0 -0.3813306617
S  S148  1  0.47558000  0.86428000  0.55010000  1.0 -0.3813306617
S  S149  1  0.65121000  0.84041000  0.19540000  1.0 -0.3090179393
S  S150  1  0.64501000  0.45581000  0.80460000  1.0 -0.3090179393
S  S151  1  0.20581000  0.89501000  0.30460000  1.0 -0.3090179393
S  S152  1  0.59041000  0.90121000  0.69540000  1.0 -0.3090179393
