# DDEC6 charges by PACMAN v1.1 (https://github.com/mtap-research/PACMAN-charge/)
data_LOJFUL_ASR_pacman
_symmetry_space_group_name_H-M   'P 1'
_cell_length_a   16.31500000
_cell_length_b   17.40500000
_cell_length_c   18.41000000
_cell_angle_alpha   89.59200000
_cell_angle_beta   95.67000000
_cell_angle_gamma   97.47900000
_symmetry_Int_Tables_number   1
_chemical_formula_structural   NaZnH24C53N5O9
_chemical_formula_sum   'Na2 Zn2 H48 C106 N10 O18'
_cell_volume   5157.82985606
_cell_formula_units_Z   2
loop_
 _symmetry_equiv_pos_site_id
 _symmetry_equiv_pos_as_xyz
  1  'x, y, z'
loop_
 _atom_site_type_symbol
 _atom_site_label
 _atom_site_symmetry_multiplicity
 _atom_site_fract_x
 _atom_site_fract_y
 _atom_site_fract_z
 _atom_site_occupancy
 _atom_site_charge
Na  Na1  1  0.91122000  0.05066000  0.00020000  1.0 0.8868887128
Na  Na2  1  0.08878000  0.94934000  0.99980000  1.0 0.8868887128
Zn  Zn1  1  0.47470000  0.49890000  0.19010000  1.0 0.6453438701
Zn  Zn2  1  0.52530000  0.50110000  0.80990000  1.0 0.6453438701
H  H1  1  0.39470000  0.20490000  0.15670000  1.0 0.1382137115
H  H2  1  0.60530000  0.79510000  0.84330000  1.0 0.1382137115
H  H3  1  0.54500000  0.22220000  0.16010000  1.0 0.1382137115
H  H4  1  0.45500000  0.77780000  0.83990000  1.0 0.1306436808
H  H5  1  0.78220000  0.46550000  0.17590000  1.0 0.1382137115
H  H6  1  0.21780000  0.53450000  0.82410000  1.0 0.1382137115
H  H7  1  0.78200000  0.60480000  0.17450000  1.0 0.1382137115
H  H8  1  0.21800000  0.39520000  0.82550000  1.0 0.1382137115
H  H9  1  0.55050000  0.79400000  0.17880000  1.0 0.1382137115
H  H10  1  0.44950000  0.20600000  0.82120000  1.0 0.1382137115
H  H11  1  0.40150000  0.77780000  0.17820000  1.0 0.1382137115
H  H12  1  0.59850000  0.22220000  0.82180000  1.0 0.1382137115
H  H13  1  0.16380000  0.53380000  0.16250000  1.0 0.1382137115
H  H14  1  0.83620000  0.46620000  0.83750000  1.0 0.1382137115
H  H15  1  0.16290000  0.39250000  0.15750000  1.0 0.1382137115
H  H16  1  0.83710000  0.60750000  0.84250000  1.0 0.1382137115
H  H17  1  0.26470000  0.25230000  0.04950000  1.0 0.1198203772
H  H18  1  0.73530000  0.74770000  0.95050000  1.0 0.1198203772
H  H19  1  0.16290000  0.14820000  0.03580000  1.0 0.1306436808
H  H20  1  0.83710000  0.85180000  0.96420000  1.0 0.1306436808
H  H21  1  0.11480000  0.16890000  0.24200000  1.0 0.1306436808
H  H22  1  0.88520000  0.83110000  0.75800000  1.0 0.1306436808
H  H23  1  0.21930000  0.27430000  0.25950000  1.0 0.1198203772
H  H24  1  0.78070000  0.72570000  0.74050000  1.0 0.1198203772
H  H25  1  0.69510000  0.34230000  0.05890000  1.0 0.1198203772
H  H26  1  0.30490000  0.65770000  0.94110000  1.0 0.1198203772
H  H27  1  0.79160000  0.25800000  0.04500000  1.0 0.1198203772
H  H28  1  0.20840000  0.74200000  0.95500000  1.0 0.1198203772
H  H29  1  0.79390000  0.20350000  0.25760000  1.0 0.1198203772
H  H30  1  0.20610000  0.79650000  0.74240000  1.0 0.1198203772
H  H31  1  0.69740000  0.28780000  0.27150000  1.0 0.1306436808
H  H32  1  0.30260000  0.71220000  0.72850000  1.0 0.1306436808
H  H33  1  0.63890000  0.75760000  0.06960000  1.0 0.1198203772
H  H34  1  0.36110000  0.24240000  0.93040000  1.0 0.1198203772
H  H35  1  0.73450000  0.86640000  0.05630000  1.0 0.1198203772
H  H36  1  0.26550000  0.13360000  0.94370000  1.0 0.1198203772
H  H37  1  0.85870000  0.82050000  0.24620000  1.0 0.1382137115
H  H38  1  0.14130000  0.17950000  0.75380000  1.0 0.1382137115
H  H39  1  0.75960000  0.71560000  0.26310000  1.0 0.1198203772
H  H40  1  0.24040000  0.28440000  0.73690000  1.0 0.1198203772
H  H41  1  0.27660000  0.71430000  0.06720000  1.0 0.1198203772
H  H42  1  0.72340000  0.28570000  0.93280000  1.0 0.1198203772
H  H43  1  0.17650000  0.79510000  0.05820000  1.0 0.1198203772
H  H44  1  0.82350000  0.20490000  0.94180000  1.0 0.1198203772
H  H45  1  0.11840000  0.73740000  0.25810000  1.0 0.1198203772
H  H46  1  0.88160000  0.26260000  0.74190000  1.0 0.1306436808
H  H47  1  0.22030000  0.65420000  0.26820000  1.0 0.1198203772
H  H48  1  0.77970000  0.34580000  0.73180000  1.0 0.1198203772
C  C1  1  0.29570000  0.41550000  0.16880000  1.0 0.1900734332
C  C2  1  0.70430000  0.58450000  0.83120000  1.0 0.1900734332
C  C3  1  0.32090000  0.34210000  0.16580000  1.0 -0.0621648671
C  C4  1  0.67910000  0.65790000  0.83420000  1.0 -0.0621648671
C  C5  1  0.40420000  0.32670000  0.16680000  1.0 0.1900734332
C  C6  1  0.59580000  0.67330000  0.83320000  1.0 0.1900734332
C  C7  1  0.42940000  0.25180000  0.16110000  1.0 -0.1894226271
C  C8  1  0.57060000  0.74820000  0.83890000  1.0 -0.1894226271
C  C9  1  0.51180000  0.26140000  0.16320000  1.0 -0.1788615285
C  C10  1  0.48820000  0.73860000  0.83680000  1.0 -0.1788615285
C  C11  1  0.54040000  0.34250000  0.17120000  1.0 0.1785275938
C  C12  1  0.45960000  0.65750000  0.82880000  1.0 0.1785275938
C  C13  1  0.62250000  0.37720000  0.17430000  1.0 -0.0688748973
C  C14  1  0.37750000  0.62280000  0.82570000  1.0 -0.0688748973
C  C15  1  0.65040000  0.45640000  0.17780000  1.0 0.1900734332
C  C16  1  0.34960000  0.54360000  0.82220000  1.0 0.1900734332
C  C17  1  0.73590000  0.49150000  0.17640000  1.0 -0.1745828091
C  C18  1  0.26410000  0.50850000  0.82360000  1.0 -0.1745828091
C  C19  1  0.73570000  0.56780000  0.17600000  1.0 -0.1788615285
C  C20  1  0.26430000  0.43220000  0.82400000  1.0 -0.1788615285
C  C21  1  0.65160000  0.58340000  0.17830000  1.0 0.1900734332
C  C22  1  0.34840000  0.41660000  0.82170000  1.0 0.1900734332
C  C23  1  0.62460000  0.65620000  0.17600000  1.0 -0.0621648671
C  C24  1  0.37540000  0.34380000  0.82400000  1.0 -0.0621648671
C  C25  1  0.54200000  0.67190000  0.17600000  1.0 0.1900734332
C  C26  1  0.45800000  0.32810000  0.82400000  1.0 0.1900734332
C  C27  1  0.51600000  0.74700000  0.17770000  1.0 -0.1788615285
C  C28  1  0.48400000  0.25300000  0.82230000  1.0 -0.1788615285
C  C29  1  0.43470000  0.73820000  0.17750000  1.0 -0.1788615285
C  C30  1  0.56530000  0.26180000  0.82250000  1.0 -0.1788615285
C  C31  1  0.40580000  0.65540000  0.17570000  1.0 0.1785275938
C  C32  1  0.59420000  0.34460000  0.82430000  1.0 0.1785275938
C  C33  1  0.32390000  0.62200000  0.17360000  1.0 -0.0621648671
C  C34  1  0.67610000  0.37800000  0.82640000  1.0 -0.0621648671
C  C35  1  0.29600000  0.54140000  0.17260000  1.0 0.1900734332
C  C36  1  0.70400000  0.45860000  0.82740000  1.0 0.1900734332
C  C37  1  0.21000000  0.50740000  0.16510000  1.0 -0.1894226271
C  C38  1  0.79000000  0.49260000  0.83490000  1.0 -0.1894226271
C  C39  1  0.20950000  0.42970000  0.16240000  1.0 -0.1788615285
C  C40  1  0.79050000  0.57030000  0.83760000  1.0 -0.1788615285
C  C41  1  0.25470000  0.27380000  0.15610000  1.0 0.0823501816
C  C42  1  0.74530000  0.72620000  0.84390000  1.0 0.0823501816
C  C43  1  0.23570000  0.23560000  0.08890000  1.0 -0.1483651671
C  C44  1  0.76430000  0.76440000  0.91110000  1.0 -0.1483651671
C  C45  1  0.17440000  0.17340000  0.08080000  1.0 -0.0803872246
C  C46  1  0.82560000  0.82660000  0.91920000  1.0 -0.0803872246
C  C47  1  0.12970000  0.14760000  0.13740000  1.0 -0.0047191012
C  C48  1  0.87030000  0.85240000  0.86260000  1.0 -0.0047191012
C  C49  1  0.14580000  0.18560000  0.20380000  1.0 -0.0803872246
C  C50  1  0.85420000  0.81440000  0.79620000  1.0 -0.0803872246
C  C51  1  0.20850000  0.24900000  0.21450000  1.0 -0.1483651671
C  C52  1  0.79150000  0.75100000  0.78550000  1.0 -0.1483651671
C  C53  1  0.06300000  0.07920000  0.12720000  1.0 0.5603973569
C  C54  1  0.93700000  0.92080000  0.87280000  1.0 0.5603973569
C  C55  1  0.68670000  0.32340000  0.16660000  1.0 0.0923458399
C  C56  1  0.31330000  0.67660000  0.83340000  1.0 0.0923458399
C  C57  1  0.71490000  0.31450000  0.09870000  1.0 -0.1483651671
C  C58  1  0.28510000  0.68550000  0.90130000  1.0 -0.1483651671
C  C59  1  0.77270000  0.26400000  0.09040000  1.0 -0.0883782306
C  C60  1  0.22730000  0.73600000  0.90960000  1.0 -0.0883782306
C  C61  1  0.80230000  0.22240000  0.14990000  1.0 -0.0114774839
C  C62  1  0.19770000  0.77760000  0.85010000  1.0 -0.0114774839
C  C63  1  0.77410000  0.23130000  0.21770000  1.0 -0.0987850277
C  C64  1  0.22590000  0.76870000  0.78230000  1.0 -0.0987850277
C  C65  1  0.71630000  0.28180000  0.22610000  1.0 -0.1424947379
C  C66  1  0.28370000  0.71820000  0.77390000  1.0 -0.1424947379
C  C67  1  0.86620000  0.16900000  0.13780000  1.0 0.4668495508
C  C68  1  0.13380000  0.83100000  0.86220000  1.0 0.4668495508
C  C69  1  0.68850000  0.72520000  0.16730000  1.0 0.0747465493
C  C70  1  0.31150000  0.27480000  0.83270000  1.0 0.0747465493
C  C71  1  0.68220000  0.77050000  0.10590000  1.0 -0.1558767109
C  C72  1  0.31780000  0.22950000  0.89410000  1.0 -0.1558767109
C  C73  1  0.74010000  0.83580000  0.09760000  1.0 -0.0883782306
C  C74  1  0.25990000  0.16420000  0.90240000  1.0 -0.0883782306
C  C75  1  0.80550000  0.85490000  0.15030000  1.0 -0.0047191012
C  C76  1  0.19450000  0.14510000  0.84970000  1.0 -0.0114774839
C  C77  1  0.81360000  0.80880000  0.21130000  1.0 -0.0688748973
C  C78  1  0.18640000  0.19120000  0.78870000  1.0 -0.0688748973
C  C79  1  0.75480000  0.74510000  0.22100000  1.0 -0.1424947379
C  C80  1  0.24520000  0.25490000  0.77900000  1.0 -0.1424947379
C  C81  1  0.86560000  0.92580000  0.14000000  1.0 0.5483846964
C  C82  1  0.13440000  0.07420000  0.86000000  1.0 0.5483846964
C  C83  1  0.25860000  0.67500000  0.16840000  1.0 0.0823501816
C  C84  1  0.74140000  0.32500000  0.83160000  1.0 0.0823501816
C  C85  1  0.24480000  0.71830000  0.10600000  1.0 -0.1424947379
C  C86  1  0.75520000  0.28170000  0.89400000  1.0 -0.1424947379
C  C87  1  0.18510000  0.76680000  0.10070000  1.0 -0.0883782306
C  C88  1  0.81490000  0.23320000  0.89930000  1.0 -0.0883782306
C  C89  1  0.13670000  0.77470000  0.15800000  1.0 -0.0114774839
C  C90  1  0.86330000  0.22530000  0.84200000  1.0 -0.0114774839
C  C91  1  0.15020000  0.73280000  0.21940000  1.0 -0.0803872246
C  C92  1  0.84980000  0.26720000  0.78060000  1.0 -0.0803872246
C  C93  1  0.21160000  0.68240000  0.22570000  1.0 -0.1424947379
C  C94  1  0.78840000  0.31760000  0.77430000  1.0 -0.1424947379
C  C95  1  0.07370000  0.82950000  0.14930000  1.0 0.5364685954
C  C96  1  0.92630000  0.17050000  0.85070000  1.0 0.5364685954
C  C97  1  0.54700000  0.46470000  0.34670000  1.0 0.0923458399
C  C98  1  0.45300000  0.53530000  0.65330000  1.0 0.0923458399
C  C99  1  0.55300000  0.46480000  0.42250000  1.0 -0.1145570575
C  C100  1  0.44700000  0.53520000  0.57750000  1.0 -0.1145570575
C  C101  1  0.49660000  0.49940000  0.45894000  1.0 0.1382137115
C  C102  1  0.50340000  0.50060000  0.54106000  1.0 0.1382137115
C  C103  1  0.43410000  0.53380000  0.41950000  1.0 -0.1167754976
C  C104  1  0.56590000  0.46620000  0.58050000  1.0 -0.1167754976
C  C105  1  0.42800000  0.53370000  0.34370000  1.0 0.0923458399
C  C106  1  0.57200000  0.46630000  0.65630000  1.0 0.0952748807
N  N1  1  0.47190000  0.38130000  0.17370000  1.0 -0.361761242
N  N2  1  0.52810000  0.61870000  0.82630000  1.0 -0.361761242
N  N3  1  0.60050000  0.51390000  0.17990000  1.0 -0.361761242
N  N4  1  0.39950000  0.48610000  0.82010000  1.0 -0.361761242
N  N5  1  0.47430000  0.61640000  0.17710000  1.0 -0.361761242
N  N6  1  0.52570000  0.38360000  0.82290000  1.0 -0.361761242
N  N7  1  0.34570000  0.48440000  0.17470000  1.0 -0.346311569
N  N8  1  0.65430000  0.51560000  0.82530000  1.0 -0.346311569
N  N9  1  0.48450000  0.49920000  0.30725000  1.0 -0.2310134245
N  N10  1  0.51550000  0.50080000  0.69275000  1.0 -0.2310134245
O  O1  1  0.04530000  0.04850000  0.06710000  1.0 -0.5437095462
O  O2  1  0.95470000  0.95150000  0.93290000  1.0 -0.5437095462
O  O3  1  0.02660000  0.05840000  0.18330000  1.0 -0.3802512585
O  O4  1  0.97340000  0.94160000  0.81670000  1.0 -0.3802512585
O  O5  1  0.88290000  0.15190000  0.07780000  1.0 -0.444796562
O  O6  1  0.11710000  0.84810000  0.92220000  1.0 -0.444796562
O  O7  1  0.91110000  0.15210000  0.20220000  1.0 -0.1894226271
O  O8  1  0.08890000  0.84790000  0.79780000  1.0 -0.1894226271
O  O9  1  0.85260000  0.97060000  0.09000000  1.0 -0.4991149007
O  O10  1  0.14740000  0.02940000  0.91000000  1.0 -0.4991149007
O  O11  1  0.92920000  0.93710000  0.18840000  1.0 -0.346311569
O  O12  1  0.07080000  0.06290000  0.81160000  1.0 -0.346311569
O  O13  1  0.05910000  0.86610000  0.09570000  1.0 -0.4869883059
O  O14  1  0.94090000  0.13390000  0.90430000  1.0 -0.4869883059
O  O15  1  0.03280000  0.83250000  0.20880000  1.0 -0.4062107502
O  O16  1  0.96720000  0.16750000  0.79120000  1.0 -0.4062107502
O  O17  1  0.83990000  0.09970000  0.17640000  1.0 -0.0987850277
O  O18  1  0.16010000  0.90030000  0.82360000  1.0 -0.0987850277
