# DDEC6 charges by PACMAN v1.1 (https://github.com/mtap-research/PACMAN-charge/)
data_LOJNAA_FSR_pacman
_symmetry_space_group_name_H-M   'P 1'
_cell_length_a   18.57700000
_cell_length_b   20.12500000
_cell_length_c   20.89500000
_cell_angle_alpha   90.00000000
_cell_angle_beta   90.00000000
_cell_angle_gamma   90.00000000
_symmetry_Int_Tables_number   1
_chemical_formula_structural   Ni2Mo5P2H49C48(NO)24
_chemical_formula_sum   'Ni8 Mo20 P8 H196 C192 N96 O96'
_cell_volume   7811.84910188
_cell_formula_units_Z   4
loop_
 _symmetry_equiv_pos_site_id
 _symmetry_equiv_pos_as_xyz
  1  'x, y, z'
loop_
 _atom_site_type_symbol
 _atom_site_label
 _atom_site_symmetry_multiplicity
 _atom_site_fract_x
 _atom_site_fract_y
 _atom_site_fract_z
 _atom_site_occupancy
 _atom_site_charge
Ni  Ni1  1  0.54969000  0.64203000  0.81292000  1.0 0.8297153452
Ni  Ni2  1  0.95031000  0.35797000  0.31292000  1.0 0.8297153452
Ni  Ni3  1  0.04969000  0.85797000  0.18708000  1.0 0.8297153452
Ni  Ni4  1  0.45031000  0.14203000  0.68708000  1.0 0.8297153452
Ni  Ni5  1  0.71964000  0.00815000  0.98713000  1.0 0.7792061457
Ni  Ni6  1  0.78036000  0.99185000  0.48713000  1.0 0.7792061457
Ni  Ni7  1  0.21964000  0.49185000  0.01287000  1.0 0.7792061457
Ni  Ni8  1  0.28036000  0.50815000  0.51287000  1.0 0.7792061457
Mo  Mo1  1  0.66824000  0.79407000  0.82108000  1.0 2.1413533663
Mo  Mo2  1  0.83176000  0.20593000  0.32108000  1.0 2.1413533663
Mo  Mo3  1  0.16824000  0.70593000  0.17892000  1.0 2.1484590724
Mo  Mo4  1  0.33176000  0.29407000  0.67892000  1.0 2.1413533663
Mo  Mo5  1  0.68693000  0.79047000  0.65863000  1.0 2.1413533663
Mo  Mo6  1  0.81307000  0.20953000  0.15863000  1.0 2.1413533663
Mo  Mo7  1  0.18693000  0.70953000  0.34137000  1.0 2.1413533663
Mo  Mo8  1  0.31307000  0.29047000  0.84137000  1.0 2.1413533663
Mo  Mo9  1  0.63483000  0.93784000  0.59863000  1.0 2.1484590724
Mo  Mo10  1  0.86517000  0.06216000  0.09863000  1.0 2.1484590724
Mo  Mo11  1  0.13483000  0.56216000  0.40137000  1.0 2.1484590724
Mo  Mo12  1  0.36517000  0.43784000  0.90137000  1.0 2.1484590724
Mo  Mo13  1  0.60750000  0.04602000  0.72409000  1.0 2.1296108255
Mo  Mo14  1  0.89250000  0.95398000  0.22409000  1.0 2.1296108255
Mo  Mo15  1  0.10750000  0.45398000  0.27591000  1.0 2.1296108255
Mo  Mo16  1  0.39250000  0.54602000  0.77591000  1.0 2.1296108255
Mo  Mo17  1  0.59104000  0.94139000  0.86260000  1.0 2.1484590724
Mo  Mo18  1  0.90896000  0.05861000  0.36260000  1.0 2.1484590724
Mo  Mo19  1  0.09104000  0.55861000  0.13740000  1.0 2.1484590724
Mo  Mo20  1  0.40896000  0.44139000  0.63740000  1.0 2.1484590724
P  P1  1  0.73136000  0.93130000  0.74439000  1.0 1.5483241567
P  P2  1  0.76864000  0.06870000  0.24439000  1.0 1.5483241567
P  P3  1  0.23136000  0.56870000  0.25561000  1.0 1.5483241567
P  P4  1  0.26864000  0.43130000  0.75561000  1.0 1.5483241567
P  P5  1  0.53961000  0.87730000  0.72347000  1.0 1.5596488604
P  P6  1  0.96039000  0.12270000  0.22347000  1.0 1.5596488604
P  P7  1  0.03961000  0.62270000  0.27653000  1.0 1.5596488604
P  P8  1  0.46039000  0.37730000  0.77653000  1.0 1.5596488604
H  H1  1  0.68530000  0.63580000  0.90620000  1.0 0.1103120348
H  H2  1  0.81470000  0.36420000  0.40620000  1.0 0.1103120348
H  H3  1  0.18530000  0.86420000  0.09380000  1.0 0.1103120348
H  H4  1  0.31470000  0.13580000  0.59380000  1.0 0.1103120348
H  H5  1  0.52080000  0.52520000  0.91790000  1.0 0.1396741171
H  H6  1  0.97920000  0.47480000  0.41790000  1.0 0.1396741171
H  H7  1  0.02080000  0.97480000  0.08210000  1.0 0.1396741171
H  H8  1  0.47920000  0.02520000  0.58210000  1.0 0.1396741171
H  H9  1  0.61520000  0.47930000  0.05660000  1.0 0.1396741171
H  H10  1  0.88480000  0.52070000  0.55660000  1.0 0.1396741171
H  H11  1  0.11520000  0.02070000  0.94340000  1.0 0.1396741171
H  H12  1  0.38480000  0.97930000  0.44340000  1.0 0.1396741171
H  H13  1  0.55500000  0.44950000  0.01230000  1.0 0.1396741171
H  H14  1  0.94500000  0.55050000  0.51230000  1.0 0.1396741171
H  H15  1  0.05500000  0.05050000  0.98770000  1.0 0.1396741171
H  H16  1  0.44500000  0.94950000  0.48770000  1.0 0.1396741171
H  H17  1  0.71220000  0.40870000  0.07070000  1.0 0.1299289884
H  H18  1  0.78780000  0.59130000  0.57070000  1.0 0.1299289884
H  H19  1  0.21220000  0.09130000  0.92930000  1.0 0.1299289884
H  H20  1  0.28780000  0.90870000  0.42930000  1.0 0.1299289884
H  H21  1  0.78830000  0.32870000  0.03630000  1.0 0.1299289884
H  H22  1  0.71170000  0.67130000  0.53630000  1.0 0.1299289884
H  H23  1  0.28830000  0.17130000  0.96370000  1.0 0.1299289884
H  H24  1  0.21170000  0.82870000  0.46370000  1.0 0.1299289884
H  H25  1  0.68360000  0.32020000  0.86750000  1.0 0.1299289884
H  H26  1  0.81640000  0.67980000  0.36750000  1.0 0.1299289884
H  H27  1  0.18360000  0.17980000  0.13250000  1.0 0.1299289884
H  H28  1  0.31640000  0.82020000  0.63250000  1.0 0.1299289884
H  H29  1  0.60910000  0.40330000  0.90720000  1.0 0.1299289884
H  H30  1  0.89090000  0.59670000  0.40720000  1.0 0.1299289884
H  H31  1  0.10910000  0.09670000  0.09280000  1.0 0.1299289884
H  H32  1  0.39090000  0.90330000  0.59280000  1.0 0.1299289884
H  H33  1  0.81710000  0.27950000  0.88400000  1.0 0.1206931754
H  H34  1  0.68290000  0.72050000  0.38400000  1.0 0.1206931754
H  H35  1  0.31710000  0.22050000  0.11600000  1.0 0.1206931754
H  H36  1  0.18290000  0.77950000  0.61600000  1.0 0.1206931754
H  H37  1  0.83770000  0.26330000  0.95500000  1.0 0.1299289884
H  H38  1  0.66230000  0.73670000  0.45500000  1.0 0.1299289884
H  H39  1  0.33770000  0.23670000  0.04500000  1.0 0.1299289884
H  H40  1  0.16230000  0.76330000  0.54500000  1.0 0.1299289884
H  H41  1  0.70810000  0.08360000  0.84680000  1.0 0.1299289884
H  H42  1  0.79190000  0.91640000  0.34680000  1.0 0.1299289884
H  H43  1  0.20810000  0.41640000  0.15320000  1.0 0.1299289884
H  H44  1  0.29190000  0.58360000  0.65320000  1.0 0.1299289884
H  H45  1  0.76180000  0.16070000  0.00540000  1.0 0.1396741171
H  H46  1  0.73820000  0.83930000  0.50540000  1.0 0.1396741171
H  H47  1  0.26180000  0.33930000  0.99460000  1.0 0.1396741171
H  H48  1  0.23820000  0.66070000  0.49460000  1.0 0.1396741171
H  H49  1  0.49790000  0.78910000  0.85710000  1.0 0.1498021168
H  H50  1  0.00210000  0.21090000  0.35710000  1.0 0.1498021168
H  H51  1  0.99790000  0.71090000  0.14290000  1.0 0.1498021168
H  H52  1  0.50210000  0.28910000  0.64290000  1.0 0.1498021168
H  H53  1  0.40360000  0.62630000  0.90200000  1.0 0.1103120348
H  H54  1  0.09640000  0.37370000  0.40200000  1.0 0.1103120348
H  H55  1  0.90360000  0.87370000  0.09800000  1.0 0.1103120348
H  H56  1  0.59640000  0.12630000  0.59800000  1.0 0.1103120348
H  H57  1  0.34100000  0.84320000  0.93310000  1.0 0.1299289884
H  H58  1  0.15900000  0.15680000  0.43310000  1.0 0.1299289884
H  H59  1  0.84100000  0.65680000  0.06690000  1.0 0.1299289884
H  H60  1  0.65900000  0.34320000  0.56690000  1.0 0.1299289884
H  H61  1  0.41720000  0.87120000  0.91490000  1.0 0.1498021168
H  H62  1  0.08280000  0.12880000  0.41490000  1.0 0.1498021168
H  H63  1  0.91720000  0.62880000  0.08510000  1.0 0.1498021168
H  H64  1  0.58280000  0.37120000  0.58510000  1.0 0.1498021168
H  H65  1  0.31380000  0.81260000  0.04390000  1.0 0.1206931754
H  H66  1  0.18620000  0.18740000  0.54390000  1.0 0.1206931754
H  H67  1  0.81380000  0.68740000  0.95610000  1.0 0.1206931754
H  H68  1  0.68620000  0.31260000  0.45610000  1.0 0.1206931754
H  H69  1  0.33450000  0.83550000  0.15000000  1.0 0.1299289884
H  H70  1  0.16550000  0.16450000  0.65000000  1.0 0.1299289884
H  H71  1  0.83450000  0.66450000  0.85000000  1.0 0.1299289884
H  H72  1  0.66550000  0.33550000  0.35000000  1.0 0.1299289884
H  H73  1  0.53890000  0.88360000  0.10730000  1.0 0.1206931754
H  H74  1  0.96110000  0.11640000  0.60730000  1.0 0.1206931754
H  H75  1  0.03890000  0.61640000  0.89270000  1.0 0.1206931754
H  H76  1  0.46110000  0.38360000  0.39270000  1.0 0.1206931754
H  H77  1  0.51170000  0.87840000  0.99940000  1.0 0.1206931754
H  H78  1  0.98830000  0.12160000  0.49940000  1.0 0.1206931754
H  H79  1  0.01170000  0.62160000  0.00060000  1.0 0.1206931754
H  H80  1  0.48830000  0.37840000  0.50060000  1.0 0.1206931754
H  H81  1  0.41220000  0.89720000  0.22530000  1.0 0.1299289884
H  H82  1  0.08780000  0.10280000  0.72530000  1.0 0.1299289884
H  H83  1  0.91220000  0.60280000  0.77470000  1.0 0.1299289884
H  H84  1  0.58780000  0.39720000  0.27470000  1.0 0.1299289884
H  H85  1  0.45420000  0.82980000  0.22900000  1.0 0.1396741171
H  H86  1  0.04580000  0.17020000  0.72900000  1.0 0.1396741171
H  H87  1  0.95420000  0.67020000  0.77100000  1.0 0.1396741171
H  H88  1  0.54580000  0.32980000  0.27100000  1.0 0.1396741171
H  H89  1  0.67220000  0.90890000  0.25390000  1.0 0.1299289884
H  H90  1  0.82780000  0.09110000  0.75390000  1.0 0.1299289884
H  H91  1  0.17220000  0.59110000  0.74610000  1.0 0.1299289884
H  H92  1  0.32780000  0.40890000  0.24610000  1.0 0.1299289884
H  H93  1  0.50630000  0.00660000  0.21130000  1.0 0.1299289884
H  H94  1  0.99370000  0.99340000  0.71130000  1.0 0.1299289884
H  H95  1  0.00630000  0.49340000  0.78870000  1.0 0.1299289884
H  H96  1  0.49370000  0.50660000  0.28870000  1.0 0.1299289884
H  H97  1  0.04660000  0.47440000  0.01610000  1.0 0.1299289884
H  H98  1  0.45340000  0.52560000  0.51610000  1.0 0.1299289884
H  H99  1  0.54660000  0.02560000  0.98390000  1.0 0.1299289884
H  H100  1  0.95340000  0.97440000  0.48390000  1.0 0.1299289884
H  H101  1  0.17320000  0.40980000  0.88290000  1.0 0.1396741171
H  H102  1  0.32680000  0.59020000  0.38290000  1.0 0.1396741171
H  H103  1  0.67320000  0.09020000  0.11710000  1.0 0.1396741171
H  H104  1  0.82680000  0.90980000  0.61710000  1.0 0.1396741171
H  H105  1  0.92990000  0.41070000  0.98280000  1.0 0.1396741171
H  H106  1  0.57010000  0.58930000  0.48280000  1.0 0.1396741171
H  H107  1  0.42990000  0.08930000  0.01720000  1.0 0.1396741171
H  H108  1  0.07010000  0.91070000  0.51720000  1.0 0.1396741171
H  H109  1  0.94830000  0.34650000  0.94430000  1.0 0.1299289884
H  H110  1  0.55170000  0.65350000  0.44430000  1.0 0.1299289884
H  H111  1  0.44830000  0.15350000  0.05570000  1.0 0.1299289884
H  H112  1  0.05170000  0.84650000  0.55570000  1.0 0.1299289884
H  H113  1  0.86040000  0.49520000  0.93360000  1.0 0.1299289884
H  H114  1  0.63960000  0.50480000  0.43360000  1.0 0.1299289884
H  H115  1  0.36040000  0.00480000  0.06640000  1.0 0.1299289884
H  H116  1  0.13960000  0.99520000  0.56640000  1.0 0.1299289884
H  H117  1  0.77130000  0.50920000  0.85950000  1.0 0.1206931754
H  H118  1  0.72870000  0.49080000  0.35950000  1.0 0.1206931754
H  H119  1  0.27130000  0.99080000  0.14050000  1.0 0.1206931754
H  H120  1  0.22870000  0.00920000  0.64050000  1.0 0.1206931754
H  H121  1  0.85420000  0.36830000  0.75410000  1.0 0.1299289884
H  H122  1  0.64580000  0.63170000  0.25410000  1.0 0.1299289884
H  H123  1  0.35420000  0.13170000  0.24590000  1.0 0.1299289884
H  H124  1  0.14580000  0.86830000  0.74590000  1.0 0.1299289884
H  H125  1  0.94370000  0.35450000  0.82600000  1.0 0.1206931754
H  H126  1  0.55630000  0.64550000  0.32600000  1.0 0.1206931754
H  H127  1  0.44370000  0.14550000  0.17400000  1.0 0.1206931754
H  H128  1  0.05630000  0.85450000  0.67400000  1.0 0.1206931754
H  H129  1  0.70650000  0.40820000  0.76760000  1.0 0.1498021168
H  H130  1  0.79350000  0.59180000  0.26760000  1.0 0.1498021168
H  H131  1  0.20650000  0.09180000  0.23240000  1.0 0.1498021168
H  H132  1  0.29350000  0.90820000  0.73240000  1.0 0.1498021168
H  H133  1  0.76010000  0.43020000  0.71430000  1.0 0.1299289884
H  H134  1  0.73990000  0.56980000  0.21430000  1.0 0.1299289884
H  H135  1  0.26010000  0.06980000  0.28570000  1.0 0.1299289884
H  H136  1  0.23990000  0.93020000  0.78570000  1.0 0.1299289884
H  H137  1  0.59200000  0.49430000  0.76680000  1.0 0.1498021168
H  H138  1  0.90800000  0.50570000  0.26680000  1.0 0.1498021168
H  H139  1  0.09200000  0.00570000  0.23320000  1.0 0.1498021168
H  H140  1  0.40800000  0.99430000  0.73320000  1.0 0.1498021168
H  H141  1  0.71090000  0.64990000  0.74960000  1.0 0.1206931754
H  H142  1  0.78910000  0.35010000  0.24960000  1.0 0.1206931754
H  H143  1  0.21090000  0.85010000  0.25040000  1.0 0.1206931754
H  H144  1  0.28910000  0.14990000  0.75040000  1.0 0.1206931754
H  H145  1  0.73720000  0.93850000  0.12690000  1.0 0.1299289884
H  H146  1  0.76280000  0.06150000  0.62690000  1.0 0.1299289884
H  H147  1  0.23720000  0.56150000  0.87310000  1.0 0.1299289884
H  H148  1  0.26280000  0.43850000  0.37310000  1.0 0.1299289884
H  H149  1  0.67650000  0.84990000  0.97480000  1.0 0.1299289884
H  H150  1  0.82350000  0.15010000  0.47480000  1.0 0.1299289884
H  H151  1  0.17650000  0.65010000  0.02520000  1.0 0.1299289884
H  H152  1  0.32350000  0.34990000  0.52520000  1.0 0.1299289884
H  H153  1  0.72670000  0.72170000  0.07970000  1.0 0.1299289884
H  H154  1  0.77330000  0.27830000  0.57970000  1.0 0.1299289884
H  H155  1  0.22670000  0.77830000  0.92030000  1.0 0.1299289884
H  H156  1  0.27330000  0.22170000  0.42030000  1.0 0.1299289884
H  H157  1  0.69520000  0.73000000  0.01060000  1.0 0.1299289884
H  H158  1  0.80480000  0.27000000  0.51060000  1.0 0.1299289884
H  H159  1  0.19520000  0.77000000  0.98940000  1.0 0.1299289884
H  H160  1  0.30480000  0.23000000  0.48940000  1.0 0.1299289884
H  H161  1  0.56880000  0.71330000  0.99450000  1.0 0.1206931754
H  H162  1  0.93120000  0.28670000  0.49450000  1.0 0.1206931754
H  H163  1  0.06880000  0.78670000  0.00550000  1.0 0.1206931754
H  H164  1  0.43120000  0.21330000  0.50550000  1.0 0.1206931754
H  H165  1  0.46300000  0.66460000  0.02920000  1.0 0.1206931754
H  H166  1  0.03700000  0.33540000  0.52920000  1.0 0.1206931754
H  H167  1  0.96300000  0.83540000  0.97080000  1.0 0.1206931754
H  H168  1  0.53700000  0.16460000  0.47080000  1.0 0.1206931754
H  H169  1  0.52770000  0.69380000  0.20790000  1.0 0.1206931754
H  H170  1  0.97230000  0.30620000  0.70790000  1.0 0.1206931754
H  H171  1  0.02770000  0.80620000  0.79210000  1.0 0.1206931754
H  H172  1  0.47230000  0.19380000  0.29210000  1.0 0.1206931754
H  H173  1  0.63230000  0.73830000  0.17300000  1.0 0.1299289884
H  H174  1  0.86770000  0.26170000  0.67300000  1.0 0.1299289884
H  H175  1  0.13230000  0.76170000  0.82700000  1.0 0.1299289884
H  H176  1  0.36770000  0.23830000  0.32700000  1.0 0.1299289884
H  H177  1  0.41660000  0.63910000  0.19310000  1.0 0.1396741171
H  H178  1  0.08340000  0.36090000  0.69310000  1.0 0.1396741171
H  H179  1  0.91660000  0.86090000  0.80690000  1.0 0.1396741171
H  H180  1  0.58340000  0.13910000  0.30690000  1.0 0.1396741171
H  H181  1  0.37840000  0.68660000  0.14450000  1.0 0.1396741171
H  H182  1  0.12160000  0.31340000  0.64450000  1.0 0.1396741171
H  H183  1  0.87840000  0.81340000  0.85550000  1.0 0.1396741171
H  H184  1  0.62160000  0.18660000  0.35550000  1.0 0.1396741171
H  H185  1  0.28770000  0.62470000  0.08270000  1.0 0.1299289884
H  H186  1  0.21230000  0.37530000  0.58270000  1.0 0.1299289884
H  H187  1  0.78770000  0.87530000  0.91730000  1.0 0.1299289884
H  H188  1  0.71230000  0.12470000  0.41730000  1.0 0.1299289884
H  H189  1  0.38030000  0.45100000  0.06950000  1.0 0.1206931754
H  H190  1  0.11970000  0.54900000  0.56950000  1.0 0.1206931754
H  H191  1  0.88030000  0.04900000  0.93050000  1.0 0.1206931754
H  H192  1  0.61970000  0.95100000  0.43050000  1.0 0.1206931754
H  H193  1  0.62870000  0.01560000  0.23500000  1.0 0.3158455381
H  H194  1  0.87130000  0.98440000  0.73500000  1.0 0.3158455381
H  H195  1  0.12870000  0.48440000  0.76500000  1.0 0.3158455381
H  H196  1  0.37130000  0.51560000  0.26500000  1.0 0.3158455381
C  C1  1  0.65280000  0.60420000  0.92090000  1.0 0.1498021168
C  C2  1  0.84720000  0.39580000  0.42090000  1.0 0.1498021168
C  C3  1  0.15280000  0.89580000  0.07910000  1.0 0.1498021168
C  C4  1  0.34720000  0.10420000  0.57910000  1.0 0.1498021168
C  C5  1  0.56460000  0.54570000  0.92660000  1.0 0.1103120348
C  C6  1  0.93540000  0.45430000  0.42660000  1.0 0.1103120348
C  C7  1  0.06460000  0.95430000  0.07340000  1.0 0.1103120348
C  C8  1  0.43540000  0.04570000  0.57340000  1.0 0.1103120348
C  C9  1  0.60370000  0.46690000  0.01290000  1.0 -0.1809724642
C  C10  1  0.89630000  0.53310000  0.51290000  1.0 -0.1809724642
C  C11  1  0.10370000  0.03310000  0.98710000  1.0 -0.1809724642
C  C12  1  0.39630000  0.96690000  0.48710000  1.0 -0.1809724642
C  C13  1  0.65490000  0.41450000  0.99060000  1.0 0.0812330461
C  C14  1  0.84510000  0.58550000  0.49060000  1.0 0.0812330461
C  C15  1  0.15490000  0.08550000  0.00940000  1.0 0.0812330461
C  C16  1  0.34510000  0.91450000  0.50940000  1.0 0.0812330461
C  C17  1  0.70710000  0.39130000  0.02970000  1.0 -0.1223106476
C  C18  1  0.79290000  0.60870000  0.52970000  1.0 -0.1223106476
C  C19  1  0.20710000  0.10870000  0.97030000  1.0 -0.1223106476
C  C20  1  0.29290000  0.89130000  0.47030000  1.0 -0.1223106476
C  C21  1  0.75160000  0.34360000  0.00960000  1.0 -0.140977317
C  C22  1  0.74840000  0.65640000  0.50960000  1.0 -0.140977317
C  C23  1  0.25160000  0.15640000  0.99040000  1.0 -0.140977317
C  C24  1  0.24840000  0.84360000  0.49040000  1.0 -0.140977317
C  C25  1  0.74330000  0.31560000  0.94820000  1.0 0.0897198103
C  C26  1  0.75670000  0.68440000  0.44820000  1.0 0.0897198103
C  C27  1  0.24330000  0.18440000  0.05180000  1.0 0.0897198103
C  C28  1  0.25670000  0.81560000  0.55180000  1.0 0.0897198103
C  C29  1  0.69020000  0.33760000  0.90830000  1.0 -0.140977317
C  C30  1  0.80980000  0.66240000  0.40830000  1.0 -0.140977317
C  C31  1  0.19020000  0.16240000  0.09170000  1.0 -0.140977317
C  C32  1  0.30980000  0.83760000  0.59170000  1.0 -0.140977317
C  C33  1  0.64640000  0.38760000  0.93270000  1.0 -0.140977317
C  C34  1  0.85360000  0.61240000  0.43270000  1.0 -0.140977317
C  C35  1  0.14640000  0.11240000  0.06730000  1.0 -0.1333922199
C  C36  1  0.35360000  0.88760000  0.56730000  1.0 -0.140977317
C  C37  1  0.79800000  0.26470000  0.92480000  1.0 -0.1973699441
C  C38  1  0.70200000  0.73530000  0.42480000  1.0 -0.1973699441
C  C39  1  0.29800000  0.23530000  0.07520000  1.0 -0.1973699441
C  C40  1  0.20200000  0.76470000  0.57520000  1.0 -0.1973699441
C  C41  1  0.72770000  0.11250000  0.87690000  1.0 0.1697454137
C  C42  1  0.77230000  0.88750000  0.37690000  1.0 0.1697454137
C  C43  1  0.22770000  0.38750000  0.12310000  1.0 0.1697454137
C  C44  1  0.27230000  0.61250000  0.62310000  1.0 0.1697454137
C  C45  1  0.75530000  0.15230000  0.96200000  1.0 0.1007549879
C  C46  1  0.74470000  0.84770000  0.46200000  1.0 0.1007549879
C  C47  1  0.25530000  0.34770000  0.03800000  1.0 0.1007549879
C  C48  1  0.24470000  0.65230000  0.53800000  1.0 0.1007549879
C  C49  1  0.46740000  0.75770000  0.87530000  1.0 0.1103120348
C  C50  1  0.03260000  0.24230000  0.37530000  1.0 0.1103120348
C  C51  1  0.96740000  0.74230000  0.12470000  1.0 0.1103120348
C  C52  1  0.53260000  0.25770000  0.62470000  1.0 0.1103120348
C  C53  1  0.41570000  0.67110000  0.90050000  1.0 0.1396741171
C  C54  1  0.08430000  0.32890000  0.40050000  1.0 0.1396741171
C  C55  1  0.91570000  0.82890000  0.09950000  1.0 0.1396741171
C  C56  1  0.58430000  0.17110000  0.59950000  1.0 0.1396741171
C  C57  1  0.39230000  0.83710000  0.93920000  1.0 -0.1973699441
C  C58  1  0.10770000  0.16290000  0.43920000  1.0 -0.1973699441
C  C59  1  0.89230000  0.66290000  0.06080000  1.0 -0.1973699441
C  C60  1  0.60770000  0.33710000  0.56080000  1.0 -0.1973699441
C  C61  1  0.40990000  0.84430000  0.00810000  1.0 0.1007549879
C  C62  1  0.09010000  0.15570000  0.50810000  1.0 0.1007549879
C  C63  1  0.90990000  0.65570000  0.99190000  1.0 0.1007549879
C  C64  1  0.59010000  0.34430000  0.49190000  1.0 0.1007549879
C  C65  1  0.35800000  0.83010000  0.05610000  1.0 -0.140977317
C  C66  1  0.14200000  0.16990000  0.55610000  1.0 -0.140977317
C  C67  1  0.85800000  0.66990000  0.94390000  1.0 -0.140977317
C  C68  1  0.64200000  0.33010000  0.44390000  1.0 -0.140977317
C  C69  1  0.37070000  0.84140000  0.11980000  1.0 -0.151255311
C  C70  1  0.12930000  0.15860000  0.61980000  1.0 -0.151255311
C  C71  1  0.87070000  0.65860000  0.88020000  1.0 -0.151255311
C  C72  1  0.62930000  0.34140000  0.38020000  1.0 -0.151255311
C  C73  1  0.44090000  0.86250000  0.13860000  1.0 0.0897198103
C  C74  1  0.05910000  0.13750000  0.63860000  1.0 0.0897198103
C  C75  1  0.94090000  0.63750000  0.86140000  1.0 0.0897198103
C  C76  1  0.55910000  0.36250000  0.36140000  1.0 0.0897198103
C  C77  1  0.49250000  0.87270000  0.09430000  1.0 -0.151255311
C  C78  1  0.00750000  0.12730000  0.59430000  1.0 -0.151255311
C  C79  1  0.99250000  0.62730000  0.90570000  1.0 -0.151255311
C  C80  1  0.50750000  0.37270000  0.40570000  1.0 -0.151255311
C  C81  1  0.47680000  0.86690000  0.02930000  1.0 -0.151255311
C  C82  1  0.02320000  0.13310000  0.52930000  1.0 -0.151255311
C  C83  1  0.97680000  0.63310000  0.97070000  1.0 -0.151255311
C  C84  1  0.52320000  0.36690000  0.47070000  1.0 -0.151255311
C  C85  1  0.45260000  0.87270000  0.20780000  1.0 -0.1871410347
C  C86  1  0.04740000  0.12730000  0.70780000  1.0 -0.1871410347
C  C87  1  0.95260000  0.62730000  0.79220000  1.0 -0.1871410347
C  C88  1  0.54740000  0.37270000  0.29220000  1.0 -0.1871410347
C  C89  1  0.62430000  0.91820000  0.24470000  1.0 0.1787791082
C  C90  1  0.87570000  0.08180000  0.74470000  1.0 0.1787791082
C  C91  1  0.12430000  0.58180000  0.75530000  1.0 0.1787791082
C  C92  1  0.37570000  0.41820000  0.25530000  1.0 0.1787791082
C  C93  1  0.53780000  0.97200000  0.22050000  1.0 0.0500780029
C  C94  1  0.96220000  0.02800000  0.72050000  1.0 0.0500780029
C  C95  1  0.03780000  0.52800000  0.77950000  1.0 0.0500780029
C  C96  1  0.46220000  0.47200000  0.27950000  1.0 0.0500780029
C  C97  1  0.06490000  0.45210000  0.98060000  1.0 0.1103120348
C  C98  1  0.43510000  0.54790000  0.48060000  1.0 0.1103120348
C  C99  1  0.56490000  0.04790000  0.01940000  1.0 0.1103120348
C  C100  1  0.93510000  0.95210000  0.51940000  1.0 0.1103120348
C  C101  1  0.13200000  0.41670000  0.90740000  1.0 0.1498021168
C  C102  1  0.36800000  0.58330000  0.40740000  1.0 0.1498021168
C  C103  1  0.63200000  0.08330000  0.09260000  1.0 0.1498021168
C  C104  1  0.86800000  0.91670000  0.59260000  1.0 0.1498021168
C  C105  1  0.94990000  0.39460000  0.94280000  1.0 -0.1871410347
C  C106  1  0.55010000  0.60540000  0.44280000  1.0 -0.1871410347
C  C107  1  0.44990000  0.10540000  0.05720000  1.0 -0.1871410347
C  C108  1  0.05010000  0.89460000  0.55720000  1.0 -0.1871410347
C  C109  1  0.90210000  0.41670000  0.89060000  1.0 0.0644214304
C  C110  1  0.59790000  0.58330000  0.39060000  1.0 0.0644214304
C  C111  1  0.40210000  0.08330000  0.10940000  1.0 0.0644214304
C  C112  1  0.09790000  0.91670000  0.60940000  1.0 0.0644214304
C  C113  1  0.85670000  0.46700000  0.89850000  1.0 -0.140977317
C  C114  1  0.64330000  0.53300000  0.39850000  1.0 -0.140977317
C  C115  1  0.35670000  0.03300000  0.10150000  1.0 -0.140977317
C  C116  1  0.14330000  0.96700000  0.60150000  1.0 -0.140977317
C  C117  1  0.80540000  0.47570000  0.85410000  1.0 -0.1333922199
C  C118  1  0.69460000  0.52430000  0.35410000  1.0 -0.1333922199
C  C119  1  0.30540000  0.02430000  0.14590000  1.0 -0.1333922199
C  C120  1  0.19460000  0.97570000  0.64590000  1.0 -0.1333922199
C  C121  1  0.80270000  0.43760000  0.80320000  1.0 0.0897198103
C  C122  1  0.69730000  0.56240000  0.30320000  1.0 0.0897198103
C  C123  1  0.30270000  0.06240000  0.19680000  1.0 0.0897198103
C  C124  1  0.19730000  0.93760000  0.69680000  1.0 0.0897198103
C  C125  1  0.85450000  0.39270000  0.79190000  1.0 -0.151255311
C  C126  1  0.64550000  0.60730000  0.29190000  1.0 -0.151255311
C  C127  1  0.35450000  0.10730000  0.20810000  1.0 -0.151255311
C  C128  1  0.14550000  0.89270000  0.70810000  1.0 -0.151255311
C  C129  1  0.90580000  0.38340000  0.83440000  1.0 -0.151255311
C  C130  1  0.59420000  0.61660000  0.33440000  1.0 -0.151255311
C  C131  1  0.40580000  0.11660000  0.16560000  1.0 -0.151255311
C  C132  1  0.09420000  0.88340000  0.66560000  1.0 -0.151255311
C  C133  1  0.74100000  0.44220000  0.75600000  1.0 -0.1871410347
C  C134  1  0.75900000  0.55780000  0.25600000  1.0 -0.1871410347
C  C135  1  0.24100000  0.05780000  0.24400000  1.0 -0.1871410347
C  C136  1  0.25900000  0.94220000  0.74400000  1.0 -0.1871410347
C  C137  1  0.63070000  0.52310000  0.76140000  1.0 0.0812330461
C  C138  1  0.86930000  0.47690000  0.26140000  1.0 0.0812330461
C  C139  1  0.13070000  0.97690000  0.23860000  1.0 0.0812330461
C  C140  1  0.36930000  0.02310000  0.73860000  1.0 0.0812330461
C  C141  1  0.69670000  0.60560000  0.74960000  1.0 0.1787791082
C  C142  1  0.80330000  0.39440000  0.24960000  1.0 0.1787791082
C  C143  1  0.19670000  0.89440000  0.25040000  1.0 0.1787791082
C  C144  1  0.30330000  0.10560000  0.75040000  1.0 0.1787791082
C  C145  1  0.72390000  0.90540000  0.09830000  1.0 0.1611180046
C  C146  1  0.77610000  0.09460000  0.59830000  1.0 0.1611180046
C  C147  1  0.22390000  0.59460000  0.90170000  1.0 0.1611180046
C  C148  1  0.27610000  0.40540000  0.40170000  1.0 0.1611180046
C  C149  1  0.69180000  0.85870000  0.01630000  1.0 0.1007549879
C  C150  1  0.80820000  0.14130000  0.51630000  1.0 0.1007549879
C  C151  1  0.19180000  0.64130000  0.98370000  1.0 0.1007549879
C  C152  1  0.30820000  0.35870000  0.48370000  1.0 0.1007549879
C  C153  1  0.68910000  0.74320000  0.05500000  1.0 -0.1809724642
C  C154  1  0.81090000  0.25680000  0.55500000  1.0 -0.1809724642
C  C155  1  0.18910000  0.75680000  0.94500000  1.0 -0.1809724642
C  C156  1  0.31090000  0.24320000  0.44500000  1.0 -0.1809724642
C  C157  1  0.61590000  0.71770000  0.07850000  1.0 0.1007549879
C  C158  1  0.88410000  0.28230000  0.57850000  1.0 0.1007549879
C  C159  1  0.11590000  0.78230000  0.92150000  1.0 0.1007549879
C  C160  1  0.38410000  0.21770000  0.42150000  1.0 0.1007549879
C  C161  1  0.56240000  0.70460000  0.03780000  1.0 -0.140977317
C  C162  1  0.93760000  0.29540000  0.53780000  1.0 -0.140977317
C  C163  1  0.06240000  0.79540000  0.96220000  1.0 -0.140977317
C  C164  1  0.43760000  0.20460000  0.46220000  1.0 -0.140977317
C  C165  1  0.49720000  0.67830000  0.05880000  1.0 -0.151255311
C  C166  1  0.00280000  0.32170000  0.55880000  1.0 -0.151255311
C  C167  1  0.99720000  0.82170000  0.94120000  1.0 -0.151255311
C  C168  1  0.50280000  0.17830000  0.44120000  1.0 -0.151255311
C  C169  1  0.48300000  0.67220000  0.12420000  1.0 0.1103120348
C  C170  1  0.01700000  0.32780000  0.62420000  1.0 0.1103120348
C  C171  1  0.98300000  0.82780000  0.87580000  1.0 0.1103120348
C  C172  1  0.51700000  0.17220000  0.37580000  1.0 0.1103120348
C  C173  1  0.53620000  0.69530000  0.16400000  1.0 -0.151255311
C  C174  1  0.96380000  0.30470000  0.66400000  1.0 -0.151255311
C  C175  1  0.03620000  0.80470000  0.83600000  1.0 -0.151255311
C  C176  1  0.46380000  0.19530000  0.33600000  1.0 -0.151255311
C  C177  1  0.59980000  0.72010000  0.14400000  1.0 -0.140977317
C  C178  1  0.90020000  0.27990000  0.64400000  1.0 -0.140977317
C  C179  1  0.09980000  0.77990000  0.85600000  1.0 -0.140977317
C  C180  1  0.40020000  0.22010000  0.35600000  1.0 -0.140977317
C  C181  1  0.41230000  0.65010000  0.14810000  1.0 -0.1871410347
C  C182  1  0.08770000  0.34990000  0.64810000  1.0 -0.1871410347
C  C183  1  0.91230000  0.84990000  0.85190000  1.0 -0.1871410347
C  C184  1  0.58770000  0.15010000  0.35190000  1.0 -0.1871410347
C  C185  1  0.32020000  0.58970000  0.08590000  1.0 0.1007549879
C  C186  1  0.17980000  0.41030000  0.58590000  1.0 0.1007549879
C  C187  1  0.82020000  0.91030000  0.91410000  1.0 0.1007549879
C  C188  1  0.67980000  0.08970000  0.41410000  1.0 0.1007549879
C  C189  1  0.37100000  0.49520000  0.07950000  1.0 0.1396741171
C  C190  1  0.12900000  0.50480000  0.57950000  1.0 0.1396741171
C  C191  1  0.87100000  0.00480000  0.92050000  1.0 0.1396741171
C  C192  1  0.62900000  0.99520000  0.42050000  1.0 0.1396741171
N  N1  1  0.58900000  0.59770000  0.89540000  1.0 -0.3179600647
N  N2  1  0.91100000  0.40230000  0.39540000  1.0 -0.3179600647
N  N3  1  0.08900000  0.90230000  0.10460000  1.0 -0.3179600647
N  N4  1  0.41100000  0.09770000  0.60460000  1.0 -0.3179600647
N  N5  1  0.66890000  0.56410000  0.96800000  1.0 -0.2581862918
N  N6  1  0.83110000  0.43590000  0.46800000  1.0 -0.2581862918
N  N7  1  0.16890000  0.93590000  0.03200000  1.0 -0.2581862918
N  N8  1  0.33110000  0.06410000  0.53200000  1.0 -0.2581862918
N  N9  1  0.60820000  0.52670000  0.97080000  1.0 0.1697454137
N  N10  1  0.89180000  0.47330000  0.47080000  1.0 0.1697454137
N  N11  1  0.10820000  0.97330000  0.02920000  1.0 0.1697454137
N  N12  1  0.39180000  0.02670000  0.52920000  1.0 0.1697454137
N  N13  1  0.73160000  0.09540000  0.93900000  1.0 -0.300077725
N  N14  1  0.76840000  0.90460000  0.43900000  1.0 -0.300077725
N  N15  1  0.23160000  0.40460000  0.06100000  1.0 -0.300077725
N  N16  1  0.26840000  0.59540000  0.56100000  1.0 -0.300077725
N  N17  1  0.75210000  0.17070000  0.85980000  1.0 -0.2449901959
N  N18  1  0.74790000  0.82930000  0.35980000  1.0 -0.2449901959
N  N19  1  0.25210000  0.32930000  0.14020000  1.0 -0.2449901959
N  N20  1  0.24790000  0.67070000  0.64020000  1.0 -0.2449901959
N  N21  1  0.76890000  0.19570000  0.91690000  1.0 0.1787791082
N  N22  1  0.73110000  0.80430000  0.41690000  1.0 0.1787791082
N  N23  1  0.26890000  0.30430000  0.08310000  1.0 0.1787791082
N  N24  1  0.23110000  0.69570000  0.58310000  1.0 0.1787791082
N  N25  1  0.47060000  0.69340000  0.86560000  1.0 -0.300077725
N  N26  1  0.02940000  0.30660000  0.36560000  1.0 -0.300077725
N  N27  1  0.97060000  0.80660000  0.13440000  1.0 -0.300077725
N  N28  1  0.52940000  0.19340000  0.63440000  1.0 -0.300077725
N  N29  1  0.37920000  0.71680000  0.93290000  1.0 -0.2534122354
N  N30  1  0.12080000  0.28320000  0.43290000  1.0 -0.2534122354
N  N31  1  0.87920000  0.78320000  0.06710000  1.0 -0.2534122354
N  N32  1  0.62080000  0.21680000  0.56710000  1.0 -0.2534122354
N  N33  1  0.41370000  0.77070000  0.91550000  1.0 0.1787791082
N  N34  1  0.08630000  0.22930000  0.41550000  1.0 0.1787791082
N  N35  1  0.91370000  0.72930000  0.08450000  1.0 0.1787791082
N  N36  1  0.58630000  0.27070000  0.58450000  1.0 0.1787791082
N  N37  1  0.60380000  0.97960000  0.23370000  1.0 -0.1649507842
N  N38  1  0.89620000  0.02040000  0.73370000  1.0 -0.1649507842
N  N39  1  0.10380000  0.52040000  0.76630000  1.0 -0.1649507842
N  N40  1  0.39620000  0.47960000  0.26630000  1.0 -0.1649507842
N  N41  1  0.57770000  0.87160000  0.24270000  1.0 -0.2581862918
N  N42  1  0.92230000  0.12840000  0.74270000  1.0 -0.2581862918
N  N43  1  0.07770000  0.62840000  0.75730000  1.0 -0.2581862918
N  N44  1  0.42230000  0.37160000  0.25730000  1.0 -0.2581862918
N  N45  1  0.51950000  0.90900000  0.22160000  1.0 0.1299289884
N  N46  1  0.98050000  0.09100000  0.72160000  1.0 0.1299289884
N  N47  1  0.01950000  0.59100000  0.77840000  1.0 0.1299289884
N  N48  1  0.48050000  0.40900000  0.27840000  1.0 0.1299289884
N  N49  1  0.13080000  0.45290000  0.96330000  1.0 -0.2898807524
N  N50  1  0.36920000  0.54710000  0.46330000  1.0 -0.2898807524
N  N51  1  0.63080000  0.04710000  0.03670000  1.0 -0.2898807524
N  N52  1  0.86920000  0.95290000  0.53670000  1.0 -0.2898807524
N  N53  1  0.06810000  0.39310000  0.89260000  1.0 -0.2534122354
N  N54  1  0.43190000  0.60690000  0.39260000  1.0 -0.2534122354
N  N55  1  0.56810000  0.10690000  0.10740000  1.0 -0.2534122354
N  N56  1  0.93190000  0.89310000  0.60740000  1.0 -0.2534122354
N  N57  1  0.02540000  0.41470000  0.94020000  1.0 0.1611180046
N  N58  1  0.47460000  0.58530000  0.44020000  1.0 0.1611180046
N  N59  1  0.52540000  0.08530000  0.05980000  1.0 0.1611180046
N  N60  1  0.97460000  0.91470000  0.55980000  1.0 0.1611180046
N  N61  1  0.62930000  0.58900000  0.76520000  1.0 -0.2818515361
N  N62  1  0.87070000  0.41100000  0.26520000  1.0 -0.2818515361
N  N63  1  0.12930000  0.91100000  0.23480000  1.0 -0.2818515361
N  N64  1  0.37070000  0.08900000  0.73480000  1.0 -0.2818515361
N  N65  1  0.74180000  0.55960000  0.73470000  1.0 -0.2898807524
N  N66  1  0.75820000  0.44040000  0.23470000  1.0 -0.2898807524
N  N67  1  0.24180000  0.94040000  0.26530000  1.0 -0.2898807524
N  N68  1  0.25820000  0.05960000  0.76530000  1.0 -0.2898807524
N  N69  1  0.70030000  0.50620000  0.74810000  1.0 0.1787791082
N  N70  1  0.79970000  0.49380000  0.24810000  1.0 0.1787791082
N  N71  1  0.20030000  0.99380000  0.25190000  1.0 0.1787791082
N  N72  1  0.29970000  0.00620000  0.75190000  1.0 0.1787791082
N  N73  1  0.70950000  0.91970000  0.03790000  1.0 -0.3102805352
N  N74  1  0.79050000  0.08030000  0.53790000  1.0 -0.3102805352
N  N75  1  0.20950000  0.58030000  0.96210000  1.0 -0.3102805352
N  N76  1  0.29050000  0.41970000  0.46210000  1.0 -0.3102805352
N  N77  1  0.71920000  0.84330000  0.11680000  1.0 -0.2581862918
N  N78  1  0.78080000  0.15670000  0.61680000  1.0 -0.2581862918
N  N79  1  0.21920000  0.65670000  0.88320000  1.0 -0.2581862918
N  N80  1  0.28080000  0.34330000  0.38320000  1.0 -0.2581862918
N  N81  1  0.69850000  0.81490000  0.05960000  1.0 0.1611180046
N  N82  1  0.80150000  0.18510000  0.55960000  1.0 0.1611180046
N  N83  1  0.19850000  0.68510000  0.94040000  1.0 0.1611180046
N  N84  1  0.30150000  0.31490000  0.44040000  1.0 0.1611180046
N  N85  1  0.31020000  0.52760000  0.06240000  1.0 -0.3102805352
N  N86  1  0.18980000  0.47240000  0.56240000  1.0 -0.3102805352
N  N87  1  0.81020000  0.97240000  0.93760000  1.0 -0.3102805352
N  N88  1  0.68980000  0.02760000  0.43760000  1.0 -0.3102805352
N  N89  1  0.41660000  0.53400000  0.11260000  1.0 -0.2581862918
N  N90  1  0.08340000  0.46600000  0.61260000  1.0 -0.2581862918
N  N91  1  0.91660000  0.96600000  0.88740000  1.0 -0.2581862918
N  N92  1  0.58340000  0.03400000  0.38740000  1.0 -0.2581862918
N  N93  1  0.38310000  0.59230000  0.11380000  1.0 0.1940416136
N  N94  1  0.11690000  0.40770000  0.61380000  1.0 0.1940416136
N  N95  1  0.88310000  0.90770000  0.88620000  1.0 0.1940416136
N  N96  1  0.61690000  0.09230000  0.38620000  1.0 0.1940416136
O  O1  1  0.73330000  0.78250000  0.87710000  1.0 -0.7013996652
O  O2  1  0.76670000  0.21750000  0.37710000  1.0 -0.7013996652
O  O3  1  0.23330000  0.71750000  0.12290000  1.0 -0.7013996652
O  O4  1  0.26670000  0.28250000  0.62290000  1.0 -0.7013996652
O  O5  1  0.62020000  0.72110000  0.82520000  1.0 -0.7082114181
O  O6  1  0.87980000  0.27890000  0.32520000  1.0 -0.7082114181
O  O7  1  0.12020000  0.77890000  0.17480000  1.0 -0.7082114181
O  O8  1  0.37980000  0.22110000  0.67480000  1.0 -0.7082114181
O  O9  1  0.60400000  0.84670000  0.87190000  1.0 -0.8891276665
O  O10  1  0.89600000  0.15330000  0.37190000  1.0 -0.8891276665
O  O11  1  0.10400000  0.65330000  0.12810000  1.0 -0.8849799743
O  O12  1  0.39600000  0.34670000  0.62810000  1.0 -0.8891276665
O  O13  1  0.72180000  0.77850000  0.74540000  1.0 -0.843159925
O  O14  1  0.77820000  0.22150000  0.24540000  1.0 -0.843159925
O  O15  1  0.22180000  0.72150000  0.25460000  1.0 -0.843159925
O  O16  1  0.27820000  0.27850000  0.75460000  1.0 -0.843159925
O  O17  1  0.59000000  0.81770000  0.72830000  1.0 -0.8667050263
O  O18  1  0.91000000  0.18230000  0.22830000  1.0 -0.8667050263
O  O19  1  0.09000000  0.68230000  0.27170000  1.0 -0.8667050263
O  O20  1  0.41000000  0.31770000  0.77170000  1.0 -0.8667050263
O  O21  1  0.69130000  0.89850000  0.79980000  1.0 -0.8891276665
O  O22  1  0.80870000  0.10150000  0.29980000  1.0 -0.8891276665
O  O23  1  0.19130000  0.60150000  0.20020000  1.0 -0.8891276665
O  O24  1  0.30870000  0.39850000  0.70020000  1.0 -0.8891276665
O  O25  1  0.76620000  0.78270000  0.61890000  1.0 -0.6496633103
O  O26  1  0.73380000  0.21730000  0.11890000  1.0 -0.6496633103
O  O27  1  0.26620000  0.71730000  0.38110000  1.0 -0.6496633103
O  O28  1  0.23380000  0.28270000  0.88110000  1.0 -0.6496633103
O  O29  1  0.64740000  0.71560000  0.64590000  1.0 -0.6021404377
O  O30  1  0.85260000  0.28440000  0.14590000  1.0 -0.6021404377
O  O31  1  0.14740000  0.78440000  0.35410000  1.0 -0.6021404377
O  O32  1  0.35260000  0.21560000  0.85410000  1.0 -0.6021404377
O  O33  1  0.63330000  0.84230000  0.59890000  1.0 -0.843159925
O  O34  1  0.86670000  0.15770000  0.09890000  1.0 -0.843159925
O  O35  1  0.13330000  0.65770000  0.40110000  1.0 -0.843159925
O  O36  1  0.36670000  0.34230000  0.90110000  1.0 -0.843159925
O  O37  1  0.71070000  0.89890000  0.68060000  1.0 -0.8955803624
O  O38  1  0.78930000  0.10110000  0.18060000  1.0 -0.8955803624
O  O39  1  0.21070000  0.60110000  0.31940000  1.0 -0.8955803624
O  O40  1  0.28930000  0.39890000  0.81940000  1.0 -0.8955803624
O  O41  1  0.71190000  0.95150000  0.55460000  1.0 -0.723831456
O  O42  1  0.78810000  0.04850000  0.05460000  1.0 -0.723831456
O  O43  1  0.21190000  0.54850000  0.44540000  1.0 -0.723831456
O  O44  1  0.28810000  0.45150000  0.94540000  1.0 -0.723831456
O  O45  1  0.56680000  0.94980000  0.54700000  1.0 -0.6619749626
O  O46  1  0.93320000  0.05020000  0.04700000  1.0 -0.6619749626
O  O47  1  0.06680000  0.55020000  0.45300000  1.0 -0.6619749626
O  O48  1  0.43320000  0.44980000  0.95300000  1.0 -0.6619749626
O  O49  1  0.63710000  0.02150000  0.64070000  1.0 -0.843159925
O  O50  1  0.86290000  0.97850000  0.14070000  1.0 -0.843159925
O  O51  1  0.13710000  0.47850000  0.35930000  1.0 -0.843159925
O  O52  1  0.36290000  0.52150000  0.85930000  1.0 -0.843159925
O  O53  1  0.52000000  0.06560000  0.70520000  1.0 -0.7082114181
O  O54  1  0.98000000  0.93440000  0.20520000  1.0 -0.7082114181
O  O55  1  0.02000000  0.43440000  0.29480000  1.0 -0.7082114181
O  O56  1  0.48000000  0.56560000  0.79480000  1.0 -0.7082114181
O  O57  1  0.64400000  0.12080000  0.73420000  1.0 -0.5728253534
O  O58  1  0.85600000  0.87920000  0.23420000  1.0 -0.5728253534
O  O59  1  0.14400000  0.37920000  0.26580000  1.0 -0.5728253534
O  O60  1  0.35600000  0.62080000  0.76580000  1.0 -0.5728253534
O  O61  1  0.57380000  0.93480000  0.68840000  1.0 -0.8891276665
O  O62  1  0.92620000  0.06520000  0.18840000  1.0 -0.8891276665
O  O63  1  0.07380000  0.56520000  0.31160000  1.0 -0.8891276665
O  O64  1  0.42620000  0.43480000  0.81160000  1.0 -0.8891276665
O  O65  1  0.51910000  0.89970000  0.79150000  1.0 -0.8235001674
O  O66  1  0.98090000  0.10030000  0.29150000  1.0 -0.8235001674
O  O67  1  0.01910000  0.60030000  0.20850000  1.0 -0.8235001674
O  O68  1  0.48090000  0.39970000  0.70850000  1.0 -0.8235001674
O  O69  1  0.71620000  0.00400000  0.74340000  1.0 -0.8308835438
O  O70  1  0.78380000  0.99600000  0.24340000  1.0 -0.8308835438
O  O71  1  0.21620000  0.49600000  0.25660000  1.0 -0.8308835438
O  O72  1  0.28380000  0.50400000  0.75660000  1.0 -0.8308835438
O  O73  1  0.59290000  0.01500000  0.80890000  1.0 -0.8308835438
O  O74  1  0.90710000  0.98500000  0.30890000  1.0 -0.8308835438
O  O75  1  0.09290000  0.48500000  0.19110000  1.0 -0.8308835438
O  O76  1  0.40710000  0.51500000  0.69110000  1.0 -0.8308835438
O  O77  1  0.51380000  0.95510000  0.90330000  1.0 -0.6619749626
O  O78  1  0.98620000  0.04490000  0.40330000  1.0 -0.6619749626
O  O79  1  0.01380000  0.54490000  0.09670000  1.0 -0.6619749626
O  O80  1  0.48620000  0.45510000  0.59670000  1.0 -0.6619749626
O  O81  1  0.65480000  0.96760000  0.91650000  1.0 -0.7250530234
O  O82  1  0.84520000  0.03240000  0.41650000  1.0 -0.7250530234
O  O83  1  0.15480000  0.53240000  0.08350000  1.0 -0.7250530234
O  O84  1  0.34520000  0.46760000  0.58350000  1.0 -0.7250530234
O  O85  1  0.47070000  0.85670000  0.68900000  1.0 -0.7576539627
O  O86  1  0.02930000  0.14330000  0.18900000  1.0 -0.7576539627
O  O87  1  0.97070000  0.64330000  0.31100000  1.0 -0.7576539627
O  O88  1  0.52930000  0.35670000  0.81100000  1.0 -0.7576539627
O  O89  1  0.81260000  0.91980000  0.75690000  1.0 -0.769664075
O  O90  1  0.68740000  0.08020000  0.25690000  1.0 -0.769664075
O  O91  1  0.31260000  0.58020000  0.24310000  1.0 -0.769664075
O  O92  1  0.18740000  0.41980000  0.74310000  1.0 -0.769664075
O  O93  1  0.51530000  0.68920000  0.73020000  1.0 -0.2722668609
O  O94  1  0.98470000  0.31080000  0.23020000  1.0 -0.2722668609
O  O95  1  0.01530000  0.81080000  0.26980000  1.0 -0.2818515361
O  O96  1  0.48470000  0.18920000  0.76980000  1.0 -0.2818515361
