# DDEC6 charges by PACMAN v1.1 (https://github.com/mtap-research/PACMAN-charge/)
data_LOPZAS_ASR_pacman
_symmetry_space_group_name_H-M   'P 1'
_cell_length_a   23.45460000
_cell_length_b   23.45460000
_cell_length_c   23.45460000
_cell_angle_alpha   109.47100000
_cell_angle_beta   109.47100000
_cell_angle_gamma   109.47100000
_symmetry_Int_Tables_number   1
_chemical_formula_structural   Rb3Co2H186(C25O4)6
_chemical_formula_sum   'Rb6 Co4 H372 C300 O48'
_cell_volume   9932.66410806
_cell_formula_units_Z   2
loop_
 _symmetry_equiv_pos_site_id
 _symmetry_equiv_pos_as_xyz
  1  'x, y, z'
loop_
 _atom_site_type_symbol
 _atom_site_label
 _atom_site_symmetry_multiplicity
 _atom_site_fract_x
 _atom_site_fract_y
 _atom_site_fract_z
 _atom_site_occupancy
 _atom_site_charge
Rb  Rb1  1  0.53401000  0.75000000  0.28401000  1.0 0.8496442327
Rb  Rb2  1  0.96599000  0.25000000  0.21599000  1.0 0.8496442327
Rb  Rb3  1  0.28401000  0.53401000  0.75000000  1.0 0.8496442327
Rb  Rb4  1  0.21599000  0.96599000  0.25000000  1.0 0.8496442327
Rb  Rb5  1  0.75000000  0.28401000  0.53401000  1.0 0.8496442327
Rb  Rb6  1  0.25000000  0.21599000  0.96599000  1.0 0.8496442327
Co  Co1  1  0.29866000  0.50000000  0.00000000  1.0 1.1023854206
Co  Co2  1  0.00000000  0.29866000  0.50000000  1.0 1.1023854206
Co  Co3  1  0.20134000  0.20134000  0.20134000  1.0 1.1023854206
Co  Co4  1  0.50000000  0.00000000  0.29866000  1.0 1.1023854206
H  H1  1  0.61040000  0.68650000  0.16150000  1.0 0.1286772296
H  H2  1  0.02500000  0.44890000  0.33850000  1.0 0.1286772296
H  H3  1  0.88960000  0.05110000  0.07610000  1.0 0.1286772296
H  H4  1  0.47500000  0.81350000  0.42390000  1.0 0.1286772296
H  H5  1  0.16150000  0.61040000  0.68650000  1.0 0.1286772296
H  H6  1  0.42390000  0.47500000  0.81350000  1.0 0.1286772296
H  H7  1  0.33850000  0.02500000  0.44890000  1.0 0.1286772296
H  H8  1  0.07610000  0.88960000  0.05110000  1.0 0.1286772296
H  H9  1  0.68650000  0.16150000  0.61040000  1.0 0.1286772296
H  H10  1  0.81350000  0.42390000  0.47500000  1.0 0.1286772296
H  H11  1  0.44890000  0.33850000  0.02500000  1.0 0.1286772296
H  H12  1  0.05110000  0.07610000  0.88960000  1.0 0.1286772296
H  H13  1  0.46380000  0.52790000  0.19650000  1.0 0.1214975988
H  H14  1  0.83140000  0.26730000  0.30350000  1.0 0.1214975988
H  H15  1  0.03620000  0.23270000  0.06410000  1.0 0.1214975988
H  H16  1  0.66860000  0.97210000  0.43590000  1.0 0.1214975988
H  H17  1  0.19650000  0.46380000  0.52790000  1.0 0.1214975988
H  H18  1  0.43590000  0.66860000  0.97210000  1.0 0.1214975988
H  H19  1  0.30350000  0.83140000  0.26730000  1.0 0.1214975988
H  H20  1  0.06410000  0.03620000  0.23270000  1.0 0.1214975988
H  H21  1  0.52790000  0.19650000  0.46380000  1.0 0.1214975988
H  H22  1  0.97210000  0.43590000  0.66860000  1.0 0.1214975988
H  H23  1  0.26730000  0.30350000  0.83140000  1.0 0.1214975988
H  H24  1  0.23270000  0.06410000  0.03620000  1.0 0.1214975988
H  H25  1  0.50830000  0.55390000  0.16380000  1.0 0.1286772296
H  H26  1  0.89010000  0.34450000  0.33620000  1.0 0.1286772296
H  H27  1  0.99170000  0.15550000  0.04560000  1.0 0.1286772296
H  H28  1  0.60990000  0.94610000  0.45440000  1.0 0.1286772296
H  H29  1  0.16380000  0.50830000  0.55390000  1.0 0.1286772296
H  H30  1  0.45440000  0.60990000  0.94610000  1.0 0.1286772296
H  H31  1  0.33620000  0.89010000  0.34450000  1.0 0.1286772296
H  H32  1  0.04560000  0.99170000  0.15550000  1.0 0.1286772296
H  H33  1  0.55390000  0.16380000  0.50830000  1.0 0.1286772296
H  H34  1  0.94610000  0.45440000  0.60990000  1.0 0.1286772296
H  H35  1  0.34450000  0.33620000  0.89010000  1.0 0.1286772296
H  H36  1  0.15550000  0.04560000  0.99170000  1.0 0.1286772296
H  H37  1  0.71860000  0.60750000  0.33370000  1.0 0.1112021885
H  H38  1  0.77380000  0.38490000  0.16630000  1.0 0.1112021885
H  H39  1  0.78140000  0.11510000  0.88890000  1.0 0.1112021885
H  H40  1  0.72620000  0.89250000  0.61110000  1.0 0.1112021885
H  H41  1  0.33370000  0.71860000  0.60750000  1.0 0.1112021885
H  H42  1  0.61110000  0.72620000  0.89250000  1.0 0.1112021885
H  H43  1  0.16630000  0.77380000  0.38490000  1.0 0.1112021885
H  H44  1  0.88890000  0.78140000  0.11510000  1.0 0.1112021885
H  H45  1  0.60750000  0.33370000  0.71860000  1.0 0.1112021885
H  H46  1  0.89250000  0.61110000  0.72620000  1.0 0.1112021885
H  H47  1  0.38490000  0.16630000  0.77380000  1.0 0.1112021885
H  H48  1  0.11510000  0.88890000  0.78140000  1.0 0.1112021885
H  H49  1  0.68100000  0.88850000  0.27950000  1.0 0.1286772296
H  H50  1  0.10900000  0.40150000  0.22050000  1.0 0.1286772296
H  H51  1  0.81900000  0.09850000  0.20750000  1.0 0.1286772296
H  H52  1  0.39100000  0.61150000  0.29250000  1.0 0.1286772296
H  H53  1  0.27950000  0.68100000  0.88850000  1.0 0.1286772296
H  H54  1  0.29250000  0.39100000  0.61150000  1.0 0.1286772296
H  H55  1  0.22050000  0.10900000  0.40150000  1.0 0.1286772296
H  H56  1  0.20750000  0.81900000  0.09850000  1.0 0.1286772296
H  H57  1  0.88850000  0.27950000  0.68100000  1.0 0.1286772296
H  H58  1  0.61150000  0.29250000  0.39100000  1.0 0.1286772296
H  H59  1  0.40150000  0.22050000  0.10900000  1.0 0.1286772296
H  H60  1  0.09850000  0.20750000  0.81900000  1.0 0.1286772296
H  H61  1  0.59030000  0.55800000  0.40510000  1.0 0.1112021885
H  H62  1  0.65290000  0.18520000  0.09490000  1.0 0.1112021885
H  H63  1  0.90970000  0.31480000  0.96770000  1.0 0.1112021885
H  H64  1  0.84710000  0.94200000  0.53230000  1.0 0.1112021885
H  H65  1  0.40510000  0.59030000  0.55800000  1.0 0.1112021885
H  H66  1  0.53230000  0.84710000  0.94200000  1.0 0.1112021885
H  H67  1  0.09490000  0.65290000  0.18520000  1.0 0.1112021885
H  H68  1  0.96770000  0.90970000  0.31480000  1.0 0.1112021885
H  H69  1  0.55800000  0.40510000  0.59030000  1.0 0.1112021885
H  H70  1  0.94200000  0.53230000  0.84710000  1.0 0.1112021885
H  H71  1  0.18520000  0.09490000  0.65290000  1.0 0.1112021885
H  H72  1  0.31480000  0.96770000  0.90970000  1.0 0.1112021885
H  H73  1  0.62900000  0.61380000  0.20240000  1.0 0.1214975988
H  H74  1  0.91140000  0.42660000  0.29760000  1.0 0.1214975988
H  H75  1  0.87100000  0.07340000  0.98480000  1.0 0.1214975988
H  H76  1  0.58860000  0.88620000  0.51520000  1.0 0.1214975988
H  H77  1  0.20240000  0.62900000  0.61380000  1.0 0.1214975988
H  H78  1  0.51520000  0.58860000  0.88620000  1.0 0.1214975988
H  H79  1  0.29760000  0.91140000  0.42660000  1.0 0.1214975988
H  H80  1  0.98480000  0.87100000  0.07340000  1.0 0.1214975988
H  H81  1  0.61380000  0.20240000  0.62900000  1.0 0.1214975988
H  H82  1  0.88620000  0.51520000  0.58860000  1.0 0.1214975988
H  H83  1  0.42660000  0.29760000  0.91140000  1.0 0.1214975988
H  H84  1  0.07340000  0.98480000  0.87100000  1.0 0.1214975988
H  H85  1  0.70680000  0.65420000  0.26220000  1.0 0.1112021885
H  H86  1  0.89200000  0.44460000  0.23780000  1.0 0.1112021885
H  H87  1  0.79320000  0.05540000  0.94740000  1.0 0.1112021885
H  H88  1  0.60800000  0.84580000  0.55260000  1.0 0.1112021885
H  H89  1  0.26220000  0.70680000  0.65420000  1.0 0.1112021885
H  H90  1  0.55260000  0.60800000  0.84580000  1.0 0.1112021885
H  H91  1  0.23780000  0.89200000  0.44460000  1.0 0.1112021885
H  H92  1  0.94740000  0.79320000  0.05540000  1.0 0.1112021885
H  H93  1  0.65420000  0.26220000  0.70680000  1.0 0.1112021885
H  H94  1  0.84580000  0.55260000  0.60800000  1.0 0.1112021885
H  H95  1  0.44460000  0.23780000  0.89200000  1.0 0.1112021885
H  H96  1  0.05540000  0.94740000  0.79320000  1.0 0.1112021885
H  H97  1  0.76750000  0.59890000  0.52680000  1.0 0.1286772296
H  H98  1  0.57210000  0.24070000  0.97320000  1.0 0.1286772296
H  H99  1  0.73250000  0.25930000  0.83140000  1.0 0.1286772296
H  H100  1  0.92790000  0.90110000  0.66860000  1.0 0.1286772296
H  H101  1  0.52680000  0.76750000  0.59890000  1.0 0.1286772296
H  H102  1  0.66860000  0.92790000  0.90110000  1.0 0.1286772296
H  H103  1  0.97320000  0.57210000  0.24070000  1.0 0.1286772296
H  H104  1  0.83140000  0.73250000  0.25930000  1.0 0.1286772296
H  H105  1  0.59890000  0.52680000  0.76750000  1.0 0.1286772296
H  H106  1  0.90110000  0.66860000  0.92790000  1.0 0.1286772296
H  H107  1  0.24070000  0.97320000  0.57210000  1.0 0.1286772296
H  H108  1  0.25930000  0.83140000  0.73250000  1.0 0.1286772296
H  H109  1  0.69870000  0.60280000  0.50570000  1.0 0.1112021885
H  H110  1  0.59710000  0.19300000  0.99430000  1.0 0.1112021885
H  H111  1  0.80130000  0.30700000  0.90410000  1.0 0.1112021885
H  H112  1  0.90290000  0.89720000  0.59590000  1.0 0.1112021885
H  H113  1  0.50570000  0.69870000  0.60280000  1.0 0.1112021885
H  H114  1  0.59590000  0.90290000  0.89720000  1.0 0.1112021885
H  H115  1  0.99430000  0.59710000  0.19300000  1.0 0.1112021885
H  H116  1  0.90410000  0.80130000  0.30700000  1.0 0.1112021885
H  H117  1  0.60280000  0.50570000  0.69870000  1.0 0.1112021885
H  H118  1  0.89720000  0.59590000  0.90290000  1.0 0.1112021885
H  H119  1  0.19300000  0.99430000  0.59710000  1.0 0.1112021885
H  H120  1  0.30700000  0.90410000  0.80130000  1.0 0.1112021885
H  H121  1  0.76240000  0.65550000  0.50730000  1.0 0.1286772296
H  H122  1  0.64820000  0.25510000  0.99270000  1.0 0.1286772296
H  H123  1  0.73760000  0.24490000  0.89310000  1.0 0.1286772296
H  H124  1  0.85180000  0.84450000  0.60690000  1.0 0.1286772296
H  H125  1  0.50730000  0.76240000  0.65550000  1.0 0.1286772296
H  H126  1  0.60690000  0.85180000  0.84450000  1.0 0.1286772296
H  H127  1  0.99270000  0.64820000  0.25510000  1.0 0.1286772296
H  H128  1  0.89310000  0.73760000  0.24490000  1.0 0.1286772296
H  H129  1  0.65550000  0.50730000  0.76240000  1.0 0.1286772296
H  H130  1  0.84450000  0.60690000  0.85180000  1.0 0.1286772296
H  H131  1  0.25510000  0.99270000  0.64820000  1.0 0.1286772296
H  H132  1  0.24490000  0.89310000  0.73760000  1.0 0.1286772296
H  H133  1  0.49880000  0.57460000  0.37820000  1.0 0.1214975988
H  H134  1  0.69640000  0.12060000  0.12180000  1.0 0.1214975988
H  H135  1  0.00120000  0.37940000  0.07580000  1.0 0.1214975988
H  H136  1  0.80360000  0.92540000  0.42420000  1.0 0.1214975988
H  H137  1  0.37820000  0.49880000  0.57460000  1.0 0.1214975988
H  H138  1  0.42420000  0.80360000  0.92540000  1.0 0.1214975988
H  H139  1  0.12180000  0.69640000  0.12060000  1.0 0.1214975988
H  H140  1  0.07580000  0.00120000  0.37940000  1.0 0.1214975988
H  H141  1  0.57460000  0.37820000  0.49880000  1.0 0.1214975988
H  H142  1  0.92540000  0.42420000  0.80360000  1.0 0.1214975988
H  H143  1  0.12060000  0.12180000  0.69640000  1.0 0.1214975988
H  H144  1  0.37940000  0.07580000  0.00120000  1.0 0.1214975988
H  H145  1  0.45980000  0.55500000  0.30040000  1.0 0.1286772296
H  H146  1  0.75460000  0.15940000  0.19960000  1.0 0.1286772296
H  H147  1  0.04020000  0.34060000  0.09520000  1.0 0.1286772296
H  H148  1  0.74540000  0.94500000  0.40480000  1.0 0.1286772296
H  H149  1  0.30040000  0.45980000  0.55500000  1.0 0.1286772296
H  H150  1  0.40480000  0.74540000  0.94500000  1.0 0.1286772296
H  H151  1  0.19960000  0.75460000  0.15940000  1.0 0.1286772296
H  H152  1  0.09520000  0.04020000  0.34060000  1.0 0.1286772296
H  H153  1  0.55500000  0.30040000  0.45980000  1.0 0.1286772296
H  H154  1  0.94500000  0.40480000  0.74540000  1.0 0.1286772296
H  H155  1  0.15940000  0.19960000  0.75460000  1.0 0.1286772296
H  H156  1  0.34060000  0.09520000  0.04020000  1.0 0.1286772296
H  H157  1  0.50280000  0.70870000  0.11410000  1.0 0.1286772296
H  H158  1  0.09460000  0.38870000  0.38590000  1.0 0.1286772296
H  H159  1  0.99720000  0.11130000  0.20590000  1.0 0.1286772296
H  H160  1  0.40540000  0.79130000  0.29410000  1.0 0.1286772296
H  H161  1  0.11410000  0.50280000  0.70870000  1.0 0.1286772296
H  H162  1  0.29410000  0.40540000  0.79130000  1.0 0.1286772296
H  H163  1  0.38590000  0.09460000  0.38870000  1.0 0.1286772296
H  H164  1  0.20590000  0.99720000  0.11130000  1.0 0.1286772296
H  H165  1  0.70870000  0.11410000  0.50280000  1.0 0.1286772296
H  H166  1  0.79130000  0.29410000  0.40540000  1.0 0.1286772296
H  H167  1  0.38870000  0.38590000  0.09460000  1.0 0.1286772296
H  H168  1  0.11130000  0.20590000  0.99720000  1.0 0.1286772296
H  H169  1  0.49430000  0.75850000  0.08520000  1.0 0.1286772296
H  H170  1  0.17330000  0.40910000  0.41480000  1.0 0.1286772296
H  H171  1  0.00570000  0.09090000  0.26420000  1.0 0.1286772296
H  H172  1  0.32670000  0.74150000  0.23580000  1.0 0.1286772296
H  H173  1  0.08520000  0.49430000  0.75850000  1.0 0.1286772296
H  H174  1  0.23580000  0.32670000  0.74150000  1.0 0.1286772296
H  H175  1  0.41480000  0.17330000  0.40910000  1.0 0.1286772296
H  H176  1  0.26420000  0.00570000  0.09090000  1.0 0.1286772296
H  H177  1  0.75850000  0.08520000  0.49430000  1.0 0.1286772296
H  H178  1  0.74150000  0.23580000  0.32670000  1.0 0.1286772296
H  H179  1  0.40910000  0.41480000  0.17330000  1.0 0.1286772296
H  H180  1  0.09090000  0.26420000  0.00570000  1.0 0.1286772296
H  H181  1  0.51530000  0.78140000  0.16330000  1.0 0.1286772296
H  H182  1  0.11810000  0.35200000  0.33670000  1.0 0.1286772296
H  H183  1  0.98470000  0.14800000  0.26610000  1.0 0.1286772296
H  H184  1  0.38190000  0.71860000  0.23390000  1.0 0.1286772296
H  H185  1  0.16330000  0.51530000  0.78140000  1.0 0.1286772296
H  H186  1  0.23390000  0.38190000  0.71860000  1.0 0.1286772296
H  H187  1  0.33670000  0.11810000  0.35200000  1.0 0.1286772296
H  H188  1  0.26610000  0.98470000  0.14800000  1.0 0.1286772296
H  H189  1  0.78140000  0.16330000  0.51530000  1.0 0.1286772296
H  H190  1  0.71860000  0.23390000  0.38190000  1.0 0.1286772296
H  H191  1  0.35200000  0.33670000  0.11810000  1.0 0.1286772296
H  H192  1  0.14800000  0.26610000  0.98470000  1.0 0.1286772296
H  H193  1  0.59970000  0.86720000  0.11790000  1.0 0.1286772296
H  H194  1  0.24930000  0.48180000  0.38210000  1.0 0.1286772296
H  H195  1  0.90030000  0.01820000  0.26750000  1.0 0.1286772296
H  H196  1  0.25070000  0.63280000  0.23250000  1.0 0.1286772296
H  H197  1  0.11790000  0.59970000  0.86720000  1.0 0.1286772296
H  H198  1  0.23250000  0.25070000  0.63280000  1.0 0.1286772296
H  H199  1  0.38210000  0.24930000  0.48180000  1.0 0.1286772296
H  H200  1  0.26750000  0.90030000  0.01820000  1.0 0.1286772296
H  H201  1  0.86720000  0.11790000  0.59970000  1.0 0.1286772296
H  H202  1  0.63280000  0.23250000  0.25070000  1.0 0.1286772296
H  H203  1  0.48180000  0.38210000  0.24930000  1.0 0.1286772296
H  H204  1  0.01820000  0.26750000  0.90030000  1.0 0.1286772296
H  H205  1  0.67360000  0.89290000  0.17770000  1.0 0.1286772296
H  H206  1  0.21520000  0.49590000  0.32230000  1.0 0.1286772296
H  H207  1  0.82640000  0.00410000  0.21930000  1.0 0.1286772296
H  H208  1  0.28480000  0.60710000  0.28070000  1.0 0.1286772296
H  H209  1  0.17770000  0.67360000  0.89290000  1.0 0.1286772296
H  H210  1  0.28070000  0.28480000  0.60710000  1.0 0.1286772296
H  H211  1  0.32230000  0.21520000  0.49590000  1.0 0.1286772296
H  H212  1  0.21930000  0.82640000  0.00410000  1.0 0.1286772296
H  H213  1  0.89290000  0.17770000  0.67360000  1.0 0.1286772296
H  H214  1  0.60710000  0.28070000  0.28480000  1.0 0.1286772296
H  H215  1  0.49590000  0.32230000  0.21520000  1.0 0.1286772296
H  H216  1  0.00410000  0.21930000  0.82640000  1.0 0.1286772296
H  H217  1  0.61430000  0.89220000  0.19470000  1.0 0.1286772296
H  H218  1  0.19750000  0.41960000  0.30530000  1.0 0.1286772296
H  H219  1  0.88570000  0.08040000  0.27790000  1.0 0.1286772296
H  H220  1  0.30250000  0.60780000  0.22210000  1.0 0.1286772296
H  H221  1  0.19470000  0.61430000  0.89220000  1.0 0.1286772296
H  H222  1  0.22210000  0.30250000  0.60780000  1.0 0.1286772296
H  H223  1  0.30530000  0.19750000  0.41960000  1.0 0.1286772296
H  H224  1  0.27790000  0.88570000  0.08040000  1.0 0.1286772296
H  H225  1  0.89220000  0.19470000  0.61430000  1.0 0.1286772296
H  H226  1  0.60780000  0.22210000  0.30250000  1.0 0.1286772296
H  H227  1  0.41960000  0.30530000  0.19750000  1.0 0.1286772296
H  H228  1  0.08040000  0.27790000  0.88570000  1.0 0.1286772296
H  H229  1  0.78580000  0.53400000  0.42480000  1.0 0.1286772296
H  H230  1  0.60920000  0.36100000  0.07520000  1.0 0.1286772296
H  H231  1  0.71420000  0.13900000  0.74820000  1.0 0.1286772296
H  H232  1  0.89080000  0.96600000  0.75180000  1.0 0.1286772296
H  H233  1  0.42480000  0.78580000  0.53400000  1.0 0.1286772296
H  H234  1  0.75180000  0.89080000  0.96600000  1.0 0.1286772296
H  H235  1  0.07520000  0.60920000  0.36100000  1.0 0.1286772296
H  H236  1  0.74820000  0.71420000  0.13900000  1.0 0.1286772296
H  H237  1  0.53400000  0.42480000  0.78580000  1.0 0.1286772296
H  H238  1  0.96600000  0.75180000  0.89080000  1.0 0.1286772296
H  H239  1  0.36100000  0.07520000  0.60920000  1.0 0.1286772296
H  H240  1  0.13900000  0.74820000  0.71420000  1.0 0.1286772296
H  H241  1  0.79170000  0.59280000  0.40550000  1.0 0.1214975988
H  H242  1  0.68730000  0.38620000  0.09450000  1.0 0.1214975988
H  H243  1  0.70830000  0.11380000  0.80110000  1.0 0.1214975988
H  H244  1  0.81270000  0.90720000  0.69890000  1.0 0.1214975988
H  H245  1  0.40550000  0.79170000  0.59280000  1.0 0.1214975988
H  H246  1  0.69890000  0.81270000  0.90720000  1.0 0.1214975988
H  H247  1  0.09450000  0.68730000  0.38620000  1.0 0.1214975988
H  H248  1  0.80110000  0.70830000  0.11380000  1.0 0.1214975988
H  H249  1  0.59280000  0.40550000  0.79170000  1.0 0.1214975988
H  H250  1  0.90720000  0.69890000  0.81270000  1.0 0.1214975988
H  H251  1  0.38620000  0.09450000  0.68730000  1.0 0.1214975988
H  H252  1  0.11380000  0.80110000  0.70830000  1.0 0.1214975988
H  H253  1  0.73760000  0.51440000  0.34840000  1.0 0.1286772296
H  H254  1  0.66600000  0.38920000  0.15160000  1.0 0.1286772296
H  H255  1  0.76240000  0.11080000  0.77680000  1.0 0.1286772296
H  H256  1  0.83400000  0.98560000  0.72320000  1.0 0.1286772296
H  H257  1  0.34840000  0.73760000  0.51440000  1.0 0.1286772296
H  H258  1  0.72320000  0.83400000  0.98560000  1.0 0.1286772296
H  H259  1  0.15160000  0.66600000  0.38920000  1.0 0.1286772296
H  H260  1  0.77680000  0.76240000  0.11080000  1.0 0.1286772296
H  H261  1  0.51440000  0.34840000  0.73760000  1.0 0.1286772296
H  H262  1  0.98560000  0.72320000  0.83400000  1.0 0.1286772296
H  H263  1  0.38920000  0.15160000  0.66600000  1.0 0.1286772296
H  H264  1  0.11080000  0.77680000  0.76240000  1.0 0.1286772296
H  H265  1  0.68570000  0.46820000  0.42130000  1.0 0.1286772296
H  H266  1  0.54690000  0.26440000  0.07870000  1.0 0.1286772296
H  H267  1  0.81430000  0.23560000  0.78250000  1.0 0.1286772296
H  H268  1  0.95310000  0.03180000  0.71750000  1.0 0.1286772296
H  H269  1  0.42130000  0.68570000  0.46820000  1.0 0.1286772296
H  H270  1  0.71750000  0.95310000  0.03180000  1.0 0.1286772296
H  H271  1  0.07870000  0.54690000  0.26440000  1.0 0.1286772296
H  H272  1  0.78250000  0.81430000  0.23560000  1.0 0.1286772296
H  H273  1  0.46820000  0.42130000  0.68570000  1.0 0.1286772296
H  H274  1  0.03180000  0.71750000  0.95310000  1.0 0.1286772296
H  H275  1  0.26440000  0.07870000  0.54690000  1.0 0.1286772296
H  H276  1  0.23560000  0.78250000  0.81430000  1.0 0.1286772296
H  H277  1  0.63430000  0.45530000  0.34920000  1.0 0.1363991091
H  H278  1  0.60610000  0.28510000  0.15080000  1.0 0.1363991091
H  H279  1  0.86570000  0.21490000  0.82100000  1.0 0.1363991091
H  H280  1  0.89390000  0.04470000  0.67900000  1.0 0.1363991091
H  H281  1  0.34920000  0.63430000  0.45530000  1.0 0.1363991091
H  H282  1  0.67900000  0.89390000  0.04470000  1.0 0.1363991091
H  H283  1  0.15080000  0.60610000  0.28510000  1.0 0.1363991091
H  H284  1  0.82100000  0.86570000  0.21490000  1.0 0.1363991091
H  H285  1  0.45530000  0.34920000  0.63430000  1.0 0.1363991091
H  H286  1  0.04470000  0.67900000  0.89390000  1.0 0.1363991091
H  H287  1  0.28510000  0.15080000  0.60610000  1.0 0.1363991091
H  H288  1  0.21490000  0.82100000  0.86570000  1.0 0.1363991091
H  H289  1  0.62780000  0.48890000  0.41510000  1.0 0.1214975988
H  H290  1  0.57380000  0.21270000  0.08490000  1.0 0.1214975988
H  H291  1  0.87220000  0.28730000  0.86110000  1.0 0.1214975988
H  H292  1  0.92620000  0.01110000  0.63890000  1.0 0.1214975988
H  H293  1  0.41510000  0.62780000  0.48890000  1.0 0.1214975988
H  H294  1  0.63890000  0.92620000  0.01110000  1.0 0.1214975988
H  H295  1  0.08490000  0.57380000  0.21270000  1.0 0.1214975988
H  H296  1  0.86110000  0.87220000  0.28730000  1.0 0.1214975988
H  H297  1  0.48890000  0.41510000  0.62780000  1.0 0.1214975988
H  H298  1  0.01110000  0.63890000  0.92620000  1.0 0.1214975988
H  H299  1  0.21270000  0.08490000  0.57380000  1.0 0.1214975988
H  H300  1  0.28730000  0.86110000  0.87220000  1.0 0.1214975988
H  H301  1  0.58880000  0.70650000  0.07630000  1.0 0.1214975988
H  H302  1  0.13020000  0.51250000  0.42370000  1.0 0.1214975988
H  H303  1  0.91120000  0.98750000  0.11770000  1.0 0.1214975988
H  H304  1  0.36980000  0.79350000  0.38230000  1.0 0.1214975988
H  H305  1  0.07630000  0.58880000  0.70650000  1.0 0.1214975988
H  H306  1  0.38230000  0.36980000  0.79350000  1.0 0.1214975988
H  H307  1  0.42370000  0.13020000  0.51250000  1.0 0.1214975988
H  H308  1  0.11770000  0.91120000  0.98750000  1.0 0.1214975988
H  H309  1  0.70650000  0.07630000  0.58880000  1.0 0.1214975988
H  H310  1  0.79350000  0.38230000  0.36980000  1.0 0.1214975988
H  H311  1  0.51250000  0.42370000  0.13020000  1.0 0.1214975988
H  H312  1  0.98750000  0.11770000  0.91120000  1.0 0.1214975988
H  H313  1  0.65210000  0.77580000  0.09730000  1.0 0.1286772296
H  H314  1  0.17850000  0.55480000  0.40270000  1.0 0.1286772296
H  H315  1  0.84790000  0.94520000  0.12370000  1.0 0.1286772296
H  H316  1  0.32150000  0.72420000  0.37630000  1.0 0.1286772296
H  H317  1  0.09730000  0.65210000  0.77580000  1.0 0.1286772296
H  H318  1  0.37630000  0.32150000  0.72420000  1.0 0.1286772296
H  H319  1  0.40270000  0.17850000  0.55480000  1.0 0.1286772296
H  H320  1  0.12370000  0.84790000  0.94520000  1.0 0.1286772296
H  H321  1  0.77580000  0.09730000  0.65210000  1.0 0.1286772296
H  H322  1  0.72420000  0.37630000  0.32150000  1.0 0.1286772296
H  H323  1  0.55480000  0.40270000  0.17850000  1.0 0.1286772296
H  H324  1  0.94520000  0.12370000  0.84790000  1.0 0.1286772296
H  H325  1  0.57560000  0.75530000  0.04790000  1.0 0.1286772296
H  H326  1  0.20740000  0.52770000  0.45210000  1.0 0.1286772296
H  H327  1  0.92440000  0.97230000  0.17970000  1.0 0.1286772296
H  H328  1  0.29260000  0.74470000  0.32030000  1.0 0.1286772296
H  H329  1  0.04790000  0.57560000  0.75530000  1.0 0.1286772296
H  H330  1  0.32030000  0.29260000  0.74470000  1.0 0.1286772296
H  H331  1  0.45210000  0.20740000  0.52770000  1.0 0.1286772296
H  H332  1  0.17970000  0.92440000  0.97230000  1.0 0.1286772296
H  H333  1  0.75530000  0.04790000  0.57560000  1.0 0.1286772296
H  H334  1  0.74470000  0.32030000  0.29260000  1.0 0.1286772296
H  H335  1  0.52770000  0.45210000  0.20740000  1.0 0.1286772296
H  H336  1  0.97230000  0.17970000  0.92440000  1.0 0.1286772296
H  H337  1  0.81180000  0.77860000  0.45080000  1.0 0.1286772296
H  H338  1  0.82780000  0.36100000  0.04920000  1.0 0.1286772296
H  H339  1  0.68820000  0.13900000  0.96680000  1.0 0.1286772296
H  H340  1  0.67220000  0.72140000  0.53320000  1.0 0.1286772296
H  H341  1  0.45080000  0.81180000  0.77860000  1.0 0.1286772296
H  H342  1  0.53320000  0.67220000  0.72140000  1.0 0.1286772296
H  H343  1  0.04920000  0.82780000  0.36100000  1.0 0.1286772296
H  H344  1  0.96680000  0.68820000  0.13900000  1.0 0.1286772296
H  H345  1  0.77860000  0.45080000  0.81180000  1.0 0.1286772296
H  H346  1  0.72140000  0.53320000  0.67220000  1.0 0.1286772296
H  H347  1  0.36100000  0.04920000  0.82780000  1.0 0.1286772296
H  H348  1  0.13900000  0.96680000  0.68820000  1.0 0.1286772296
H  H349  1  0.83200000  0.83310000  0.42630000  1.0 0.1214975988
H  H350  1  0.90680000  0.40570000  0.07370000  1.0 0.1214975988
H  H351  1  0.66800000  0.09430000  0.00110000  1.0 0.1214975988
H  H352  1  0.59320000  0.66690000  0.49890000  1.0 0.1214975988
H  H353  1  0.42630000  0.83200000  0.83310000  1.0 0.1214975988
H  H354  1  0.49890000  0.59320000  0.66690000  1.0 0.1214975988
H  H355  1  0.07370000  0.90680000  0.40570000  1.0 0.1214975988
H  H356  1  0.00110000  0.66800000  0.09430000  1.0 0.1214975988
H  H357  1  0.83310000  0.42630000  0.83200000  1.0 0.1214975988
H  H358  1  0.66690000  0.49890000  0.59320000  1.0 0.1214975988
H  H359  1  0.40570000  0.07370000  0.90680000  1.0 0.1214975988
H  H360  1  0.09430000  0.00110000  0.66800000  1.0 0.1214975988
H  H361  1  0.80450000  0.75440000  0.37670000  1.0 0.1214975988
H  H362  1  0.87770000  0.42780000  0.12330000  1.0 0.1214975988
H  H363  1  0.69550000  0.07220000  0.94990000  1.0 0.1214975988
H  H364  1  0.62230000  0.74560000  0.55010000  1.0 0.1214975988
H  H365  1  0.37670000  0.80450000  0.75440000  1.0 0.1214975988
H  H366  1  0.55010000  0.62230000  0.74560000  1.0 0.1214975988
H  H367  1  0.12330000  0.87770000  0.42780000  1.0 0.1214975988
H  H368  1  0.94990000  0.69550000  0.07220000  1.0 0.1214975988
H  H369  1  0.75440000  0.37670000  0.80450000  1.0 0.1214975988
H  H370  1  0.74560000  0.55010000  0.62230000  1.0 0.1214975988
H  H371  1  0.42780000  0.12330000  0.87770000  1.0 0.1214975988
H  H372  1  0.07220000  0.94990000  0.69550000  1.0 0.1214975988
C  C1  1  0.71200000  0.84410000  0.33730000  1.0 0.0402428651
C  C2  1  0.00680000  0.37470000  0.16270000  1.0 0.0402428651
C  C3  1  0.78800000  0.12530000  0.13210000  1.0 0.0402428651
C  C4  1  0.49320000  0.65590000  0.36790000  1.0 0.0402428651
C  C5  1  0.33730000  0.71200000  0.84410000  1.0 0.0402428651
C  C6  1  0.36790000  0.49320000  0.65590000  1.0 0.0402428651
C  C7  1  0.16270000  0.00680000  0.37470000  1.0 0.0402428651
C  C8  1  0.13210000  0.78800000  0.12530000  1.0 0.0402428651
C  C9  1  0.84410000  0.33730000  0.71200000  1.0 0.0402428651
C  C10  1  0.65590000  0.36790000  0.49320000  1.0 0.0402428651
C  C11  1  0.37470000  0.16270000  0.00680000  1.0 0.0402428651
C  C12  1  0.12530000  0.13210000  0.78800000  1.0 0.0402428651
C  C13  1  0.58020000  0.61490000  0.29790000  1.0 0.0650349377
C  C14  1  0.81700000  0.28230000  0.20210000  1.0 0.0650349377
C  C15  1  0.91980000  0.21770000  0.03470000  1.0 0.0650349377
C  C16  1  0.68300000  0.88510000  0.46530000  1.0 0.0650349377
C  C17  1  0.29790000  0.58020000  0.61490000  1.0 0.0650349377
C  C18  1  0.46530000  0.68300000  0.88510000  1.0 0.0650349377
C  C19  1  0.20210000  0.81700000  0.28230000  1.0 0.0650349377
C  C20  1  0.03470000  0.91980000  0.21770000  1.0 0.0650349377
C  C21  1  0.61490000  0.29790000  0.58020000  1.0 0.0650349377
C  C22  1  0.88510000  0.46530000  0.68300000  1.0 0.0650349377
C  C23  1  0.28230000  0.20210000  0.81700000  1.0 0.0650349377
C  C24  1  0.21770000  0.03470000  0.91980000  1.0 0.0644900913
C  C25  1  0.63430000  0.72710000  0.20820000  1.0 -0.235325669
C  C26  1  0.01890000  0.42610000  0.29180000  1.0 -0.235325669
C  C27  1  0.86570000  0.07390000  0.09280000  1.0 -0.235325669
C  C28  1  0.48110000  0.77290000  0.40720000  1.0 -0.235325669
C  C29  1  0.20820000  0.63430000  0.72710000  1.0 -0.235325669
C  C30  1  0.40720000  0.48110000  0.77290000  1.0 -0.235325669
C  C31  1  0.29180000  0.01890000  0.42610000  1.0 -0.235325669
C  C32  1  0.09280000  0.86570000  0.07390000  1.0 -0.235325669
C  C33  1  0.72710000  0.20820000  0.63430000  1.0 -0.235325669
C  C34  1  0.77290000  0.40720000  0.48110000  1.0 -0.235325669
C  C35  1  0.42610000  0.29180000  0.01890000  1.0 -0.235325669
C  C36  1  0.07390000  0.09280000  0.86570000  1.0 -0.235325669
C  C37  1  0.70670000  0.77940000  0.32890000  1.0 0.0910139042
C  C38  1  0.95050000  0.37780000  0.17110000  1.0 0.0910139042
C  C39  1  0.79330000  0.12220000  0.07270000  1.0 0.0910139042
C  C40  1  0.54950000  0.72060000  0.42730000  1.0 0.0910139042
C  C41  1  0.32890000  0.70670000  0.77940000  1.0 0.0910139042
C  C42  1  0.42730000  0.54950000  0.72060000  1.0 0.0910139042
C  C43  1  0.17110000  0.95050000  0.37780000  1.0 0.0910139042
C  C44  1  0.07270000  0.79330000  0.12220000  1.0 0.0910139042
C  C45  1  0.77940000  0.32890000  0.70670000  1.0 0.0910139042
C  C46  1  0.72060000  0.42730000  0.54950000  1.0 0.0910139042
C  C47  1  0.37780000  0.17110000  0.95050000  1.0 0.0910139042
C  C48  1  0.12220000  0.07270000  0.79330000  1.0 0.0910139042
C  C49  1  0.63770000  0.62250000  0.29480000  1.0 0.034560635
C  C50  1  0.82770000  0.34290000  0.20520000  1.0 0.034560635
C  C51  1  0.86230000  0.15710000  0.98480000  1.0 0.034560635
C  C52  1  0.67230000  0.87750000  0.51520000  1.0 0.034560635
C  C53  1  0.29480000  0.63770000  0.62250000  1.0 0.034560635
C  C54  1  0.51520000  0.67230000  0.87750000  1.0 0.034560635
C  C55  1  0.20520000  0.82770000  0.34290000  1.0 0.034560635
C  C56  1  0.98480000  0.86230000  0.15710000  1.0 0.034560635
C  C57  1  0.62250000  0.29480000  0.63770000  1.0 0.034560635
C  C58  1  0.87750000  0.51520000  0.67230000  1.0 0.034560635
C  C59  1  0.34290000  0.20520000  0.82770000  1.0 0.034560635
C  C60  1  0.15710000  0.98480000  0.86230000  1.0 0.034560635
C  C61  1  0.48480000  0.56600000  0.18900000  1.0 -0.1497600598
C  C62  1  0.87700000  0.29580000  0.31100000  1.0 -0.1497600598
C  C63  1  0.01520000  0.20420000  0.08120000  1.0 -0.1497600598
C  C64  1  0.62300000  0.93400000  0.41880000  1.0 -0.1497600598
C  C65  1  0.18900000  0.48480000  0.56600000  1.0 -0.1497600598
C  C66  1  0.41880000  0.62300000  0.93400000  1.0 -0.1497600598
C  C67  1  0.31100000  0.87700000  0.29580000  1.0 -0.1497600598
C  C68  1  0.08120000  0.01520000  0.20420000  1.0 -0.1497600598
C  C69  1  0.56600000  0.18900000  0.48480000  1.0 -0.1497600598
C  C70  1  0.93400000  0.41880000  0.62300000  1.0 -0.1497600598
C  C71  1  0.29580000  0.31100000  0.87700000  1.0 -0.1497600598
C  C72  1  0.20420000  0.08120000  0.01520000  1.0 -0.1497600598
C  C73  1  0.60040000  0.79110000  0.14670000  1.0 0.2673122773
C  C74  1  0.14440000  0.45370000  0.35330000  1.0 0.2673122773
C  C75  1  0.89960000  0.04630000  0.19070000  1.0 0.2673122773
C  C76  1  0.35560000  0.70890000  0.30930000  1.0 0.2673122773
C  C77  1  0.14670000  0.60040000  0.79110000  1.0 0.2673122773
C  C78  1  0.30930000  0.35560000  0.70890000  1.0 0.2673122773
C  C79  1  0.35330000  0.14440000  0.45370000  1.0 0.2673122773
C  C80  1  0.19070000  0.89960000  0.04630000  1.0 0.2673122773
C  C81  1  0.79110000  0.14670000  0.60040000  1.0 0.2673122773
C  C82  1  0.70890000  0.30930000  0.35560000  1.0 0.2673122773
C  C83  1  0.45370000  0.35330000  0.14440000  1.0 0.2673122773
C  C84  1  0.04630000  0.19070000  0.89960000  1.0 0.2673122773
C  C85  1  0.67800000  0.60340000  0.33440000  1.0 -0.2669941371
C  C86  1  0.76900000  0.34360000  0.16560000  1.0 -0.2669941371
C  C87  1  0.82200000  0.15640000  0.92540000  1.0 -0.2669941371
C  C88  1  0.73100000  0.89660000  0.57460000  1.0 -0.2669941371
C  C89  1  0.33440000  0.67800000  0.60340000  1.0 -0.2669941371
C  C90  1  0.57460000  0.73100000  0.89660000  1.0 -0.2669941371
C  C91  1  0.16560000  0.76900000  0.34360000  1.0 -0.2669941371
C  C92  1  0.92540000  0.82200000  0.15640000  1.0 -0.2669941371
C  C93  1  0.60340000  0.33440000  0.67800000  1.0 -0.2669941371
C  C94  1  0.89660000  0.57460000  0.73100000  1.0 -0.2669941371
C  C95  1  0.34360000  0.16560000  0.76900000  1.0 -0.2669941371
C  C96  1  0.15640000  0.92540000  0.82200000  1.0 -0.2669941371
C  C97  1  0.56100000  0.59410000  0.33990000  1.0 0.0212665895
C  C98  1  0.75420000  0.22110000  0.16010000  1.0 0.0212665895
C  C99  1  0.93900000  0.27890000  0.03310000  1.0 0.0212665895
C  C100  1  0.74580000  0.90590000  0.46690000  1.0 0.0212665895
C  C101  1  0.33990000  0.56100000  0.59410000  1.0 0.0212665895
C  C102  1  0.46690000  0.74580000  0.90590000  1.0 0.0212665895
C  C103  1  0.16010000  0.75420000  0.22110000  1.0 0.0212665895
C  C104  1  0.03310000  0.93900000  0.27890000  1.0 0.0212665895
C  C105  1  0.59410000  0.33990000  0.56100000  1.0 0.0212665895
C  C106  1  0.90590000  0.46690000  0.74580000  1.0 0.0212665895
C  C107  1  0.22110000  0.16010000  0.75420000  1.0 0.0212665895
C  C108  1  0.27890000  0.03310000  0.93900000  1.0 0.0212665895
C  C109  1  0.63730000  0.78920000  0.21230000  1.0 0.0650349377
C  C110  1  0.07690000  0.42500000  0.28770000  1.0 0.0650349377
C  C111  1  0.86270000  0.07500000  0.15190000  1.0 0.0650349377
C  C112  1  0.42310000  0.71080000  0.34810000  1.0 0.0650349377
C  C113  1  0.21230000  0.63730000  0.78920000  1.0 0.0650349377
C  C114  1  0.34810000  0.42310000  0.71080000  1.0 0.0650349377
C  C115  1  0.28770000  0.07690000  0.42500000  1.0 0.0650349377
C  C116  1  0.15190000  0.86270000  0.07500000  1.0 0.0650349377
C  C117  1  0.78920000  0.21230000  0.63730000  1.0 0.0650349377
C  C118  1  0.71080000  0.34810000  0.42310000  1.0 0.0650349377
C  C119  1  0.42500000  0.28770000  0.07690000  1.0 0.0650349377
C  C120  1  0.07500000  0.15190000  0.86270000  1.0 0.0650349377
C  C121  1  0.66500000  0.72020000  0.26160000  1.0 0.0402428651
C  C122  1  0.95860000  0.40340000  0.23840000  1.0 0.0402428651
C  C123  1  0.83500000  0.09660000  0.05520000  1.0 0.0402428651
C  C124  1  0.54140000  0.77980000  0.44480000  1.0 0.0402428651
C  C125  1  0.26160000  0.66500000  0.72020000  1.0 0.0402428651
C  C126  1  0.44480000  0.54140000  0.77980000  1.0 0.0402428651
C  C127  1  0.23840000  0.95860000  0.40340000  1.0 0.0402428651
C  C128  1  0.05520000  0.83500000  0.09660000  1.0 0.0402428651
C  C129  1  0.72020000  0.26160000  0.66500000  1.0 0.0402428651
C  C130  1  0.77980000  0.44480000  0.54140000  1.0 0.0402428651
C  C131  1  0.40340000  0.23840000  0.95860000  1.0 0.0402428651
C  C132  1  0.09660000  0.05520000  0.83500000  1.0 0.0402428651
C  C133  1  0.67350000  0.84340000  0.27550000  1.0 -0.2450835814
C  C134  1  0.06790000  0.39800000  0.22450000  1.0 -0.2450835814
C  C135  1  0.82650000  0.10200000  0.16990000  1.0 -0.2450835814
C  C136  1  0.43210000  0.65660000  0.33010000  1.0 -0.2450835814
C  C137  1  0.27550000  0.67350000  0.84340000  1.0 -0.2450835814
C  C138  1  0.33010000  0.43210000  0.65660000  1.0 -0.2450835814
C  C139  1  0.22450000  0.06790000  0.39800000  1.0 -0.2450835814
C  C140  1  0.16990000  0.82650000  0.10200000  1.0 -0.2450835814
C  C141  1  0.84340000  0.27550000  0.67350000  1.0 -0.2450835814
C  C142  1  0.65660000  0.33010000  0.43210000  1.0 -0.2450835814
C  C143  1  0.39800000  0.22450000  0.06790000  1.0 -0.2450835814
C  C144  1  0.10200000  0.16990000  0.82650000  1.0 -0.2450835814
C  C145  1  0.42680000  0.57600000  0.14460000  1.0 0.5966412315
C  C146  1  0.93140000  0.28220000  0.35540000  1.0 0.5966412315
C  C147  1  0.07320000  0.21780000  0.14920000  1.0 0.5966412315
C  C148  1  0.56860000  0.92400000  0.35080000  1.0 0.5966412315
C  C149  1  0.14460000  0.42680000  0.57600000  1.0 0.5966412315
C  C150  1  0.35080000  0.56860000  0.92400000  1.0 0.5966412315
C  C151  1  0.35540000  0.93140000  0.28220000  1.0 0.5966412315
C  C152  1  0.14920000  0.07320000  0.21780000  1.0 0.5966412315
C  C153  1  0.57600000  0.14460000  0.42680000  1.0 0.5966412315
C  C154  1  0.92400000  0.35080000  0.56860000  1.0 0.5966412315
C  C155  1  0.28220000  0.35540000  0.93140000  1.0 0.5966412315
C  C156  1  0.21780000  0.14920000  0.07320000  1.0 0.5966412315
C  C157  1  0.65830000  0.57720000  0.37630000  1.0 0.0819454084
C  C158  1  0.70090000  0.28200000  0.12370000  1.0 0.0819454084
C  C159  1  0.84170000  0.21800000  0.91890000  1.0 0.0819454084
C  C160  1  0.79910000  0.92280000  0.58110000  1.0 0.0819454084
C  C161  1  0.37630000  0.65830000  0.57720000  1.0 0.0819454084
C  C162  1  0.58110000  0.79910000  0.92280000  1.0 0.0819454084
C  C163  1  0.12370000  0.70090000  0.28200000  1.0 0.0819454084
C  C164  1  0.91890000  0.84170000  0.21800000  1.0 0.0819454084
C  C165  1  0.57720000  0.37630000  0.65830000  1.0 0.0819454084
C  C166  1  0.92280000  0.58110000  0.79910000  1.0 0.0819454084
C  C167  1  0.28200000  0.12370000  0.70090000  1.0 0.0819454084
C  C168  1  0.21800000  0.91890000  0.84170000  1.0 0.0819454084
C  C169  1  0.60310000  0.57420000  0.37770000  1.0 -0.2071410837
C  C170  1  0.69650000  0.22540000  0.12230000  1.0 -0.2071410837
C  C171  1  0.89690000  0.27460000  0.97110000  1.0 -0.2071410837
C  C172  1  0.80350000  0.92580000  0.52890000  1.0 -0.2071410837
C  C173  1  0.37770000  0.60310000  0.57420000  1.0 -0.2071410837
C  C174  1  0.52890000  0.80350000  0.92580000  1.0 -0.2071410837
C  C175  1  0.12230000  0.69650000  0.22540000  1.0 -0.2071410837
C  C176  1  0.97110000  0.89690000  0.27460000  1.0 -0.2071410837
C  C177  1  0.57420000  0.37770000  0.60310000  1.0 -0.2071410837
C  C178  1  0.92580000  0.52890000  0.80350000  1.0 -0.2071410837
C  C179  1  0.22540000  0.12230000  0.69650000  1.0 -0.2071410837
C  C180  1  0.27460000  0.97110000  0.89690000  1.0 -0.2071410837
C  C181  1  0.66110000  0.64900000  0.25130000  1.0 -0.2669941371
C  C182  1  0.89770000  0.40980000  0.24870000  1.0 -0.2669941371
C  C183  1  0.83890000  0.09020000  0.98790000  1.0 -0.2669941371
C  C184  1  0.60230000  0.85100000  0.51210000  1.0 -0.2669941371
C  C185  1  0.25130000  0.66110000  0.64900000  1.0 -0.2669941371
C  C186  1  0.51210000  0.60230000  0.85100000  1.0 -0.2669941371
C  C187  1  0.24870000  0.89770000  0.40980000  1.0 -0.2669941371
C  C188  1  0.98790000  0.83890000  0.09020000  1.0 -0.2669941371
C  C189  1  0.64900000  0.25130000  0.66110000  1.0 -0.2669941371
C  C190  1  0.85100000  0.51210000  0.60230000  1.0 -0.2669941371
C  C191  1  0.40980000  0.24870000  0.89770000  1.0 -0.2669941371
C  C192  1  0.09020000  0.98790000  0.83890000  1.0 -0.2669941371
C  C193  1  0.73700000  0.60850000  0.49730000  1.0 -0.4676790713
C  C194  1  0.61120000  0.23970000  0.00270000  1.0 -0.4676790713
C  C195  1  0.76300000  0.26030000  0.87150000  1.0 -0.4676790713
C  C196  1  0.88880000  0.89150000  0.62850000  1.0 -0.4676790713
C  C197  1  0.49730000  0.73700000  0.60850000  1.0 -0.4676790713
C  C198  1  0.62850000  0.88880000  0.89150000  1.0 -0.4676790713
C  C199  1  0.00270000  0.61120000  0.23970000  1.0 -0.4676790713
C  C200  1  0.87150000  0.76300000  0.26030000  1.0 -0.4676790713
C  C201  1  0.60850000  0.49730000  0.73700000  1.0 -0.4676790713
C  C202  1  0.89150000  0.62850000  0.88880000  1.0 -0.4676790713
C  C203  1  0.23970000  0.00270000  0.61120000  1.0 -0.4676790713
C  C204  1  0.26030000  0.87150000  0.76300000  1.0 -0.4676790713
C  C205  1  0.50070000  0.59080000  0.34550000  1.0 -0.2804831376
C  C206  1  0.74530000  0.15520000  0.15450000  1.0 -0.2804831376
C  C207  1  0.99930000  0.34480000  0.09010000  1.0 -0.2804831376
C  C208  1  0.75470000  0.90920000  0.40990000  1.0 -0.2804831376
C  C209  1  0.34550000  0.50070000  0.59080000  1.0 -0.2804831376
C  C210  1  0.40990000  0.75470000  0.90920000  1.0 -0.2804831376
C  C211  1  0.15450000  0.74530000  0.15520000  1.0 -0.2804831376
C  C212  1  0.09010000  0.99930000  0.34480000  1.0 -0.2804831376
C  C213  1  0.59080000  0.34550000  0.50070000  1.0 -0.2804831376
C  C214  1  0.90920000  0.40990000  0.75470000  1.0 -0.2804831376
C  C215  1  0.15520000  0.15450000  0.74530000  1.0 -0.2804831376
C  C216  1  0.34480000  0.09010000  0.99930000  1.0 -0.2804831376
C  C217  1  0.52030000  0.75650000  0.12520000  1.0 -0.4676790713
C  C218  1  0.13130000  0.39510000  0.37480000  1.0 -0.4676790713
C  C219  1  0.97970000  0.10490000  0.23620000  1.0 -0.4676790713
C  C220  1  0.36870000  0.74350000  0.26380000  1.0 -0.4676790713
C  C221  1  0.12520000  0.52030000  0.75650000  1.0 -0.4676790713
C  C222  1  0.26380000  0.36870000  0.74350000  1.0 -0.4676790713
C  C223  1  0.37480000  0.13130000  0.39510000  1.0 -0.4676790713
C  C224  1  0.23620000  0.97970000  0.10490000  1.0 -0.4676790713
C  C225  1  0.75650000  0.12520000  0.52030000  1.0 -0.4676790713
C  C226  1  0.74350000  0.26380000  0.36870000  1.0 -0.4676790713
C  C227  1  0.39510000  0.37480000  0.13130000  1.0 -0.4676790713
C  C228  1  0.10490000  0.23620000  0.97970000  1.0 -0.4676790713
C  C229  1  0.62430000  0.86850000  0.16060000  1.0 -0.4676790713
C  C230  1  0.20790000  0.46370000  0.33940000  1.0 -0.4676790713
C  C231  1  0.87570000  0.03630000  0.24420000  1.0 -0.4676790713
C  C232  1  0.29210000  0.63150000  0.25580000  1.0 -0.4676790713
C  C233  1  0.16060000  0.62430000  0.86850000  1.0 -0.4676790713
C  C234  1  0.25580000  0.29210000  0.63150000  1.0 -0.4676790713
C  C235  1  0.33940000  0.20790000  0.46370000  1.0 -0.4676790713
C  C236  1  0.24420000  0.87570000  0.03630000  1.0 -0.4676790713
C  C237  1  0.86850000  0.16060000  0.62430000  1.0 -0.4676790713
C  C238  1  0.63150000  0.25580000  0.29210000  1.0 -0.4676790713
C  C239  1  0.46370000  0.33940000  0.20790000  1.0 -0.4676790713
C  C240  1  0.03630000  0.24420000  0.87570000  1.0 -0.4676790713
C  C241  1  0.76020000  0.54830000  0.39690000  1.0 -0.4676790713
C  C242  1  0.65140000  0.36330000  0.10310000  1.0 -0.4676790713
C  C243  1  0.73980000  0.13670000  0.78810000  1.0 -0.4676790713
C  C244  1  0.84860000  0.95170000  0.71190000  1.0 -0.4676790713
C  C245  1  0.39690000  0.76020000  0.54830000  1.0 -0.4676790713
C  C246  1  0.71190000  0.84860000  0.95170000  1.0 -0.4676790713
C  C247  1  0.10310000  0.65140000  0.36330000  1.0 -0.4676790713
C  C248  1  0.78810000  0.73980000  0.13670000  1.0 -0.4676790713
C  C249  1  0.54830000  0.39690000  0.76020000  1.0 -0.4676790713
C  C250  1  0.95170000  0.71190000  0.84860000  1.0 -0.4676790713
C  C251  1  0.36330000  0.10310000  0.65140000  1.0 -0.4676790713
C  C252  1  0.13670000  0.78810000  0.73980000  1.0 -0.4676790713
C  C253  1  0.65970000  0.48600000  0.39890000  1.0 -0.4919206287
C  C254  1  0.58710000  0.26080000  0.10110000  1.0 -0.4919206287
C  C255  1  0.84030000  0.23920000  0.82630000  1.0 -0.4919206287
C  C256  1  0.91290000  0.01400000  0.67370000  1.0 -0.4919206287
C  C257  1  0.39890000  0.65970000  0.48600000  1.0 -0.4919206287
C  C258  1  0.67370000  0.91290000  0.01400000  1.0 -0.4919206287
C  C259  1  0.10110000  0.58710000  0.26080000  1.0 -0.4919206287
C  C260  1  0.82630000  0.84030000  0.23920000  1.0 -0.4919206287
C  C261  1  0.48600000  0.39890000  0.65970000  1.0 -0.4919206287
C  C262  1  0.01400000  0.67370000  0.91290000  1.0 -0.4919206287
C  C263  1  0.26080000  0.10110000  0.58710000  1.0 -0.4919206287
C  C264  1  0.23920000  0.82630000  0.84030000  1.0 -0.4919206287
C  C265  1  0.60460000  0.75420000  0.08720000  1.0 -0.4968288725
C  C266  1  0.16700000  0.51740000  0.41280000  1.0 -0.4968288725
C  C267  1  0.89540000  0.98260000  0.14960000  1.0 -0.4968288725
C  C268  1  0.33300000  0.74580000  0.35040000  1.0 -0.4968288725
C  C269  1  0.08720000  0.60460000  0.75420000  1.0 -0.4968288725
C  C270  1  0.35040000  0.33300000  0.74580000  1.0 -0.4968288725
C  C271  1  0.41280000  0.16700000  0.51740000  1.0 -0.4968288725
C  C272  1  0.14960000  0.89540000  0.98260000  1.0 -0.4968288725
C  C273  1  0.75420000  0.08720000  0.60460000  1.0 -0.4968288725
C  C274  1  0.74580000  0.35040000  0.33300000  1.0 -0.4968288725
C  C275  1  0.51740000  0.41280000  0.16700000  1.0 -0.4968288725
C  C276  1  0.98260000  0.14960000  0.89540000  1.0 -0.4968288725
C  C277  1  0.70710000  0.55420000  0.41530000  1.0 0.2507794986
C  C278  1  0.63890000  0.29180000  0.08470000  1.0 0.2507794986
C  C279  1  0.79290000  0.20820000  0.84710000  1.0 0.2507794986
C  C280  1  0.86110000  0.94580000  0.65290000  1.0 0.2507794986
C  C281  1  0.41530000  0.70710000  0.55420000  1.0 0.2507794986
C  C282  1  0.65290000  0.86110000  0.94580000  1.0 0.2507794986
C  C283  1  0.08470000  0.63890000  0.29180000  1.0 0.2507794986
C  C284  1  0.84710000  0.79290000  0.20820000  1.0 0.2507794986
C  C285  1  0.55420000  0.41530000  0.70710000  1.0 0.2507794986
C  C286  1  0.94580000  0.65290000  0.86110000  1.0 0.2507794986
C  C287  1  0.29180000  0.08470000  0.63890000  1.0 0.2507794986
C  C288  1  0.20820000  0.84710000  0.79290000  1.0 0.2507794986
C  C289  1  0.80050000  0.78590000  0.41160000  1.0 -0.1588440101
C  C290  1  0.87430000  0.38890000  0.08840000  1.0 -0.1588440101
C  C291  1  0.69950000  0.11110000  0.98540000  1.0 -0.1588440101
C  C292  1  0.62570000  0.71410000  0.51460000  1.0 -0.1588440101
C  C293  1  0.41160000  0.80050000  0.78590000  1.0 -0.1588440101
C  C294  1  0.51460000  0.62570000  0.71410000  1.0 -0.1588440101
C  C295  1  0.08840000  0.87430000  0.38890000  1.0 -0.1588440101
C  C296  1  0.98540000  0.69950000  0.11110000  1.0 -0.1588440101
C  C297  1  0.78590000  0.41160000  0.80050000  1.0 -0.1588440101
C  C298  1  0.71410000  0.51460000  0.62570000  1.0 -0.1588440101
C  C299  1  0.38890000  0.08840000  0.87430000  1.0 -0.1588440101
C  C300  1  0.11110000  0.98540000  0.69950000  1.0 -0.1588440101
O  O1  1  0.53330000  0.62620000  0.25290000  1.0 -0.2562389384
O  O2  1  0.87330000  0.28040000  0.24710000  1.0 -0.2562389384
O  O3  1  0.96670000  0.21960000  0.09290000  1.0 -0.2562389384
O  O4  1  0.62670000  0.87380000  0.40710000  1.0 -0.2562389384
O  O5  1  0.25290000  0.53330000  0.62620000  1.0 -0.2562389384
O  O6  1  0.40710000  0.62670000  0.87380000  1.0 -0.2562389384
O  O7  1  0.24710000  0.87330000  0.28040000  1.0 -0.2562389384
O  O8  1  0.09290000  0.96670000  0.21960000  1.0 -0.2562389384
O  O9  1  0.62620000  0.25290000  0.53330000  1.0 -0.2562389384
O  O10  1  0.87380000  0.40710000  0.62670000  1.0 -0.2562389384
O  O11  1  0.28040000  0.24710000  0.87330000  1.0 -0.2562389384
O  O12  1  0.21960000  0.09290000  0.96670000  1.0 -0.2562389384
O  O13  1  0.42280000  0.62740000  0.16600000  1.0 -0.5562396457
O  O14  1  0.96140000  0.25680000  0.33400000  1.0 -0.5562396457
O  O15  1  0.07720000  0.24320000  0.20460000  1.0 -0.5562396457
O  O16  1  0.53860000  0.87260000  0.29540000  1.0 -0.5562396457
O  O17  1  0.16600000  0.42280000  0.62740000  1.0 -0.5562396457
O  O18  1  0.29540000  0.53860000  0.87260000  1.0 -0.5562396457
O  O19  1  0.33400000  0.96140000  0.25680000  1.0 -0.5562396457
O  O20  1  0.20460000  0.07720000  0.24320000  1.0 -0.5562396457
O  O21  1  0.62740000  0.16600000  0.42280000  1.0 -0.5562396457
O  O22  1  0.87260000  0.29540000  0.53860000  1.0 -0.5562396457
O  O23  1  0.25680000  0.33400000  0.96140000  1.0 -0.5562396457
O  O24  1  0.24320000  0.20460000  0.07720000  1.0 -0.5562396457
O  O25  1  0.73910000  0.77500000  0.38650000  1.0 -0.09447043
O  O26  1  0.88850000  0.35260000  0.11350000  1.0 -0.09447043
O  O27  1  0.76090000  0.14740000  0.03590000  1.0 -0.09447043
O  O28  1  0.61150000  0.72500000  0.46410000  1.0 -0.09447043
O  O29  1  0.38650000  0.73910000  0.77500000  1.0 -0.09447043
O  O30  1  0.46410000  0.61150000  0.72500000  1.0 -0.09447043
O  O31  1  0.11350000  0.88850000  0.35260000  1.0 -0.09447043
O  O32  1  0.03590000  0.76090000  0.14740000  1.0 -0.09447043
O  O33  1  0.77500000  0.38650000  0.73910000  1.0 -0.09447043
O  O34  1  0.72500000  0.46410000  0.61150000  1.0 -0.09447043
O  O35  1  0.35260000  0.11350000  0.88850000  1.0 -0.09447043
O  O36  1  0.14740000  0.03590000  0.76090000  1.0 -0.09447043
O  O37  1  0.38200000  0.51730000  0.08270000  1.0 -0.6386518389
O  O38  1  0.93460000  0.29930000  0.41730000  1.0 -0.6386518389
O  O39  1  0.11800000  0.20070000  0.13530000  1.0 -0.6386518389
O  O40  1  0.56540000  0.98270000  0.36470000  1.0 -0.6386518389
O  O41  1  0.08270000  0.38200000  0.51730000  1.0 -0.6386518389
O  O42  1  0.36470000  0.56540000  0.98270000  1.0 -0.6386518389
O  O43  1  0.41730000  0.93460000  0.29930000  1.0 -0.6386518389
O  O44  1  0.13530000  0.11800000  0.20070000  1.0 -0.6386518389
O  O45  1  0.51730000  0.08270000  0.38200000  1.0 -0.6386518389
O  O46  1  0.98270000  0.36470000  0.56540000  1.0 -0.6386518389
O  O47  1  0.29930000  0.41730000  0.93460000  1.0 -0.6386518389
O  O48  1  0.20070000  0.13530000  0.11800000  1.0 -0.6386518389
