# DDEC6 charges by PACMAN v1.1 (https://github.com/mtap-research/PACMAN-charge/)
data_LOPZEW_ASR_pacman
_symmetry_space_group_name_H-M   'P 1'
_cell_length_a   23.42250000
_cell_length_b   23.42250000
_cell_length_c   23.42250000
_cell_angle_alpha   109.47100000
_cell_angle_beta   109.47100000
_cell_angle_gamma   109.47100000
_symmetry_Int_Tables_number   1
_chemical_formula_structural   K3Co2H186(C25O4)6
_chemical_formula_sum   'K6 Co4 H372 C300 O48'
_cell_volume   9891.93832027
_cell_formula_units_Z   2
loop_
 _symmetry_equiv_pos_site_id
 _symmetry_equiv_pos_as_xyz
  1  'x, y, z'
loop_
 _atom_site_type_symbol
 _atom_site_label
 _atom_site_symmetry_multiplicity
 _atom_site_fract_x
 _atom_site_fract_y
 _atom_site_fract_z
 _atom_site_occupancy
 _atom_site_charge
K  K1  1  0.96685000  0.25000000  0.21685000  1.0 0.8627635896
K  K2  1  0.53315000  0.75000000  0.28315000  1.0 0.8627635896
K  K3  1  0.21685000  0.96685000  0.25000000  1.0 0.8627635896
K  K4  1  0.28315000  0.53315000  0.75000000  1.0 0.8627635896
K  K5  1  0.25000000  0.21685000  0.96685000  1.0 0.8627635896
K  K6  1  0.75000000  0.28315000  0.53315000  1.0 0.8627635896
Co  Co1  1  0.20344000  0.20344000  0.20344000  1.0 1.1001446605
Co  Co2  1  0.50000000  0.00000000  0.29656000  1.0 1.1001446605
Co  Co3  1  0.00000000  0.29656000  0.50000000  1.0 1.1001446605
Co  Co4  1  0.29656000  0.50000000  0.00000000  1.0 1.1001446605
H  H1  1  0.79150000  0.05610000  0.94980000  1.0 0.1216379244
H  H2  1  0.60630000  0.84170000  0.55020000  1.0 0.1216379244
H  H3  1  0.89370000  0.44390000  0.23540000  1.0 0.1216379244
H  H4  1  0.70850000  0.65830000  0.26460000  1.0 0.1216379244
H  H5  1  0.94980000  0.79150000  0.05610000  1.0 0.1216379244
H  H6  1  0.55020000  0.60630000  0.84170000  1.0 0.1216379244
H  H7  1  0.23540000  0.89370000  0.44390000  1.0 0.1216379244
H  H8  1  0.26460000  0.70850000  0.65830000  1.0 0.1216379244
H  H9  1  0.05610000  0.94980000  0.79150000  1.0 0.1216379244
H  H10  1  0.84170000  0.55020000  0.60630000  1.0 0.1216379244
H  H11  1  0.44390000  0.23540000  0.89370000  1.0 0.1216379244
H  H12  1  0.65830000  0.26460000  0.70850000  1.0 0.1216379244
H  H13  1  0.86820000  0.07020000  0.98340000  1.0 0.1216379244
H  H14  1  0.58680000  0.88480000  0.51660000  1.0 0.1216379244
H  H15  1  0.91320000  0.42980000  0.29800000  1.0 0.1216379244
H  H16  1  0.63180000  0.61520000  0.20200000  1.0 0.1216379244
H  H17  1  0.98340000  0.86820000  0.07020000  1.0 0.1216379244
H  H18  1  0.51660000  0.58680000  0.88480000  1.0 0.1216379244
H  H19  1  0.29800000  0.91320000  0.42980000  1.0 0.1216379244
H  H20  1  0.20200000  0.63180000  0.61520000  1.0 0.1216379244
H  H21  1  0.07020000  0.98340000  0.86820000  1.0 0.1216379244
H  H22  1  0.88480000  0.51660000  0.58680000  1.0 0.1216379244
H  H23  1  0.42980000  0.29800000  0.91320000  1.0 0.1216379244
H  H24  1  0.61520000  0.20200000  0.63180000  1.0 0.1216379244
H  H25  1  0.03170000  0.22490000  0.06320000  1.0 0.1306938135
H  H26  1  0.66170000  0.96850000  0.43680000  1.0 0.1306938135
H  H27  1  0.83830000  0.27510000  0.30680000  1.0 0.1306938135
H  H28  1  0.46830000  0.53150000  0.19320000  1.0 0.1306938135
H  H29  1  0.06320000  0.03170000  0.22490000  1.0 0.1306938135
H  H30  1  0.43680000  0.66170000  0.96850000  1.0 0.1306938135
H  H31  1  0.30680000  0.83830000  0.27510000  1.0 0.1306938135
H  H32  1  0.19320000  0.46830000  0.53150000  1.0 0.1306938135
H  H33  1  0.22490000  0.06320000  0.03170000  1.0 0.1306938135
H  H34  1  0.96850000  0.43680000  0.66170000  1.0 0.1306938135
H  H35  1  0.27510000  0.30680000  0.83830000  1.0 0.1306938135
H  H36  1  0.53150000  0.19320000  0.46830000  1.0 0.1306938135
H  H37  1  0.98670000  0.15050000  0.05060000  1.0 0.1306938135
H  H38  1  0.59990000  0.93610000  0.44940000  1.0 0.1306938135
H  H39  1  0.90010000  0.34950000  0.33620000  1.0 0.1306938135
H  H40  1  0.51330000  0.56390000  0.16380000  1.0 0.1306938135
H  H41  1  0.05060000  0.98670000  0.15050000  1.0 0.1306938135
H  H42  1  0.44940000  0.59990000  0.93610000  1.0 0.1306938135
H  H43  1  0.33620000  0.90010000  0.34950000  1.0 0.1306938135
H  H44  1  0.16380000  0.51330000  0.56390000  1.0 0.1306938135
H  H45  1  0.15050000  0.05060000  0.98670000  1.0 0.1306938135
H  H46  1  0.93610000  0.44940000  0.59990000  1.0 0.1306938135
H  H47  1  0.34950000  0.33620000  0.90010000  1.0 0.1306938135
H  H48  1  0.56390000  0.16380000  0.51330000  1.0 0.1306938135
H  H49  1  0.77910000  0.11340000  0.89010000  1.0 0.113405698
H  H50  1  0.72330000  0.88900000  0.60990000  1.0 0.113405698
H  H51  1  0.77670000  0.38660000  0.16570000  1.0 0.113405698
H  H52  1  0.72090000  0.61100000  0.33430000  1.0 0.113405698
H  H53  1  0.89010000  0.77910000  0.11340000  1.0 0.113405698
H  H54  1  0.60990000  0.72330000  0.88900000  1.0 0.113405698
H  H55  1  0.16570000  0.77670000  0.38660000  1.0 0.113405698
H  H56  1  0.33430000  0.72090000  0.61100000  1.0 0.113405698
H  H57  1  0.11340000  0.89010000  0.77910000  1.0 0.113405698
H  H58  1  0.88900000  0.60990000  0.72330000  1.0 0.113405698
H  H59  1  0.38660000  0.16570000  0.77670000  1.0 0.113405698
H  H60  1  0.61100000  0.33430000  0.72090000  1.0 0.113405698
H  H61  1  0.91320000  0.31530000  0.96930000  1.0 0.1216379244
H  H62  1  0.84600000  0.94390000  0.53070000  1.0 0.1216379244
H  H63  1  0.65400000  0.18470000  0.09790000  1.0 0.1216379244
H  H64  1  0.58680000  0.55610000  0.40210000  1.0 0.1216379244
H  H65  1  0.96930000  0.91320000  0.31530000  1.0 0.1216379244
H  H66  1  0.53070000  0.84600000  0.94390000  1.0 0.1216379244
H  H67  1  0.09790000  0.65400000  0.18470000  1.0 0.1216379244
H  H68  1  0.40210000  0.58680000  0.55610000  1.0 0.1216379244
H  H69  1  0.31530000  0.96930000  0.91320000  1.0 0.1216379244
H  H70  1  0.94390000  0.53070000  0.84600000  1.0 0.1216379244
H  H71  1  0.18470000  0.09790000  0.65400000  1.0 0.1216379244
H  H72  1  0.55610000  0.40210000  0.58680000  1.0 0.1216379244
H  H73  1  0.88520000  0.29650000  0.86590000  1.0 0.1216379244
H  H74  1  0.93060000  0.01930000  0.63410000  1.0 0.1216379244
H  H75  1  0.56940000  0.20350000  0.08870000  1.0 0.1216379244
H  H76  1  0.61480000  0.48070000  0.41130000  1.0 0.1216379244
H  H77  1  0.86590000  0.88520000  0.29650000  1.0 0.1216379244
H  H78  1  0.63410000  0.93060000  0.01930000  1.0 0.1216379244
H  H79  1  0.08870000  0.56940000  0.20350000  1.0 0.1216379244
H  H80  1  0.41130000  0.61480000  0.48070000  1.0 0.1216379244
H  H81  1  0.29650000  0.86590000  0.88520000  1.0 0.1216379244
H  H82  1  0.01930000  0.63410000  0.93060000  1.0 0.1216379244
H  H83  1  0.20350000  0.08870000  0.56940000  1.0 0.1216379244
H  H84  1  0.48070000  0.41130000  0.61480000  1.0 0.1216379244
H  H85  1  0.82530000  0.25190000  0.78760000  1.0 0.1306938135
H  H86  1  0.96430000  0.03770000  0.71240000  1.0 0.1306938135
H  H87  1  0.53570000  0.24810000  0.07340000  1.0 0.1306938135
H  H88  1  0.67470000  0.46230000  0.42660000  1.0 0.1306938135
H  H89  1  0.78760000  0.82530000  0.25190000  1.0 0.1306938135
H  H90  1  0.71240000  0.96430000  0.03770000  1.0 0.1306938135
H  H91  1  0.07340000  0.53570000  0.24810000  1.0 0.1306938135
H  H92  1  0.42660000  0.67470000  0.46230000  1.0 0.1306938135
H  H93  1  0.25190000  0.78760000  0.82530000  1.0 0.1306938135
H  H94  1  0.03770000  0.71240000  0.96430000  1.0 0.1306938135
H  H95  1  0.24810000  0.07340000  0.53570000  1.0 0.1306938135
H  H96  1  0.46230000  0.42660000  0.67470000  1.0 0.1306938135
H  H97  1  0.87590000  0.22580000  0.81610000  1.0 0.1406805385
H  H98  1  0.90970000  0.05980000  0.68390000  1.0 0.1406805385
H  H99  1  0.59030000  0.27420000  0.15010000  1.0 0.1406805385
H  H100  1  0.62410000  0.44020000  0.34990000  1.0 0.1406805385
H  H101  1  0.81610000  0.87590000  0.22580000  1.0 0.1406805385
H  H102  1  0.68390000  0.90970000  0.05980000  1.0 0.1406805385
H  H103  1  0.15010000  0.59030000  0.27420000  1.0 0.1406805385
H  H104  1  0.34990000  0.62410000  0.44020000  1.0 0.1406805385
H  H105  1  0.22580000  0.81610000  0.87590000  1.0 0.1406805385
H  H106  1  0.05980000  0.68390000  0.90970000  1.0 0.1406805385
H  H107  1  0.27420000  0.15010000  0.59030000  1.0 0.1406805385
H  H108  1  0.44020000  0.34990000  0.62410000  1.0 0.1406805385
H  H109  1  0.02400000  0.44590000  0.34070000  1.0 0.1306938135
H  H110  1  0.60520000  0.68330000  0.15930000  1.0 0.1306938135
H  H111  1  0.89480000  0.05410000  0.07810000  1.0 0.1306938135
H  H112  1  0.47600000  0.81670000  0.42190000  1.0 0.1306938135
H  H113  1  0.34070000  0.02400000  0.44590000  1.0 0.1306938135
H  H114  1  0.15930000  0.60520000  0.68330000  1.0 0.1306938135
H  H115  1  0.07810000  0.89480000  0.05410000  1.0 0.1306938135
H  H116  1  0.42190000  0.47600000  0.81670000  1.0 0.1306938135
H  H117  1  0.44590000  0.34070000  0.02400000  1.0 0.1306938135
H  H118  1  0.68330000  0.15930000  0.60520000  1.0 0.1306938135
H  H119  1  0.05410000  0.07810000  0.89480000  1.0 0.1306938135
H  H120  1  0.81670000  0.42190000  0.47600000  1.0 0.1306938135
H  H121  1  0.00840000  0.37990000  0.07870000  1.0 0.1216379244
H  H122  1  0.80120000  0.92970000  0.42130000  1.0 0.1216379244
H  H123  1  0.69880000  0.12010000  0.12850000  1.0 0.1216379244
H  H124  1  0.49160000  0.57030000  0.37150000  1.0 0.1216379244
H  H125  1  0.07870000  0.00840000  0.37990000  1.0 0.1216379244
H  H126  1  0.42130000  0.80120000  0.92970000  1.0 0.1216379244
H  H127  1  0.12850000  0.69880000  0.12010000  1.0 0.1216379244
H  H128  1  0.37150000  0.49160000  0.57030000  1.0 0.1216379244
H  H129  1  0.37990000  0.07870000  0.00840000  1.0 0.1216379244
H  H130  1  0.92970000  0.42130000  0.80120000  1.0 0.1216379244
H  H131  1  0.12010000  0.12850000  0.69880000  1.0 0.1216379244
H  H132  1  0.57030000  0.37150000  0.49160000  1.0 0.1216379244
H  H133  1  0.04400000  0.33860000  0.09900000  1.0 0.1216379244
H  H134  1  0.73960000  0.94500000  0.40100000  1.0 0.1216379244
H  H135  1  0.76040000  0.16140000  0.20540000  1.0 0.1216379244
H  H136  1  0.45600000  0.55500000  0.29460000  1.0 0.1216379244
H  H137  1  0.09900000  0.04400000  0.33860000  1.0 0.1216379244
H  H138  1  0.40100000  0.73960000  0.94500000  1.0 0.1216379244
H  H139  1  0.20540000  0.76040000  0.16140000  1.0 0.1216379244
H  H140  1  0.29460000  0.45600000  0.55500000  1.0 0.1216379244
H  H141  1  0.33860000  0.09900000  0.04400000  1.0 0.1216379244
H  H142  1  0.94500000  0.40100000  0.73960000  1.0 0.1216379244
H  H143  1  0.16140000  0.20540000  0.76040000  1.0 0.1216379244
H  H144  1  0.55500000  0.29460000  0.45600000  1.0 0.1216379244
H  H145  1  0.10900000  0.40060000  0.21900000  1.0 0.1306938135
H  H146  1  0.68160000  0.89000000  0.28100000  1.0 0.1306938135
H  H147  1  0.81840000  0.09940000  0.20840000  1.0 0.1306938135
H  H148  1  0.39100000  0.61000000  0.29160000  1.0 0.1306938135
H  H149  1  0.21900000  0.10900000  0.40060000  1.0 0.1306938135
H  H150  1  0.28100000  0.68160000  0.89000000  1.0 0.1306938135
H  H151  1  0.20840000  0.81840000  0.09940000  1.0 0.1306938135
H  H152  1  0.29160000  0.39100000  0.61000000  1.0 0.1306938135
H  H153  1  0.40060000  0.21900000  0.10900000  1.0 0.1306938135
H  H154  1  0.89000000  0.28100000  0.68160000  1.0 0.1306938135
H  H155  1  0.09940000  0.20840000  0.81840000  1.0 0.1306938135
H  H156  1  0.61000000  0.29160000  0.39100000  1.0 0.1306938135
H  H157  1  0.12860000  0.50670000  0.42810000  1.0 0.1216379244
H  H158  1  0.57860000  0.70050000  0.07190000  1.0 0.1216379244
H  H159  1  0.92140000  0.99330000  0.12190000  1.0 0.1216379244
H  H160  1  0.37140000  0.79950000  0.37810000  1.0 0.1216379244
H  H161  1  0.42810000  0.12860000  0.50670000  1.0 0.1216379244
H  H162  1  0.07190000  0.57860000  0.70050000  1.0 0.1216379244
H  H163  1  0.12190000  0.92140000  0.99330000  1.0 0.1216379244
H  H164  1  0.37810000  0.37140000  0.79950000  1.0 0.1216379244
H  H165  1  0.50670000  0.42810000  0.12860000  1.0 0.1216379244
H  H166  1  0.70050000  0.07190000  0.57860000  1.0 0.1216379244
H  H167  1  0.99330000  0.12190000  0.92140000  1.0 0.1216379244
H  H168  1  0.79950000  0.37810000  0.37140000  1.0 0.1216379244
H  H169  1  0.17190000  0.55180000  0.40530000  1.0 0.1306938135
H  H170  1  0.64650000  0.76660000  0.09470000  1.0 0.1306938135
H  H171  1  0.85350000  0.94820000  0.12010000  1.0 0.1306938135
H  H172  1  0.32810000  0.73340000  0.37990000  1.0 0.1306938135
H  H173  1  0.40530000  0.17190000  0.55180000  1.0 0.1306938135
H  H174  1  0.09470000  0.64650000  0.76660000  1.0 0.1306938135
H  H175  1  0.12010000  0.85350000  0.94820000  1.0 0.1306938135
H  H176  1  0.37990000  0.32810000  0.73340000  1.0 0.1306938135
H  H177  1  0.55180000  0.40530000  0.17190000  1.0 0.1306938135
H  H178  1  0.76660000  0.09470000  0.64650000  1.0 0.1306938135
H  H179  1  0.94820000  0.12010000  0.85350000  1.0 0.1306938135
H  H180  1  0.73340000  0.37990000  0.32810000  1.0 0.1306938135
H  H181  1  0.20770000  0.52890000  0.45580000  1.0 0.1216379244
H  H182  1  0.57310000  0.75190000  0.04420000  1.0 0.1216379244
H  H183  1  0.92690000  0.97110000  0.17880000  1.0 0.1216379244
H  H184  1  0.29230000  0.74810000  0.32120000  1.0 0.1216379244
H  H185  1  0.45580000  0.20770000  0.52890000  1.0 0.1216379244
H  H186  1  0.04420000  0.57310000  0.75190000  1.0 0.1216379244
H  H187  1  0.17880000  0.92690000  0.97110000  1.0 0.1216379244
H  H188  1  0.32120000  0.29230000  0.74810000  1.0 0.1216379244
H  H189  1  0.52890000  0.45580000  0.20770000  1.0 0.1216379244
H  H190  1  0.75190000  0.04420000  0.57310000  1.0 0.1216379244
H  H191  1  0.97110000  0.17880000  0.92690000  1.0 0.1216379244
H  H192  1  0.74810000  0.32120000  0.29230000  1.0 0.1216379244
H  H193  1  0.09580000  0.38850000  0.38830000  1.0 0.1306938135
H  H194  1  0.50020000  0.70750000  0.11170000  1.0 0.1306938135
H  H195  1  0.99980000  0.11150000  0.20730000  1.0 0.1306938135
H  H196  1  0.40420000  0.79250000  0.29270000  1.0 0.1306938135
H  H197  1  0.38830000  0.09580000  0.38850000  1.0 0.1306938135
H  H198  1  0.11170000  0.50020000  0.70750000  1.0 0.1306938135
H  H199  1  0.20730000  0.99980000  0.11150000  1.0 0.1306938135
H  H200  1  0.29270000  0.40420000  0.79250000  1.0 0.1306938135
H  H201  1  0.38850000  0.38830000  0.09580000  1.0 0.1306938135
H  H202  1  0.70750000  0.11170000  0.50020000  1.0 0.1306938135
H  H203  1  0.11150000  0.20730000  0.99980000  1.0 0.1306938135
H  H204  1  0.79250000  0.29270000  0.40420000  1.0 0.1306938135
H  H205  1  0.17640000  0.41590000  0.42410000  1.0 0.1306938135
H  H206  1  0.49180000  0.75230000  0.07590000  1.0 0.1306938135
H  H207  1  0.00820000  0.08410000  0.26050000  1.0 0.1306938135
H  H208  1  0.32360000  0.74770000  0.23950000  1.0 0.1306938135
H  H209  1  0.42410000  0.17640000  0.41590000  1.0 0.1306938135
H  H210  1  0.07590000  0.49180000  0.75230000  1.0 0.1306938135
H  H211  1  0.26050000  0.00820000  0.08410000  1.0 0.1306938135
H  H212  1  0.23950000  0.32360000  0.74770000  1.0 0.1306938135
H  H213  1  0.41590000  0.42410000  0.17640000  1.0 0.1306938135
H  H214  1  0.75230000  0.07590000  0.49180000  1.0 0.1306938135
H  H215  1  0.08410000  0.26050000  0.00820000  1.0 0.1306938135
H  H216  1  0.74770000  0.23950000  0.32360000  1.0 0.1306938135
H  H217  1  0.12680000  0.35440000  0.34660000  1.0 0.1406805385
H  H218  1  0.50780000  0.78020000  0.15340000  1.0 0.1406805385
H  H219  1  0.99220000  0.14560000  0.27240000  1.0 0.1406805385
H  H220  1  0.37320000  0.71980000  0.22760000  1.0 0.1406805385
H  H221  1  0.34660000  0.12680000  0.35440000  1.0 0.1406805385
H  H222  1  0.15340000  0.50780000  0.78020000  1.0 0.1406805385
H  H223  1  0.27240000  0.99220000  0.14560000  1.0 0.1406805385
H  H224  1  0.22760000  0.37320000  0.71980000  1.0 0.1406805385
H  H225  1  0.35440000  0.34660000  0.12680000  1.0 0.1406805385
H  H226  1  0.78020000  0.15340000  0.50780000  1.0 0.1406805385
H  H227  1  0.14560000  0.27240000  0.99220000  1.0 0.1406805385
H  H228  1  0.71980000  0.22760000  0.37320000  1.0 0.1406805385
H  H229  1  0.24970000  0.48530000  0.38620000  1.0 0.1306938135
H  H230  1  0.59910000  0.86350000  0.11380000  1.0 0.1306938135
H  H231  1  0.90090000  0.01470000  0.26440000  1.0 0.1306938135
H  H232  1  0.25030000  0.63650000  0.23560000  1.0 0.1306938135
H  H233  1  0.38620000  0.24970000  0.48530000  1.0 0.1306938135
H  H234  1  0.11380000  0.59910000  0.86350000  1.0 0.1306938135
H  H235  1  0.26440000  0.90090000  0.01470000  1.0 0.1306938135
H  H236  1  0.23560000  0.25030000  0.63650000  1.0 0.1306938135
H  H237  1  0.48530000  0.38620000  0.24970000  1.0 0.1306938135
H  H238  1  0.86350000  0.11380000  0.59910000  1.0 0.1306938135
H  H239  1  0.01470000  0.26440000  0.90090000  1.0 0.1306938135
H  H240  1  0.63650000  0.23560000  0.25030000  1.0 0.1306938135
H  H241  1  0.21520000  0.50680000  0.33340000  1.0 0.1216379244
H  H242  1  0.67340000  0.88180000  0.16660000  1.0 0.1216379244
H  H243  1  0.82660000  0.99320000  0.20840000  1.0 0.1216379244
H  H244  1  0.28480000  0.61820000  0.29160000  1.0 0.1216379244
H  H245  1  0.33340000  0.21520000  0.50680000  1.0 0.1216379244
H  H246  1  0.16660000  0.67340000  0.88180000  1.0 0.1216379244
H  H247  1  0.20840000  0.82660000  0.99320000  1.0 0.1216379244
H  H248  1  0.29160000  0.28480000  0.61820000  1.0 0.1216379244
H  H249  1  0.50680000  0.33340000  0.21520000  1.0 0.1216379244
H  H250  1  0.88180000  0.16660000  0.67340000  1.0 0.1216379244
H  H251  1  0.99320000  0.20840000  0.82660000  1.0 0.1216379244
H  H252  1  0.61820000  0.29160000  0.28480000  1.0 0.1216379244
H  H253  1  0.20080000  0.42980000  0.30640000  1.0 0.1306938135
H  H254  1  0.62340000  0.89440000  0.19360000  1.0 0.1306938135
H  H255  1  0.87660000  0.07020000  0.27100000  1.0 0.1306938135
H  H256  1  0.29920000  0.60560000  0.22900000  1.0 0.1306938135
H  H257  1  0.30640000  0.20080000  0.42980000  1.0 0.1306938135
H  H258  1  0.19360000  0.62340000  0.89440000  1.0 0.1306938135
H  H259  1  0.27100000  0.87660000  0.07020000  1.0 0.1306938135
H  H260  1  0.22900000  0.29920000  0.60560000  1.0 0.1306938135
H  H261  1  0.42980000  0.30640000  0.20080000  1.0 0.1306938135
H  H262  1  0.89440000  0.19360000  0.62340000  1.0 0.1306938135
H  H263  1  0.07020000  0.27100000  0.87660000  1.0 0.1306938135
H  H264  1  0.60560000  0.22900000  0.29920000  1.0 0.1306938135
H  H265  1  0.71580000  0.11390000  0.80230000  1.0 0.113405698
H  H266  1  0.81160000  0.91350000  0.69770000  1.0 0.113405698
H  H267  1  0.68840000  0.38610000  0.10190000  1.0 0.113405698
H  H268  1  0.78420000  0.58650000  0.39810000  1.0 0.113405698
H  H269  1  0.80230000  0.71580000  0.11390000  1.0 0.113405698
H  H270  1  0.69770000  0.81160000  0.91350000  1.0 0.113405698
H  H271  1  0.10190000  0.68840000  0.38610000  1.0 0.113405698
H  H272  1  0.39810000  0.78420000  0.58650000  1.0 0.113405698
H  H273  1  0.11390000  0.80230000  0.71580000  1.0 0.113405698
H  H274  1  0.91350000  0.69770000  0.81160000  1.0 0.113405698
H  H275  1  0.38610000  0.10190000  0.68840000  1.0 0.113405698
H  H276  1  0.58650000  0.39810000  0.78420000  1.0 0.113405698
H  H277  1  0.76900000  0.11000000  0.77680000  1.0 0.1306938135
H  H278  1  0.83320000  0.99220000  0.72320000  1.0 0.1306938135
H  H279  1  0.66680000  0.39000000  0.15900000  1.0 0.1306938135
H  H280  1  0.73100000  0.50780000  0.34100000  1.0 0.1306938135
H  H281  1  0.77680000  0.76900000  0.11000000  1.0 0.1306938135
H  H282  1  0.72320000  0.83320000  0.99220000  1.0 0.1306938135
H  H283  1  0.15900000  0.66680000  0.39000000  1.0 0.1306938135
H  H284  1  0.34100000  0.73100000  0.50780000  1.0 0.1306938135
H  H285  1  0.11000000  0.77680000  0.76900000  1.0 0.1306938135
H  H286  1  0.99220000  0.72320000  0.83320000  1.0 0.1306938135
H  H287  1  0.39000000  0.15900000  0.66680000  1.0 0.1306938135
H  H288  1  0.50780000  0.34100000  0.73100000  1.0 0.1306938135
H  H289  1  0.72000000  0.13760000  0.74800000  1.0 0.1306938135
H  H290  1  0.88960000  0.97200000  0.75200000  1.0 0.1306938135
H  H291  1  0.61040000  0.36240000  0.08240000  1.0 0.1306938135
H  H292  1  0.78000000  0.52800000  0.41760000  1.0 0.1306938135
H  H293  1  0.74800000  0.72000000  0.13760000  1.0 0.1306938135
H  H294  1  0.75200000  0.88960000  0.97200000  1.0 0.1306938135
H  H295  1  0.08240000  0.61040000  0.36240000  1.0 0.1306938135
H  H296  1  0.41760000  0.78000000  0.52800000  1.0 0.1306938135
H  H297  1  0.13760000  0.74800000  0.72000000  1.0 0.1306938135
H  H298  1  0.97200000  0.75200000  0.88960000  1.0 0.1306938135
H  H299  1  0.36240000  0.08240000  0.61040000  1.0 0.1306938135
H  H300  1  0.52800000  0.41760000  0.78000000  1.0 0.1306938135
H  H301  1  0.84090000  0.37690000  0.05480000  1.0 0.1406805385
H  H302  1  0.82210000  0.78610000  0.44520000  1.0 0.1406805385
H  H303  1  0.67790000  0.12310000  0.96400000  1.0 0.1406805385
H  H304  1  0.65910000  0.71390000  0.53600000  1.0 0.1406805385
H  H305  1  0.05480000  0.84090000  0.37690000  1.0 0.1406805385
H  H306  1  0.44520000  0.82210000  0.78610000  1.0 0.1406805385
H  H307  1  0.96400000  0.67790000  0.12310000  1.0 0.1406805385
H  H308  1  0.53600000  0.65910000  0.71390000  1.0 0.1406805385
H  H309  1  0.37690000  0.05480000  0.84090000  1.0 0.1406805385
H  H310  1  0.78610000  0.44520000  0.82210000  1.0 0.1406805385
H  H311  1  0.12310000  0.96400000  0.67790000  1.0 0.1406805385
H  H312  1  0.71390000  0.53600000  0.65910000  1.0 0.1406805385
H  H313  1  0.92210000  0.41810000  0.08640000  1.0 0.1216379244
H  H314  1  0.83170000  0.83570000  0.41360000  1.0 0.1216379244
H  H315  1  0.66830000  0.08190000  0.00400000  1.0 0.1216379244
H  H316  1  0.57790000  0.66430000  0.49600000  1.0 0.1216379244
H  H317  1  0.08640000  0.92210000  0.41810000  1.0 0.1216379244
H  H318  1  0.41360000  0.83170000  0.83570000  1.0 0.1216379244
H  H319  1  0.00400000  0.66830000  0.08190000  1.0 0.1216379244
H  H320  1  0.49600000  0.57790000  0.66430000  1.0 0.1216379244
H  H321  1  0.41810000  0.08640000  0.92210000  1.0 0.1216379244
H  H322  1  0.83570000  0.41360000  0.83170000  1.0 0.1216379244
H  H323  1  0.08190000  0.00400000  0.66830000  1.0 0.1216379244
H  H324  1  0.66430000  0.49600000  0.57790000  1.0 0.1216379244
H  H325  1  0.88910000  0.43700000  0.13310000  1.0 0.1216379244
H  H326  1  0.80390000  0.75600000  0.36690000  1.0 0.1216379244
H  H327  1  0.69610000  0.06300000  0.95210000  1.0 0.1216379244
H  H328  1  0.61090000  0.74400000  0.54790000  1.0 0.1216379244
H  H329  1  0.13310000  0.88910000  0.43700000  1.0 0.1216379244
H  H330  1  0.36690000  0.80390000  0.75600000  1.0 0.1216379244
H  H331  1  0.95210000  0.69610000  0.06300000  1.0 0.1216379244
H  H332  1  0.54790000  0.61090000  0.74400000  1.0 0.1216379244
H  H333  1  0.43700000  0.13310000  0.88910000  1.0 0.1216379244
H  H334  1  0.75600000  0.36690000  0.80390000  1.0 0.1216379244
H  H335  1  0.06300000  0.95210000  0.69610000  1.0 0.1216379244
H  H336  1  0.74400000  0.54790000  0.61090000  1.0 0.1216379244
H  H337  1  0.79910000  0.29080000  0.89930000  1.0 0.113405698
H  H338  1  0.89150000  0.89980000  0.60070000  1.0 0.113405698
H  H339  1  0.60850000  0.20920000  0.00830000  1.0 0.113405698
H  H340  1  0.70090000  0.60020000  0.49170000  1.0 0.113405698
H  H341  1  0.89930000  0.79910000  0.29080000  1.0 0.113405698
H  H342  1  0.60070000  0.89150000  0.89980000  1.0 0.113405698
H  H343  1  0.00830000  0.60850000  0.20920000  1.0 0.113405698
H  H344  1  0.49170000  0.70090000  0.60020000  1.0 0.113405698
H  H345  1  0.29080000  0.89930000  0.79910000  1.0 0.113405698
H  H346  1  0.89980000  0.60070000  0.89150000  1.0 0.113405698
H  H347  1  0.20920000  0.00830000  0.60850000  1.0 0.113405698
H  H348  1  0.60020000  0.49170000  0.70090000  1.0 0.113405698
H  H349  1  0.73300000  0.21950000  0.86990000  1.0 0.1306938135
H  H350  1  0.84960000  0.86310000  0.63010000  1.0 0.1306938135
H  H351  1  0.65040000  0.28050000  0.01350000  1.0 0.1306938135
H  H352  1  0.76700000  0.63690000  0.48650000  1.0 0.1306938135
H  H353  1  0.86990000  0.73300000  0.21950000  1.0 0.1306938135
H  H354  1  0.63010000  0.84960000  0.86310000  1.0 0.1306938135
H  H355  1  0.01350000  0.65040000  0.28050000  1.0 0.1306938135
H  H356  1  0.48650000  0.76700000  0.63690000  1.0 0.1306938135
H  H357  1  0.21950000  0.86990000  0.73300000  1.0 0.1306938135
H  H358  1  0.86310000  0.63010000  0.84960000  1.0 0.1306938135
H  H359  1  0.28050000  0.01350000  0.65040000  1.0 0.1306938135
H  H360  1  0.63690000  0.48650000  0.76700000  1.0 0.1306938135
H  H361  1  0.74310000  0.24700000  0.81950000  1.0 0.1216379244
H  H362  1  0.92750000  0.92360000  0.68050000  1.0 0.1216379244
H  H363  1  0.57250000  0.25300000  0.99610000  1.0 0.1216379244
H  H364  1  0.75690000  0.57640000  0.50390000  1.0 0.1216379244
H  H365  1  0.81950000  0.74310000  0.24700000  1.0 0.1216379244
H  H366  1  0.68050000  0.92750000  0.92360000  1.0 0.1216379244
H  H367  1  0.99610000  0.57250000  0.25300000  1.0 0.1216379244
H  H368  1  0.50390000  0.75690000  0.57640000  1.0 0.1216379244
H  H369  1  0.24700000  0.81950000  0.74310000  1.0 0.1216379244
H  H370  1  0.92360000  0.68050000  0.92750000  1.0 0.1216379244
H  H371  1  0.25300000  0.99610000  0.57250000  1.0 0.1216379244
H  H372  1  0.57640000  0.50390000  0.75690000  1.0 0.1216379244
C  C1  1  0.92290000  0.21970000  0.03820000  1.0 0.0688802513
C  C2  1  0.68150000  0.88470000  0.46180000  1.0 0.0688802513
C  C3  1  0.81850000  0.28030000  0.20320000  1.0 0.0688802513
C  C4  1  0.57710000  0.61530000  0.29680000  1.0 0.0688802513
C  C5  1  0.03820000  0.92290000  0.21970000  1.0 0.0688802513
C  C6  1  0.46180000  0.68150000  0.88470000  1.0 0.0688802513
C  C7  1  0.20320000  0.81850000  0.28030000  1.0 0.0688802513
C  C8  1  0.29680000  0.57710000  0.61530000  1.0 0.0688802513
C  C9  1  0.21970000  0.03820000  0.92290000  1.0 0.0688802513
C  C10  1  0.88470000  0.46180000  0.68150000  1.0 0.0688802513
C  C11  1  0.28030000  0.20320000  0.81850000  1.0 0.0688802513
C  C12  1  0.61530000  0.29680000  0.57710000  1.0 0.0688802513
C  C13  1  0.00880000  0.37550000  0.16610000  1.0 0.0407896643
C  C14  1  0.70940000  0.84270000  0.33390000  1.0 0.0407896643
C  C15  1  0.79060000  0.12450000  0.13330000  1.0 0.0407896643
C  C16  1  0.49120000  0.65730000  0.36670000  1.0 0.0407896643
C  C17  1  0.16610000  0.00880000  0.37550000  1.0 0.0407896643
C  C18  1  0.33390000  0.70940000  0.84270000  1.0 0.0407896643
C  C19  1  0.13330000  0.79060000  0.12450000  1.0 0.0407896643
C  C20  1  0.36670000  0.49120000  0.65730000  1.0 0.0407896643
C  C21  1  0.37550000  0.16610000  0.00880000  1.0 0.0407896643
C  C22  1  0.84270000  0.33390000  0.70940000  1.0 0.0407896643
C  C23  1  0.12450000  0.13330000  0.79060000  1.0 0.0407896643
C  C24  1  0.65730000  0.36670000  0.49120000  1.0 0.0407896643
C  C25  1  0.83840000  0.08950000  0.98910000  1.0 -0.2699535429
C  C26  1  0.60040000  0.84930000  0.51090000  1.0 -0.2699535429
C  C27  1  0.89960000  0.41050000  0.24890000  1.0 -0.2699535429
C  C28  1  0.66160000  0.65070000  0.25110000  1.0 -0.2699535429
C  C29  1  0.98910000  0.83840000  0.08950000  1.0 -0.2699535429
C  C30  1  0.51090000  0.60040000  0.84930000  1.0 -0.2699535429
C  C31  1  0.24890000  0.89960000  0.41050000  1.0 -0.2699535429
C  C32  1  0.25110000  0.66160000  0.65070000  1.0 -0.2699535429
C  C33  1  0.08950000  0.98910000  0.83840000  1.0 -0.2699535429
C  C34  1  0.84930000  0.51090000  0.60040000  1.0 -0.2699535429
C  C35  1  0.41050000  0.24890000  0.89960000  1.0 -0.2699535429
C  C36  1  0.65070000  0.25110000  0.66160000  1.0 -0.2699535429
C  C37  1  0.01220000  0.20020000  0.08400000  1.0 -0.1785346222
C  C38  1  0.61620000  0.92820000  0.41600000  1.0 -0.1785346222
C  C39  1  0.88380000  0.29980000  0.31200000  1.0 -0.1785346222
C  C40  1  0.48780000  0.57180000  0.18800000  1.0 -0.1785346222
C  C41  1  0.08400000  0.01220000  0.20020000  1.0 -0.1785346222
C  C42  1  0.41600000  0.61620000  0.92820000  1.0 -0.1785346222
C  C43  1  0.31200000  0.88380000  0.29980000  1.0 -0.1785346222
C  C44  1  0.18800000  0.48780000  0.57180000  1.0 -0.1785346222
C  C45  1  0.20020000  0.08400000  0.01220000  1.0 -0.1785346222
C  C46  1  0.92820000  0.41600000  0.61620000  1.0 -0.1785346222
C  C47  1  0.29980000  0.31200000  0.88380000  1.0 -0.1785346222
C  C48  1  0.57180000  0.18800000  0.48780000  1.0 -0.1785346222
C  C49  1  0.86380000  0.15730000  0.98650000  1.0 0.0407896643
C  C50  1  0.67080000  0.87730000  0.51350000  1.0 0.0407896643
C  C51  1  0.82920000  0.34270000  0.20650000  1.0 0.0407896643
C  C52  1  0.63620000  0.62270000  0.29350000  1.0 0.0407896643
C  C53  1  0.98650000  0.86380000  0.15730000  1.0 0.0407896643
C  C54  1  0.51350000  0.67080000  0.87730000  1.0 0.0407896643
C  C55  1  0.20650000  0.82920000  0.34270000  1.0 0.0407896643
C  C56  1  0.29350000  0.63620000  0.62270000  1.0 0.0407896643
C  C57  1  0.15730000  0.98650000  0.86380000  1.0 0.0407896643
C  C58  1  0.87730000  0.51350000  0.67080000  1.0 0.0407896643
C  C59  1  0.34270000  0.20650000  0.82920000  1.0 0.0407896643
C  C60  1  0.62270000  0.29350000  0.63620000  1.0 0.0407896643
C  C61  1  0.94110000  0.27860000  0.03430000  1.0 0.0267009814
C  C62  1  0.74430000  0.90680000  0.46570000  1.0 0.0267009814
C  C63  1  0.75570000  0.22140000  0.16250000  1.0 0.0267009814
C  C64  1  0.55890000  0.59320000  0.33750000  1.0 0.0267009814
C  C65  1  0.03430000  0.94110000  0.27860000  1.0 0.0267009814
C  C66  1  0.46570000  0.74430000  0.90680000  1.0 0.0267009814
C  C67  1  0.16250000  0.75570000  0.22140000  1.0 0.0267009814
C  C68  1  0.33750000  0.55890000  0.59320000  1.0 0.0267009814
C  C69  1  0.27860000  0.03430000  0.94110000  1.0 0.0267009814
C  C70  1  0.90680000  0.46570000  0.74430000  1.0 0.0267009814
C  C71  1  0.22140000  0.16250000  0.75570000  1.0 0.0267009814
C  C72  1  0.59320000  0.33750000  0.55890000  1.0 0.0267009814
C  C73  1  0.82110000  0.15420000  0.92470000  1.0 -0.2406234085
C  C74  1  0.72950000  0.89640000  0.57530000  1.0 -0.2476390938
C  C75  1  0.77050000  0.34580000  0.16690000  1.0 -0.2406234085
C  C76  1  0.67890000  0.60360000  0.33310000  1.0 -0.2406234085
C  C77  1  0.92470000  0.82110000  0.15420000  1.0 -0.2406234085
C  C78  1  0.57530000  0.72950000  0.89640000  1.0 -0.2476390938
C  C79  1  0.16690000  0.77050000  0.34580000  1.0 -0.2476390938
C  C80  1  0.33310000  0.67890000  0.60360000  1.0 -0.2476390938
C  C81  1  0.15420000  0.92470000  0.82110000  1.0 -0.2476390938
C  C82  1  0.89640000  0.57530000  0.72950000  1.0 -0.2406234085
C  C83  1  0.34580000  0.16690000  0.77050000  1.0 -0.2476390938
C  C84  1  0.60360000  0.33310000  0.67890000  1.0 -0.2406234085
C  C85  1  0.90040000  0.27470000  0.97210000  1.0 -0.2239753693
C  C86  1  0.80260000  0.92830000  0.52790000  1.0 -0.2239753693
C  C87  1  0.69740000  0.22530000  0.12570000  1.0 -0.2239753693
C  C88  1  0.59960000  0.57170000  0.37430000  1.0 -0.2239753693
C  C89  1  0.97210000  0.90040000  0.27470000  1.0 -0.2239753693
C  C90  1  0.52790000  0.80260000  0.92830000  1.0 -0.2239753693
C  C91  1  0.12570000  0.69740000  0.22530000  1.0 -0.2239753693
C  C92  1  0.37430000  0.59960000  0.57170000  1.0 -0.2239753693
C  C93  1  0.27470000  0.97210000  0.90040000  1.0 -0.2239753693
C  C94  1  0.92830000  0.52790000  0.80260000  1.0 -0.2239753693
C  C95  1  0.22530000  0.12570000  0.69740000  1.0 -0.2239753693
C  C96  1  0.57170000  0.37430000  0.59960000  1.0 -0.2239753693
C  C97  1  0.84320000  0.21460000  0.91580000  1.0 0.0688802513
C  C98  1  0.79880000  0.92740000  0.58420000  1.0 0.0688802513
C  C99  1  0.70120000  0.28540000  0.12860000  1.0 0.0688802513
C  C100  1  0.65680000  0.57260000  0.37140000  1.0 0.0688802513
C  C101  1  0.91580000  0.84320000  0.21460000  1.0 0.0688802513
C  C102  1  0.58420000  0.79880000  0.92740000  1.0 0.0688802513
C  C103  1  0.12860000  0.70120000  0.28540000  1.0 0.0688802513
C  C104  1  0.37140000  0.65680000  0.57260000  1.0 0.0688802513
C  C105  1  0.21460000  0.91580000  0.84320000  1.0 0.0688802513
C  C106  1  0.92740000  0.58420000  0.79880000  1.0 0.0688802513
C  C107  1  0.28540000  0.12860000  0.70120000  1.0 0.0688802513
C  C108  1  0.57260000  0.37140000  0.65680000  1.0 0.0688802513
C  C109  1  0.95380000  0.37800000  0.17480000  1.0 0.0564511214
C  C110  1  0.70320000  0.77900000  0.32520000  1.0 0.0564511214
C  C111  1  0.79680000  0.12200000  0.07580000  1.0 0.0564511214
C  C112  1  0.54620000  0.72100000  0.42420000  1.0 0.0564511214
C  C113  1  0.17480000  0.95380000  0.37800000  1.0 0.0564511214
C  C114  1  0.32520000  0.70320000  0.77900000  1.0 0.0564511214
C  C115  1  0.07580000  0.79680000  0.12200000  1.0 0.0564511214
C  C116  1  0.42420000  0.54620000  0.72100000  1.0 0.0564511214
C  C117  1  0.37800000  0.17480000  0.95380000  1.0 0.0564511214
C  C118  1  0.77900000  0.32520000  0.70320000  1.0 0.0564511214
C  C119  1  0.12200000  0.07580000  0.79680000  1.0 0.0564511214
C  C120  1  0.72100000  0.42420000  0.54620000  1.0 0.0564511214
C  C121  1  0.85180000  0.24990000  0.82750000  1.0 -0.4685211685
C  C122  1  0.92240000  0.02430000  0.67250000  1.0 -0.4685211685
C  C123  1  0.57760000  0.25010000  0.10190000  1.0 -0.4685211685
C  C124  1  0.64820000  0.47570000  0.39810000  1.0 -0.4685211685
C  C125  1  0.82750000  0.85180000  0.24990000  1.0 -0.4685211685
C  C126  1  0.67250000  0.92240000  0.02430000  1.0 -0.4685211685
C  C127  1  0.10190000  0.57760000  0.25010000  1.0 -0.4685211685
C  C128  1  0.39810000  0.64820000  0.47570000  1.0 -0.4685211685
C  C129  1  0.24990000  0.82750000  0.85180000  1.0 -0.4685211685
C  C130  1  0.02430000  0.67250000  0.92240000  1.0 -0.4685211685
C  C131  1  0.25010000  0.10190000  0.57760000  1.0 -0.4685211685
C  C132  1  0.47570000  0.39810000  0.64820000  1.0 -0.4685211685
C  C133  1  0.80190000  0.21050000  0.84800000  1.0 0.2375953245
C  C134  1  0.86250000  0.95390000  0.65200000  1.0 0.2375953245
C  C135  1  0.63750000  0.28950000  0.09140000  1.0 0.2375953245
C  C136  1  0.69810000  0.54610000  0.40860000  1.0 0.2375953245
C  C137  1  0.84800000  0.80190000  0.21050000  1.0 0.2375953245
C  C138  1  0.65200000  0.86250000  0.95390000  1.0 0.2375953245
C  C139  1  0.09140000  0.63750000  0.28950000  1.0 0.2375953245
C  C140  1  0.40860000  0.69810000  0.54610000  1.0 0.2375953245
C  C141  1  0.21050000  0.84800000  0.80190000  1.0 0.2375953245
C  C142  1  0.95390000  0.65200000  0.86250000  1.0 0.2375953245
C  C143  1  0.28950000  0.09140000  0.63750000  1.0 0.2375953245
C  C144  1  0.54610000  0.40860000  0.69810000  1.0 0.2375953245
C  C145  1  0.01830000  0.42390000  0.29400000  1.0 -0.229852422
C  C146  1  0.62990000  0.72430000  0.20600000  1.0 -0.229852422
C  C147  1  0.87010000  0.07610000  0.09440000  1.0 -0.229852422
C  C148  1  0.48170000  0.77570000  0.40560000  1.0 -0.229852422
C  C149  1  0.29400000  0.01830000  0.42390000  1.0 -0.229852422
C  C150  1  0.20600000  0.62990000  0.72430000  1.0 -0.229852422
C  C151  1  0.09440000  0.87010000  0.07610000  1.0 -0.229852422
C  C152  1  0.40560000  0.48170000  0.77570000  1.0 -0.229852422
C  C153  1  0.42390000  0.29400000  0.01830000  1.0 -0.229852422
C  C154  1  0.72430000  0.20600000  0.62990000  1.0 -0.229852422
C  C155  1  0.07610000  0.09440000  0.87010000  1.0 -0.229852422
C  C156  1  0.77570000  0.40560000  0.48170000  1.0 -0.229852422
C  C157  1  0.00380000  0.34480000  0.09280000  1.0 -0.2699535429
C  C158  1  0.75200000  0.91100000  0.40720000  1.0 -0.2699535429
C  C159  1  0.74800000  0.15520000  0.15900000  1.0 -0.2699535429
C  C160  1  0.49620000  0.58900000  0.34100000  1.0 -0.2699535429
C  C161  1  0.09280000  0.00380000  0.34480000  1.0 -0.2699535429
C  C162  1  0.40720000  0.75200000  0.91100000  1.0 -0.2699535429
C  C163  1  0.15900000  0.74800000  0.15520000  1.0 -0.2699535429
C  C164  1  0.34100000  0.49620000  0.58900000  1.0 -0.2699535429
C  C165  1  0.34480000  0.09280000  0.00380000  1.0 -0.2699535429
C  C166  1  0.91100000  0.40720000  0.75200000  1.0 -0.2699535429
C  C167  1  0.15520000  0.15900000  0.74800000  1.0 -0.2699535429
C  C168  1  0.58900000  0.34100000  0.49620000  1.0 -0.2699535429
C  C169  1  0.06770000  0.39610000  0.22320000  1.0 -0.2406234085
C  C170  1  0.67290000  0.84450000  0.27680000  1.0 -0.2406234085
C  C171  1  0.82710000  0.10390000  0.17160000  1.0 -0.2406234085
C  C172  1  0.43230000  0.65550000  0.32840000  1.0 -0.2406234085
C  C173  1  0.22320000  0.06770000  0.39610000  1.0 -0.2406234085
C  C174  1  0.27680000  0.67290000  0.84450000  1.0 -0.2406234085
C  C175  1  0.17160000  0.82710000  0.10390000  1.0 -0.2406234085
C  C176  1  0.32840000  0.43230000  0.65550000  1.0 -0.2406234085
C  C177  1  0.39610000  0.22320000  0.06770000  1.0 -0.2406234085
C  C178  1  0.84450000  0.27680000  0.67290000  1.0 -0.2406234085
C  C179  1  0.10390000  0.17160000  0.82710000  1.0 -0.2406234085
C  C180  1  0.65550000  0.32840000  0.43230000  1.0 -0.2406234085
C  C181  1  0.14510000  0.45010000  0.35520000  1.0 0.2669256687
C  C182  1  0.59490000  0.78990000  0.14480000  1.0 0.2669256687
C  C183  1  0.90510000  0.04990000  0.19500000  1.0 0.2669256687
C  C184  1  0.35490000  0.71010000  0.30500000  1.0 0.2669256687
C  C185  1  0.35520000  0.14510000  0.45010000  1.0 0.2669256687
C  C186  1  0.14480000  0.59490000  0.78990000  1.0 0.2669256687
C  C187  1  0.19500000  0.90510000  0.04990000  1.0 0.2669256687
C  C188  1  0.30500000  0.35490000  0.71010000  1.0 0.2669256687
C  C189  1  0.45010000  0.35520000  0.14510000  1.0 0.2669256687
C  C190  1  0.78990000  0.14480000  0.59490000  1.0 0.2669256687
C  C191  1  0.04990000  0.19500000  0.90510000  1.0 0.2669256687
C  C192  1  0.71010000  0.30500000  0.35490000  1.0 0.2669256687
C  C193  1  0.07550000  0.42350000  0.29020000  1.0 0.0688802513
C  C194  1  0.63330000  0.78530000  0.20980000  1.0 0.0688802513
C  C195  1  0.86670000  0.07650000  0.15200000  1.0 0.0688802513
C  C196  1  0.42450000  0.71470000  0.34800000  1.0 0.0688802513
C  C197  1  0.29020000  0.07550000  0.42350000  1.0 0.0688802513
C  C198  1  0.20980000  0.63330000  0.78530000  1.0 0.0688802513
C  C199  1  0.15200000  0.86670000  0.07650000  1.0 0.0688802513
C  C200  1  0.34800000  0.42450000  0.71470000  1.0 0.0688802513
C  C201  1  0.42350000  0.29020000  0.07550000  1.0 0.0688802513
C  C202  1  0.78530000  0.20980000  0.63330000  1.0 0.0688802513
C  C203  1  0.07650000  0.15200000  0.86670000  1.0 0.0688802513
C  C204  1  0.71470000  0.34800000  0.42450000  1.0 0.0688802513
C  C205  1  0.16510000  0.51510000  0.41660000  1.0 -0.4863583212
C  C206  1  0.59850000  0.74850000  0.08340000  1.0 -0.4863583212
C  C207  1  0.90150000  0.98490000  0.15000000  1.0 -0.4863583212
C  C208  1  0.33490000  0.75150000  0.35000000  1.0 -0.4863583212
C  C209  1  0.41660000  0.16510000  0.51510000  1.0 -0.4863583212
C  C210  1  0.08340000  0.59850000  0.74850000  1.0 -0.4863583212
C  C211  1  0.15000000  0.90150000  0.98490000  1.0 -0.4863583212
C  C212  1  0.35000000  0.33490000  0.75150000  1.0 -0.4863583212
C  C213  1  0.51510000  0.41660000  0.16510000  1.0 -0.4863583212
C  C214  1  0.74850000  0.08340000  0.59850000  1.0 -0.4863583212
C  C215  1  0.98490000  0.15000000  0.90150000  1.0 -0.4863583212
C  C216  1  0.75150000  0.35000000  0.33490000  1.0 -0.4863583212
C  C217  1  0.13510000  0.39730000  0.38100000  1.0 -0.4615445673
C  C218  1  0.51630000  0.75410000  0.11900000  1.0 -0.4685211685
C  C219  1  0.98370000  0.10270000  0.23780000  1.0 -0.4685211685
C  C220  1  0.36490000  0.74590000  0.26220000  1.0 -0.4685211685
C  C221  1  0.38100000  0.13510000  0.39730000  1.0 -0.4615445673
C  C222  1  0.11900000  0.51630000  0.75410000  1.0 -0.4615445673
C  C223  1  0.23780000  0.98370000  0.10270000  1.0 -0.4615445673
C  C224  1  0.26220000  0.36490000  0.74590000  1.0 -0.4615445673
C  C225  1  0.39730000  0.38100000  0.13510000  1.0 -0.4615445673
C  C226  1  0.75410000  0.11900000  0.51630000  1.0 -0.4615445673
C  C227  1  0.10270000  0.23780000  0.98370000  1.0 -0.4615445673
C  C228  1  0.74590000  0.26220000  0.36490000  1.0 -0.4615445673
C  C229  1  0.20860000  0.46990000  0.34430000  1.0 -0.4685211685
C  C230  1  0.62560000  0.86430000  0.15570000  1.0 -0.4685211685
C  C231  1  0.87440000  0.03010000  0.23870000  1.0 -0.4685211685
C  C232  1  0.29140000  0.63570000  0.26130000  1.0 -0.4685211685
C  C233  1  0.34430000  0.20860000  0.46990000  1.0 -0.4685211685
C  C234  1  0.15570000  0.62560000  0.86430000  1.0 -0.4685211685
C  C235  1  0.23870000  0.87440000  0.03010000  1.0 -0.4685211685
C  C236  1  0.26130000  0.29140000  0.63570000  1.0 -0.4685211685
C  C237  1  0.46990000  0.34430000  0.20860000  1.0 -0.4685211685
C  C238  1  0.86430000  0.15570000  0.62560000  1.0 -0.4685211685
C  C239  1  0.03010000  0.23870000  0.87440000  1.0 -0.4685211685
C  C240  1  0.63570000  0.26130000  0.29140000  1.0 -0.4685211685
C  C241  1  0.83750000  0.09710000  0.05560000  1.0 0.0407896643
C  C242  1  0.54150000  0.78190000  0.44440000  1.0 0.0407896643
C  C243  1  0.95850000  0.40290000  0.24040000  1.0 0.0407896643
C  C244  1  0.66250000  0.71810000  0.25960000  1.0 0.0407896643
C  C245  1  0.05560000  0.83750000  0.09710000  1.0 0.0407896643
C  C246  1  0.44440000  0.54150000  0.78190000  1.0 0.0407896643
C  C247  1  0.24040000  0.95850000  0.40290000  1.0 0.0407896643
C  C248  1  0.25960000  0.66250000  0.71810000  1.0 0.0407896643
C  C249  1  0.09710000  0.05560000  0.83750000  1.0 0.0407896643
C  C250  1  0.78190000  0.44440000  0.54150000  1.0 0.0407896643
C  C251  1  0.40290000  0.24040000  0.95850000  1.0 0.0407896643
C  C252  1  0.71810000  0.25960000  0.66250000  1.0 0.0407896643
C  C253  1  0.07030000  0.21500000  0.14830000  1.0 0.6125813782
C  C254  1  0.56670000  0.92200000  0.35170000  1.0 0.6125813782
C  C255  1  0.93330000  0.28500000  0.35530000  1.0 0.6125813782
C  C256  1  0.42970000  0.57800000  0.14470000  1.0 0.6125813782
C  C257  1  0.14830000  0.07030000  0.21500000  1.0 0.6125813782
C  C258  1  0.35170000  0.56670000  0.92200000  1.0 0.6125813782
C  C259  1  0.35530000  0.93330000  0.28500000  1.0 0.6125813782
C  C260  1  0.14470000  0.42970000  0.57800000  1.0 0.6125813782
C  C261  1  0.21500000  0.14830000  0.07030000  1.0 0.6125813782
C  C262  1  0.92200000  0.35170000  0.56670000  1.0 0.6125813782
C  C263  1  0.28500000  0.35530000  0.93330000  1.0 0.6125813782
C  C264  1  0.57800000  0.14470000  0.42970000  1.0 0.6125813782
C  C265  1  0.74660000  0.13610000  0.78830000  1.0 -0.4615445673
C  C266  1  0.84780000  0.95830000  0.71170000  1.0 -0.4615445673
C  C267  1  0.65220000  0.36390000  0.11050000  1.0 -0.4615445673
C  C268  1  0.75340000  0.54170000  0.38950000  1.0 -0.4615445673
C  C269  1  0.78830000  0.74660000  0.13610000  1.0 -0.4615445673
C  C270  1  0.71170000  0.84780000  0.95830000  1.0 -0.4615445673
C  C271  1  0.11050000  0.65220000  0.36390000  1.0 -0.4615445673
C  C272  1  0.38950000  0.75340000  0.54170000  1.0 -0.4615445673
C  C273  1  0.13610000  0.78830000  0.74660000  1.0 -0.4615445673
C  C274  1  0.95830000  0.71170000  0.84780000  1.0 -0.4615445673
C  C275  1  0.36390000  0.11050000  0.65220000  1.0 -0.4615445673
C  C276  1  0.54170000  0.38950000  0.75340000  1.0 -0.4615445673
C  C277  1  0.88550000  0.39960000  0.09610000  1.0 -0.1785346222
C  C278  1  0.80350000  0.78940000  0.40390000  1.0 -0.1785346222
C  C279  1  0.69650000  0.10040000  0.98590000  1.0 -0.1785346222
C  C280  1  0.61450000  0.71060000  0.51410000  1.0 -0.1785346222
C  C281  1  0.09610000  0.88550000  0.39960000  1.0 -0.1785346222
C  C282  1  0.40390000  0.80350000  0.78940000  1.0 -0.1785346222
C  C283  1  0.98590000  0.69650000  0.10040000  1.0 -0.1785346222
C  C284  1  0.51410000  0.61450000  0.71060000  1.0 -0.1785346222
C  C285  1  0.39960000  0.09610000  0.88550000  1.0 -0.1785346222
C  C286  1  0.78940000  0.40390000  0.80350000  1.0 -0.1785346222
C  C287  1  0.10040000  0.98590000  0.69650000  1.0 -0.1785346222
C  C288  1  0.71060000  0.51410000  0.61450000  1.0 -0.1785346222
C  C289  1  0.76680000  0.24450000  0.86010000  1.0 -0.4615445673
C  C290  1  0.88440000  0.90670000  0.63990000  1.0 -0.4615445673
C  C291  1  0.61560000  0.25550000  0.02230000  1.0 -0.4615445673
C  C292  1  0.73320000  0.59330000  0.47770000  1.0 -0.4615445673
C  C293  1  0.86010000  0.76680000  0.24450000  1.0 -0.4615445673
C  C294  1  0.63990000  0.88440000  0.90670000  1.0 -0.4615445673
C  C295  1  0.02230000  0.61560000  0.25550000  1.0 -0.4615445673
C  C296  1  0.47770000  0.73320000  0.59330000  1.0 -0.4615445673
C  C297  1  0.24450000  0.86010000  0.76680000  1.0 -0.4615445673
C  C298  1  0.90670000  0.63990000  0.88440000  1.0 -0.4615445673
C  C299  1  0.25550000  0.02230000  0.61560000  1.0 -0.4615445673
C  C300  1  0.59330000  0.47770000  0.73320000  1.0 -0.4615445673
O  O1  1  0.96600000  0.21978000  0.09674000  1.0 -0.2476390938
O  O2  1  0.62304000  0.86926000  0.40326000  1.0 -0.2476390938
O  O3  1  0.87696000  0.28022000  0.24622000  1.0 -0.2476390938
O  O4  1  0.53400000  0.63074000  0.25378000  1.0 -0.2476390938
O  O5  1  0.09674000  0.96600000  0.21978000  1.0 -0.2476390938
O  O6  1  0.40326000  0.62304000  0.86926000  1.0 -0.2476390938
O  O7  1  0.24622000  0.87696000  0.28022000  1.0 -0.2476390938
O  O8  1  0.25378000  0.53400000  0.63074000  1.0 -0.2476390938
O  O9  1  0.21978000  0.09674000  0.96600000  1.0 -0.2476390938
O  O10  1  0.86926000  0.40326000  0.62304000  1.0 -0.2476390938
O  O11  1  0.28022000  0.24622000  0.87696000  1.0 -0.2476390938
O  O12  1  0.63074000  0.25378000  0.53400000  1.0 -0.2476390938
O  O13  1  0.07521000  0.24206000  0.20701000  1.0 -0.6143859714
O  O14  1  0.53505000  0.86820000  0.29299000  1.0 -0.6143859714
O  O15  1  0.96495000  0.25794000  0.33315000  1.0 -0.6143859714
O  O16  1  0.42479000  0.63180000  0.16685000  1.0 -0.6143859714
O  O17  1  0.20701000  0.07521000  0.24206000  1.0 -0.6143859714
O  O18  1  0.29299000  0.53505000  0.86820000  1.0 -0.6143859714
O  O19  1  0.33315000  0.96495000  0.25794000  1.0 -0.6143859714
O  O20  1  0.16685000  0.42479000  0.63180000  1.0 -0.6143859714
O  O21  1  0.24206000  0.20701000  0.07521000  1.0 -0.6143859714
O  O22  1  0.86820000  0.29299000  0.53505000  1.0 -0.6143859714
O  O23  1  0.25794000  0.33315000  0.96495000  1.0 -0.6143859714
O  O24  1  0.63180000  0.16685000  0.42479000  1.0 -0.6143859714
O  O25  1  0.89140000  0.35490000  0.11490000  1.0 -0.123747529
O  O26  1  0.74000000  0.77650000  0.38510000  1.0 -0.123747529
O  O27  1  0.76000000  0.14510000  0.03650000  1.0 -0.123747529
O  O28  1  0.60860000  0.72350000  0.46350000  1.0 -0.123747529
O  O29  1  0.11490000  0.89140000  0.35490000  1.0 -0.123747529
O  O30  1  0.38510000  0.74000000  0.77650000  1.0 -0.123747529
O  O31  1  0.03650000  0.76000000  0.14510000  1.0 -0.123747529
O  O32  1  0.46350000  0.60860000  0.72350000  1.0 -0.123747529
O  O33  1  0.35490000  0.11490000  0.89140000  1.0 -0.123747529
O  O34  1  0.77650000  0.38510000  0.74000000  1.0 -0.123747529
O  O35  1  0.14510000  0.03650000  0.76000000  1.0 -0.123747529
O  O36  1  0.72350000  0.46350000  0.60860000  1.0 -0.123747529
O  O37  1  0.11757000  0.20133000  0.13998000  1.0 -0.6171843946
O  O38  1  0.56135000  0.97759000  0.36002000  1.0 -0.6171843946
O  O39  1  0.93865000  0.29867000  0.41624000  1.0 -0.6171843946
O  O40  1  0.38243000  0.52241000  0.08376000  1.0 -0.6171843946
O  O41  1  0.13998000  0.11757000  0.20133000  1.0 -0.6171843946
O  O42  1  0.36002000  0.56135000  0.97759000  1.0 -0.6171843946
O  O43  1  0.41624000  0.93865000  0.29867000  1.0 -0.6171843946
O  O44  1  0.08376000  0.38243000  0.52241000  1.0 -0.6171843946
O  O45  1  0.20133000  0.13998000  0.11757000  1.0 -0.6171843946
O  O46  1  0.97759000  0.36002000  0.56135000  1.0 -0.6171843946
O  O47  1  0.29867000  0.41624000  0.93865000  1.0 -0.6171843946
O  O48  1  0.52241000  0.08376000  0.38243000  1.0 -0.6171843946
