# DDEC6 charges by PACMAN v1.1 (https://github.com/mtap-research/PACMAN-charge/)
data_LOQSOA_FSR_pacman
_symmetry_space_group_name_H-M   'P 1'
_cell_length_a   24.22480000
_cell_length_b   24.22480000
_cell_length_c   24.22480000
_cell_angle_alpha   109.47500000
_cell_angle_beta   109.47500000
_cell_angle_gamma   109.47500000
_symmetry_Int_Tables_number   1
_chemical_formula_structural   Tb4H168C183(N2O5)12
_chemical_formula_sum   'Tb8 H336 C366 N48 O120'
_cell_volume   10942.03060840
_cell_formula_units_Z   2
loop_
 _symmetry_equiv_pos_site_id
 _symmetry_equiv_pos_as_xyz
  1  'x, y, z'
loop_
 _atom_site_type_symbol
 _atom_site_label
 _atom_site_symmetry_multiplicity
 _atom_site_fract_x
 _atom_site_fract_y
 _atom_site_fract_z
 _atom_site_occupancy
 _atom_site_charge
Tb  Tb1  1  0.35173000  0.40002000  0.85181000  1.0 1.9127011493
Tb  Tb2  1  0.40002000  0.85181000  0.35173000  1.0 1.9127011493
Tb  Tb3  1  0.85181000  0.35173000  0.40002000  1.0 1.9127011493
Tb  Tb4  1  0.85173000  0.35181000  0.90002000  1.0 1.9127011493
Tb  Tb5  1  0.90002000  0.85173000  0.35181000  1.0 1.9127011493
Tb  Tb6  1  0.35181000  0.90002000  0.85173000  1.0 1.9127011493
Tb  Tb7  1  0.30341000  0.30341000  0.30341000  1.0 1.8716986373
Tb  Tb8  1  0.80341000  0.80341000  0.80341000  1.0 1.8716986373
H  H1  1  0.49180000  0.36180000  0.03640000  1.0 0.2828063347
H  H2  1  0.36180000  0.03640000  0.49180000  1.0 0.2828063347
H  H3  1  0.03640000  0.49180000  0.36180000  1.0 0.2828063347
H  H4  1  0.99180000  0.53640000  0.86180000  1.0 0.2828063347
H  H5  1  0.86180000  0.99180000  0.53640000  1.0 0.2828063347
H  H6  1  0.53640000  0.86180000  0.99180000  1.0 0.2828063347
H  H7  1  0.72090000  0.40500000  0.22040000  1.0 0.2736247724
H  H8  1  0.40500000  0.22040000  0.72090000  1.0 0.2736247724
H  H9  1  0.22040000  0.72090000  0.40500000  1.0 0.2736247724
H  H10  1  0.22090000  0.72040000  0.90500000  1.0 0.2736247724
H  H11  1  0.90500000  0.22090000  0.72040000  1.0 0.2736247724
H  H12  1  0.72040000  0.90500000  0.22090000  1.0 0.2736247724
H  H13  1  0.67340000  0.68270000  0.32110000  1.0 0.2828063347
H  H14  1  0.68270000  0.32110000  0.67340000  1.0 0.2828063347
H  H15  1  0.32110000  0.67340000  0.68270000  1.0 0.2828063347
H  H16  1  0.17340000  0.82110000  0.18270000  1.0 0.2828063347
H  H17  1  0.18270000  0.17340000  0.82110000  1.0 0.2828063347
H  H18  1  0.82110000  0.18270000  0.17340000  1.0 0.2828063347
H  H19  1  0.52540000  0.49510000  0.36060000  1.0 0.2828063347
H  H20  1  0.49510000  0.36060000  0.52540000  1.0 0.2828063347
H  H21  1  0.36060000  0.52540000  0.49510000  1.0 0.2828063347
H  H22  1  0.02540000  0.86060000  0.99510000  1.0 0.2828063347
H  H23  1  0.99510000  0.02540000  0.86060000  1.0 0.2828063347
H  H24  1  0.86060000  0.99510000  0.02540000  1.0 0.2828063347
H  H25  1  0.67180000  0.53450000  0.20960000  1.0 0.1003533623
H  H26  1  0.53450000  0.20960000  0.67180000  1.0 0.1003533623
H  H27  1  0.20960000  0.67180000  0.53450000  1.0 0.1003533623
H  H28  1  0.17180000  0.70960000  0.03450000  1.0 0.1003533623
H  H29  1  0.03450000  0.17180000  0.70960000  1.0 0.1003533623
H  H30  1  0.70960000  0.03450000  0.17180000  1.0 0.1003533623
H  H31  1  0.66610000  0.46340000  0.19250000  1.0 0.1003533623
H  H32  1  0.46340000  0.19250000  0.66610000  1.0 0.1003533623
H  H33  1  0.19250000  0.66610000  0.46340000  1.0 0.1003533623
H  H34  1  0.16610000  0.69250000  0.96340000  1.0 0.1003533623
H  H35  1  0.96340000  0.16610000  0.69250000  1.0 0.1003533623
H  H36  1  0.69250000  0.96340000  0.16610000  1.0 0.1003533623
H  H37  1  0.53510000  0.39210000  0.22200000  1.0 0.1003533623
H  H38  1  0.39210000  0.22200000  0.53510000  1.0 0.1003533623
H  H39  1  0.22200000  0.53510000  0.39210000  1.0 0.1003533623
H  H40  1  0.03510000  0.72200000  0.89210000  1.0 0.1003533623
H  H41  1  0.89210000  0.03510000  0.72200000  1.0 0.1003533623
H  H42  1  0.72200000  0.89210000  0.03510000  1.0 0.1003533623
H  H43  1  0.53440000  0.37770000  0.15310000  1.0 0.1003533623
H  H44  1  0.37770000  0.15310000  0.53440000  1.0 0.1003533623
H  H45  1  0.15310000  0.53440000  0.37770000  1.0 0.1003533623
H  H46  1  0.03440000  0.65310000  0.87770000  1.0 0.1003533623
H  H47  1  0.87770000  0.03440000  0.65310000  1.0 0.1003533623
H  H48  1  0.65310000  0.87770000  0.03440000  1.0 0.1003533623
H  H49  1  0.62130000  0.51160000  0.32320000  1.0 0.1118293624
H  H50  1  0.51160000  0.32320000  0.62130000  1.0 0.1118293624
H  H51  1  0.32320000  0.62130000  0.51160000  1.0 0.1118293624
H  H52  1  0.12130000  0.82320000  0.01160000  1.0 0.1118293624
H  H53  1  0.01160000  0.12130000  0.82320000  1.0 0.1118293624
H  H54  1  0.82320000  0.01160000  0.12130000  1.0 0.1118293624
H  H55  1  0.67430000  0.49330000  0.31100000  1.0 0.1003533623
H  H56  1  0.49330000  0.31100000  0.67430000  1.0 0.1003533623
H  H57  1  0.31100000  0.67430000  0.49330000  1.0 0.1003533623
H  H58  1  0.17430000  0.81100000  0.99330000  1.0 0.1003533623
H  H59  1  0.99330000  0.17430000  0.81100000  1.0 0.1003533623
H  H60  1  0.81100000  0.99330000  0.17430000  1.0 0.1003533623
H  H61  1  0.58100000  0.55340000  0.23740000  1.0 0.1003533623
H  H62  1  0.55340000  0.23740000  0.58100000  1.0 0.1003533623
H  H63  1  0.23740000  0.58100000  0.55340000  1.0 0.1003533623
H  H64  1  0.08100000  0.73740000  0.05340000  1.0 0.1003533623
H  H65  1  0.05340000  0.08100000  0.73740000  1.0 0.1003533623
H  H66  1  0.73740000  0.05340000  0.08100000  1.0 0.1003533623
H  H67  1  0.52690000  0.48530000  0.16850000  1.0 0.1003533623
H  H68  1  0.48530000  0.16850000  0.52690000  1.0 0.1003533623
H  H69  1  0.16850000  0.52690000  0.48530000  1.0 0.1003533623
H  H70  1  0.02690000  0.66850000  0.98530000  1.0 0.1003533623
H  H71  1  0.98530000  0.02690000  0.66850000  1.0 0.1003533623
H  H72  1  0.66850000  0.98530000  0.02690000  1.0 0.1003533623
H  H73  1  0.70580000  0.53670000  0.14160000  1.0 0.1205016459
H  H74  1  0.53670000  0.14160000  0.70580000  1.0 0.1205016459
H  H75  1  0.14160000  0.70580000  0.53670000  1.0 0.1205016459
H  H76  1  0.20580000  0.64160000  0.03670000  1.0 0.1205016459
H  H77  1  0.03670000  0.20580000  0.64160000  1.0 0.1205016459
H  H78  1  0.64160000  0.03670000  0.20580000  1.0 0.1205016459
H  H79  1  0.73580000  0.53920000  0.05750000  1.0 0.1205016459
H  H80  1  0.53920000  0.05750000  0.73580000  1.0 0.1205016459
H  H81  1  0.05750000  0.73580000  0.53920000  1.0 0.1205016459
H  H82  1  0.23580000  0.55750000  0.03920000  1.0 0.1205016459
H  H83  1  0.03920000  0.23580000  0.55750000  1.0 0.1205016459
H  H84  1  0.55750000  0.03920000  0.23580000  1.0 0.1205016459
H  H85  1  0.64910000  0.51340000  0.95790000  1.0 0.1205016459
H  H86  1  0.51340000  0.95790000  0.64910000  1.0 0.1205016459
H  H87  1  0.95790000  0.64910000  0.51340000  1.0 0.1205016459
H  H88  1  0.14910000  0.45790000  0.01340000  1.0 0.1205016459
H  H89  1  0.01340000  0.14910000  0.45790000  1.0 0.1205016459
H  H90  1  0.45790000  0.01340000  0.14910000  1.0 0.1205016459
H  H91  1  0.53830000  0.45100000  0.92530000  1.0 0.1205016459
H  H92  1  0.45100000  0.92530000  0.53830000  1.0 0.1205016459
H  H93  1  0.92530000  0.53830000  0.45100000  1.0 0.1205016459
H  H94  1  0.03830000  0.42530000  0.95100000  1.0 0.1205016459
H  H95  1  0.95100000  0.03830000  0.42530000  1.0 0.1205016459
H  H96  1  0.42530000  0.95100000  0.03830000  1.0 0.1205016459
H  H97  1  0.37300000  0.34870000  0.97960000  1.0 0.1205016459
H  H98  1  0.34870000  0.97960000  0.37300000  1.0 0.1205016459
H  H99  1  0.97960000  0.37300000  0.34870000  1.0 0.1205016459
H  H100  1  0.87300000  0.47960000  0.84870000  1.0 0.1205016459
H  H101  1  0.84870000  0.87300000  0.47960000  1.0 0.1205016459
H  H102  1  0.47960000  0.84870000  0.87300000  1.0 0.1205016459
H  H103  1  0.37450000  0.28600000  0.93490000  1.0 0.1205016459
H  H104  1  0.28600000  0.93490000  0.37450000  1.0 0.1205016459
H  H105  1  0.93490000  0.37450000  0.28600000  1.0 0.1205016459
H  H106  1  0.87450000  0.43490000  0.78600000  1.0 0.1205016459
H  H107  1  0.78600000  0.87450000  0.43490000  1.0 0.1205016459
H  H108  1  0.43490000  0.78600000  0.87450000  1.0 0.1205016459
H  H109  1  0.37640000  0.36520000  0.08810000  1.0 0.1205016459
H  H110  1  0.36520000  0.08810000  0.37640000  1.0 0.1205016459
H  H111  1  0.08810000  0.37640000  0.36520000  1.0 0.1205016459
H  H112  1  0.87640000  0.58810000  0.86520000  1.0 0.1205016459
H  H113  1  0.86520000  0.87640000  0.58810000  1.0 0.1205016459
H  H114  1  0.58810000  0.86520000  0.87640000  1.0 0.1205016459
H  H115  1  0.35410000  0.31380000  0.14860000  1.0 0.1205016459
H  H116  1  0.31380000  0.14860000  0.35410000  1.0 0.1205016459
H  H117  1  0.14860000  0.35410000  0.31380000  1.0 0.1205016459
H  H118  1  0.85410000  0.64860000  0.81380000  1.0 0.1205016459
H  H119  1  0.81380000  0.85410000  0.64860000  1.0 0.1205016459
H  H120  1  0.64860000  0.81380000  0.85410000  1.0 0.1205016459
H  H121  1  0.34550000  0.21140000  0.12280000  1.0 0.1205016459
H  H122  1  0.21140000  0.12280000  0.34550000  1.0 0.1205016459
H  H123  1  0.12280000  0.34550000  0.21140000  1.0 0.1205016459
H  H124  1  0.84550000  0.62280000  0.71140000  1.0 0.1205016459
H  H125  1  0.71140000  0.84550000  0.62280000  1.0 0.1205016459
H  H126  1  0.62280000  0.71140000  0.84550000  1.0 0.1205016459
H  H127  1  0.35460000  0.15330000  0.03140000  1.0 0.1205016459
H  H128  1  0.15330000  0.03140000  0.35460000  1.0 0.1205016459
H  H129  1  0.03140000  0.35460000  0.15330000  1.0 0.1205016459
H  H130  1  0.85460000  0.53140000  0.65330000  1.0 0.1205016459
H  H131  1  0.65330000  0.85460000  0.53140000  1.0 0.1205016459
H  H132  1  0.53140000  0.65330000  0.85460000  1.0 0.1205016459
H  H133  1  0.38070000  0.20530000  0.97250000  1.0 0.1205016459
H  H134  1  0.20530000  0.97250000  0.38070000  1.0 0.1205016459
H  H135  1  0.97250000  0.38070000  0.20530000  1.0 0.1205016459
H  H136  1  0.88070000  0.47250000  0.70530000  1.0 0.1205016459
H  H137  1  0.70530000  0.88070000  0.47250000  1.0 0.1205016459
H  H138  1  0.47250000  0.70530000  0.88070000  1.0 0.1205016459
H  H139  1  0.49570000  0.28540000  0.17400000  1.0 0.1205016459
H  H140  1  0.28540000  0.17400000  0.49570000  1.0 0.1205016459
H  H141  1  0.17400000  0.49570000  0.28540000  1.0 0.1205016459
H  H142  1  0.99570000  0.67400000  0.78540000  1.0 0.1205016459
H  H143  1  0.78540000  0.99570000  0.67400000  1.0 0.1205016459
H  H144  1  0.67400000  0.78540000  0.99570000  1.0 0.1205016459
H  H145  1  0.46930000  0.17770000  0.16260000  1.0 0.1205016459
H  H146  1  0.17770000  0.16260000  0.46930000  1.0 0.1205016459
H  H147  1  0.16260000  0.46930000  0.17770000  1.0 0.1205016459
H  H148  1  0.96930000  0.66260000  0.67770000  1.0 0.1205016459
H  H149  1  0.67770000  0.96930000  0.66260000  1.0 0.1205016459
H  H150  1  0.66260000  0.67770000  0.96930000  1.0 0.1205016459
H  H151  1  0.55410000  0.16090000  0.21640000  1.0 0.1205016459
H  H152  1  0.16090000  0.21640000  0.55410000  1.0 0.1205016459
H  H153  1  0.21640000  0.55410000  0.16090000  1.0 0.1205016459
H  H154  1  0.05410000  0.71640000  0.66090000  1.0 0.1205016459
H  H155  1  0.66090000  0.05410000  0.71640000  1.0 0.1205016459
H  H156  1  0.71640000  0.66090000  0.05410000  1.0 0.1205016459
H  H157  1  0.66300000  0.23460000  0.25520000  1.0 0.1205016459
H  H158  1  0.23460000  0.25520000  0.66300000  1.0 0.1205016459
H  H159  1  0.25520000  0.66300000  0.23460000  1.0 0.1205016459
H  H160  1  0.16300000  0.75520000  0.73460000  1.0 0.1205016459
H  H161  1  0.73460000  0.16300000  0.75520000  1.0 0.1205016459
H  H162  1  0.75520000  0.73460000  0.16300000  1.0 0.1205016459
H  H163  1  0.84470000  0.45870000  0.32880000  1.0 0.1205016459
H  H164  1  0.45870000  0.32880000  0.84470000  1.0 0.1205016459
H  H165  1  0.32880000  0.84470000  0.45870000  1.0 0.1205016459
H  H166  1  0.34470000  0.82880000  0.95870000  1.0 0.1205016459
H  H167  1  0.95870000  0.34470000  0.82880000  1.0 0.1205016459
H  H168  1  0.82880000  0.95870000  0.34470000  1.0 0.1205016459
H  H169  1  0.83980000  0.41680000  0.25950000  1.0 0.1118293624
H  H170  1  0.41680000  0.25950000  0.83980000  1.0 0.1118293624
H  H171  1  0.25950000  0.83980000  0.41680000  1.0 0.1118293624
H  H172  1  0.33980000  0.75950000  0.91680000  1.0 0.1118293624
H  H173  1  0.91680000  0.33980000  0.75950000  1.0 0.1118293624
H  H174  1  0.75950000  0.91680000  0.33980000  1.0 0.1118293624
H  H175  1  0.83270000  0.57040000  0.34280000  1.0 0.1205016459
H  H176  1  0.57040000  0.34280000  0.83270000  1.0 0.1205016459
H  H177  1  0.34280000  0.83270000  0.57040000  1.0 0.1205016459
H  H178  1  0.33270000  0.84280000  0.07040000  1.0 0.1205016459
H  H179  1  0.07040000  0.33270000  0.84280000  1.0 0.1205016459
H  H180  1  0.84280000  0.07040000  0.33270000  1.0 0.1205016459
H  H181  1  0.85110000  0.64790000  0.30630000  1.0 0.1205016459
H  H182  1  0.64790000  0.30630000  0.85110000  1.0 0.1205016459
H  H183  1  0.30630000  0.85110000  0.64790000  1.0 0.1205016459
H  H184  1  0.35110000  0.80630000  0.14790000  1.0 0.1205016459
H  H185  1  0.14790000  0.35110000  0.80630000  1.0 0.1205016459
H  H186  1  0.80630000  0.14790000  0.35110000  1.0 0.1205016459
H  H187  1  0.85420000  0.62240000  0.20780000  1.0 0.1205016459
H  H188  1  0.62240000  0.20780000  0.85420000  1.0 0.1205016459
H  H189  1  0.20780000  0.85420000  0.62240000  1.0 0.1205016459
H  H190  1  0.35420000  0.70780000  0.12240000  1.0 0.1205016459
H  H191  1  0.12240000  0.35420000  0.70780000  1.0 0.1205016459
H  H192  1  0.70780000  0.12240000  0.35420000  1.0 0.1205016459
H  H193  1  0.84180000  0.51950000  0.14490000  1.0 0.1265161331
H  H194  1  0.51950000  0.14490000  0.84180000  1.0 0.1265161331
H  H195  1  0.14490000  0.84180000  0.51950000  1.0 0.1265161331
H  H196  1  0.34180000  0.64490000  0.01950000  1.0 0.1265161331
H  H197  1  0.01950000  0.34180000  0.64490000  1.0 0.1265161331
H  H198  1  0.64490000  0.01950000  0.34180000  1.0 0.1265161331
H  H199  1  0.82210000  0.44140000  0.17940000  1.0 0.1205016459
H  H200  1  0.44140000  0.17940000  0.82210000  1.0 0.1205016459
H  H201  1  0.17940000  0.82210000  0.44140000  1.0 0.1205016459
H  H202  1  0.32210000  0.67940000  0.94140000  1.0 0.1205016459
H  H203  1  0.94140000  0.32210000  0.67940000  1.0 0.1205016459
H  H204  1  0.67940000  0.94140000  0.32210000  1.0 0.1205016459
H  H205  1  0.74560000  0.56290000  0.41580000  1.0 0.1205016459
H  H206  1  0.56290000  0.41580000  0.74560000  1.0 0.1205016459
H  H207  1  0.41580000  0.74560000  0.56290000  1.0 0.1205016459
H  H208  1  0.24560000  0.91580000  0.06290000  1.0 0.1205016459
H  H209  1  0.06290000  0.24560000  0.91580000  1.0 0.1205016459
H  H210  1  0.91580000  0.06290000  0.24560000  1.0 0.1205016459
H  H211  1  0.83190000  0.64580000  0.52800000  1.0 0.1205016459
H  H212  1  0.64580000  0.52800000  0.83190000  1.0 0.1205016459
H  H213  1  0.52800000  0.83190000  0.64580000  1.0 0.1205016459
H  H214  1  0.33190000  0.02800000  0.14580000  1.0 0.1205016459
H  H215  1  0.14580000  0.33190000  0.02800000  1.0 0.1205016459
H  H216  1  0.02800000  0.14580000  0.33190000  1.0 0.1205016459
H  H217  1  0.90970000  0.74290000  0.54000000  1.0 0.1205016459
H  H218  1  0.74290000  0.54000000  0.90970000  1.0 0.1205016459
H  H219  1  0.54000000  0.90970000  0.74290000  1.0 0.1205016459
H  H220  1  0.40970000  0.04000000  0.24290000  1.0 0.1205016459
H  H221  1  0.24290000  0.40970000  0.04000000  1.0 0.1205016459
H  H222  1  0.04000000  0.24290000  0.40970000  1.0 0.1205016459
H  H223  1  0.87020000  0.78400000  0.47240000  1.0 0.1118293624
H  H224  1  0.78400000  0.47240000  0.87020000  1.0 0.1118293624
H  H225  1  0.47240000  0.87020000  0.78400000  1.0 0.1118293624
H  H226  1  0.37020000  0.97240000  0.28400000  1.0 0.1118293624
H  H227  1  0.28400000  0.37020000  0.97240000  1.0 0.1118293624
H  H228  1  0.97240000  0.28400000  0.37020000  1.0 0.1118293624
H  H229  1  0.71630000  0.70280000  0.23530000  1.0 0.1205016459
H  H230  1  0.70280000  0.23530000  0.71630000  1.0 0.1205016459
H  H231  1  0.23530000  0.71630000  0.70280000  1.0 0.1205016459
H  H232  1  0.21630000  0.73530000  0.20280000  1.0 0.1205016459
H  H233  1  0.20280000  0.21630000  0.73530000  1.0 0.1205016459
H  H234  1  0.73530000  0.20280000  0.21630000  1.0 0.1205016459
H  H235  1  0.71130000  0.76510000  0.27610000  1.0 0.1205016459
H  H236  1  0.76510000  0.27610000  0.71130000  1.0 0.1205016459
H  H237  1  0.27610000  0.71130000  0.76510000  1.0 0.1205016459
H  H238  1  0.21130000  0.77610000  0.26510000  1.0 0.1205016459
H  H239  1  0.26510000  0.21130000  0.77610000  1.0 0.1205016459
H  H240  1  0.77610000  0.26510000  0.21130000  1.0 0.1205016459
H  H241  1  0.62650000  0.61320000  0.13930000  1.0 0.1205016459
H  H242  1  0.61320000  0.13930000  0.62650000  1.0 0.1205016459
H  H243  1  0.13930000  0.62650000  0.61320000  1.0 0.1205016459
H  H244  1  0.12650000  0.63930000  0.11320000  1.0 0.1205016459
H  H245  1  0.11320000  0.12650000  0.63930000  1.0 0.1205016459
H  H246  1  0.63930000  0.11320000  0.12650000  1.0 0.1205016459
H  H247  1  0.51600000  0.55660000  0.05740000  1.0 0.1205016459
H  H248  1  0.55660000  0.05740000  0.51600000  1.0 0.1205016459
H  H249  1  0.05740000  0.51600000  0.55660000  1.0 0.1205016459
H  H250  1  0.01600000  0.55740000  0.05660000  1.0 0.1205016459
H  H251  1  0.05660000  0.01600000  0.55740000  1.0 0.1205016459
H  H252  1  0.55740000  0.05660000  0.01600000  1.0 0.1205016459
H  H253  1  0.43970000  0.58390000  0.07520000  1.0 0.1205016459
H  H254  1  0.58390000  0.07520000  0.43970000  1.0 0.1205016459
H  H255  1  0.07520000  0.43970000  0.58390000  1.0 0.1205016459
H  H256  1  0.93970000  0.57520000  0.08390000  1.0 0.1205016459
H  H257  1  0.08390000  0.93970000  0.57520000  1.0 0.1205016459
H  H258  1  0.57520000  0.08390000  0.93970000  1.0 0.1205016459
H  H259  1  0.47530000  0.67390000  0.17850000  1.0 0.1205016459
H  H260  1  0.67390000  0.17850000  0.47530000  1.0 0.1205016459
H  H261  1  0.17850000  0.47530000  0.67390000  1.0 0.1205016459
H  H262  1  0.97530000  0.67850000  0.17390000  1.0 0.1205016459
H  H263  1  0.17390000  0.97530000  0.67850000  1.0 0.1205016459
H  H264  1  0.67850000  0.17390000  0.97530000  1.0 0.1205016459
H  H265  1  0.58630000  0.73110000  0.26200000  1.0 0.1265161331
H  H266  1  0.73110000  0.26200000  0.58630000  1.0 0.1265161331
H  H267  1  0.26200000  0.58630000  0.73110000  1.0 0.1265161331
H  H268  1  0.08630000  0.76200000  0.23110000  1.0 0.1265161331
H  H269  1  0.23110000  0.08630000  0.76200000  1.0 0.1265161331
H  H270  1  0.76200000  0.23110000  0.08630000  1.0 0.1265161331
H  H271  1  0.46520000  0.53320000  0.17690000  1.0 0.1205016459
H  H272  1  0.53320000  0.17690000  0.46520000  1.0 0.1205016459
H  H273  1  0.17690000  0.46520000  0.53320000  1.0 0.1205016459
H  H274  1  0.96520000  0.67690000  0.03320000  1.0 0.1205016459
H  H275  1  0.03320000  0.96520000  0.67690000  1.0 0.1205016459
H  H276  1  0.67690000  0.03320000  0.96520000  1.0 0.1205016459
H  H277  1  0.36510000  0.53840000  0.15240000  1.0 0.1205016459
H  H278  1  0.53840000  0.15240000  0.36510000  1.0 0.1205016459
H  H279  1  0.15240000  0.36510000  0.53840000  1.0 0.1205016459
H  H280  1  0.86510000  0.65240000  0.03840000  1.0 0.1205016459
H  H281  1  0.03840000  0.86510000  0.65240000  1.0 0.1205016459
H  H282  1  0.65240000  0.03840000  0.86510000  1.0 0.1205016459
H  H283  1  0.29840000  0.49190000  0.19210000  1.0 0.1205016459
H  H284  1  0.49190000  0.19210000  0.29840000  1.0 0.1205016459
H  H285  1  0.19210000  0.29840000  0.49190000  1.0 0.1205016459
H  H286  1  0.79840000  0.69210000  0.99190000  1.0 0.1205016459
H  H287  1  0.99190000  0.79840000  0.69210000  1.0 0.1205016459
H  H288  1  0.69210000  0.99190000  0.79840000  1.0 0.1205016459
H  H289  1  0.33060000  0.44780000  0.25740000  1.0 0.1118293624
H  H290  1  0.44780000  0.25740000  0.33060000  1.0 0.1118293624
H  H291  1  0.25740000  0.33060000  0.44780000  1.0 0.1118293624
H  H292  1  0.83060000  0.75740000  0.94780000  1.0 0.1118293624
H  H293  1  0.94780000  0.83060000  0.75740000  1.0 0.1118293624
H  H294  1  0.75740000  0.94780000  0.83060000  1.0 0.1118293624
H  H295  1  0.49790000  0.41700000  0.40650000  1.0 0.1118293624
H  H296  1  0.41700000  0.40650000  0.49790000  1.0 0.1118293624
H  H297  1  0.40650000  0.49790000  0.41700000  1.0 0.1118293624
H  H298  1  0.99790000  0.90650000  0.91700000  1.0 0.1118293624
H  H299  1  0.91700000  0.99790000  0.90650000  1.0 0.1118293624
H  H300  1  0.90650000  0.91700000  0.99790000  1.0 0.1118293624
H  H301  1  0.49470000  0.37420000  0.34000000  1.0 0.1205016459
H  H302  1  0.37420000  0.34000000  0.49470000  1.0 0.1205016459
H  H303  1  0.34000000  0.49470000  0.37420000  1.0 0.1205016459
H  H304  1  0.99470000  0.84000000  0.87420000  1.0 0.1205016459
H  H305  1  0.87420000  0.99470000  0.84000000  1.0 0.1205016459
H  H306  1  0.84000000  0.87420000  0.99470000  1.0 0.1205016459
H  H307  1  0.58560000  0.36500000  0.34500000  1.0 0.1205016459
H  H308  1  0.36500000  0.34500000  0.58560000  1.0 0.1205016459
H  H309  1  0.34500000  0.58560000  0.36500000  1.0 0.1205016459
H  H310  1  0.08560000  0.84500000  0.86500000  1.0 0.1205016459
H  H311  1  0.86500000  0.08560000  0.84500000  1.0 0.1205016459
H  H312  1  0.84500000  0.86500000  0.08560000  1.0 0.1205016459
H  H313  1  0.69940000  0.40580000  0.40400000  1.0 0.1205016459
H  H314  1  0.40580000  0.40400000  0.69940000  1.0 0.1205016459
H  H315  1  0.40400000  0.69940000  0.40580000  1.0 0.1205016459
H  H316  1  0.19940000  0.90400000  0.90580000  1.0 0.1205016459
H  H317  1  0.90580000  0.19940000  0.90400000  1.0 0.1205016459
H  H318  1  0.90400000  0.90580000  0.19940000  1.0 0.1205016459
H  H319  1  0.76900000  0.50480000  0.50720000  1.0 0.1205016459
H  H320  1  0.50480000  0.50720000  0.76900000  1.0 0.1205016459
H  H321  1  0.50720000  0.76900000  0.50480000  1.0 0.1205016459
H  H322  1  0.26900000  0.00720000  0.00480000  1.0 0.1205016459
H  H323  1  0.00480000  0.26900000  0.00720000  1.0 0.1205016459
H  H324  1  0.00720000  0.00480000  0.26900000  1.0 0.1205016459
H  H325  1  0.72230000  0.56400000  0.55230000  1.0 0.1265161331
H  H326  1  0.56400000  0.55230000  0.72230000  1.0 0.1265161331
H  H327  1  0.55230000  0.72230000  0.56400000  1.0 0.1265161331
H  H328  1  0.22230000  0.05230000  0.06400000  1.0 0.1265161331
H  H329  1  0.06400000  0.22230000  0.05230000  1.0 0.1265161331
H  H330  1  0.05230000  0.06400000  0.22230000  1.0 0.1265161331
H  H331  1  0.60980000  0.52440000  0.49380000  1.0 0.1205016459
H  H332  1  0.52440000  0.49380000  0.60980000  1.0 0.1205016459
H  H333  1  0.49380000  0.60980000  0.52440000  1.0 0.1205016459
H  H334  1  0.10980000  0.99380000  0.02440000  1.0 0.1205016459
H  H335  1  0.02440000  0.10980000  0.99380000  1.0 0.1205016459
H  H336  1  0.99380000  0.02440000  0.10980000  1.0 0.1205016459
C  C1  1  0.60193000  0.47747000  0.22880000  1.0 0.1003533623
C  C2  1  0.47747000  0.22880000  0.60193000  1.0 0.1003533623
C  C3  1  0.22880000  0.60193000  0.47747000  1.0 0.1003533623
C  C4  1  0.10193000  0.72880000  0.97747000  1.0 0.1003533623
C  C5  1  0.97747000  0.10193000  0.72880000  1.0 0.1003533623
C  C6  1  0.72880000  0.97747000  0.10193000  1.0 0.1003533623
C  C7  1  0.64080000  0.48700000  0.19060000  1.0 -0.0984241125
C  C8  1  0.48700000  0.19060000  0.64080000  1.0 -0.0984241125
C  C9  1  0.19060000  0.64080000  0.48700000  1.0 -0.0984241125
C  C10  1  0.14080000  0.69060000  0.98700000  1.0 -0.0984241125
C  C11  1  0.98700000  0.14080000  0.69060000  1.0 -0.0984241125
C  C12  1  0.69060000  0.98700000  0.14080000  1.0 -0.0984241125
C  C13  1  0.56300000  0.40200000  0.20190000  1.0 -0.0897173821
C  C14  1  0.40200000  0.20190000  0.56300000  1.0 -0.0897173821
C  C15  1  0.20190000  0.56300000  0.40200000  1.0 -0.0897173821
C  C16  1  0.06300000  0.70190000  0.90200000  1.0 -0.0897173821
C  C17  1  0.90200000  0.06300000  0.70190000  1.0 -0.0897173821
C  C18  1  0.70190000  0.90200000  0.06300000  1.0 -0.0897173821
C  C19  1  0.64680000  0.51350000  0.29970000  1.0 -0.1115136258
C  C20  1  0.51350000  0.29970000  0.64680000  1.0 -0.1115136258
C  C21  1  0.29970000  0.64680000  0.51350000  1.0 -0.1115136258
C  C22  1  0.14680000  0.79970000  0.01350000  1.0 -0.1115136258
C  C23  1  0.01350000  0.14680000  0.79970000  1.0 -0.1115136258
C  C24  1  0.79970000  0.01350000  0.14680000  1.0 -0.1115136258
C  C25  1  0.55570000  0.50450000  0.21650000  1.0 -0.1202313027
C  C26  1  0.50450000  0.21650000  0.55570000  1.0 -0.1202313027
C  C27  1  0.21650000  0.55570000  0.50450000  1.0 -0.1202313027
C  C28  1  0.05570000  0.71650000  0.00450000  1.0 -0.1202313027
C  C29  1  0.00450000  0.05570000  0.71650000  1.0 -0.1202313027
C  C30  1  0.71650000  0.00450000  0.05570000  1.0 -0.1202313027
C  C31  1  0.47500000  0.39630000  0.97850000  1.0 0.4486265178
C  C32  1  0.39630000  0.97850000  0.47500000  1.0 0.4486265178
C  C33  1  0.97850000  0.47500000  0.39630000  1.0 0.4486265178
C  C34  1  0.97500000  0.47850000  0.89630000  1.0 0.4486265178
C  C35  1  0.89630000  0.97500000  0.47850000  1.0 0.4486265178
C  C36  1  0.47850000  0.89630000  0.97500000  1.0 0.4486265178
C  C37  1  0.55260000  0.44610000  0.01070000  1.0 -0.1305399471
C  C38  1  0.44610000  0.01070000  0.55260000  1.0 -0.1305399471
C  C39  1  0.01070000  0.55260000  0.44610000  1.0 -0.1305399471
C  C40  1  0.05260000  0.51070000  0.94610000  1.0 -0.1305399471
C  C41  1  0.94610000  0.05260000  0.51070000  1.0 -0.1305399471
C  C42  1  0.51070000  0.94610000  0.05260000  1.0 -0.1305399471
C  C43  1  0.60740000  0.47110000  0.07460000  1.0 0.2023784116
C  C44  1  0.47110000  0.07460000  0.60740000  1.0 0.2023784116
C  C45  1  0.07460000  0.60740000  0.47110000  1.0 0.2023784116
C  C46  1  0.10740000  0.57460000  0.97110000  1.0 0.2023784116
C  C47  1  0.97110000  0.10740000  0.57460000  1.0 0.2023784116
C  C48  1  0.57460000  0.97110000  0.10740000  1.0 0.2023784116
C  C49  1  0.67320000  0.51340000  0.09610000  1.0 -0.2389520155
C  C50  1  0.51340000  0.09610000  0.67320000  1.0 -0.2389520155
C  C51  1  0.09610000  0.67320000  0.51340000  1.0 -0.2389520155
C  C52  1  0.17320000  0.59610000  0.01340000  1.0 -0.2389520155
C  C53  1  0.01340000  0.17320000  0.59610000  1.0 -0.2389520155
C  C54  1  0.59610000  0.01340000  0.17320000  1.0 -0.2389520155
C  C55  1  0.69110000  0.52140000  0.04830000  1.0 -0.057712836
C  C56  1  0.52140000  0.04830000  0.69110000  1.0 -0.0493253338
C  C57  1  0.04830000  0.69110000  0.52140000  1.0 -0.057712836
C  C58  1  0.19110000  0.54830000  0.02140000  1.0 -0.0493253338
C  C59  1  0.02140000  0.19110000  0.54830000  1.0 -0.057712836
C  C60  1  0.54830000  0.02140000  0.19110000  1.0 -0.0493253338
C  C61  1  0.63880000  0.50140000  0.98740000  1.0 -0.1115136258
C  C62  1  0.50140000  0.98740000  0.63880000  1.0 -0.1115136258
C  C63  1  0.98740000  0.63880000  0.50140000  1.0 -0.1115136258
C  C64  1  0.13880000  0.48740000  0.00140000  1.0 -0.1115136258
C  C65  1  0.00140000  0.13880000  0.48740000  1.0 -0.1115136258
C  C66  1  0.48740000  0.00140000  0.13880000  1.0 -0.1115136258
C  C67  1  0.57160000  0.46430000  0.96780000  1.0 -0.0984241125
C  C68  1  0.46430000  0.96780000  0.57160000  1.0 -0.0984241125
C  C69  1  0.96780000  0.57160000  0.46430000  1.0 -0.0897173821
C  C70  1  0.07160000  0.46780000  0.96430000  1.0 -0.0984241125
C  C71  1  0.96430000  0.07160000  0.46780000  1.0 -0.0897173821
C  C72  1  0.46780000  0.96430000  0.07160000  1.0 -0.0984241125
C  C73  1  0.39460000  0.32160000  0.98090000  1.0 -0.0984241125
C  C74  1  0.32160000  0.98090000  0.39460000  1.0 -0.0984241125
C  C75  1  0.98090000  0.39460000  0.32160000  1.0 -0.0984241125
C  C76  1  0.89460000  0.48090000  0.82160000  1.0 -0.0984241125
C  C77  1  0.82160000  0.89460000  0.48090000  1.0 -0.0984241125
C  C78  1  0.48090000  0.82160000  0.89460000  1.0 -0.0984241125
C  C79  1  0.37995000  0.28936000  0.02254000  1.0 0.0737862781
C  C80  1  0.28936000  0.02254000  0.37995000  1.0 0.0737862781
C  C81  1  0.02254000  0.37995000  0.28936000  1.0 0.0737862781
C  C82  1  0.87995000  0.52254000  0.78936000  1.0 0.0737862781
C  C83  1  0.78936000  0.87995000  0.52254000  1.0 0.0737862781
C  C84  1  0.52254000  0.78936000  0.87995000  1.0 0.0737862781
C  C85  1  0.37249000  0.32281000  0.07671000  1.0 -0.1498240658
C  C86  1  0.32281000  0.07671000  0.37249000  1.0 -0.1589614244
C  C87  1  0.07671000  0.37249000  0.32281000  1.0 -0.1589614244
C  C88  1  0.87249000  0.57671000  0.82281000  1.0 -0.1589614244
C  C89  1  0.82281000  0.87249000  0.57671000  1.0 -0.1589614244
C  C90  1  0.57671000  0.82281000  0.87249000  1.0 -0.1589614244
C  C91  1  0.35934000  0.29204000  0.11262000  1.0 -0.0775250583
C  C92  1  0.29204000  0.11262000  0.35934000  1.0 -0.0775250583
C  C93  1  0.11262000  0.35934000  0.29204000  1.0 -0.0775250583
C  C94  1  0.85934000  0.61262000  0.79204000  1.0 -0.0775250583
C  C95  1  0.79204000  0.85934000  0.61262000  1.0 -0.0775250583
C  C96  1  0.61262000  0.79204000  0.85934000  1.0 -0.0775250583
C  C97  1  0.35362000  0.23058000  0.09700000  1.0 -0.0897173821
C  C98  1  0.23058000  0.09700000  0.35362000  1.0 -0.0897173821
C  C99  1  0.09700000  0.35362000  0.23058000  1.0 -0.0897173821
C  C100  1  0.85362000  0.59700000  0.73058000  1.0 -0.0897173821
C  C101  1  0.73058000  0.85362000  0.59700000  1.0 -0.0897173821
C  C102  1  0.59700000  0.73058000  0.85362000  1.0 -0.0897173821
C  C103  1  0.36000000  0.19610000  0.04320000  1.0 -0.072299227
C  C104  1  0.19610000  0.04320000  0.36000000  1.0 -0.072299227
C  C105  1  0.04320000  0.36000000  0.19610000  1.0 -0.072299227
C  C106  1  0.86000000  0.54320000  0.69610000  1.0 -0.072299227
C  C107  1  0.69610000  0.86000000  0.54320000  1.0 -0.072299227
C  C108  1  0.54320000  0.69610000  0.86000000  1.0 -0.072299227
C  C109  1  0.37445000  0.22705000  0.00770000  1.0 -0.1589614244
C  C110  1  0.22705000  0.00770000  0.37445000  1.0 -0.1589614244
C  C111  1  0.00770000  0.37445000  0.22705000  1.0 -0.1589614244
C  C112  1  0.87445000  0.50770000  0.72705000  1.0 -0.1589614244
C  C113  1  0.72705000  0.87445000  0.50770000  1.0 -0.1589614244
C  C114  1  0.50770000  0.72705000  0.87445000  1.0 -0.1589614244
C  C115  1  0.72680000  0.35590000  0.27020000  1.0 0.4993620808
C  C116  1  0.35590000  0.27020000  0.72680000  1.0 0.4993620808
C  C117  1  0.27020000  0.72680000  0.35590000  1.0 0.4993620808
C  C118  1  0.22680000  0.77020000  0.85590000  1.0 0.4993620808
C  C119  1  0.85590000  0.22680000  0.77020000  1.0 0.4993620808
C  C120  1  0.77020000  0.85590000  0.22680000  1.0 0.4993620808
C  C121  1  0.65140000  0.30950000  0.24230000  1.0 -0.1305399471
C  C122  1  0.30950000  0.24230000  0.65140000  1.0 -0.1352265581
C  C123  1  0.24230000  0.65140000  0.30950000  1.0 -0.1352265581
C  C124  1  0.15140000  0.74230000  0.80950000  1.0 -0.1352265581
C  C125  1  0.80950000  0.15140000  0.74230000  1.0 -0.1305399471
C  C126  1  0.74230000  0.80950000  0.15140000  1.0 -0.1352265581
C  C127  1  0.59660000  0.31980000  0.21690000  1.0 0.2082417652
C  C128  1  0.31980000  0.21690000  0.59660000  1.0 0.2082417652
C  C129  1  0.21690000  0.59660000  0.31980000  1.0 0.2082417652
C  C130  1  0.09660000  0.71690000  0.81980000  1.0 0.2082417652
C  C131  1  0.81980000  0.09660000  0.71690000  1.0 0.2082417652
C  C132  1  0.71690000  0.81980000  0.09660000  1.0 0.2082417652
C  C133  1  0.52930000  0.27470000  0.18920000  1.0 -0.2389520155
C  C134  1  0.27470000  0.18920000  0.52930000  1.0 -0.2389520155
C  C135  1  0.18920000  0.52930000  0.27470000  1.0 -0.2389520155
C  C136  1  0.02930000  0.68920000  0.77470000  1.0 -0.2389520155
C  C137  1  0.77470000  0.02930000  0.68920000  1.0 -0.2389520155
C  C138  1  0.68920000  0.77470000  0.02930000  1.0 -0.2389520155
C  C139  1  0.51410000  0.21180000  0.18510000  1.0 -0.0493253338
C  C140  1  0.21180000  0.18510000  0.51410000  1.0 -0.0493253338
C  C141  1  0.18510000  0.51410000  0.21180000  1.0 -0.0493253338
C  C142  1  0.01410000  0.68510000  0.71180000  1.0 -0.0493253338
C  C143  1  0.71180000  0.01410000  0.68510000  1.0 -0.0493253338
C  C144  1  0.68510000  0.71180000  0.01410000  1.0 -0.0493253338
C  C145  1  0.56450000  0.20040000  0.21390000  1.0 -0.1115136258
C  C146  1  0.20040000  0.21390000  0.56450000  1.0 -0.1115136258
C  C147  1  0.21390000  0.56450000  0.20040000  1.0 -0.1115136258
C  C148  1  0.06450000  0.71390000  0.70040000  1.0 -0.1115136258
C  C149  1  0.70040000  0.06450000  0.71390000  1.0 -0.1115136258
C  C150  1  0.71390000  0.70040000  0.06450000  1.0 -0.1115136258
C  C151  1  0.63020000  0.24590000  0.23920000  1.0 -0.1115136258
C  C152  1  0.24590000  0.23920000  0.63020000  1.0 -0.1115136258
C  C153  1  0.23920000  0.63020000  0.24590000  1.0 -0.1115136258
C  C154  1  0.13020000  0.73920000  0.74590000  1.0 -0.1115136258
C  C155  1  0.74590000  0.13020000  0.73920000  1.0 -0.1115136258
C  C156  1  0.73920000  0.74590000  0.13020000  1.0 -0.1115136258
C  C157  1  0.82160000  0.44170000  0.28040000  1.0 -0.0984241125
C  C158  1  0.44170000  0.28040000  0.82160000  1.0 -0.0984241125
C  C159  1  0.28040000  0.82160000  0.44170000  1.0 -0.0984241125
C  C160  1  0.32160000  0.78040000  0.94170000  1.0 -0.0984241125
C  C161  1  0.94170000  0.32160000  0.78040000  1.0 -0.0984241125
C  C162  1  0.78040000  0.94170000  0.32160000  1.0 -0.0984241125
C  C163  1  0.82587000  0.49746000  0.26495000  1.0 0.0584970981
C  C164  1  0.49746000  0.26495000  0.82587000  1.0 0.0584970981
C  C165  1  0.26495000  0.82587000  0.49746000  1.0 0.0584970981
C  C166  1  0.32587000  0.76495000  0.99746000  1.0 0.0584970981
C  C167  1  0.99746000  0.32587000  0.76495000  1.0 0.0584970981
C  C168  1  0.76495000  0.99746000  0.32587000  1.0 0.0584970981
C  C169  1  0.83438000  0.55971000  0.30300000  1.0 -0.1498240658
C  C170  1  0.55971000  0.30300000  0.83438000  1.0 -0.1498240658
C  C171  1  0.30300000  0.83438000  0.55971000  1.0 -0.1498240658
C  C172  1  0.33438000  0.80300000  0.05971000  1.0 -0.1498240658
C  C173  1  0.05971000  0.33438000  0.80300000  1.0 -0.1498240658
C  C174  1  0.80300000  0.05971000  0.33438000  1.0 -0.1498240658
C  C175  1  0.84518000  0.60580000  0.28082000  1.0 -0.0775250583
C  C176  1  0.60580000  0.28082000  0.84518000  1.0 -0.0775250583
C  C177  1  0.28082000  0.84518000  0.60580000  1.0 -0.0775250583
C  C178  1  0.34518000  0.78082000  0.10580000  1.0 -0.0775250583
C  C179  1  0.10580000  0.34518000  0.78082000  1.0 -0.0775250583
C  C180  1  0.78082000  0.10580000  0.34518000  1.0 -0.0775250583
C  C181  1  0.84739000  0.59071000  0.22200000  1.0 -0.0897173821
C  C182  1  0.59071000  0.22200000  0.84739000  1.0 -0.0897173821
C  C183  1  0.22200000  0.84739000  0.59071000  1.0 -0.0897173821
C  C184  1  0.34739000  0.72200000  0.09071000  1.0 -0.0897173821
C  C185  1  0.09071000  0.34739000  0.72200000  1.0 -0.0897173821
C  C186  1  0.72200000  0.09071000  0.34739000  1.0 -0.0897173821
C  C187  1  0.83963000  0.52957000  0.18440000  1.0 -0.0775250583
C  C188  1  0.52957000  0.18440000  0.83963000  1.0 -0.0775250583
C  C189  1  0.18440000  0.83963000  0.52957000  1.0 -0.0775250583
C  C190  1  0.33963000  0.68440000  0.02957000  1.0 -0.0775250583
C  C191  1  0.02957000  0.33963000  0.68440000  1.0 -0.0775250583
C  C192  1  0.68440000  0.02957000  0.33963000  1.0 -0.0775250583
C  C193  1  0.82835000  0.48352000  0.20543000  1.0 -0.1498240658
C  C194  1  0.48352000  0.20543000  0.82835000  1.0 -0.1498240658
C  C195  1  0.20543000  0.82835000  0.48352000  1.0 -0.1498240658
C  C196  1  0.32835000  0.70543000  0.98352000  1.0 -0.1498240658
C  C197  1  0.98352000  0.32835000  0.70543000  1.0 -0.1498240658
C  C198  1  0.70543000  0.98352000  0.32835000  1.0 -0.1498240658
C  C199  1  0.77080000  0.72180000  0.35290000  1.0 0.4654095367
C  C200  1  0.72180000  0.35290000  0.77080000  1.0 0.4654095367
C  C201  1  0.35290000  0.77080000  0.72180000  1.0 0.4654095367
C  C202  1  0.27080000  0.85290000  0.22180000  1.0 0.4654095367
C  C203  1  0.22180000  0.27080000  0.85290000  1.0 0.4654095367
C  C204  1  0.85290000  0.22180000  0.27080000  1.0 0.4654095367
C  C205  1  0.78864000  0.69390000  0.39476000  1.0 -0.1589614244
C  C206  1  0.69390000  0.39476000  0.78864000  1.0 -0.1589614244
C  C207  1  0.39476000  0.78864000  0.69390000  1.0 -0.1589614244
C  C208  1  0.28864000  0.89476000  0.19390000  1.0 -0.1589614244
C  C209  1  0.19390000  0.28864000  0.89476000  1.0 -0.1589614244
C  C210  1  0.89476000  0.19390000  0.28864000  1.0 -0.1589614244
C  C211  1  0.74963000  0.62840000  0.38197000  1.0 0.2296349302
C  C212  1  0.62840000  0.38197000  0.74963000  1.0 0.2296349302
C  C213  1  0.38197000  0.74963000  0.62840000  1.0 0.2296349302
C  C214  1  0.24963000  0.88197000  0.12840000  1.0 0.2296349302
C  C215  1  0.12840000  0.24963000  0.88197000  1.0 0.2296349302
C  C216  1  0.88197000  0.12840000  0.24963000  1.0 0.2296349302
C  C217  1  0.76904000  0.60810000  0.42786000  1.0 -0.2484176602
C  C218  1  0.60810000  0.42786000  0.76904000  1.0 -0.2484176602
C  C219  1  0.42786000  0.76904000  0.60810000  1.0 -0.2484176602
C  C220  1  0.26904000  0.92786000  0.10810000  1.0 -0.2484176602
C  C221  1  0.10810000  0.26904000  0.92786000  1.0 -0.2484176602
C  C222  1  0.92786000  0.10810000  0.26904000  1.0 -0.2484176602
C  C223  1  0.82404000  0.65530000  0.49276000  1.0 -0.0493253338
C  C224  1  0.65530000  0.49276000  0.82404000  1.0 -0.0493253338
C  C225  1  0.49276000  0.82404000  0.65530000  1.0 -0.0493253338
C  C226  1  0.32404000  0.99276000  0.15530000  1.0 -0.0493253338
C  C227  1  0.15530000  0.32404000  0.99276000  1.0 -0.0493253338
C  C228  1  0.99276000  0.15530000  0.32404000  1.0 -0.0493253338
C  C229  1  0.86616000  0.71630000  0.50274000  1.0 -0.1202313027
C  C230  1  0.71630000  0.50274000  0.86616000  1.0 -0.1202313027
C  C231  1  0.50274000  0.86616000  0.71630000  1.0 -0.1202313027
C  C232  1  0.36616000  0.00274000  0.21630000  1.0 -0.1202313027
C  C233  1  0.21630000  0.36616000  0.00274000  1.0 -0.1202313027
C  C234  1  0.00274000  0.21630000  0.36616000  1.0 -0.1202313027
C  C235  1  0.84580000  0.73860000  0.45910000  1.0 -0.0897173821
C  C236  1  0.73860000  0.45910000  0.84580000  1.0 -0.0897173821
C  C237  1  0.45910000  0.84580000  0.73860000  1.0 -0.0897173821
C  C238  1  0.34580000  0.95910000  0.23860000  1.0 -0.0897173821
C  C239  1  0.23860000  0.34580000  0.95910000  1.0 -0.0897173821
C  C240  1  0.95910000  0.23860000  0.34580000  1.0 -0.0897173821
C  C241  1  0.69360000  0.71690000  0.25860000  1.0 -0.1305399471
C  C242  1  0.71690000  0.25860000  0.69360000  1.0 -0.1305399471
C  C243  1  0.25860000  0.69360000  0.71690000  1.0 -0.1305399471
C  C244  1  0.19360000  0.75860000  0.21690000  1.0 -0.1305399471
C  C245  1  0.21690000  0.19360000  0.75860000  1.0 -0.1305399471
C  C246  1  0.75860000  0.21690000  0.19360000  1.0 -0.1305399471
C  C247  1  0.61930000  0.67943000  0.21077000  1.0 0.0878416345
C  C248  1  0.67943000  0.21077000  0.61930000  1.0 0.0878416345
C  C249  1  0.21077000  0.61930000  0.67943000  1.0 0.0878416345
C  C250  1  0.11930000  0.71077000  0.17943000  1.0 0.0878416345
C  C251  1  0.17943000  0.11930000  0.71077000  1.0 0.0878416345
C  C252  1  0.71077000  0.17943000  0.11930000  1.0 0.0878416345
C  C253  1  0.59651000  0.62573000  0.14776000  1.0 -0.1498240658
C  C254  1  0.62573000  0.14776000  0.59651000  1.0 -0.1498240658
C  C255  1  0.14776000  0.59651000  0.62573000  1.0 -0.1498240658
C  C256  1  0.09651000  0.64776000  0.12573000  1.0 -0.1498240658
C  C257  1  0.12573000  0.09651000  0.64776000  1.0 -0.1498240658
C  C258  1  0.64776000  0.12573000  0.09651000  1.0 -0.1498240658
C  C259  1  0.53046000  0.59196000  0.09908000  1.0 -0.0775250583
C  C260  1  0.59196000  0.09908000  0.53046000  1.0 -0.0775250583
C  C261  1  0.09908000  0.53046000  0.59196000  1.0 -0.0775250583
C  C262  1  0.03046000  0.59908000  0.09196000  1.0 -0.0775250583
C  C263  1  0.09196000  0.03046000  0.59908000  1.0 -0.0775250583
C  C264  1  0.59908000  0.09196000  0.03046000  1.0 -0.0775250583
C  C265  1  0.48470000  0.60830000  0.10930000  1.0 -0.0897173821
C  C266  1  0.60830000  0.10930000  0.48470000  1.0 -0.0897173821
C  C267  1  0.10930000  0.48470000  0.60830000  1.0 -0.0897173821
C  C268  1  0.98470000  0.60930000  0.10830000  1.0 -0.0897173821
C  C269  1  0.10830000  0.98470000  0.60930000  1.0 -0.0897173821
C  C270  1  0.60930000  0.10830000  0.98470000  1.0 -0.0897173821
C  C271  1  0.50570000  0.66160000  0.17090000  1.0 -0.072299227
C  C272  1  0.66160000  0.17090000  0.50570000  1.0 -0.072299227
C  C273  1  0.17090000  0.50570000  0.66160000  1.0 -0.072299227
C  C274  1  0.00570000  0.67090000  0.16160000  1.0 -0.072299227
C  C275  1  0.16160000  0.00570000  0.67090000  1.0 -0.072299227
C  C276  1  0.67090000  0.16160000  0.00570000  1.0 -0.072299227
C  C277  1  0.57230000  0.69572000  0.22048000  1.0 -0.1589614244
C  C278  1  0.69572000  0.22048000  0.57230000  1.0 -0.1589614244
C  C279  1  0.22048000  0.57230000  0.69572000  1.0 -0.1589614244
C  C280  1  0.07230000  0.72048000  0.19572000  1.0 -0.1589614244
C  C281  1  0.19572000  0.07230000  0.72048000  1.0 -0.1589614244
C  C282  1  0.72048000  0.19572000  0.07230000  1.0 -0.1589614244
C  C283  1  0.43620000  0.42770000  0.31170000  1.0 0.4262147243
C  C284  1  0.42770000  0.31170000  0.43620000  1.0 0.4262147243
C  C285  1  0.31170000  0.43620000  0.42770000  1.0 0.4262147243
C  C286  1  0.93620000  0.81170000  0.92770000  1.0 0.4262147243
C  C287  1  0.92770000  0.93620000  0.81170000  1.0 0.4262147243
C  C288  1  0.81170000  0.92770000  0.93620000  1.0 0.4262147243
C  C289  1  0.41790000  0.45798000  0.25970000  1.0 -0.1701677546
C  C290  1  0.45798000  0.25970000  0.41790000  1.0 -0.1701677546
C  C291  1  0.25970000  0.41790000  0.45798000  1.0 -0.1701677546
C  C292  1  0.91790000  0.75970000  0.95798000  1.0 -0.1701677546
C  C293  1  0.95798000  0.91790000  0.75970000  1.0 -0.1701677546
C  C294  1  0.75970000  0.95798000  0.91790000  1.0 -0.1701677546
C  C295  1  0.45440000  0.48682000  0.23165000  1.0 0.2195983872
C  C296  1  0.48682000  0.23165000  0.45440000  1.0 0.2195983872
C  C297  1  0.23165000  0.45440000  0.48682000  1.0 0.2195983872
C  C298  1  0.95440000  0.73165000  0.98682000  1.0 0.2195983872
C  C299  1  0.98682000  0.95440000  0.73165000  1.0 0.2195983872
C  C300  1  0.73165000  0.98682000  0.95440000  1.0 0.2195983872
C  C301  1  0.43738000  0.51598000  0.19278000  1.0 -0.2389520155
C  C302  1  0.51598000  0.19278000  0.43738000  1.0 -0.2389520155
C  C303  1  0.19278000  0.43738000  0.51598000  1.0 -0.234610883
C  C304  1  0.93738000  0.69278000  0.01598000  1.0 -0.2389520155
C  C305  1  0.01598000  0.93738000  0.69278000  1.0 -0.2389520155
C  C306  1  0.69278000  0.01598000  0.93738000  1.0 -0.2389520155
C  C307  1  0.37780000  0.51890000  0.17780000  1.0 -0.057712836
C  C308  1  0.51890000  0.17780000  0.37780000  1.0 -0.057712836
C  C309  1  0.17780000  0.37780000  0.51890000  1.0 -0.057712836
C  C310  1  0.87780000  0.67780000  0.01890000  1.0 -0.057712836
C  C311  1  0.01890000  0.87780000  0.67780000  1.0 -0.057712836
C  C312  1  0.67780000  0.01890000  0.87780000  1.0 -0.057712836
C  C313  1  0.33890000  0.49170000  0.20220000  1.0 -0.1202313027
C  C314  1  0.49170000  0.20220000  0.33890000  1.0 -0.1202313027
C  C315  1  0.20220000  0.33890000  0.49170000  1.0 -0.1202313027
C  C316  1  0.83890000  0.70220000  0.99170000  1.0 -0.1202313027
C  C317  1  0.99170000  0.83890000  0.70220000  1.0 -0.1202313027
C  C318  1  0.70220000  0.99170000  0.83890000  1.0 -0.1202313027
C  C319  1  0.35860000  0.46400000  0.24140000  1.0 -0.1115136258
C  C320  1  0.46400000  0.24140000  0.35860000  1.0 -0.1115136258
C  C321  1  0.24140000  0.35860000  0.46400000  1.0 -0.1115136258
C  C322  1  0.85860000  0.74140000  0.96400000  1.0 -0.1115136258
C  C323  1  0.96400000  0.85860000  0.74140000  1.0 -0.1115136258
C  C324  1  0.74140000  0.96400000  0.85860000  1.0 -0.1115136258
C  C325  1  0.51640000  0.41980000  0.37710000  1.0 -0.0984241125
C  C326  1  0.41980000  0.37710000  0.51640000  1.0 -0.0984241125
C  C327  1  0.37710000  0.51640000  0.41980000  1.0 -0.0984241125
C  C328  1  0.01640000  0.87710000  0.91980000  1.0 -0.0984241125
C  C329  1  0.91980000  0.01640000  0.87710000  1.0 -0.0984241125
C  C330  1  0.87710000  0.91980000  0.01640000  1.0 -0.0984241125
C  C331  1  0.58480000  0.44091000  0.41359000  1.0 0.0415881327
C  C332  1  0.44091000  0.41359000  0.58480000  1.0 0.0415881327
C  C333  1  0.41359000  0.58480000  0.44091000  1.0 0.0415881327
C  C334  1  0.08480000  0.91359000  0.94091000  1.0 0.0415881327
C  C335  1  0.94091000  0.08480000  0.91359000  1.0 0.0415881327
C  C336  1  0.91359000  0.94091000  0.08480000  1.0 0.0415881327
C  C337  1  0.61280000  0.40496000  0.38644000  1.0 -0.1498240658
C  C338  1  0.40496000  0.38644000  0.61280000  1.0 -0.1498240658
C  C339  1  0.38644000  0.61280000  0.40496000  1.0 -0.1498240658
C  C340  1  0.11280000  0.88644000  0.90496000  1.0 -0.1498240658
C  C341  1  0.90496000  0.11280000  0.88644000  1.0 -0.1498240658
C  C342  1  0.88644000  0.90496000  0.11280000  1.0 -0.1498240658
C  C343  1  0.68075000  0.42958000  0.42197000  1.0 -0.072299227
C  C344  1  0.42958000  0.42197000  0.68075000  1.0 -0.072299227
C  C345  1  0.42197000  0.68075000  0.42958000  1.0 -0.072299227
C  C346  1  0.18075000  0.92197000  0.92958000  1.0 -0.072299227
C  C347  1  0.92958000  0.18075000  0.92197000  1.0 -0.072299227
C  C348  1  0.92197000  0.92958000  0.18075000  1.0 -0.072299227
C  C349  1  0.72280000  0.48900000  0.48400000  1.0 -0.0897173821
C  C350  1  0.48900000  0.48400000  0.72280000  1.0 -0.0897173821
C  C351  1  0.48400000  0.72280000  0.48900000  1.0 -0.0897173821
C  C352  1  0.22280000  0.98400000  0.98900000  1.0 -0.0897173821
C  C353  1  0.98900000  0.22280000  0.98400000  1.0 -0.0897173821
C  C354  1  0.98400000  0.98900000  0.22280000  1.0 -0.0897173821
C  C355  1  0.69510000  0.52420000  0.51070000  1.0 -0.0775250583
C  C356  1  0.52420000  0.51070000  0.69510000  1.0 -0.0775250583
C  C357  1  0.51070000  0.69510000  0.52420000  1.0 -0.0775250583
C  C358  1  0.19510000  0.01070000  0.02420000  1.0 -0.072299227
C  C359  1  0.02420000  0.19510000  0.01070000  1.0 -0.0775250583
C  C360  1  0.01070000  0.02420000  0.19510000  1.0 -0.0775250583
C  C361  1  0.62790000  0.50020000  0.47560000  1.0 -0.1498240658
C  C362  1  0.50020000  0.47560000  0.62790000  1.0 -0.1498240658
C  C363  1  0.47560000  0.62790000  0.50020000  1.0 -0.1498240658
C  C364  1  0.12790000  0.97560000  0.00020000  1.0 -0.1498240658
C  C365  1  0.00020000  0.12790000  0.97560000  1.0 -0.1498240658
C  C366  1  0.97560000  0.00020000  0.12790000  1.0 -0.1498240658
N  N1  1  0.46090000  0.36090000  0.00490000  1.0 -0.2389520155
N  N2  1  0.36090000  0.00490000  0.46090000  1.0 -0.2389520155
N  N3  1  0.00490000  0.46090000  0.36090000  1.0 -0.2389520155
N  N4  1  0.96090000  0.50490000  0.86090000  1.0 -0.2389520155
N  N5  1  0.86090000  0.96090000  0.50490000  1.0 -0.2389520155
N  N6  1  0.50490000  0.86090000  0.96090000  1.0 -0.2389520155
N  N7  1  0.74870000  0.40090000  0.24980000  1.0 -0.3177707001
N  N8  1  0.40090000  0.24980000  0.74870000  1.0 -0.3177707001
N  N9  1  0.24980000  0.74870000  0.40090000  1.0 -0.3177707001
N  N10  1  0.24870000  0.74980000  0.90090000  1.0 -0.3177707001
N  N11  1  0.90090000  0.24870000  0.74980000  1.0 -0.3177707001
N  N12  1  0.74980000  0.90090000  0.24870000  1.0 -0.3177707001
N  N13  1  0.70510000  0.70190000  0.31400000  1.0 -0.2896263604
N  N14  1  0.70190000  0.31400000  0.70510000  1.0 -0.2896263604
N  N15  1  0.31400000  0.70510000  0.70190000  1.0 -0.2896263604
N  N16  1  0.20510000  0.81400000  0.20190000  1.0 -0.2896263604
N  N17  1  0.20190000  0.20510000  0.81400000  1.0 -0.2896263604
N  N18  1  0.81400000  0.20190000  0.20510000  1.0 -0.2896263604
N  N19  1  0.49720000  0.45570000  0.35080000  1.0 -0.2484176602
N  N20  1  0.45570000  0.35080000  0.49720000  1.0 -0.2484176602
N  N21  1  0.35080000  0.49720000  0.45570000  1.0 -0.2484176602
N  N22  1  0.99720000  0.85080000  0.95570000  1.0 -0.2484176602
N  N23  1  0.95570000  0.99720000  0.85080000  1.0 -0.2484176602
N  N24  1  0.85080000  0.95570000  0.99720000  1.0 -0.2484176602
N  N25  1  0.46990000  0.50640000  0.87590000  1.0 0.71027659
N  N26  1  0.50640000  0.87590000  0.46990000  1.0 0.71027659
N  N27  1  0.87590000  0.46990000  0.50640000  1.0 0.71027659
N  N28  1  0.96990000  0.37590000  0.00640000  1.0 0.71027659
N  N29  1  0.00640000  0.96990000  0.37590000  1.0 0.71027659
N  N30  1  0.37590000  0.00640000  0.96990000  1.0 0.71027659
N  N31  1  0.26400000  0.39320000  0.73780000  1.0 0.71027659
N  N32  1  0.39320000  0.73780000  0.26400000  1.0 0.71027659
N  N33  1  0.73780000  0.26400000  0.39320000  1.0 0.71027659
N  N34  1  0.76400000  0.23780000  0.89320000  1.0 0.71027659
N  N35  1  0.89320000  0.76400000  0.23780000  1.0 0.71027659
N  N36  1  0.23780000  0.89320000  0.76400000  1.0 0.71027659
N  N37  1  0.32799000  0.48521000  0.94300000  1.0 0.7205778256
N  N38  1  0.48521000  0.94300000  0.32799000  1.0 0.7205778256
N  N39  1  0.94300000  0.32799000  0.48521000  1.0 0.7205778256
N  N40  1  0.82799000  0.44300000  0.98521000  1.0 0.7205778256
N  N41  1  0.98521000  0.82799000  0.44300000  1.0 0.7205778256
N  N42  1  0.44300000  0.98521000  0.82799000  1.0 0.7205778256
N  N43  1  0.30972000  0.19610000  0.21978000  1.0 0.71027659
N  N44  1  0.19610000  0.21978000  0.30972000  1.0 0.71027659
N  N45  1  0.21978000  0.30972000  0.19610000  1.0 0.71027659
N  N46  1  0.80972000  0.71978000  0.69610000  1.0 0.71027659
N  N47  1  0.69610000  0.80972000  0.71978000  1.0 0.71027659
N  N48  1  0.71978000  0.69610000  0.80972000  1.0 0.71027659
O  O1  1  0.58470000  0.45610000  0.11680000  1.0 -0.2484176602
O  O2  1  0.45610000  0.11680000  0.58470000  1.0 -0.2484176602
O  O3  1  0.11680000  0.58470000  0.45610000  1.0 -0.2484176602
O  O4  1  0.08470000  0.61680000  0.95610000  1.0 -0.2484176602
O  O5  1  0.95610000  0.08470000  0.61680000  1.0 -0.2484176602
O  O6  1  0.61680000  0.95610000  0.08470000  1.0 -0.2484176602
O  O7  1  0.61720000  0.38303000  0.22217000  1.0 -0.234610883
O  O8  1  0.38303000  0.22217000  0.61720000  1.0 -0.234610883
O  O9  1  0.22217000  0.61720000  0.38303000  1.0 -0.234610883
O  O10  1  0.11720000  0.72217000  0.88303000  1.0 -0.234610883
O  O11  1  0.88303000  0.11720000  0.72217000  1.0 -0.234610883
O  O12  1  0.72217000  0.88303000  0.11720000  1.0 -0.234610883
O  O13  1  0.69190000  0.58680000  0.32170000  1.0 -0.1971493493
O  O14  1  0.58680000  0.32170000  0.69190000  1.0 -0.1971493493
O  O15  1  0.32170000  0.69190000  0.58680000  1.0 -0.1971493493
O  O16  1  0.19190000  0.82170000  0.08680000  1.0 -0.1971493493
O  O17  1  0.08680000  0.19190000  0.82170000  1.0 -0.1971493493
O  O18  1  0.82170000  0.08680000  0.19190000  1.0 -0.1971493493
O  O19  1  0.51303000  0.48370000  0.24937000  1.0 -0.2228823855
O  O20  1  0.48370000  0.24937000  0.51303000  1.0 -0.2228823855
O  O21  1  0.24937000  0.51303000  0.48370000  1.0 -0.2228823855
O  O22  1  0.01303000  0.74937000  0.98370000  1.0 -0.2228823855
O  O23  1  0.98370000  0.01303000  0.74937000  1.0 -0.2228823855
O  O24  1  0.74937000  0.98370000  0.01303000  1.0 -0.2228823855
O  O25  1  0.43197000  0.39111000  0.92862000  1.0 -0.5860155627
O  O26  1  0.39111000  0.92862000  0.43197000  1.0 -0.5860155627
O  O27  1  0.92862000  0.43197000  0.39111000  1.0 -0.5860155627
O  O28  1  0.93197000  0.42862000  0.89111000  1.0 -0.5860155627
O  O29  1  0.89111000  0.93197000  0.42862000  1.0 -0.5860155627
O  O30  1  0.42862000  0.89111000  0.93197000  1.0 -0.5860155627
O  O31  1  0.77202000  0.34762000  0.31186000  1.0 -0.6995475694
O  O32  1  0.34762000  0.31186000  0.77202000  1.0 -0.6995475694
O  O33  1  0.31186000  0.77202000  0.34762000  1.0 -0.6995475694
O  O34  1  0.27202000  0.81186000  0.84762000  1.0 -0.6995475694
O  O35  1  0.84762000  0.27202000  0.81186000  1.0 -0.6995475694
O  O36  1  0.81186000  0.84762000  0.27202000  1.0 -0.6995475694
O  O37  1  0.81404000  0.77393000  0.35383000  1.0 -0.6878451114
O  O38  1  0.77393000  0.35383000  0.81404000  1.0 -0.6878451114
O  O39  1  0.35383000  0.81404000  0.77393000  1.0 -0.6878451114
O  O40  1  0.31404000  0.85383000  0.27393000  1.0 -0.6878451114
O  O41  1  0.27393000  0.31404000  0.85383000  1.0 -0.6878451114
O  O42  1  0.85383000  0.27393000  0.31404000  1.0 -0.6878451114
O  O43  1  0.38847000  0.39124000  0.30919000  1.0 -0.5326166356
O  O44  1  0.39124000  0.30919000  0.38847000  1.0 -0.5326166356
O  O45  1  0.30919000  0.38847000  0.39124000  1.0 -0.5326166356
O  O46  1  0.88847000  0.80919000  0.89124000  1.0 -0.5326166356
O  O47  1  0.89124000  0.88847000  0.80919000  1.0 -0.5326166356
O  O48  1  0.80919000  0.89124000  0.88847000  1.0 -0.5326166356
O  O49  1  0.44105000  0.52070000  0.90815000  1.0 -0.497156541
O  O50  1  0.52070000  0.90815000  0.44105000  1.0 -0.497156541
O  O51  1  0.90815000  0.44105000  0.52070000  1.0 -0.497156541
O  O52  1  0.94105000  0.40815000  0.02070000  1.0 -0.497156541
O  O53  1  0.02070000  0.94105000  0.40815000  1.0 -0.497156541
O  O54  1  0.40815000  0.02070000  0.94105000  1.0 -0.497156541
O  O55  1  0.45022000  0.44668000  0.83680000  1.0 -0.473260208
O  O56  1  0.44668000  0.83680000  0.45022000  1.0 -0.473260208
O  O57  1  0.83680000  0.45022000  0.44668000  1.0 -0.473260208
O  O58  1  0.95022000  0.33680000  0.94668000  1.0 -0.473260208
O  O59  1  0.94668000  0.95022000  0.33680000  1.0 -0.473260208
O  O60  1  0.33680000  0.94668000  0.95022000  1.0 -0.473260208
O  O61  1  0.52730000  0.55030000  0.89220000  1.0 -0.4016317929
O  O62  1  0.55030000  0.89220000  0.52730000  1.0 -0.4016317929
O  O63  1  0.89220000  0.52730000  0.55030000  1.0 -0.4016317929
O  O64  1  0.02730000  0.39220000  0.05030000  1.0 -0.4016317929
O  O65  1  0.05030000  0.02730000  0.39220000  1.0 -0.4016317929
O  O66  1  0.39220000  0.05030000  0.02730000  1.0 -0.4016317929
O  O67  1  0.24244000  0.35050000  0.75436000  1.0 -0.473260208
O  O68  1  0.35050000  0.75436000  0.24244000  1.0 -0.473260208
O  O69  1  0.75436000  0.24244000  0.35050000  1.0 -0.473260208
O  O70  1  0.74244000  0.25436000  0.85050000  1.0 -0.473260208
O  O71  1  0.85050000  0.74244000  0.25436000  1.0 -0.4816834392
O  O72  1  0.25436000  0.85050000  0.74244000  1.0 -0.473260208
O  O73  1  0.32510000  0.43590000  0.76870000  1.0 -0.4816834392
O  O74  1  0.43590000  0.76870000  0.32510000  1.0 -0.4816834392
O  O75  1  0.76870000  0.32510000  0.43590000  1.0 -0.4816834392
O  O76  1  0.82510000  0.26870000  0.93590000  1.0 -0.4816834392
O  O77  1  0.93590000  0.82510000  0.26870000  1.0 -0.4816834392
O  O78  1  0.26870000  0.93590000  0.82510000  1.0 -0.4816834392
O  O79  1  0.22057000  0.39833000  0.69600000  1.0 -0.4016317929
O  O80  1  0.39833000  0.69600000  0.22057000  1.0 -0.4016317929
O  O81  1  0.69600000  0.22057000  0.39833000  1.0 -0.4016317929
O  O82  1  0.72057000  0.19600000  0.89833000  1.0 -0.4016317929
O  O83  1  0.89833000  0.72057000  0.19600000  1.0 -0.4016317929
O  O84  1  0.19600000  0.89833000  0.72057000  1.0 -0.4016317929
O  O85  1  0.29385000  0.46235000  0.88030000  1.0 -0.5109548673
O  O86  1  0.46235000  0.88030000  0.29385000  1.0 -0.5109548673
O  O87  1  0.88030000  0.29385000  0.46235000  1.0 -0.5109548673
O  O88  1  0.79385000  0.38030000  0.96235000  1.0 -0.5109548673
O  O89  1  0.96235000  0.79385000  0.38030000  1.0 -0.5109548673
O  O90  1  0.38030000  0.96235000  0.79385000  1.0 -0.5109548673
O  O91  1  0.36498000  0.46161000  0.96351000  1.0 -0.5109548673
O  O92  1  0.46161000  0.96351000  0.36498000  1.0 -0.5109548673
O  O93  1  0.96351000  0.36498000  0.46161000  1.0 -0.5109548673
O  O94  1  0.86498000  0.46351000  0.96161000  1.0 -0.5109548673
O  O95  1  0.96161000  0.86498000  0.46351000  1.0 -0.5109548673
O  O96  1  0.46351000  0.96161000  0.86498000  1.0 -0.5109548673
O  O97  1  0.31124000  0.51446000  0.98240000  1.0 -0.4016317929
O  O98  1  0.51446000  0.98240000  0.31124000  1.0 -0.4016317929
O  O99  1  0.98240000  0.31124000  0.51446000  1.0 -0.4016317929
O  O100  1  0.81124000  0.48240000  0.01446000  1.0 -0.4016317929
O  O101  1  0.01446000  0.81124000  0.48240000  1.0 -0.4016317929
O  O102  1  0.48240000  0.01446000  0.81124000  1.0 -0.4016317929
O  O103  1  0.35273000  0.25566000  0.24231000  1.0 -0.4896097287
O  O104  1  0.25566000  0.24231000  0.35273000  1.0 -0.4896097287
O  O105  1  0.24231000  0.35273000  0.25566000  1.0 -0.4896097287
O  O106  1  0.85273000  0.74231000  0.75566000  1.0 -0.4896097287
O  O107  1  0.75566000  0.85273000  0.74231000  1.0 -0.4896097287
O  O108  1  0.74231000  0.75566000  0.85273000  1.0 -0.4896097287
O  O109  1  0.26856000  0.18440000  0.23994000  1.0 -0.473260208
O  O110  1  0.18440000  0.23994000  0.26856000  1.0 -0.473260208
O  O111  1  0.23994000  0.26856000  0.18440000  1.0 -0.473260208
O  O112  1  0.76856000  0.73994000  0.68440000  1.0 -0.473260208
O  O113  1  0.68440000  0.76856000  0.73994000  1.0 -0.473260208
O  O114  1  0.73994000  0.68440000  0.76856000  1.0 -0.473260208
O  O115  1  0.30360000  0.14860000  0.17260000  1.0 -0.3787988032
O  O116  1  0.14860000  0.17260000  0.30360000  1.0 -0.3787988032
O  O117  1  0.17260000  0.30360000  0.14860000  1.0 -0.3787988032
O  O118  1  0.80360000  0.67260000  0.64860000  1.0 -0.3787988032
O  O119  1  0.64860000  0.80360000  0.67260000  1.0 -0.3787988032
O  O120  1  0.67260000  0.64860000  0.80360000  1.0 -0.3787988032
