# DDEC6 charges by PACMAN v1.1 (https://github.com/mtap-research/PACMAN-charge/)
data_LOQSEQ_FSR_pacman
_symmetry_space_group_name_H-M   'P 1'
_cell_length_a   24.25010000
_cell_length_b   24.25010000
_cell_length_c   24.25010000
_cell_angle_alpha   109.45800000
_cell_angle_beta   109.45800000
_cell_angle_gamma   109.45800000
_symmetry_Int_Tables_number   1
_chemical_formula_structural   Pr4H168C183(N2O5)12
_chemical_formula_sum   'Pr8 H336 C366 N48 O120'
_cell_volume   10983.25603568
_cell_formula_units_Z   2
loop_
 _symmetry_equiv_pos_site_id
 _symmetry_equiv_pos_as_xyz
  1  'x, y, z'
loop_
 _atom_site_type_symbol
 _atom_site_label
 _atom_site_symmetry_multiplicity
 _atom_site_fract_x
 _atom_site_fract_y
 _atom_site_fract_z
 _atom_site_occupancy
 _atom_site_charge
Pr  Pr1  1  0.64917000  0.59841000  0.14952000  1.0 1.8912138842
Pr  Pr2  1  0.59841000  0.14952000  0.64917000  1.0 1.8912138842
Pr  Pr3  1  0.14952000  0.64917000  0.59841000  1.0 1.8912138842
Pr  Pr4  1  0.14917000  0.64952000  0.09841000  1.0 1.8912138842
Pr  Pr5  1  0.09841000  0.14917000  0.64952000  1.0 1.8912138842
Pr  Pr6  1  0.64952000  0.09841000  0.14917000  1.0 1.8912138842
Pr  Pr7  1  0.70063000  0.70063000  0.70063000  1.0 1.8663969937
Pr  Pr8  1  0.20063000  0.20063000  0.20063000  1.0 1.8663969937
H  H1  1  0.52860000  0.66790000  0.98730000  1.0 0.2590303126
H  H2  1  0.66790000  0.98730000  0.52860000  1.0 0.2590303126
H  H3  1  0.98730000  0.52860000  0.66790000  1.0 0.2590303126
H  H4  1  0.02860000  0.48730000  0.16790000  1.0 0.2590303126
H  H5  1  0.16790000  0.02860000  0.48730000  1.0 0.2590303126
H  H6  1  0.48730000  0.16790000  0.02860000  1.0 0.2590303126
H  H7  1  0.29900000  0.61740000  0.79400000  1.0 0.2768195796
H  H8  1  0.61740000  0.79400000  0.29900000  1.0 0.2768195796
H  H9  1  0.79400000  0.29900000  0.61740000  1.0 0.2768195796
H  H10  1  0.79900000  0.29400000  0.11740000  1.0 0.2768195796
H  H11  1  0.11740000  0.79900000  0.29400000  1.0 0.2768195796
H  H12  1  0.29400000  0.11740000  0.79900000  1.0 0.2768195796
H  H13  1  0.32610000  0.32450000  0.68750000  1.0 0.2768195796
H  H14  1  0.32450000  0.68750000  0.32610000  1.0 0.2768195796
H  H15  1  0.68750000  0.32610000  0.32450000  1.0 0.2768195796
H  H16  1  0.82610000  0.18750000  0.82450000  1.0 0.2768195796
H  H17  1  0.82450000  0.82610000  0.18750000  1.0 0.2768195796
H  H18  1  0.18750000  0.82450000  0.82610000  1.0 0.2768195796
H  H19  1  0.47360000  0.49270000  0.62200000  1.0 0.2860320809
H  H20  1  0.49270000  0.62200000  0.47360000  1.0 0.2860320809
H  H21  1  0.62200000  0.47360000  0.49270000  1.0 0.2860320809
H  H22  1  0.97360000  0.12200000  0.99270000  1.0 0.2860320809
H  H23  1  0.99270000  0.97360000  0.12200000  1.0 0.2860320809
H  H24  1  0.12200000  0.99270000  0.97360000  1.0 0.2860320809
H  H25  1  0.33360000  0.46650000  0.79210000  1.0 0.1087644037
H  H26  1  0.46650000  0.79210000  0.33360000  1.0 0.1087644037
H  H27  1  0.79210000  0.33360000  0.46650000  1.0 0.1087644037
H  H28  1  0.83360000  0.29210000  0.96650000  1.0 0.1087644037
H  H29  1  0.96650000  0.83360000  0.29210000  1.0 0.1087644037
H  H30  1  0.29210000  0.96650000  0.83360000  1.0 0.1087644037
H  H31  1  0.33880000  0.53690000  0.80770000  1.0 0.1087644037
H  H32  1  0.53690000  0.80770000  0.33880000  1.0 0.1087644037
H  H33  1  0.80770000  0.33880000  0.53690000  1.0 0.1087644037
H  H34  1  0.83880000  0.30770000  0.03690000  1.0 0.1087644037
H  H35  1  0.03690000  0.83880000  0.30770000  1.0 0.1087644037
H  H36  1  0.30770000  0.03690000  0.83880000  1.0 0.1087644037
H  H37  1  0.46740000  0.60950000  0.78020000  1.0 0.1087644037
H  H38  1  0.60950000  0.78020000  0.46740000  1.0 0.1087644037
H  H39  1  0.78020000  0.46740000  0.60950000  1.0 0.1087644037
H  H40  1  0.96740000  0.28020000  0.10950000  1.0 0.1087644037
H  H41  1  0.10950000  0.96740000  0.28020000  1.0 0.1087644037
H  H42  1  0.28020000  0.10950000  0.96740000  1.0 0.1087644037
H  H43  1  0.46200000  0.62590000  0.84600000  1.0 0.1044912813
H  H44  1  0.62590000  0.84600000  0.46200000  1.0 0.1044912813
H  H45  1  0.84600000  0.46200000  0.62590000  1.0 0.1044912813
H  H46  1  0.96200000  0.34600000  0.12590000  1.0 0.1044912813
H  H47  1  0.12590000  0.96200000  0.34600000  1.0 0.1044912813
H  H48  1  0.34600000  0.12590000  0.96200000  1.0 0.1044912813
H  H49  1  0.37270000  0.47870000  0.66850000  1.0 0.1087644037
H  H50  1  0.47870000  0.66850000  0.37270000  1.0 0.1087644037
H  H51  1  0.66850000  0.37270000  0.47870000  1.0 0.1087644037
H  H52  1  0.87270000  0.16850000  0.97870000  1.0 0.1087644037
H  H53  1  0.97870000  0.87270000  0.16850000  1.0 0.1087644037
H  H54  1  0.16850000  0.97870000  0.87270000  1.0 0.1087644037
H  H55  1  0.32160000  0.50070000  0.68110000  1.0 0.1044912813
H  H56  1  0.50070000  0.68110000  0.32160000  1.0 0.1044912813
H  H57  1  0.68110000  0.32160000  0.50070000  1.0 0.1044912813
H  H58  1  0.82160000  0.18110000  0.00070000  1.0 0.1044912813
H  H59  1  0.00070000  0.82160000  0.18110000  1.0 0.1044912813
H  H60  1  0.18110000  0.00070000  0.82160000  1.0 0.1044912813
H  H61  1  0.42820000  0.45070000  0.75830000  1.0 0.1087644037
H  H62  1  0.45070000  0.75830000  0.42820000  1.0 0.1087644037
H  H63  1  0.75830000  0.42820000  0.45070000  1.0 0.1087644037
H  H64  1  0.92820000  0.25830000  0.95070000  1.0 0.1087644037
H  H65  1  0.95070000  0.92820000  0.25830000  1.0 0.1087644037
H  H66  1  0.25830000  0.95070000  0.92820000  1.0 0.1087644037
H  H67  1  0.47990000  0.51720000  0.82790000  1.0 0.1087644037
H  H68  1  0.51720000  0.82790000  0.47990000  1.0 0.1087644037
H  H69  1  0.82790000  0.47990000  0.51720000  1.0 0.1087644037
H  H70  1  0.97990000  0.32790000  0.01720000  1.0 0.1087644037
H  H71  1  0.01720000  0.97990000  0.32790000  1.0 0.1087644037
H  H72  1  0.32790000  0.01720000  0.97990000  1.0 0.1087644037
H  H73  1  0.30430000  0.47940000  0.86610000  1.0 0.120371745
H  H74  1  0.47940000  0.86610000  0.30430000  1.0 0.120371745
H  H75  1  0.86610000  0.30430000  0.47940000  1.0 0.120371745
H  H76  1  0.80430000  0.36610000  0.97940000  1.0 0.120371745
H  H77  1  0.97940000  0.80430000  0.36610000  1.0 0.120371745
H  H78  1  0.36610000  0.97940000  0.80430000  1.0 0.120371745
H  H79  1  0.27200000  0.44220000  0.93290000  1.0 0.1273956195
H  H80  1  0.44220000  0.93290000  0.27200000  1.0 0.1273956195
H  H81  1  0.93290000  0.27200000  0.44220000  1.0 0.1273956195
H  H82  1  0.77200000  0.43290000  0.94220000  1.0 0.1273956195
H  H83  1  0.94220000  0.77200000  0.43290000  1.0 0.1273956195
H  H84  1  0.43290000  0.94220000  0.77200000  1.0 0.1273956195
H  H85  1  0.35090000  0.48430000  0.04260000  1.0 0.120371745
H  H86  1  0.48430000  0.04260000  0.35090000  1.0 0.120371745
H  H87  1  0.04260000  0.35090000  0.48430000  1.0 0.120371745
H  H88  1  0.85090000  0.54260000  0.98430000  1.0 0.120371745
H  H89  1  0.98430000  0.85090000  0.54260000  1.0 0.120371745
H  H90  1  0.54260000  0.98430000  0.85090000  1.0 0.120371745
H  H91  1  0.46400000  0.56010000  0.08470000  1.0 0.120371745
H  H92  1  0.56010000  0.08470000  0.46400000  1.0 0.120371745
H  H93  1  0.08470000  0.46400000  0.56010000  1.0 0.120371745
H  H94  1  0.96400000  0.58470000  0.06010000  1.0 0.120371745
H  H95  1  0.06010000  0.96400000  0.58470000  1.0 0.120371745
H  H96  1  0.58470000  0.06010000  0.96400000  1.0 0.120371745
H  H97  1  0.64440000  0.67350000  0.05010000  1.0 0.120371745
H  H98  1  0.67350000  0.05010000  0.64440000  1.0 0.120371745
H  H99  1  0.05010000  0.64440000  0.67350000  1.0 0.120371745
H  H100  1  0.14440000  0.55010000  0.17350000  1.0 0.120371745
H  H101  1  0.17350000  0.14440000  0.55010000  1.0 0.120371745
H  H102  1  0.55010000  0.17350000  0.14440000  1.0 0.120371745
H  H103  1  0.60000000  0.60450000  0.98080000  1.0 0.1273956195
H  H104  1  0.60450000  0.98080000  0.60000000  1.0 0.1273956195
H  H105  1  0.98080000  0.60000000  0.60450000  1.0 0.1273956195
H  H106  1  0.10000000  0.48080000  0.10450000  1.0 0.1273956195
H  H107  1  0.10450000  0.10000000  0.48080000  1.0 0.1273956195
H  H108  1  0.48080000  0.10450000  0.10000000  1.0 0.1273956195
H  H109  1  0.62900000  0.63690000  0.89150000  1.0 0.120371745
H  H110  1  0.63690000  0.89150000  0.62900000  1.0 0.120371745
H  H111  1  0.89150000  0.62900000  0.63690000  1.0 0.120371745
H  H112  1  0.12900000  0.39150000  0.13690000  1.0 0.120371745
H  H113  1  0.13690000  0.12900000  0.39150000  1.0 0.120371745
H  H114  1  0.39150000  0.13690000  0.12900000  1.0 0.120371745
H  H115  1  0.64470000  0.71500000  0.85500000  1.0 0.120371745
H  H116  1  0.71500000  0.85500000  0.64470000  1.0 0.120371745
H  H117  1  0.85500000  0.64470000  0.71500000  1.0 0.120371745
H  H118  1  0.14470000  0.35500000  0.21500000  1.0 0.120371745
H  H119  1  0.21500000  0.14470000  0.35500000  1.0 0.120371745
H  H120  1  0.35500000  0.21500000  0.14470000  1.0 0.120371745
H  H121  1  0.64720000  0.81360000  0.91350000  1.0 0.120371745
H  H122  1  0.81360000  0.91350000  0.64720000  1.0 0.120371745
H  H123  1  0.91350000  0.64720000  0.81360000  1.0 0.120371745
H  H124  1  0.14720000  0.41350000  0.31360000  1.0 0.120371745
H  H125  1  0.31360000  0.14720000  0.41350000  1.0 0.120371745
H  H126  1  0.41350000  0.31360000  0.14720000  1.0 0.120371745
H  H127  1  0.62850000  0.83140000  0.00320000  1.0 0.120371745
H  H128  1  0.83140000  0.00320000  0.62850000  1.0 0.120371745
H  H129  1  0.00320000  0.62850000  0.83140000  1.0 0.120371745
H  H130  1  0.12850000  0.50320000  0.33140000  1.0 0.120371745
H  H131  1  0.33140000  0.12850000  0.50320000  1.0 0.120371745
H  H132  1  0.50320000  0.33140000  0.12850000  1.0 0.120371745
H  H133  1  0.61450000  0.75370000  0.04060000  1.0 0.120371745
H  H134  1  0.75370000  0.04060000  0.61450000  1.0 0.120371745
H  H135  1  0.04060000  0.61450000  0.75370000  1.0 0.120371745
H  H136  1  0.11450000  0.54060000  0.25370000  1.0 0.120371745
H  H137  1  0.25370000  0.11450000  0.54060000  1.0 0.120371745
H  H138  1  0.54060000  0.25370000  0.11450000  1.0 0.120371745
H  H139  1  0.51000000  0.71710000  0.83430000  1.0 0.120371745
H  H140  1  0.71710000  0.83430000  0.51000000  1.0 0.120371745
H  H141  1  0.83430000  0.51000000  0.71710000  1.0 0.120371745
H  H142  1  0.01000000  0.33430000  0.21710000  1.0 0.120371745
H  H143  1  0.21710000  0.01000000  0.33430000  1.0 0.120371745
H  H144  1  0.33430000  0.21710000  0.01000000  1.0 0.120371745
H  H145  1  0.53860000  0.82560000  0.84810000  1.0 0.1273956195
H  H146  1  0.82560000  0.84810000  0.53860000  1.0 0.1273956195
H  H147  1  0.84810000  0.53860000  0.82560000  1.0 0.1273956195
H  H148  1  0.03860000  0.34810000  0.32560000  1.0 0.1273956195
H  H149  1  0.32560000  0.03860000  0.34810000  1.0 0.1273956195
H  H150  1  0.34810000  0.32560000  0.03860000  1.0 0.1273956195
H  H151  1  0.45690000  0.84940000  0.80550000  1.0 0.120371745
H  H152  1  0.84940000  0.80550000  0.45690000  1.0 0.120371745
H  H153  1  0.80550000  0.45690000  0.84940000  1.0 0.120371745
H  H154  1  0.95690000  0.30550000  0.34940000  1.0 0.120371745
H  H155  1  0.34940000  0.95690000  0.30550000  1.0 0.120371745
H  H156  1  0.30550000  0.34940000  0.95690000  1.0 0.120371745
H  H157  1  0.34220000  0.76830000  0.75290000  1.0 0.120371745
H  H158  1  0.76830000  0.75290000  0.34220000  1.0 0.120371745
H  H159  1  0.75290000  0.34220000  0.76830000  1.0 0.120371745
H  H160  1  0.84220000  0.25290000  0.26830000  1.0 0.120371745
H  H161  1  0.26830000  0.84220000  0.25290000  1.0 0.120371745
H  H162  1  0.25290000  0.26830000  0.84220000  1.0 0.120371745
H  H163  1  0.17340000  0.58160000  0.71570000  1.0 0.120371745
H  H164  1  0.58160000  0.71570000  0.17340000  1.0 0.120371745
H  H165  1  0.71570000  0.17340000  0.58160000  1.0 0.120371745
H  H166  1  0.67340000  0.21570000  0.08160000  1.0 0.120371745
H  H167  1  0.08160000  0.67340000  0.21570000  1.0 0.120371745
H  H168  1  0.21570000  0.08160000  0.67340000  1.0 0.120371745
H  H169  1  0.19030000  0.53730000  0.66780000  1.0 0.120371745
H  H170  1  0.53730000  0.66780000  0.19030000  1.0 0.120371745
H  H171  1  0.66780000  0.19030000  0.53730000  1.0 0.120371745
H  H172  1  0.69030000  0.16780000  0.03730000  1.0 0.120371745
H  H173  1  0.03730000  0.69030000  0.16780000  1.0 0.120371745
H  H174  1  0.16780000  0.03730000  0.69030000  1.0 0.120371745
H  H175  1  0.17120000  0.43530000  0.65780000  1.0 0.120371745
H  H176  1  0.43530000  0.65780000  0.17120000  1.0 0.120371745
H  H177  1  0.65780000  0.17120000  0.43530000  1.0 0.120371745
H  H178  1  0.67120000  0.15780000  0.93530000  1.0 0.120371745
H  H179  1  0.93530000  0.67120000  0.15780000  1.0 0.120371745
H  H180  1  0.15780000  0.93530000  0.67120000  1.0 0.120371745
H  H181  1  0.13930000  0.35610000  0.68910000  1.0 0.120371745
H  H182  1  0.35610000  0.68910000  0.13930000  1.0 0.120371745
H  H183  1  0.68910000  0.13930000  0.35610000  1.0 0.120371745
H  H184  1  0.63930000  0.18910000  0.85610000  1.0 0.120371745
H  H185  1  0.85610000  0.63930000  0.18910000  1.0 0.120371745
H  H186  1  0.18910000  0.85610000  0.63930000  1.0 0.120371745
H  H187  1  0.13400000  0.38410000  0.78730000  1.0 0.120371745
H  H188  1  0.38410000  0.78730000  0.13400000  1.0 0.120371745
H  H189  1  0.78730000  0.13400000  0.38410000  1.0 0.120371745
H  H190  1  0.63400000  0.28730000  0.88410000  1.0 0.120371745
H  H191  1  0.88410000  0.63400000  0.28730000  1.0 0.120371745
H  H192  1  0.28730000  0.88410000  0.63400000  1.0 0.120371745
H  H193  1  0.15480000  0.49150000  0.85140000  1.0 0.1273956195
H  H194  1  0.49150000  0.85140000  0.15480000  1.0 0.1273956195
H  H195  1  0.85140000  0.15480000  0.49150000  1.0 0.1273956195
H  H196  1  0.65480000  0.35140000  0.99150000  1.0 0.1273956195
H  H197  1  0.99150000  0.65480000  0.35140000  1.0 0.1273956195
H  H198  1  0.35140000  0.99150000  0.65480000  1.0 0.1273956195
H  H199  1  0.18570000  0.57010000  0.81840000  1.0 0.1273956195
H  H200  1  0.57010000  0.81840000  0.18570000  1.0 0.1273956195
H  H201  1  0.81840000  0.18570000  0.57010000  1.0 0.1273956195
H  H202  1  0.68570000  0.31840000  0.07010000  1.0 0.1273956195
H  H203  1  0.07010000  0.68570000  0.31840000  1.0 0.1273956195
H  H204  1  0.31840000  0.07010000  0.68570000  1.0 0.1273956195
H  H205  1  0.25790000  0.44100000  0.58670000  1.0 0.1273956195
H  H206  1  0.44100000  0.58670000  0.25790000  1.0 0.1273956195
H  H207  1  0.58670000  0.25790000  0.44100000  1.0 0.1273956195
H  H208  1  0.75790000  0.08670000  0.94100000  1.0 0.1273956195
H  H209  1  0.94100000  0.75790000  0.08670000  1.0 0.1273956195
H  H210  1  0.08670000  0.94100000  0.75790000  1.0 0.1273956195
H  H211  1  0.16520000  0.36440000  0.47880000  1.0 0.120371745
H  H212  1  0.36440000  0.47880000  0.16520000  1.0 0.120371745
H  H213  1  0.47880000  0.16520000  0.36440000  1.0 0.120371745
H  H214  1  0.66520000  0.97880000  0.86440000  1.0 0.1273956195
H  H215  1  0.86440000  0.66520000  0.97880000  1.0 0.120371745
H  H216  1  0.97880000  0.86440000  0.66520000  1.0 0.120371745
H  H217  1  0.10510000  0.25290000  0.44790000  1.0 0.120371745
H  H218  1  0.25290000  0.44790000  0.10510000  1.0 0.120371745
H  H219  1  0.44790000  0.10510000  0.25290000  1.0 0.120371745
H  H220  1  0.60510000  0.94790000  0.75290000  1.0 0.120371745
H  H221  1  0.75290000  0.60510000  0.94790000  1.0 0.120371745
H  H222  1  0.94790000  0.75290000  0.60510000  1.0 0.120371745
H  H223  1  0.12960000  0.22210000  0.53070000  1.0 0.120371745
H  H224  1  0.22210000  0.53070000  0.12960000  1.0 0.120371745
H  H225  1  0.53070000  0.12960000  0.22210000  1.0 0.120371745
H  H226  1  0.62960000  0.03070000  0.72210000  1.0 0.120371745
H  H227  1  0.72210000  0.62960000  0.03070000  1.0 0.120371745
H  H228  1  0.03070000  0.72210000  0.62960000  1.0 0.120371745
H  H229  1  0.27400000  0.23930000  0.72910000  1.0 0.1273956195
H  H230  1  0.23930000  0.72910000  0.27400000  1.0 0.1273956195
H  H231  1  0.72910000  0.27400000  0.23930000  1.0 0.1273956195
H  H232  1  0.77400000  0.22910000  0.73930000  1.0 0.1273956195
H  H233  1  0.73930000  0.77400000  0.22910000  1.0 0.1273956195
H  H234  1  0.22910000  0.73930000  0.77400000  1.0 0.1273956195
H  H235  1  0.27410000  0.30630000  0.76760000  1.0 0.1273956195
H  H236  1  0.30630000  0.76760000  0.27410000  1.0 0.1273956195
H  H237  1  0.76760000  0.27410000  0.30630000  1.0 0.1273956195
H  H238  1  0.77410000  0.26760000  0.80630000  1.0 0.1273956195
H  H239  1  0.80630000  0.77410000  0.26760000  1.0 0.1273956195
H  H240  1  0.26760000  0.80630000  0.77410000  1.0 0.1273956195
H  H241  1  0.40640000  0.40880000  0.87390000  1.0 0.1273956195
H  H242  1  0.40880000  0.87390000  0.40640000  1.0 0.1273956195
H  H243  1  0.87390000  0.40640000  0.40880000  1.0 0.1273956195
H  H244  1  0.90640000  0.37390000  0.90880000  1.0 0.1273956195
H  H245  1  0.90880000  0.90640000  0.37390000  1.0 0.1273956195
H  H246  1  0.37390000  0.90880000  0.90640000  1.0 0.1273956195
H  H247  1  0.51630000  0.43590000  0.92200000  1.0 0.120371745
H  H248  1  0.43590000  0.92200000  0.51630000  1.0 0.120371745
H  H249  1  0.92200000  0.51630000  0.43590000  1.0 0.120371745
H  H250  1  0.01630000  0.42200000  0.93590000  1.0 0.120371745
H  H251  1  0.93590000  0.01630000  0.42200000  1.0 0.120371745
H  H252  1  0.42200000  0.93590000  0.01630000  1.0 0.120371745
H  H253  1  0.54690000  0.35900000  0.87050000  1.0 0.120371745
H  H254  1  0.35900000  0.87050000  0.54690000  1.0 0.120371745
H  H255  1  0.87050000  0.54690000  0.35900000  1.0 0.120371745
H  H256  1  0.04690000  0.37050000  0.85900000  1.0 0.120371745
H  H257  1  0.85900000  0.04690000  0.37050000  1.0 0.120371745
H  H258  1  0.37050000  0.85900000  0.04690000  1.0 0.120371745
H  H259  1  0.46560000  0.26200000  0.76920000  1.0 0.120371745
H  H260  1  0.26200000  0.76920000  0.46560000  1.0 0.120371745
H  H261  1  0.76920000  0.46560000  0.26200000  1.0 0.120371745
H  H262  1  0.96560000  0.26920000  0.76200000  1.0 0.120371745
H  H263  1  0.76200000  0.96560000  0.26920000  1.0 0.120371745
H  H264  1  0.26920000  0.76200000  0.96560000  1.0 0.120371745
H  H265  1  0.35480000  0.23780000  0.72120000  1.0 0.120371745
H  H266  1  0.23780000  0.72120000  0.35480000  1.0 0.120371745
H  H267  1  0.72120000  0.35480000  0.23780000  1.0 0.120371745
H  H268  1  0.85480000  0.22120000  0.73780000  1.0 0.120371745
H  H269  1  0.73780000  0.85480000  0.22120000  1.0 0.120371745
H  H270  1  0.22120000  0.73780000  0.85480000  1.0 0.120371745
H  H271  1  0.54420000  0.48820000  0.84120000  1.0 0.1273956195
H  H272  1  0.48820000  0.84120000  0.54420000  1.0 0.1273956195
H  H273  1  0.84120000  0.54420000  0.48820000  1.0 0.1273956195
H  H274  1  0.04420000  0.34120000  0.98820000  1.0 0.1273956195
H  H275  1  0.98820000  0.04420000  0.34120000  1.0 0.1273956195
H  H276  1  0.34120000  0.98820000  0.04420000  1.0 0.1273956195
H  H277  1  0.63060000  0.46500000  0.85060000  1.0 0.1273956195
H  H278  1  0.46500000  0.85060000  0.63060000  1.0 0.1273956195
H  H279  1  0.85060000  0.63060000  0.46500000  1.0 0.1273956195
H  H280  1  0.13060000  0.35060000  0.96500000  1.0 0.1273956195
H  H281  1  0.96500000  0.13060000  0.35060000  1.0 0.1273956195
H  H282  1  0.35060000  0.96500000  0.13060000  1.0 0.1273956195
H  H283  1  0.68440000  0.48580000  0.79010000  1.0 0.120371745
H  H284  1  0.48580000  0.79010000  0.68440000  1.0 0.120371745
H  H285  1  0.79010000  0.68440000  0.48580000  1.0 0.120371745
H  H286  1  0.18440000  0.29010000  0.98580000  1.0 0.120371745
H  H287  1  0.98580000  0.18440000  0.29010000  1.0 0.120371745
H  H288  1  0.29010000  0.98580000  0.18440000  1.0 0.120371745
H  H289  1  0.65030000  0.53090000  0.72270000  1.0 0.120371745
H  H290  1  0.53090000  0.72270000  0.65030000  1.0 0.120371745
H  H291  1  0.72270000  0.65030000  0.53090000  1.0 0.120371745
H  H292  1  0.15030000  0.22270000  0.03090000  1.0 0.120371745
H  H293  1  0.03090000  0.15030000  0.22270000  1.0 0.120371745
H  H294  1  0.22270000  0.03090000  0.15030000  1.0 0.120371745
H  H295  1  0.51160000  0.62380000  0.66890000  1.0 0.120371745
H  H296  1  0.62380000  0.66890000  0.51160000  1.0 0.120371745
H  H297  1  0.66890000  0.51160000  0.62380000  1.0 0.120371745
H  H298  1  0.01160000  0.16890000  0.12380000  1.0 0.120371745
H  H299  1  0.12380000  0.01160000  0.16890000  1.0 0.120371745
H  H300  1  0.16890000  0.12380000  0.01160000  1.0 0.120371745
H  H301  1  0.50990000  0.59110000  0.60040000  1.0 0.120371745
H  H302  1  0.59110000  0.60040000  0.50990000  1.0 0.120371745
H  H303  1  0.60040000  0.50990000  0.59110000  1.0 0.120371745
H  H304  1  0.00990000  0.10040000  0.09110000  1.0 0.120371745
H  H305  1  0.09110000  0.00990000  0.10040000  1.0 0.120371745
H  H306  1  0.10040000  0.09110000  0.00990000  1.0 0.120371745
H  H307  1  0.42260000  0.63450000  0.66440000  1.0 0.120371745
H  H308  1  0.63450000  0.66440000  0.42260000  1.0 0.120371745
H  H309  1  0.66440000  0.42260000  0.63450000  1.0 0.120371745
H  H310  1  0.92260000  0.16440000  0.13450000  1.0 0.120371745
H  H311  1  0.13450000  0.92260000  0.16440000  1.0 0.120371745
H  H312  1  0.16440000  0.13450000  0.92260000  1.0 0.120371745
H  H313  1  0.30820000  0.60150000  0.60540000  1.0 0.120371745
H  H314  1  0.60150000  0.60540000  0.30820000  1.0 0.120371745
H  H315  1  0.60540000  0.30820000  0.60150000  1.0 0.120371745
H  H316  1  0.80820000  0.10540000  0.10150000  1.0 0.120371745
H  H317  1  0.10150000  0.80820000  0.10540000  1.0 0.120371745
H  H318  1  0.10540000  0.10150000  0.80820000  1.0 0.120371745
H  H319  1  0.24010000  0.51160000  0.49790000  1.0 0.120371745
H  H320  1  0.51160000  0.49790000  0.24010000  1.0 0.120371745
H  H321  1  0.49790000  0.24010000  0.51160000  1.0 0.120371745
H  H322  1  0.74010000  0.99790000  0.01160000  1.0 0.120371745
H  H323  1  0.01160000  0.74010000  0.99790000  1.0 0.120371745
H  H324  1  0.99790000  0.01160000  0.74010000  1.0 0.120371745
H  H325  1  0.28240000  0.45090000  0.44760000  1.0 0.120371745
H  H326  1  0.45090000  0.44760000  0.28240000  1.0 0.120371745
H  H327  1  0.44760000  0.28240000  0.45090000  1.0 0.120371745
H  H328  1  0.78240000  0.94760000  0.95090000  1.0 0.120371745
H  H329  1  0.95090000  0.78240000  0.94760000  1.0 0.120371745
H  H330  1  0.94760000  0.95090000  0.78240000  1.0 0.120371745
H  H331  1  0.39530000  0.48330000  0.50660000  1.0 0.1273956195
H  H332  1  0.48330000  0.50660000  0.39530000  1.0 0.1273956195
H  H333  1  0.50660000  0.39530000  0.48330000  1.0 0.1273956195
H  H334  1  0.89530000  0.00660000  0.98330000  1.0 0.1273956195
H  H335  1  0.98330000  0.89530000  0.00660000  1.0 0.1273956195
H  H336  1  0.00660000  0.98330000  0.89530000  1.0 0.1273956195
C  C1  1  0.39930000  0.52080000  0.77290000  1.0 0.0898928662
C  C2  1  0.52080000  0.77290000  0.39930000  1.0 0.0898928662
C  C3  1  0.77290000  0.39930000  0.52080000  1.0 0.0898928662
C  C4  1  0.89930000  0.27290000  0.02080000  1.0 0.0898928662
C  C5  1  0.02080000  0.89930000  0.27290000  1.0 0.0898928662
C  C6  1  0.27290000  0.02080000  0.89930000  1.0 0.0898928662
C  C7  1  0.36480000  0.51380000  0.81110000  1.0 -0.101576467
C  C8  1  0.51380000  0.81110000  0.36480000  1.0 -0.101576467
C  C9  1  0.81110000  0.36480000  0.51380000  1.0 -0.101576467
C  C10  1  0.86480000  0.31110000  0.01380000  1.0 -0.101576467
C  C11  1  0.01380000  0.86480000  0.31110000  1.0 -0.101576467
C  C12  1  0.31110000  0.01380000  0.86480000  1.0 -0.101576467
C  C13  1  0.43640000  0.59960000  0.79710000  1.0 -0.0791229346
C  C14  1  0.59960000  0.79710000  0.43640000  1.0 -0.0791229346
C  C15  1  0.79710000  0.43640000  0.59960000  1.0 -0.0791229346
C  C16  1  0.93640000  0.29710000  0.09960000  1.0 -0.0791229346
C  C17  1  0.09960000  0.93640000  0.29710000  1.0 -0.0791229346
C  C18  1  0.29710000  0.09960000  0.93640000  1.0 -0.0791229346
C  C19  1  0.34820000  0.47990000  0.69300000  1.0 -0.101576467
C  C20  1  0.47990000  0.69300000  0.34820000  1.0 -0.101576467
C  C21  1  0.69300000  0.34820000  0.47990000  1.0 -0.101576467
C  C22  1  0.84820000  0.19300000  0.97990000  1.0 -0.101576467
C  C23  1  0.97990000  0.84820000  0.19300000  1.0 -0.101576467
C  C24  1  0.19300000  0.97990000  0.84820000  1.0 -0.101576467
C  C25  1  0.45080000  0.49960000  0.78040000  1.0 -0.1292607825
C  C26  1  0.49960000  0.78040000  0.45080000  1.0 -0.1292607825
C  C27  1  0.78040000  0.45080000  0.49960000  1.0 -0.1292607825
C  C28  1  0.95080000  0.28040000  0.99960000  1.0 -0.1292607825
C  C29  1  0.99960000  0.95080000  0.28040000  1.0 -0.1292607825
C  C30  1  0.28040000  0.99960000  0.95080000  1.0 -0.1292607825
C  C31  1  0.52070000  0.61050000  0.02830000  1.0 0.4698333445
C  C32  1  0.61050000  0.02830000  0.52070000  1.0 0.4698333445
C  C33  1  0.02830000  0.52070000  0.61050000  1.0 0.4698333445
C  C34  1  0.02070000  0.52830000  0.11050000  1.0 0.4698333445
C  C35  1  0.11050000  0.02070000  0.52830000  1.0 0.4698333445
C  C36  1  0.52830000  0.11050000  0.02070000  1.0 0.4698333445
C  C37  1  0.44970000  0.56320000  0.99960000  1.0 -0.1224478547
C  C38  1  0.56320000  0.99960000  0.44970000  1.0 -0.1224478547
C  C39  1  0.99960000  0.44970000  0.56320000  1.0 -0.1224478547
C  C40  1  0.94970000  0.49960000  0.06320000  1.0 -0.1224478547
C  C41  1  0.06320000  0.94970000  0.49960000  1.0 -0.1224478547
C  C42  1  0.49960000  0.06320000  0.94970000  1.0 -0.1224478547
C  C43  1  0.40340000  0.53960000  0.93510000  1.0 0.2017083618
C  C44  1  0.53960000  0.93510000  0.40340000  1.0 0.2017083618
C  C45  1  0.93510000  0.40340000  0.53960000  1.0 0.2017083618
C  C46  1  0.90340000  0.43510000  0.03960000  1.0 0.2017083618
C  C47  1  0.03960000  0.90340000  0.43510000  1.0 0.2017083618
C  C48  1  0.43510000  0.03960000  0.90340000  1.0 0.2017083618
C  C49  1  0.33640000  0.49500000  0.90990000  1.0 -0.2433658322
C  C50  1  0.49500000  0.90990000  0.33640000  1.0 -0.2433658322
C  C51  1  0.90990000  0.33640000  0.49500000  1.0 -0.2433658322
C  C52  1  0.83640000  0.40990000  0.99500000  1.0 -0.2433658322
C  C53  1  0.99500000  0.83640000  0.40990000  1.0 -0.2433658322
C  C54  1  0.40990000  0.99500000  0.83640000  1.0 -0.2433658322
C  C55  1  0.31690000  0.47330000  0.95020000  1.0 -0.0608339549
C  C56  1  0.47330000  0.95020000  0.31690000  1.0 -0.0608339549
C  C57  1  0.95020000  0.31690000  0.47330000  1.0 -0.0608339549
C  C58  1  0.81690000  0.45020000  0.97330000  1.0 -0.0608339549
C  C59  1  0.97330000  0.81690000  0.45020000  1.0 -0.0608339549
C  C60  1  0.45020000  0.97330000  0.81690000  1.0 -0.0608339549
C  C61  1  0.36380000  0.49790000  0.01520000  1.0 -0.1126470592
C  C62  1  0.49790000  0.01520000  0.36380000  1.0 -0.1126470592
C  C63  1  0.01520000  0.36380000  0.49790000  1.0 -0.1126470592
C  C64  1  0.86380000  0.51520000  0.99790000  1.0 -0.1126470592
C  C65  1  0.99790000  0.86380000  0.51520000  1.0 -0.1126470592
C  C66  1  0.51520000  0.99790000  0.86380000  1.0 -0.1126470592
C  C67  1  0.43170000  0.54350000  0.04060000  1.0 -0.0908423091
C  C68  1  0.54350000  0.04060000  0.43170000  1.0 -0.0908423091
C  C69  1  0.04060000  0.43170000  0.54350000  1.0 -0.0908423091
C  C70  1  0.93170000  0.54060000  0.04350000  1.0 -0.0908423091
C  C71  1  0.04350000  0.93170000  0.54060000  1.0 -0.0908423091
C  C72  1  0.54060000  0.04350000  0.93170000  1.0 -0.0908423091
C  C73  1  0.60720000  0.64950000  0.00420000  1.0 -0.1599545699
C  C74  1  0.64950000  0.00420000  0.60720000  1.0 -0.1599545699
C  C75  1  0.00420000  0.60720000  0.64950000  1.0 -0.1599545699
C  C76  1  0.10720000  0.50420000  0.14950000  1.0 -0.1599545699
C  C77  1  0.14950000  0.10720000  0.50420000  1.0 -0.1599545699
C  C78  1  0.50420000  0.14950000  0.10720000  1.0 -0.1599545699
C  C79  1  0.61940000  0.68720000  0.96750000  1.0 0.0898928662
C  C80  1  0.68720000  0.96750000  0.61940000  1.0 0.0898928662
C  C81  1  0.96750000  0.61940000  0.68720000  1.0 0.0898928662
C  C82  1  0.11940000  0.46750000  0.18720000  1.0 0.0898928662
C  C83  1  0.18720000  0.11940000  0.46750000  1.0 0.0898928662
C  C84  1  0.46750000  0.18720000  0.11940000  1.0 0.0898928662
C  C85  1  0.62890000  0.67630000  0.91400000  1.0 -0.1490945853
C  C86  1  0.67630000  0.91400000  0.62890000  1.0 -0.1490945853
C  C87  1  0.91400000  0.62890000  0.67630000  1.0 -0.1490945853
C  C88  1  0.12890000  0.41400000  0.17630000  1.0 -0.1490945853
C  C89  1  0.17630000  0.12890000  0.41400000  1.0 -0.1490945853
C  C90  1  0.41400000  0.17630000  0.12890000  1.0 -0.1490945853
C  C91  1  0.63880000  0.72310000  0.89240000  1.0 -0.0908423091
C  C92  1  0.72310000  0.89240000  0.63880000  1.0 -0.0908423091
C  C93  1  0.89240000  0.63880000  0.72310000  1.0 -0.0908423091
C  C94  1  0.13880000  0.39240000  0.22310000  1.0 -0.0908423091
C  C95  1  0.22310000  0.13880000  0.39240000  1.0 -0.0908423091
C  C96  1  0.39240000  0.22310000  0.13880000  1.0 -0.0908423091
C  C97  1  0.63950000  0.78130000  0.92680000  1.0 -0.0908423091
C  C98  1  0.78130000  0.92680000  0.63950000  1.0 -0.0908423091
C  C99  1  0.92680000  0.63950000  0.78130000  1.0 -0.0908423091
C  C100  1  0.13950000  0.42680000  0.28130000  1.0 -0.0908423091
C  C101  1  0.28130000  0.13950000  0.42680000  1.0 -0.0908423091
C  C102  1  0.42680000  0.28130000  0.13950000  1.0 -0.0908423091
C  C103  1  0.62930000  0.79240000  0.98110000  1.0 -0.0791229346
C  C104  1  0.79240000  0.98110000  0.62930000  1.0 -0.0791229346
C  C105  1  0.98110000  0.62930000  0.79240000  1.0 -0.0791229346
C  C106  1  0.12930000  0.48110000  0.29240000  1.0 -0.0791229346
C  C107  1  0.29240000  0.12930000  0.48110000  1.0 -0.0791229346
C  C108  1  0.48110000  0.29240000  0.12930000  1.0 -0.0791229346
C  C109  1  0.62000000  0.74580000  0.00310000  1.0 -0.1887068348
C  C110  1  0.74580000  0.00310000  0.62000000  1.0 -0.1887068348
C  C111  1  0.00310000  0.62000000  0.74580000  1.0 -0.1887068348
C  C112  1  0.12000000  0.50310000  0.24580000  1.0 -0.1887068348
C  C113  1  0.24580000  0.12000000  0.50310000  1.0 -0.1887068348
C  C114  1  0.50310000  0.24580000  0.12000000  1.0 -0.1887068348
C  C115  1  0.28430000  0.64630000  0.72400000  1.0 0.4625376466
C  C116  1  0.64630000  0.72400000  0.28430000  1.0 0.4625376466
C  C117  1  0.72400000  0.28430000  0.64630000  1.0 0.4625376466
C  C118  1  0.78430000  0.22400000  0.14630000  1.0 0.4625376466
C  C119  1  0.14630000  0.78430000  0.22400000  1.0 0.4625376466
C  C120  1  0.22400000  0.14630000  0.78430000  1.0 0.4625376466
C  C121  1  0.35900000  0.69480000  0.76040000  1.0 -0.0908423091
C  C122  1  0.69480000  0.76040000  0.35900000  1.0 -0.0908423091
C  C123  1  0.76040000  0.35900000  0.69480000  1.0 -0.0908423091
C  C124  1  0.85900000  0.26040000  0.19480000  1.0 -0.0908423091
C  C125  1  0.19480000  0.85900000  0.26040000  1.0 -0.0908423091
C  C126  1  0.26040000  0.19480000  0.85900000  1.0 -0.0908423091
C  C127  1  0.40850000  0.68110000  0.78490000  1.0 0.2017083618
C  C128  1  0.68110000  0.78490000  0.40850000  1.0 0.2017083618
C  C129  1  0.78490000  0.40850000  0.68110000  1.0 0.2017083618
C  C130  1  0.90850000  0.28490000  0.18110000  1.0 0.2017083618
C  C131  1  0.18110000  0.90850000  0.28490000  1.0 0.2017083618
C  C132  1  0.28490000  0.18110000  0.90850000  1.0 0.2017083618
C  C133  1  0.47700000  0.72790000  0.81810000  1.0 -0.2433658322
C  C134  1  0.72790000  0.81810000  0.47700000  1.0 -0.2433658322
C  C135  1  0.81810000  0.47700000  0.72790000  1.0 -0.2433658322
C  C136  1  0.97700000  0.31810000  0.22790000  1.0 -0.2433658322
C  C137  1  0.22790000  0.97700000  0.31810000  1.0 -0.2433658322
C  C138  1  0.31810000  0.22790000  0.97700000  1.0 -0.2433658322
C  C139  1  0.49350000  0.79260000  0.82570000  1.0 -0.0456554142
C  C140  1  0.79260000  0.82570000  0.49350000  1.0 -0.0456554142
C  C141  1  0.82570000  0.49350000  0.79260000  1.0 -0.0456554142
C  C142  1  0.99350000  0.32570000  0.29260000  1.0 -0.0456554142
C  C143  1  0.29260000  0.99350000  0.32570000  1.0 -0.0456554142
C  C144  1  0.32570000  0.29260000  0.99350000  1.0 -0.0456554142
C  C145  1  0.44500000  0.80690000  0.80110000  1.0 -0.1126470592
C  C146  1  0.80690000  0.80110000  0.44500000  1.0 -0.1126470592
C  C147  1  0.80110000  0.44500000  0.80690000  1.0 -0.1126470592
C  C148  1  0.94500000  0.30110000  0.30690000  1.0 -0.1126470592
C  C149  1  0.30690000  0.94500000  0.30110000  1.0 -0.1126470592
C  C150  1  0.30110000  0.30690000  0.94500000  1.0 -0.1126470592
C  C151  1  0.37560000  0.75780000  0.76840000  1.0 -0.0908423091
C  C152  1  0.75780000  0.76840000  0.37560000  1.0 -0.0908423091
C  C153  1  0.76840000  0.37560000  0.75780000  1.0 -0.0908423091
C  C154  1  0.87560000  0.26840000  0.25780000  1.0 -0.0908423091
C  C155  1  0.25780000  0.87560000  0.26840000  1.0 -0.0908423091
C  C156  1  0.26840000  0.25780000  0.87560000  1.0 -0.0908423091
C  C157  1  0.20030000  0.55990000  0.71410000  1.0 -0.1490945853
C  C158  1  0.55990000  0.71410000  0.20030000  1.0 -0.1490945853
C  C159  1  0.71410000  0.20030000  0.55990000  1.0 -0.1490945853
C  C160  1  0.70030000  0.21410000  0.05990000  1.0 -0.1490945853
C  C161  1  0.05990000  0.70030000  0.21410000  1.0 -0.1490945853
C  C162  1  0.21410000  0.05990000  0.70030000  1.0 -0.1490945853
C  C163  1  0.18120000  0.50990000  0.73460000  1.0 0.0775459454
C  C164  1  0.50990000  0.73460000  0.18120000  1.0 0.0775459454
C  C165  1  0.73460000  0.18120000  0.50990000  1.0 0.0775459454
C  C166  1  0.68120000  0.23460000  0.00990000  1.0 0.0775459454
C  C167  1  0.00990000  0.68120000  0.23460000  1.0 0.0775459454
C  C168  1  0.23460000  0.00990000  0.68120000  1.0 0.0775459454
C  C169  1  0.16780000  0.44670000  0.69660000  1.0 -0.1490945853
C  C170  1  0.44670000  0.69660000  0.16780000  1.0 -0.1490945853
C  C171  1  0.69660000  0.16780000  0.44670000  1.0 -0.1490945853
C  C172  1  0.66780000  0.19660000  0.94670000  1.0 -0.1490945853
C  C173  1  0.94670000  0.66780000  0.19660000  1.0 -0.1490945853
C  C174  1  0.19660000  0.94670000  0.66780000  1.0 -0.1490945853
C  C175  1  0.14940000  0.39980000  0.71570000  1.0 -0.0791229346
C  C176  1  0.39980000  0.71570000  0.14940000  1.0 -0.0791229346
C  C177  1  0.71570000  0.14940000  0.39980000  1.0 -0.0791229346
C  C178  1  0.64940000  0.21570000  0.89980000  1.0 -0.0791229346
C  C179  1  0.89980000  0.64940000  0.21570000  1.0 -0.0791229346
C  C180  1  0.21570000  0.89980000  0.64940000  1.0 -0.0791229346
C  C181  1  0.14540000  0.41620000  0.77410000  1.0 -0.0791229346
C  C182  1  0.41620000  0.77410000  0.14540000  1.0 -0.0791229346
C  C183  1  0.77410000  0.14540000  0.41620000  1.0 -0.0791229346
C  C184  1  0.64540000  0.27410000  0.91620000  1.0 -0.0791229346
C  C185  1  0.91620000  0.64540000  0.27410000  1.0 -0.0791229346
C  C186  1  0.27410000  0.91620000  0.64540000  1.0 -0.0791229346
C  C187  1  0.15830000  0.48010000  0.81250000  1.0 -0.0791229346
C  C188  1  0.48010000  0.81250000  0.15830000  1.0 -0.0791229346
C  C189  1  0.81250000  0.15830000  0.48010000  1.0 -0.0791229346
C  C190  1  0.65830000  0.31250000  0.98010000  1.0 -0.0791229346
C  C191  1  0.98010000  0.65830000  0.31250000  1.0 -0.0791229346
C  C192  1  0.31250000  0.98010000  0.65830000  1.0 -0.0791229346
C  C193  1  0.17640000  0.52670000  0.79250000  1.0 -0.1490945853
C  C194  1  0.52670000  0.79250000  0.17640000  1.0 -0.1490945853
C  C195  1  0.79250000  0.17640000  0.52670000  1.0 -0.1490945853
C  C196  1  0.67640000  0.29250000  0.02670000  1.0 -0.1490945853
C  C197  1  0.02670000  0.67640000  0.29250000  1.0 -0.1490945853
C  C198  1  0.29250000  0.02670000  0.67640000  1.0 -0.1490945853
C  C199  1  0.22640000  0.27390000  0.64130000  1.0 0.4846524301
C  C200  1  0.27390000  0.64130000  0.22640000  1.0 0.4846524301
C  C201  1  0.64130000  0.22640000  0.27390000  1.0 0.4846524301
C  C202  1  0.72640000  0.14130000  0.77390000  1.0 0.4846524301
C  C203  1  0.77390000  0.72640000  0.14130000  1.0 0.4846524301
C  C204  1  0.14130000  0.77390000  0.72640000  1.0 0.4846524301
C  C205  1  0.21340000  0.31030000  0.60320000  1.0 -0.1292607825
C  C206  1  0.31030000  0.60320000  0.21340000  1.0 -0.1292607825
C  C207  1  0.60320000  0.21340000  0.31030000  1.0 -0.1292607825
C  C208  1  0.71340000  0.10320000  0.81030000  1.0 -0.1292607825
C  C209  1  0.81030000  0.71340000  0.10320000  1.0 -0.1292607825
C  C210  1  0.10320000  0.81030000  0.71340000  1.0 -0.1292607825
C  C211  1  0.25700000  0.37340000  0.61740000  1.0 0.2460566911
C  C212  1  0.37340000  0.61740000  0.25700000  1.0 0.2460566911
C  C213  1  0.61740000  0.25700000  0.37340000  1.0 0.2460566911
C  C214  1  0.75700000  0.11740000  0.87340000  1.0 0.2460566911
C  C215  1  0.87340000  0.75700000  0.11740000  1.0 0.2460566911
C  C216  1  0.11740000  0.87340000  0.75700000  1.0 0.2460566911
C  C217  1  0.23490000  0.39550000  0.57360000  1.0 -0.2714283389
C  C218  1  0.39550000  0.57360000  0.23490000  1.0 -0.2714283389
C  C219  1  0.57360000  0.23490000  0.39550000  1.0 -0.2714283389
C  C220  1  0.73490000  0.07360000  0.89550000  1.0 -0.2714283389
C  C221  1  0.89550000  0.73490000  0.07360000  1.0 -0.2714283389
C  C222  1  0.07360000  0.89550000  0.73490000  1.0 -0.2714283389
C  C223  1  0.17780000  0.34990000  0.50950000  1.0 -0.0375408788
C  C224  1  0.34990000  0.50950000  0.17780000  1.0 -0.0375408788
C  C225  1  0.50950000  0.17780000  0.34990000  1.0 -0.0375408788
C  C226  1  0.67780000  0.00950000  0.84990000  1.0 -0.0375408788
C  C227  1  0.84990000  0.67780000  0.00950000  1.0 -0.0375408788
C  C228  1  0.00950000  0.84990000  0.67780000  1.0 -0.0375408788
C  C229  1  0.14070000  0.28440000  0.49180000  1.0 -0.1224478547
C  C230  1  0.28440000  0.49180000  0.14070000  1.0 -0.1224478547
C  C231  1  0.49180000  0.14070000  0.28440000  1.0 -0.1224478547
C  C232  1  0.64070000  0.99180000  0.78440000  1.0 -0.1224478547
C  C233  1  0.78440000  0.64070000  0.99180000  1.0 -0.1224478547
C  C234  1  0.99180000  0.78440000  0.64070000  1.0 -0.1224478547
C  C235  1  0.15710000  0.26540000  0.54060000  1.0 -0.0908423091
C  C236  1  0.26540000  0.54060000  0.15710000  1.0 -0.0908423091
C  C237  1  0.54060000  0.15710000  0.26540000  1.0 -0.0908423091
C  C238  1  0.65710000  0.04060000  0.76540000  1.0 -0.0908423091
C  C239  1  0.76540000  0.65710000  0.04060000  1.0 -0.0908423091
C  C240  1  0.04060000  0.76540000  0.65710000  1.0 -0.0908423091
C  C241  1  0.29550000  0.28750000  0.74550000  1.0 -0.1599545699
C  C242  1  0.28750000  0.74550000  0.29550000  1.0 -0.1599545699
C  C243  1  0.74550000  0.29550000  0.28750000  1.0 -0.1599545699
C  C244  1  0.79550000  0.24550000  0.78750000  1.0 -0.1599545699
C  C245  1  0.78750000  0.79550000  0.24550000  1.0 -0.1599545699
C  C246  1  0.24550000  0.78750000  0.79550000  1.0 -0.1599545699
C  C247  1  0.37050000  0.32180000  0.79310000  1.0 0.0898928662
C  C248  1  0.32180000  0.79310000  0.37050000  1.0 0.0898928662
C  C249  1  0.79310000  0.37050000  0.32180000  1.0 0.0898928662
C  C250  1  0.87050000  0.29310000  0.82180000  1.0 0.0898928662
C  C251  1  0.82180000  0.87050000  0.29310000  1.0 0.0898928662
C  C252  1  0.29310000  0.82180000  0.87050000  1.0 0.0898928662
C  C253  1  0.41890000  0.37940000  0.85270000  1.0 -0.1420400686
C  C254  1  0.37940000  0.85270000  0.41890000  1.0 -0.1420400686
C  C255  1  0.85270000  0.41890000  0.37940000  1.0 -0.1420400686
C  C256  1  0.91890000  0.35270000  0.87940000  1.0 -0.1420400686
C  C257  1  0.87940000  0.91890000  0.35270000  1.0 -0.1420400686
C  C258  1  0.35270000  0.87940000  0.91890000  1.0 -0.1420400686
C  C259  1  0.48400000  0.39550000  0.88190000  1.0 -0.0791229346
C  C260  1  0.39550000  0.88190000  0.48400000  1.0 -0.0791229346
C  C261  1  0.88190000  0.48400000  0.39550000  1.0 -0.0791229346
C  C262  1  0.98400000  0.38190000  0.89550000  1.0 -0.0791229346
C  C263  1  0.89550000  0.98400000  0.38190000  1.0 -0.0791229346
C  C264  1  0.38190000  0.89550000  0.98400000  1.0 -0.0791229346
C  C265  1  0.50240000  0.34980000  0.85070000  1.0 -0.0908423091
C  C266  1  0.34980000  0.85070000  0.50240000  1.0 -0.0908423091
C  C267  1  0.85070000  0.50240000  0.34980000  1.0 -0.0908423091
C  C268  1  0.00240000  0.35070000  0.84980000  1.0 -0.0908423091
C  C269  1  0.84980000  0.00240000  0.35070000  1.0 -0.0908423091
C  C270  1  0.35070000  0.84980000  0.00240000  1.0 -0.0908423091
C  C271  1  0.45390000  0.29200000  0.79080000  1.0 -0.0791229346
C  C272  1  0.29200000  0.79080000  0.45390000  1.0 -0.0791229346
C  C273  1  0.79080000  0.45390000  0.29200000  1.0 -0.0791229346
C  C274  1  0.95390000  0.29080000  0.79200000  1.0 -0.0791229346
C  C275  1  0.79200000  0.95390000  0.29080000  1.0 -0.0791229346
C  C276  1  0.29080000  0.79200000  0.95390000  1.0 -0.0791229346
C  C277  1  0.38760000  0.27750000  0.76180000  1.0 -0.1713149247
C  C278  1  0.27750000  0.76180000  0.38760000  1.0 -0.1713149247
C  C279  1  0.76180000  0.38760000  0.27750000  1.0 -0.1713149247
C  C280  1  0.88760000  0.26180000  0.77750000  1.0 -0.1713149247
C  C281  1  0.77750000  0.88760000  0.26180000  1.0 -0.1713149247
C  C282  1  0.26180000  0.77750000  0.88760000  1.0 -0.1713149247
C  C283  1  0.56830000  0.56150000  0.69250000  1.0 0.4381389521
C  C284  1  0.56150000  0.69250000  0.56830000  1.0 0.4381389521
C  C285  1  0.69250000  0.56830000  0.56150000  1.0 0.4381389521
C  C286  1  0.06830000  0.19250000  0.06150000  1.0 0.4381389521
C  C287  1  0.06150000  0.06830000  0.19250000  1.0 0.4381389521
C  C288  1  0.19250000  0.06150000  0.06830000  1.0 0.4381389521
C  C289  1  0.57670000  0.53430000  0.74070000  1.0 -0.1292607825
C  C290  1  0.53430000  0.74070000  0.57670000  1.0 -0.1292607825
C  C291  1  0.74070000  0.57670000  0.53430000  1.0 -0.1292607825
C  C292  1  0.07670000  0.24070000  0.03430000  1.0 -0.1292607825
C  C293  1  0.03430000  0.07670000  0.24070000  1.0 -0.1292607825
C  C294  1  0.24070000  0.03430000  0.07670000  1.0 -0.1292607825
C  C295  1  0.54480000  0.52160000  0.77660000  1.0 0.2407231036
C  C296  1  0.52160000  0.77660000  0.54480000  1.0 0.2407231036
C  C297  1  0.77660000  0.54480000  0.52160000  1.0 0.2407231036
C  C298  1  0.04480000  0.27660000  0.02160000  1.0 0.2407231036
C  C299  1  0.02160000  0.04480000  0.27660000  1.0 0.2407231036
C  C300  1  0.27660000  0.02160000  0.04480000  1.0 0.2407231036
C  C301  1  0.56570000  0.49630000  0.81700000  1.0 -0.2635736761
C  C302  1  0.49630000  0.81700000  0.56570000  1.0 -0.2635736761
C  C303  1  0.81700000  0.56570000  0.49630000  1.0 -0.2635736761
C  C304  1  0.06570000  0.31700000  0.99630000  1.0 -0.2635736761
C  C305  1  0.99630000  0.06570000  0.31700000  1.0 -0.2635736761
C  C306  1  0.31700000  0.99630000  0.06570000  1.0 -0.2635736761
C  C307  1  0.61740000  0.48240000  0.82300000  1.0 -0.027956944
C  C308  1  0.48240000  0.82300000  0.61740000  1.0 -0.027956944
C  C309  1  0.82300000  0.61740000  0.48240000  1.0 -0.027956944
C  C310  1  0.11740000  0.32300000  0.98240000  1.0 -0.027956944
C  C311  1  0.98240000  0.11740000  0.32300000  1.0 -0.027956944
C  C312  1  0.32300000  0.98240000  0.11740000  1.0 -0.027956944
C  C313  1  0.64960000  0.49500000  0.78720000  1.0 -0.1224478547
C  C314  1  0.49500000  0.78720000  0.64960000  1.0 -0.1224478547
C  C315  1  0.78720000  0.64960000  0.49500000  1.0 -0.1224478547
C  C316  1  0.14960000  0.28720000  0.99500000  1.0 -0.1224478547
C  C317  1  0.99500000  0.14960000  0.28720000  1.0 -0.1224478547
C  C318  1  0.28720000  0.99500000  0.14960000  1.0 -0.1224478547
C  C319  1  0.62860000  0.52170000  0.74640000  1.0 -0.101576467
C  C320  1  0.52170000  0.74640000  0.62860000  1.0 -0.101576467
C  C321  1  0.74640000  0.62860000  0.52170000  1.0 -0.101576467
C  C322  1  0.12860000  0.24640000  0.02170000  1.0 -0.101576467
C  C323  1  0.02170000  0.12860000  0.24640000  1.0 -0.101576467
C  C324  1  0.24640000  0.02170000  0.12860000  1.0 -0.101576467
C  C325  1  0.48960000  0.58190000  0.62690000  1.0 -0.1292607825
C  C326  1  0.58190000  0.62690000  0.48960000  1.0 -0.1292607825
C  C327  1  0.62690000  0.48960000  0.58190000  1.0 -0.1292607825
C  C328  1  0.98960000  0.12690000  0.08190000  1.0 -0.1292607825
C  C329  1  0.08190000  0.98960000  0.12690000  1.0 -0.1292607825
C  C330  1  0.12690000  0.08190000  0.98960000  1.0 -0.1292607825
C  C331  1  0.41790000  0.56170000  0.59010000  1.0 0.0749515372
C  C332  1  0.56170000  0.59010000  0.41790000  1.0 0.0749515372
C  C333  1  0.59010000  0.41790000  0.56170000  1.0 0.0749515372
C  C334  1  0.91790000  0.09010000  0.06170000  1.0 0.0749515372
C  C335  1  0.06170000  0.91790000  0.09010000  1.0 0.0775459454
C  C336  1  0.09010000  0.06170000  0.91790000  1.0 0.0749515372
C  C337  1  0.39420000  0.59760000  0.62080000  1.0 -0.1490945853
C  C338  1  0.59760000  0.62080000  0.39420000  1.0 -0.1490945853
C  C339  1  0.62080000  0.39420000  0.59760000  1.0 -0.1490945853
C  C340  1  0.89420000  0.12080000  0.09760000  1.0 -0.1490945853
C  C341  1  0.09760000  0.89420000  0.12080000  1.0 -0.1490945853
C  C342  1  0.12080000  0.09760000  0.89420000  1.0 -0.1490945853
C  C343  1  0.32580000  0.57790000  0.58530000  1.0 -0.0791229346
C  C344  1  0.57790000  0.58530000  0.32580000  1.0 -0.0791229346
C  C345  1  0.58530000  0.32580000  0.57790000  1.0 -0.0791229346
C  C346  1  0.82580000  0.08530000  0.07790000  1.0 -0.0791229346
C  C347  1  0.07790000  0.82580000  0.08530000  1.0 -0.0791229346
C  C348  1  0.08530000  0.07790000  0.82580000  1.0 -0.0791229346
C  C349  1  0.28530000  0.52410000  0.52150000  1.0 -0.0908423091
C  C350  1  0.52410000  0.52150000  0.28530000  1.0 -0.0908423091
C  C351  1  0.52150000  0.28530000  0.52410000  1.0 -0.0908423091
C  C352  1  0.78530000  0.02150000  0.02410000  1.0 -0.0908423091
C  C353  1  0.02410000  0.78530000  0.02150000  1.0 -0.0908423091
C  C354  1  0.02150000  0.02410000  0.78530000  1.0 -0.0908423091
C  C355  1  0.31050000  0.48780000  0.49120000  1.0 -0.0791229346
C  C356  1  0.48780000  0.49120000  0.31050000  1.0 -0.0791229346
C  C357  1  0.49120000  0.31050000  0.48780000  1.0 -0.0791229346
C  C358  1  0.81050000  0.99120000  0.98780000  1.0 -0.0791229346
C  C359  1  0.98780000  0.81050000  0.99120000  1.0 -0.0791229346
C  C360  1  0.99120000  0.98780000  0.81050000  1.0 -0.0791229346
C  C361  1  0.37770000  0.50710000  0.52620000  1.0 -0.1599545699
C  C362  1  0.50710000  0.52620000  0.37770000  1.0 -0.1599545699
C  C363  1  0.52620000  0.37770000  0.50710000  1.0 -0.1599545699
C  C364  1  0.87770000  0.02620000  0.00710000  1.0 -0.1599545699
C  C365  1  0.00710000  0.87770000  0.02620000  1.0 -0.1599545699
C  C366  1  0.02620000  0.00710000  0.87770000  1.0 -0.1599545699
N  N1  1  0.54670000  0.64740000  0.00290000  1.0 -0.2714283389
N  N2  1  0.64740000  0.00290000  0.54670000  1.0 -0.2714283389
N  N3  1  0.00290000  0.54670000  0.64740000  1.0 -0.2714283389
N  N4  1  0.04670000  0.50290000  0.14740000  1.0 -0.2714283389
N  N5  1  0.14740000  0.04670000  0.50290000  1.0 -0.2714283389
N  N6  1  0.50290000  0.14740000  0.04670000  1.0 -0.2714283389
N  N7  1  0.27090000  0.61060000  0.75630000  1.0 -0.2834739384
N  N8  1  0.61060000  0.75630000  0.27090000  1.0 -0.2834739384
N  N9  1  0.75630000  0.27090000  0.61060000  1.0 -0.2834739384
N  N10  1  0.77090000  0.25630000  0.11060000  1.0 -0.2834739384
N  N11  1  0.11060000  0.77090000  0.25630000  1.0 -0.2834739384
N  N12  1  0.25630000  0.11060000  0.77090000  1.0 -0.2834739384
N  N13  1  0.29160000  0.30170000  0.68930000  1.0 -0.2926519486
N  N14  1  0.30170000  0.68930000  0.29160000  1.0 -0.2926519486
N  N15  1  0.68930000  0.29160000  0.30170000  1.0 -0.2926519486
N  N16  1  0.79160000  0.18930000  0.80170000  1.0 -0.2926519486
N  N17  1  0.80170000  0.79160000  0.18930000  1.0 -0.2926519486
N  N18  1  0.18930000  0.80170000  0.79160000  1.0 -0.2926519486
N  N19  1  0.50360000  0.53470000  0.64240000  1.0 -0.2926519486
N  N20  1  0.53470000  0.64240000  0.50360000  1.0 -0.2926519486
N  N21  1  0.64240000  0.50360000  0.53470000  1.0 -0.2926519486
N  N22  1  0.00360000  0.14240000  0.03470000  1.0 -0.2926519486
N  N23  1  0.03470000  0.00360000  0.14240000  1.0 -0.2926519486
N  N24  1  0.14240000  0.03470000  0.00360000  1.0 -0.2926519486
N  N25  1  0.53550000  0.48880000  0.12380000  1.0 0.6998232838
N  N26  1  0.48880000  0.12380000  0.53550000  1.0 0.6998232838
N  N27  1  0.12380000  0.53550000  0.48880000  1.0 0.6998232838
N  N28  1  0.03550000  0.62380000  0.98880000  1.0 0.6998232838
N  N29  1  0.98880000  0.03550000  0.62380000  1.0 0.6998232838
N  N30  1  0.62380000  0.98880000  0.03550000  1.0 0.6998232838
N  N31  1  0.74530000  0.60870000  0.26390000  1.0 0.6998232838
N  N32  1  0.60870000  0.26390000  0.74530000  1.0 0.6998232838
N  N33  1  0.26390000  0.74530000  0.60870000  1.0 0.6998232838
N  N34  1  0.24530000  0.76390000  0.10870000  1.0 0.6998232838
N  N35  1  0.10870000  0.24530000  0.76390000  1.0 0.6998232838
N  N36  1  0.76390000  0.10870000  0.24530000  1.0 0.6998232838
N  N37  1  0.66090000  0.51280000  0.05090000  1.0 0.6998232838
N  N38  1  0.51280000  0.05090000  0.66090000  1.0 0.6998232838
N  N39  1  0.05090000  0.66090000  0.51280000  1.0 0.6998232838
N  N40  1  0.16090000  0.55090000  0.01280000  1.0 0.6998232838
N  N41  1  0.01280000  0.16090000  0.55090000  1.0 0.6998232838
N  N42  1  0.55090000  0.01280000  0.16090000  1.0 0.6998232838
N  N43  1  0.69440000  0.79520000  0.78780000  1.0 0.6769291463
N  N44  1  0.79520000  0.78780000  0.69440000  1.0 0.6769291463
N  N45  1  0.78780000  0.69440000  0.79520000  1.0 0.6769291463
N  N46  1  0.19440000  0.28780000  0.29520000  1.0 0.6769291463
N  N47  1  0.29520000  0.19440000  0.28780000  1.0 0.6769291463
N  N48  1  0.28780000  0.29520000  0.19440000  1.0 0.6769291463
O  O1  1  0.41150000  0.54150000  0.88040000  1.0 -0.2433658322
O  O2  1  0.54150000  0.88040000  0.41150000  1.0 -0.2433658322
O  O3  1  0.88040000  0.41150000  0.54150000  1.0 -0.2433658322
O  O4  1  0.91150000  0.38040000  0.04150000  1.0 -0.2433658322
O  O5  1  0.04150000  0.91150000  0.38040000  1.0 -0.2433658322
O  O6  1  0.38040000  0.04150000  0.91150000  1.0 -0.2433658322
O  O7  1  0.38670000  0.61640000  0.77180000  1.0 -0.1950494942
O  O8  1  0.61640000  0.77180000  0.38670000  1.0 -0.1950494942
O  O9  1  0.77180000  0.38670000  0.61640000  1.0 -0.1950494942
O  O10  1  0.88670000  0.27180000  0.11640000  1.0 -0.1950494942
O  O11  1  0.11640000  0.88670000  0.27180000  1.0 -0.1950494942
O  O12  1  0.27180000  0.11640000  0.88670000  1.0 -0.1950494942
O  O13  1  0.30580000  0.41320000  0.67790000  1.0 -0.1599545699
O  O14  1  0.41320000  0.67790000  0.30580000  1.0 -0.1599545699
O  O15  1  0.67790000  0.30580000  0.41320000  1.0 -0.1599545699
O  O16  1  0.80580000  0.17790000  0.91320000  1.0 -0.1599545699
O  O17  1  0.91320000  0.80580000  0.17790000  1.0 -0.1599545699
O  O18  1  0.17790000  0.91320000  0.80580000  1.0 -0.1599545699
O  O19  1  0.49090000  0.52090000  0.75350000  1.0 -0.1126470592
O  O20  1  0.52090000  0.75350000  0.49090000  1.0 -0.1126470592
O  O21  1  0.75350000  0.49090000  0.52090000  1.0 -0.1126470592
O  O22  1  0.99090000  0.25350000  0.02090000  1.0 -0.1126470592
O  O23  1  0.02090000  0.99090000  0.25350000  1.0 -0.1126470592
O  O24  1  0.25350000  0.02090000  0.99090000  1.0 -0.1126470592
O  O25  1  0.57350000  0.61120000  0.07530000  1.0 -0.7203181085
O  O26  1  0.61120000  0.07530000  0.57350000  1.0 -0.7203181085
O  O27  1  0.07530000  0.57350000  0.61120000  1.0 -0.7203181085
O  O28  1  0.07350000  0.57530000  0.11120000  1.0 -0.7203181085
O  O29  1  0.11120000  0.07350000  0.57530000  1.0 -0.7203181085
O  O30  1  0.57530000  0.11120000  0.07350000  1.0 -0.7203181085
O  O31  1  0.23170000  0.65650000  0.69290000  1.0 -0.7318026421
O  O32  1  0.65650000  0.69290000  0.23170000  1.0 -0.7318026421
O  O33  1  0.69290000  0.23170000  0.65650000  1.0 -0.7318026421
O  O34  1  0.73170000  0.19290000  0.15650000  1.0 -0.7318026421
O  O35  1  0.15650000  0.73170000  0.19290000  1.0 -0.7318026421
O  O36  1  0.19290000  0.15650000  0.73170000  1.0 -0.7318026421
O  O37  1  0.18320000  0.21960000  0.64160000  1.0 -0.7394893465
O  O38  1  0.21960000  0.64160000  0.18320000  1.0 -0.7394893465
O  O39  1  0.64160000  0.18320000  0.21960000  1.0 -0.7394893465
O  O40  1  0.68320000  0.14160000  0.71960000  1.0 -0.7394893465
O  O41  1  0.71960000  0.68320000  0.14160000  1.0 -0.7394893465
O  O42  1  0.14160000  0.71960000  0.68320000  1.0 -0.7394893465
O  O43  1  0.61150000  0.60900000  0.68610000  1.0 -0.6912424264
O  O44  1  0.60900000  0.68610000  0.61150000  1.0 -0.6912424264
O  O45  1  0.68610000  0.61150000  0.60900000  1.0 -0.6912424264
O  O46  1  0.11150000  0.18610000  0.10900000  1.0 -0.6912424264
O  O47  1  0.10900000  0.11150000  0.18610000  1.0 -0.6912424264
O  O48  1  0.18610000  0.10900000  0.11150000  1.0 -0.6912424264
O  O49  1  0.56800000  0.47930000  0.09570000  1.0 -0.4757096665
O  O50  1  0.47930000  0.09570000  0.56800000  1.0 -0.4757096665
O  O51  1  0.09570000  0.56800000  0.47930000  1.0 -0.4757096665
O  O52  1  0.06800000  0.59570000  0.97930000  1.0 -0.4757096665
O  O53  1  0.97930000  0.06800000  0.59570000  1.0 -0.4757096665
O  O54  1  0.59570000  0.97930000  0.06800000  1.0 -0.4757096665
O  O55  1  0.54730000  0.54830000  0.15870000  1.0 -0.486326128
O  O56  1  0.54830000  0.15870000  0.54730000  1.0 -0.486326128
O  O57  1  0.15870000  0.54730000  0.54830000  1.0 -0.486326128
O  O58  1  0.04730000  0.65870000  0.04830000  1.0 -0.486326128
O  O59  1  0.04830000  0.04730000  0.65870000  1.0 -0.486326128
O  O60  1  0.65870000  0.04830000  0.04730000  1.0 -0.486326128
O  O61  1  0.47600000  0.44240000  0.10010000  1.0 -0.3872701556
O  O62  1  0.44240000  0.10010000  0.47600000  1.0 -0.3872701556
O  O63  1  0.10010000  0.47600000  0.44240000  1.0 -0.3872701556
O  O64  1  0.97600000  0.60010000  0.94240000  1.0 -0.3872701556
O  O65  1  0.94240000  0.97600000  0.60010000  1.0 -0.3872701556
O  O66  1  0.60010000  0.94240000  0.97600000  1.0 -0.3872701556
O  O67  1  0.76930000  0.65880000  0.25760000  1.0 -0.4495746142
O  O68  1  0.65880000  0.25760000  0.76930000  1.0 -0.4495746142
O  O69  1  0.25760000  0.76930000  0.65880000  1.0 -0.4495746142
O  O70  1  0.26930000  0.75760000  0.15880000  1.0 -0.4495746142
O  O71  1  0.15880000  0.26930000  0.75760000  1.0 -0.4495746142
O  O72  1  0.75760000  0.15880000  0.26930000  1.0 -0.4495746142
O  O73  1  0.68190000  0.57350000  0.23950000  1.0 -0.5346203146
O  O74  1  0.57350000  0.23950000  0.68190000  1.0 -0.5351159272
O  O75  1  0.23950000  0.68190000  0.57350000  1.0 -0.5351159272
O  O76  1  0.18190000  0.73950000  0.07350000  1.0 -0.5351159272
O  O77  1  0.07350000  0.18190000  0.73950000  1.0 -0.5351159272
O  O78  1  0.73950000  0.07350000  0.18190000  1.0 -0.5346203146
O  O79  1  0.78710000  0.60340000  0.30630000  1.0 -0.3872701556
O  O80  1  0.60340000  0.30630000  0.78710000  1.0 -0.3872701556
O  O81  1  0.30630000  0.78710000  0.60340000  1.0 -0.3872701556
O  O82  1  0.28710000  0.80630000  0.10340000  1.0 -0.3872701556
O  O83  1  0.10340000  0.28710000  0.80630000  1.0 -0.3872701556
O  O84  1  0.80630000  0.10340000  0.28710000  1.0 -0.3872701556
O  O85  1  0.69112000  0.53080000  0.11098000  1.0 -0.486326128
O  O86  1  0.53080000  0.11098000  0.69112000  1.0 -0.486326128
O  O87  1  0.11098000  0.69112000  0.53080000  1.0 -0.486326128
O  O88  1  0.19112000  0.61098000  0.03080000  1.0 -0.486326128
O  O89  1  0.03080000  0.19112000  0.61098000  1.0 -0.486326128
O  O90  1  0.61098000  0.03080000  0.19112000  1.0 -0.486326128
O  O91  1  0.62860000  0.53790000  0.02720000  1.0 -0.4495746142
O  O92  1  0.53790000  0.02720000  0.62860000  1.0 -0.4495746142
O  O93  1  0.02720000  0.62860000  0.53790000  1.0 -0.4495746142
O  O94  1  0.12860000  0.52720000  0.03790000  1.0 -0.4495746142
O  O95  1  0.03790000  0.12860000  0.52720000  1.0 -0.4495746142
O  O96  1  0.52720000  0.03790000  0.12860000  1.0 -0.4495746142
O  O97  1  0.67760000  0.47990000  0.01220000  1.0 -0.3872701556
O  O98  1  0.47990000  0.01220000  0.67760000  1.0 -0.3872701556
O  O99  1  0.01220000  0.67760000  0.47990000  1.0 -0.3872701556
O  O100  1  0.17760000  0.51220000  0.97990000  1.0 -0.3872701556
O  O101  1  0.97990000  0.17760000  0.51220000  1.0 -0.3872701556
O  O102  1  0.51220000  0.97990000  0.17760000  1.0 -0.3872701556
O  O103  1  0.64460000  0.73850000  0.75330000  1.0 -0.4146790204
O  O104  1  0.73850000  0.75330000  0.64460000  1.0 -0.4146790204
O  O105  1  0.75330000  0.64460000  0.73850000  1.0 -0.4146790204
O  O106  1  0.14460000  0.25330000  0.23850000  1.0 -0.4151881036
O  O107  1  0.23850000  0.14460000  0.25330000  1.0 -0.4151881036
O  O108  1  0.25330000  0.23850000  0.14460000  1.0 -0.4151881036
O  O109  1  0.73730000  0.81000000  0.76790000  1.0 -0.5011777974
O  O110  1  0.81000000  0.76790000  0.73730000  1.0 -0.5011777974
O  O111  1  0.76790000  0.73730000  0.81000000  1.0 -0.5011777974
O  O112  1  0.23730000  0.26790000  0.31000000  1.0 -0.5011777974
O  O113  1  0.31000000  0.23730000  0.26790000  1.0 -0.5011777974
O  O114  1  0.26790000  0.31000000  0.23730000  1.0 -0.5011777974
O  O115  1  0.68440000  0.84110000  0.81820000  1.0 -0.3309632586
O  O116  1  0.84110000  0.81820000  0.68440000  1.0 -0.3309632586
O  O117  1  0.81820000  0.68440000  0.84110000  1.0 -0.3309632586
O  O118  1  0.18440000  0.31820000  0.34110000  1.0 -0.3309632586
O  O119  1  0.34110000  0.18440000  0.31820000  1.0 -0.3309632586
O  O120  1  0.31820000  0.34110000  0.18440000  1.0 -0.3309632586
