# DDEC6 charges by PACMAN v1.1 (https://github.com/mtap-research/PACMAN-charge/)
data_LORLUC_ASR_pacman
_symmetry_space_group_name_H-M   'P 1'
_cell_length_a   27.29500000
_cell_length_b   36.84500000
_cell_length_c   32.92260000
_cell_angle_alpha   90.00000000
_cell_angle_beta   122.70500000
_cell_angle_gamma   90.00000000
_symmetry_Int_Tables_number   1
_chemical_formula_structural   Co11H114C198(N2O25)2
_chemical_formula_sum   'Co22 H228 C396 N8 O100'
_cell_volume   27860.64307301
_cell_formula_units_Z   2
loop_
 _symmetry_equiv_pos_site_id
 _symmetry_equiv_pos_as_xyz
  1  'x, y, z'
loop_
 _atom_site_type_symbol
 _atom_site_label
 _atom_site_symmetry_multiplicity
 _atom_site_fract_x
 _atom_site_fract_y
 _atom_site_fract_z
 _atom_site_occupancy
 _atom_site_charge
Co  Co1  1  0.51763000  0.47954000  0.11105000  1.0 0.8859562206
Co  Co2  1  0.19038000  0.65459000  0.25505000  1.0 1.0444931912
Co  Co3  1  0.07342000  0.71147000  0.20192000  1.0 0.8171217817
Co  Co4  1  0.12050000  0.26929000  0.15386000  1.0 1.0255391128
Co  Co5  1  0.98921000  0.23393000  0.06558000  1.0 0.9422780651
Co  Co6  1  0.48237000  0.97954000  0.38895000  1.0 0.8859562206
Co  Co7  1  0.80962000  0.15459000  0.24495000  1.0 1.045641574
Co  Co8  1  0.92658000  0.21147000  0.29808000  1.0 0.8171217817
Co  Co9  1  0.87950000  0.76929000  0.34614000  1.0 1.0235456156
Co  Co10  1  0.01079000  0.73393000  0.43442000  1.0 0.9422780651
Co  Co11  1  0.48237000  0.52046000  0.88895000  1.0 0.8859562206
Co  Co12  1  0.80962000  0.34541000  0.74495000  1.0 1.045641574
Co  Co13  1  0.92658000  0.28853000  0.79808000  1.0 0.8171217817
Co  Co14  1  0.87950000  0.73071000  0.84614000  1.0 1.0255391128
Co  Co15  1  0.01079000  0.76607000  0.93442000  1.0 0.9422780651
Co  Co16  1  0.51763000  0.02046000  0.61105000  1.0 0.8859562206
Co  Co17  1  0.19038000  0.84541000  0.75505000  1.0 1.045641574
Co  Co18  1  0.07342000  0.78853000  0.70192000  1.0 0.8171217817
Co  Co19  1  0.12050000  0.23071000  0.65386000  1.0 1.0255391128
Co  Co20  1  0.98921000  0.26607000  0.56558000  1.0 0.9422780651
Co  Co21  1  0.50000000  0.50000000  0.00000000  1.0 0.9074297476
Co  Co22  1  0.50000000  0.00000000  0.50000000  1.0 0.9074297476
H  H1  1  0.61628000  0.59543000  0.05841000  1.0 0.1183484833
H  H2  1  0.70294000  0.62878000  0.09920000  1.0 0.0998579136
H  H3  1  0.74151000  0.59524000  0.00237000  1.0 0.0998579136
H  H4  1  0.65485000  0.56189000  0.96157000  1.0 0.1183484833
H  H5  1  0.85853000  0.69849000  0.28271000  1.0 0.109634241
H  H6  1  0.81373000  0.68138000  0.20302000  1.0 0.109634241
H  H7  1  0.96872000  0.68053000  0.21604000  1.0 0.1183484833
H  H8  1  0.01527000  0.69523000  0.29769000  1.0 0.1183484833
H  H9  1  0.82006000  0.71831000  0.93268000  1.0 0.109634241
H  H10  1  0.78940000  0.69486000  0.98010000  1.0 0.109634241
H  H11  1  0.95398000  0.70000000  0.09666000  1.0 0.1183484833
H  H12  1  0.98471000  0.72424000  0.04775000  1.0 0.109634241
H  H13  1  0.79732000  0.63692000  0.14679000  1.0 0.0998579136
H  H14  1  0.91046000  0.70094000  0.13751000  1.0 0.1183484833
H  H15  1  0.78303000  0.64830000  0.01844000  1.0 0.0998579136
H  H16  1  0.36377000  0.57051000  0.97044000  1.0 0.0626000268
H  H17  1  0.29621000  0.61541000  0.95767000  1.0 0.0998579136
H  H18  1  0.36602000  0.62111000  0.10182000  1.0 0.0998579136
H  H19  1  0.43358000  0.57622000  0.11459000  1.0 0.0998579136
H  H20  1  0.22663000  0.68010000  0.18150000  1.0 0.109634241
H  H21  1  0.26709000  0.67356000  0.13408000  1.0 0.109634241
H  H22  1  0.11407000  0.69976000  0.01611000  1.0 0.1183484833
H  H23  1  0.07455000  0.70812000  0.06263000  1.0 0.1183484833
H  H24  1  0.09420000  0.76660000  0.84144000  1.0 0.109634241
H  H25  1  0.12352000  0.73309000  0.91123000  1.0 0.1183484833
H  H26  1  0.29016000  0.73703000  0.94495000  1.0 0.109634241
H  H27  1  0.25926000  0.77331000  0.87735000  1.0 0.1253959465
H  H28  1  0.27161000  0.63970000  0.07556000  1.0 0.0998579136
H  H29  1  0.17637000  0.72656000  0.99713000  1.0 0.1183484833
H  H30  1  0.28266000  0.67627000  0.96493000  1.0 0.109634241
H  H31  1  0.69026000  0.42374000  0.14475000  1.0 0.109634241
H  H32  1  0.78098000  0.42489000  0.15308000  1.0 0.0998579136
H  H33  1  0.73691000  0.51890000  0.07729000  1.0 0.0900036234
H  H34  1  0.64619000  0.51775000  0.06896000  1.0 0.0701443447
H  H35  1  0.05145000  0.36496000  0.15978000  1.0 0.1183484833
H  H36  1  0.01367000  0.41776000  0.17020000  1.0 0.109634241
H  H37  1  0.85252000  0.38324000  0.06966000  1.0 0.109634241
H  H38  1  0.88970000  0.33119000  0.05924000  1.0 0.0998579136
H  H39  1  0.94453000  0.62561000  0.14538000  1.0 0.0998579136
H  H40  1  0.88741000  0.57354000  0.12112000  1.0 0.109634241
H  H41  1  0.02851000  0.51309000  0.20953000  1.0 0.109634241
H  H42  1  0.08667000  0.56470000  0.23237000  1.0 0.1183484833
H  H43  1  0.82707000  0.41975000  0.11172000  1.0 0.109634241
H  H44  1  0.97495000  0.47254000  0.14781000  1.0 0.109634241
H  H45  1  0.84401000  0.52701000  0.14094000  1.0 0.109634241
H  H46  1  0.66033000  0.54998000  0.07497000  1.0 0.0626000268
H  H47  1  0.74541000  0.58491000  0.11365000  1.0 0.0900036234
H  H48  1  0.68565000  0.64272000  0.99080000  1.0 0.0998579136
H  H49  1  0.60058000  0.60779000  0.95212000  1.0 0.109634241
H  H50  1  0.42787000  0.60619000  0.01044000  1.0 0.1183484833
H  H51  1  0.36350000  0.65233000  0.00081000  1.0 0.0998579136
H  H52  1  0.30300000  0.58911000  0.06520000  1.0 0.0998579136
H  H53  1  0.36738000  0.54298000  0.07483000  1.0 0.109634241
H  H54  1  0.63295000  0.45483000  0.05269000  1.0 0.0701443447
H  H55  1  0.72302000  0.45168000  0.05999000  1.0 0.0900036234
H  H56  1  0.79856000  0.50510000  0.18766000  1.0 0.0900036234
H  H57  1  0.70849000  0.50824000  0.18036000  1.0 0.0998579136
H  H58  1  0.38372000  0.09543000  0.44159000  1.0 0.1183484833
H  H59  1  0.29706000  0.12878000  0.40080000  1.0 0.0998579136
H  H60  1  0.25849000  0.09524000  0.49763000  1.0 0.0998579136
H  H61  1  0.34515000  0.06189000  0.53843000  1.0 0.1183484833
H  H62  1  0.14147000  0.19849000  0.21729000  1.0 0.109634241
H  H63  1  0.18627000  0.18138000  0.29698000  1.0 0.109634241
H  H64  1  0.03128000  0.18053000  0.28396000  1.0 0.1183484833
H  H65  1  0.98473000  0.19523000  0.20231000  1.0 0.1183484833
H  H66  1  0.17994000  0.21831000  0.56732000  1.0 0.109634241
H  H67  1  0.21060000  0.19486000  0.51990000  1.0 0.109634241
H  H68  1  0.04602000  0.20000000  0.40334000  1.0 0.1183484833
H  H69  1  0.01529000  0.22424000  0.45225000  1.0 0.109634241
H  H70  1  0.20268000  0.13692000  0.35321000  1.0 0.0998579136
H  H71  1  0.08954000  0.20094000  0.36249000  1.0 0.1183484833
H  H72  1  0.21697000  0.14830000  0.48156000  1.0 0.0998579136
H  H73  1  0.63623000  0.07051000  0.52956000  1.0 0.0626000268
H  H74  1  0.70379000  0.11541000  0.54233000  1.0 0.0998579136
H  H75  1  0.63398000  0.12111000  0.39818000  1.0 0.0998579136
H  H76  1  0.56642000  0.07622000  0.38541000  1.0 0.109634241
H  H77  1  0.77337000  0.18010000  0.31850000  1.0 0.109634241
H  H78  1  0.73291000  0.17356000  0.36592000  1.0 0.109634241
H  H79  1  0.88593000  0.19976000  0.48389000  1.0 0.1183484833
H  H80  1  0.92545000  0.20812000  0.43737000  1.0 0.1183484833
H  H81  1  0.90580000  0.26660000  0.65856000  1.0 0.109634241
H  H82  1  0.87648000  0.23309000  0.58877000  1.0 0.1183484833
H  H83  1  0.70984000  0.23703000  0.55505000  1.0 0.109634241
H  H84  1  0.74074000  0.27331000  0.62265000  1.0 0.1253959465
H  H85  1  0.72839000  0.13970000  0.42444000  1.0 0.0998579136
H  H86  1  0.82363000  0.22656000  0.50287000  1.0 0.1183484833
H  H87  1  0.71734000  0.17627000  0.53507000  1.0 0.109634241
H  H88  1  0.30974000  0.92374000  0.35525000  1.0 0.109634241
H  H89  1  0.21902000  0.92489000  0.34692000  1.0 0.0998579136
H  H90  1  0.26309000  0.01890000  0.42271000  1.0 0.0900036234
H  H91  1  0.35381000  0.01775000  0.43104000  1.0 0.0701443447
H  H92  1  0.94855000  0.86496000  0.34022000  1.0 0.1183484833
H  H93  1  0.98633000  0.91776000  0.32980000  1.0 0.109634241
H  H94  1  0.14748000  0.88324000  0.43034000  1.0 0.109634241
H  H95  1  0.11030000  0.83119000  0.44076000  1.0 0.0998579136
H  H96  1  0.05547000  0.12561000  0.35462000  1.0 0.0998579136
H  H97  1  0.11259000  0.07354000  0.37888000  1.0 0.109634241
H  H98  1  0.97149000  0.01309000  0.29047000  1.0 0.109634241
H  H99  1  0.91333000  0.06470000  0.26763000  1.0 0.1183484833
H  H100  1  0.17293000  0.91975000  0.38828000  1.0 0.109634241
H  H101  1  0.02505000  0.97254000  0.35219000  1.0 0.109634241
H  H102  1  0.15599000  0.02701000  0.35906000  1.0 0.109634241
H  H103  1  0.33967000  0.04998000  0.42503000  1.0 0.0626000268
H  H104  1  0.25459000  0.08491000  0.38635000  1.0 0.0900036234
H  H105  1  0.31435000  0.14272000  0.50920000  1.0 0.0998579136
H  H106  1  0.39942000  0.10779000  0.54788000  1.0 0.109634241
H  H107  1  0.57213000  0.10619000  0.48956000  1.0 0.1183484833
H  H108  1  0.63650000  0.15233000  0.49919000  1.0 0.0998579136
H  H109  1  0.69700000  0.08911000  0.43480000  1.0 0.0998579136
H  H110  1  0.63262000  0.04298000  0.42517000  1.0 0.109634241
H  H111  1  0.36705000  0.95483000  0.44731000  1.0 0.0701443447
H  H112  1  0.27698000  0.95168000  0.44001000  1.0 0.0900036234
H  H113  1  0.20144000  0.00510000  0.31234000  1.0 0.0900036234
H  H114  1  0.29151000  0.00824000  0.31964000  1.0 0.0998579136
H  H115  1  0.38372000  0.40457000  0.94159000  1.0 0.1183484833
H  H116  1  0.29706000  0.37122000  0.90080000  1.0 0.0998579136
H  H117  1  0.25849000  0.40476000  0.99763000  1.0 0.0998579136
H  H118  1  0.34515000  0.43811000  0.03843000  1.0 0.1183484833
H  H119  1  0.14147000  0.30151000  0.71729000  1.0 0.109634241
H  H120  1  0.18627000  0.31862000  0.79698000  1.0 0.109634241
H  H121  1  0.03128000  0.31947000  0.78396000  1.0 0.1183484833
H  H122  1  0.98473000  0.30477000  0.70231000  1.0 0.1183484833
H  H123  1  0.17994000  0.28169000  0.06732000  1.0 0.109634241
H  H124  1  0.21060000  0.30514000  0.01990000  1.0 0.109634241
H  H125  1  0.04602000  0.30000000  0.90334000  1.0 0.109634241
H  H126  1  0.01529000  0.27576000  0.95225000  1.0 0.109634241
H  H127  1  0.20268000  0.36308000  0.85321000  1.0 0.0998579136
H  H128  1  0.08954000  0.29906000  0.86249000  1.0 0.1183484833
H  H129  1  0.21697000  0.35170000  0.98156000  1.0 0.0998579136
H  H130  1  0.63623000  0.42949000  0.02956000  1.0 0.0626000268
H  H131  1  0.70379000  0.38459000  0.04233000  1.0 0.0998579136
H  H132  1  0.63398000  0.37889000  0.89818000  1.0 0.0998579136
H  H133  1  0.56642000  0.42378000  0.88541000  1.0 0.109634241
H  H134  1  0.77337000  0.31990000  0.81850000  1.0 0.109634241
H  H135  1  0.73291000  0.32644000  0.86592000  1.0 0.109634241
H  H136  1  0.88593000  0.30024000  0.98389000  1.0 0.1183484833
H  H137  1  0.92545000  0.29188000  0.93737000  1.0 0.1183484833
H  H138  1  0.90580000  0.23340000  0.15856000  1.0 0.109634241
H  H139  1  0.87648000  0.26691000  0.08877000  1.0 0.1183484833
H  H140  1  0.70984000  0.26297000  0.05505000  1.0 0.109634241
H  H141  1  0.74074000  0.22669000  0.12265000  1.0 0.1253959465
H  H142  1  0.72839000  0.36030000  0.92444000  1.0 0.0998579136
H  H143  1  0.82363000  0.27344000  0.00287000  1.0 0.1183484833
H  H144  1  0.71734000  0.32373000  0.03507000  1.0 0.109634241
H  H145  1  0.30974000  0.57626000  0.85525000  1.0 0.109634241
H  H146  1  0.21902000  0.57511000  0.84692000  1.0 0.0998579136
H  H147  1  0.26309000  0.48110000  0.92271000  1.0 0.0900036234
H  H148  1  0.35381000  0.48225000  0.93104000  1.0 0.0701443447
H  H149  1  0.94855000  0.63504000  0.84022000  1.0 0.1183484833
H  H150  1  0.98633000  0.58224000  0.82980000  1.0 0.109634241
H  H151  1  0.14748000  0.61676000  0.93034000  1.0 0.109634241
H  H152  1  0.11030000  0.66881000  0.94076000  1.0 0.0998579136
H  H153  1  0.05547000  0.37439000  0.85462000  1.0 0.0998579136
H  H154  1  0.11259000  0.42646000  0.87888000  1.0 0.109634241
H  H155  1  0.97149000  0.48691000  0.79047000  1.0 0.109634241
H  H156  1  0.91333000  0.43530000  0.76763000  1.0 0.1183484833
H  H157  1  0.17293000  0.58025000  0.88828000  1.0 0.109634241
H  H158  1  0.02505000  0.52746000  0.85219000  1.0 0.109634241
H  H159  1  0.15599000  0.47299000  0.85906000  1.0 0.0998579136
H  H160  1  0.33967000  0.45002000  0.92503000  1.0 0.0626000268
H  H161  1  0.25459000  0.41509000  0.88635000  1.0 0.0900036234
H  H162  1  0.31435000  0.35728000  0.00920000  1.0 0.0998579136
H  H163  1  0.39942000  0.39221000  0.04788000  1.0 0.109634241
H  H164  1  0.57213000  0.39381000  0.98956000  1.0 0.1183484833
H  H165  1  0.63650000  0.34767000  0.99919000  1.0 0.0998579136
H  H166  1  0.69700000  0.41089000  0.93480000  1.0 0.0998579136
H  H167  1  0.63262000  0.45702000  0.92517000  1.0 0.109634241
H  H168  1  0.36705000  0.54517000  0.94731000  1.0 0.0701443447
H  H169  1  0.27698000  0.54832000  0.94001000  1.0 0.0900036234
H  H170  1  0.20144000  0.49490000  0.81234000  1.0 0.0900036234
H  H171  1  0.29151000  0.49176000  0.81964000  1.0 0.0998579136
H  H172  1  0.61628000  0.90457000  0.55841000  1.0 0.1183484833
H  H173  1  0.70294000  0.87122000  0.59920000  1.0 0.0998579136
H  H174  1  0.74151000  0.90476000  0.50237000  1.0 0.0998579136
H  H175  1  0.65485000  0.93811000  0.46157000  1.0 0.1183484833
H  H176  1  0.85853000  0.80151000  0.78271000  1.0 0.109634241
H  H177  1  0.81373000  0.81862000  0.70302000  1.0 0.109634241
H  H178  1  0.96872000  0.81947000  0.71604000  1.0 0.1183484833
H  H179  1  0.01527000  0.80477000  0.79769000  1.0 0.1183484833
H  H180  1  0.82006000  0.78169000  0.43268000  1.0 0.109634241
H  H181  1  0.78940000  0.80514000  0.48010000  1.0 0.109634241
H  H182  1  0.95398000  0.80000000  0.59666000  1.0 0.1183484833
H  H183  1  0.98471000  0.77576000  0.54775000  1.0 0.109634241
H  H184  1  0.79732000  0.86308000  0.64679000  1.0 0.0998579136
H  H185  1  0.91046000  0.79906000  0.63751000  1.0 0.1183484833
H  H186  1  0.78303000  0.85170000  0.51844000  1.0 0.0998579136
H  H187  1  0.36377000  0.92949000  0.47044000  1.0 0.0626000268
H  H188  1  0.29621000  0.88459000  0.45767000  1.0 0.0998579136
H  H189  1  0.36602000  0.87889000  0.60182000  1.0 0.0998579136
H  H190  1  0.43358000  0.92378000  0.61459000  1.0 0.109634241
H  H191  1  0.22663000  0.81990000  0.68150000  1.0 0.109634241
H  H192  1  0.26709000  0.82644000  0.63408000  1.0 0.109634241
H  H193  1  0.11407000  0.80024000  0.51611000  1.0 0.1183484833
H  H194  1  0.07455000  0.79188000  0.56263000  1.0 0.1183484833
H  H195  1  0.09420000  0.73340000  0.34144000  1.0 0.109634241
H  H196  1  0.12352000  0.76691000  0.41123000  1.0 0.1183484833
H  H197  1  0.29016000  0.76297000  0.44495000  1.0 0.109634241
H  H198  1  0.25926000  0.72669000  0.37735000  1.0 0.1253959465
H  H199  1  0.27161000  0.86030000  0.57556000  1.0 0.0998579136
H  H200  1  0.17637000  0.77344000  0.49713000  1.0 0.1183484833
H  H201  1  0.28266000  0.82373000  0.46493000  1.0 0.109634241
H  H202  1  0.69026000  0.07626000  0.64475000  1.0 0.109634241
H  H203  1  0.78098000  0.07511000  0.65308000  1.0 0.0998579136
H  H204  1  0.73691000  0.98110000  0.57729000  1.0 0.0900036234
H  H205  1  0.64619000  0.98225000  0.56896000  1.0 0.0701443447
H  H206  1  0.05145000  0.13504000  0.65978000  1.0 0.1183484833
H  H207  1  0.01367000  0.08224000  0.67020000  1.0 0.109634241
H  H208  1  0.85252000  0.11676000  0.56966000  1.0 0.109634241
H  H209  1  0.88970000  0.16881000  0.55924000  1.0 0.0998579136
H  H210  1  0.94453000  0.87439000  0.64538000  1.0 0.0998579136
H  H211  1  0.88741000  0.92646000  0.62112000  1.0 0.109634241
H  H212  1  0.02851000  0.98691000  0.70953000  1.0 0.109634241
H  H213  1  0.08667000  0.93530000  0.73237000  1.0 0.1183484833
H  H214  1  0.82707000  0.08025000  0.61172000  1.0 0.109634241
H  H215  1  0.97495000  0.02746000  0.64781000  1.0 0.109634241
H  H216  1  0.84401000  0.97299000  0.64094000  1.0 0.0998579136
H  H217  1  0.66033000  0.95002000  0.57497000  1.0 0.0626000268
H  H218  1  0.74541000  0.91509000  0.61365000  1.0 0.0998579136
H  H219  1  0.68565000  0.85728000  0.49080000  1.0 0.0998579136
H  H220  1  0.60058000  0.89221000  0.45212000  1.0 0.109634241
H  H221  1  0.42787000  0.89381000  0.51044000  1.0 0.1183484833
H  H222  1  0.36350000  0.84767000  0.50081000  1.0 0.0998579136
H  H223  1  0.30300000  0.91089000  0.56520000  1.0 0.0998579136
H  H224  1  0.36738000  0.95702000  0.57483000  1.0 0.109634241
H  H225  1  0.63295000  0.04517000  0.55269000  1.0 0.0701443447
H  H226  1  0.72302000  0.04832000  0.55999000  1.0 0.0900036234
H  H227  1  0.79856000  0.99490000  0.68766000  1.0 0.0900036234
H  H228  1  0.70849000  0.99176000  0.68036000  1.0 0.0998579136
C  C1  1  0.56930000  0.55510000  0.98220000  1.0 0.4501851129
C  C2  1  0.62750000  0.57550000  0.00620000  1.0 -0.029945269
C  C3  1  0.64170000  0.59540000  0.04700000  1.0 -0.0192906033
C  C4  1  0.69320000  0.61520000  0.07130000  1.0 -0.0369742202
C  C5  1  0.73040000  0.61510000  0.05460000  1.0 -0.0016893093
C  C6  1  0.71600000  0.59530000  0.01370000  1.0 -0.1071169457
C  C7  1  0.66460000  0.57550000  0.98950000  1.0 -0.0584536288
C  C8  1  0.96900000  0.71246000  0.34790000  1.0 0.5787227245
C  C9  1  0.94130000  0.70040000  0.29820000  1.0 -0.0584536288
C  C10  1  0.88150000  0.69500000  0.26930000  1.0 -0.1071169457
C  C11  1  0.85470000  0.68480000  0.22200000  1.0 -0.1520219331
C  C12  1  0.88770000  0.67954000  0.20200000  1.0 0.0797341265
C  C13  1  0.94630000  0.68398000  0.22990000  1.0 -0.1397852483
C  C14  1  0.97400000  0.69348000  0.27830000  1.0 -0.0719319975
C  C15  1  0.92510000  0.73730000  0.95330000  1.0 0.6086199733
C  C16  1  0.90570000  0.72280000  0.98530000  1.0 -0.029945269
C  C17  1  0.84770000  0.71430000  0.96610000  1.0 -0.0985939574
C  C18  1  0.82950000  0.70030000  0.99420000  1.0 -0.1594424715
C  C19  1  0.86910000  0.69390000  0.04350000  1.0 0.0626000268
C  C20  1  0.92650000  0.70330000  0.06310000  1.0 -0.1397852483
C  C21  1  0.94500000  0.71790000  0.03380000  1.0 -0.0921730167
C  C22  1  0.77990000  0.63870000  0.07840000  1.0 0.0701443447
C  C23  1  0.81010000  0.64735000  0.12770000  1.0 -0.2504307988
C  C24  1  0.85790000  0.67058000  0.14980000  1.0 0.0900036234
C  C25  1  0.87750000  0.68541000  0.12260000  1.0 -0.2012596389
C  C26  1  0.84920000  0.67789000  0.07330000  1.0 0.0900036234
C  C27  1  0.80140000  0.65410000  0.05170000  1.0 -0.2504307988
C  C28  1  0.44750000  0.54130000  0.05070000  1.0 0.4501851129
C  C29  1  0.36420000  0.58080000  0.99710000  1.0 -0.0719319975
C  C30  1  0.32412000  0.60750000  0.98952000  1.0 -0.0812445623
C  C31  1  0.32470000  0.62248000  0.02850000  1.0 -0.0192906033
C  C32  1  0.36560000  0.61080000  0.07520000  1.0 -0.029945269
C  C33  1  0.40574000  0.58420000  0.08274000  1.0 -0.0369742202
C  C34  1  0.40360000  0.57020000  0.04350000  1.0 -0.0369742202
C  C35  1  0.12060000  0.70030000  0.15520000  1.0 0.5787227245
C  C36  1  0.14590000  0.69470000  0.12630000  1.0 -0.0485585269
C  C37  1  0.20330000  0.68450000  0.14770000  1.0 -0.0985939574
C  C38  1  0.22750000  0.68050000  0.11920000  1.0 -0.1594424715
C  C39  1  0.19490000  0.68634000  0.07100000  1.0 0.0701443447
C  C40  1  0.13770000  0.69610000  0.05000000  1.0 -0.1520219331
C  C41  1  0.11400000  0.70070000  0.07780000  1.0 -0.0719319975
C  C42  1  0.15430000  0.79280000  0.80620000  1.0 0.5999715008
C  C43  1  0.17480000  0.77230000  0.85260000  1.0 -0.029945269
C  C44  1  0.13420000  0.76060000  0.86280000  1.0 -0.0812445623
C  C45  1  0.15140000  0.74010000  0.90390000  1.0 -0.1397852483
C  C46  1  0.20820000  0.73019000  0.93360000  1.0 0.0701443447
C  C47  1  0.25010000  0.74290000  0.92400000  1.0 -0.1520219331
C  C48  1  0.23130000  0.76420000  0.88350000  1.0 -0.0812445623
C  C49  1  0.28430000  0.65290000  0.02150000  1.0 0.0797341265
C  C50  1  0.26030000  0.65630000  0.04980000  1.0 -0.2504307988
C  C51  1  0.22020000  0.68340000  0.04080000  1.0 0.0900036234
C  C52  1  0.20350000  0.70786000  0.00320000  1.0 -0.207876533
C  C53  1  0.22670000  0.70485000  0.97430000  1.0 0.0900036234
C  C54  1  0.26650000  0.67790000  0.98420000  1.0 -0.2504307988
C  C55  1  0.60410000  0.47460000  0.10440000  1.0 0.4114383983
C  C56  1  0.65972000  0.47064000  0.10610000  1.0 0.048367847
C  C57  1  0.69980000  0.44306000  0.13110000  1.0 -0.0812445623
C  C58  1  0.75360000  0.44374000  0.13600000  1.0 -0.0921730167
C  C59  1  0.76751000  0.47200000  0.11600000  1.0 0.0386078323
C  C60  1  0.72750000  0.49958000  0.09100000  1.0 -0.1169834485
C  C61  1  0.67350000  0.49890000  0.08600000  1.0 -0.0812445623
C  C62  1  0.99930000  0.30780000  0.10260000  1.0 0.5999715008
C  C63  1  0.97560000  0.34260000  0.11010000  1.0 -0.0192906033
C  C64  1  0.01040000  0.36860000  0.14140000  1.0 -0.0921730167
C  C65  1  0.98830000  0.40010000  0.14750000  1.0 -0.1594424715
C  C66  1  0.92850000  0.40622000  0.12030000  1.0 0.0701443447
C  C67  1  0.89350000  0.37960000  0.08820000  1.0 -0.1397852483
C  C68  1  0.91510000  0.34870000  0.08220000  1.0 -0.1071169457
C  C69  1  0.06070000  0.63310000  0.20510000  1.0 0.5999715008
C  C70  1  0.02190000  0.60013000  0.19080000  1.0 -0.029945269
C  C71  1  0.96210000  0.60260000  0.15800000  1.0 -0.0985939574
C  C72  1  0.92810000  0.57150000  0.14360000  1.0 -0.1520219331
C  C73  1  0.95150000  0.53790000  0.16090000  1.0 0.0701443447
C  C74  1  0.01140000  0.53590000  0.19550000  1.0 -0.1594424715
C  C75  1  0.04600000  0.56670000  0.20960000  1.0 -0.0985939574
C  C76  1  0.82710000  0.47280000  0.12530000  1.0 0.0797341265
C  C77  1  0.84950000  0.44140000  0.12040000  1.0 -0.2242644426
C  C78  1  0.90510000  0.44060000  0.12790000  1.0 0.0900036234
C  C79  1  0.93680000  0.47290000  0.14180000  1.0 -0.207876533
C  C80  1  0.91610000  0.50456000  0.14720000  1.0 0.0797341265
C  C81  1  0.86010000  0.50490000  0.13830000  1.0 -0.2380138142
C  C82  1  0.62240000  0.57560000  0.00990000  1.0 -0.0485585269
C  C83  1  0.66550000  0.56880000  0.05790000  1.0 -0.0584536288
C  C84  1  0.71600000  0.58960000  0.08090000  1.0 -0.0719319975
C  C85  1  0.72360000  0.61710000  0.05590000  1.0 -0.0122175724
C  C86  1  0.68050000  0.62390000  0.00790000  1.0 -0.0485585269
C  C87  1  0.63000000  0.60310000  0.98490000  1.0 -0.0485585269
C  C88  1  0.40260000  0.60270000  0.02160000  1.0 -0.0369742202
C  C89  1  0.36420000  0.63010000  0.01580000  1.0 -0.0812445623
C  C90  1  0.32720000  0.62510000  0.03210000  1.0 -0.0122175724
C  C91  1  0.32840000  0.59260000  0.05410000  1.0 -0.0812445623
C  C92  1  0.36660000  0.56520000  0.05980000  1.0 -0.0584536288
C  C93  1  0.66220000  0.48180000  0.11580000  1.0 0.0386078323
C  C94  1  0.66666667  0.46500000  0.08010000  1.0 -0.029945269
C  C95  1  0.72000000  0.46320000  0.08440000  1.0 -0.0485585269
C  C96  1  0.76920000  0.47810000  0.12450000  1.0 0.048367847
C  C97  1  0.76500000  0.49490000  0.16030000  1.0 -0.1397852483
C  C98  1  0.71140000  0.49680000  0.15590000  1.0 -0.1594424715
C  C99  1  0.40500000  0.56914000  0.04370000  1.0 -0.0369742202
C  C100  1  0.43070000  0.05510000  0.51780000  1.0 0.4501851129
C  C101  1  0.37250000  0.07550000  0.49380000  1.0 -0.029945269
C  C102  1  0.35830000  0.09540000  0.45300000  1.0 -0.0192906033
C  C103  1  0.30680000  0.11520000  0.42870000  1.0 -0.0369742202
C  C104  1  0.26960000  0.11510000  0.44540000  1.0 -0.0016893093
C  C105  1  0.28400000  0.09530000  0.48630000  1.0 -0.1169834485
C  C106  1  0.33540000  0.07550000  0.51050000  1.0 -0.0584536288
C  C107  1  0.03100000  0.21246000  0.15210000  1.0 0.5787227245
C  C108  1  0.05870000  0.20040000  0.20180000  1.0 -0.0584536288
C  C109  1  0.11850000  0.19500000  0.23070000  1.0 -0.1071169457
C  C110  1  0.14530000  0.18480000  0.27800000  1.0 -0.1520219331
C  C111  1  0.11230000  0.17954000  0.29800000  1.0 0.0797341265
C  C112  1  0.05370000  0.18398000  0.27010000  1.0 -0.1397852483
C  C113  1  0.02600000  0.19348000  0.22170000  1.0 -0.0719319975
C  C114  1  0.07490000  0.23730000  0.54670000  1.0 0.6086199733
C  C115  1  0.09430000  0.22280000  0.51470000  1.0 -0.029945269
C  C116  1  0.15230000  0.21430000  0.53390000  1.0 -0.0985939574
C  C117  1  0.17050000  0.20030000  0.50580000  1.0 -0.1594424715
C  C118  1  0.13090000  0.19390000  0.45650000  1.0 0.0626000268
C  C119  1  0.07350000  0.20330000  0.43690000  1.0 -0.1397852483
C  C120  1  0.05500000  0.21790000  0.46620000  1.0 -0.0921730167
C  C121  1  0.22010000  0.13870000  0.42160000  1.0 0.0701443447
C  C122  1  0.18990000  0.14735000  0.37230000  1.0 -0.2504307988
C  C123  1  0.14210000  0.17058000  0.35020000  1.0 0.0900036234
C  C124  1  0.12250000  0.18541000  0.37740000  1.0 -0.2012596389
C  C125  1  0.15080000  0.17789000  0.42670000  1.0 0.0900036234
C  C126  1  0.19860000  0.15410000  0.44830000  1.0 -0.2504307988
C  C127  1  0.55250000  0.04130000  0.44930000  1.0 0.4501851129
C  C128  1  0.63580000  0.08080000  0.50290000  1.0 -0.0719319975
C  C129  1  0.67588000  0.10750000  0.51048000  1.0 -0.0812445623
C  C130  1  0.67530000  0.12248000  0.47150000  1.0 -0.0192906033
C  C131  1  0.63440000  0.11080000  0.42480000  1.0 -0.029945269
C  C132  1  0.59426000  0.08420000  0.41726000  1.0 -0.0369742202
C  C133  1  0.59640000  0.07020000  0.45650000  1.0 -0.0369742202
C  C134  1  0.87940000  0.20030000  0.34480000  1.0 0.5787227245
C  C135  1  0.85410000  0.19470000  0.37370000  1.0 -0.0485585269
C  C136  1  0.79670000  0.18450000  0.35230000  1.0 -0.0985939574
C  C137  1  0.77250000  0.18050000  0.38080000  1.0 -0.1594424715
C  C138  1  0.80510000  0.18634000  0.42900000  1.0 0.0701443447
C  C139  1  0.86230000  0.19610000  0.45000000  1.0 -0.1520219331
C  C140  1  0.88600000  0.20070000  0.42220000  1.0 -0.0719319975
C  C141  1  0.84570000  0.29280000  0.69380000  1.0 0.5999715008
C  C142  1  0.82520000  0.27230000  0.64740000  1.0 -0.0192906033
C  C143  1  0.86580000  0.26060000  0.63720000  1.0 -0.0812445623
C  C144  1  0.84860000  0.24010000  0.59610000  1.0 -0.1397852483
C  C145  1  0.79180000  0.23019000  0.56640000  1.0 0.0701443447
C  C146  1  0.74990000  0.24290000  0.57600000  1.0 -0.1520219331
C  C147  1  0.76870000  0.26420000  0.61650000  1.0 -0.0812445623
C  C148  1  0.71570000  0.15290000  0.47850000  1.0 0.0797341265
C  C149  1  0.73970000  0.15630000  0.45020000  1.0 -0.2504307988
C  C150  1  0.77980000  0.18340000  0.45920000  1.0 0.0900036234
C  C151  1  0.79650000  0.20786000  0.49680000  1.0 -0.207876533
C  C152  1  0.77330000  0.20485000  0.52570000  1.0 0.0900036234
C  C153  1  0.73350000  0.17790000  0.51580000  1.0 -0.2504307988
C  C154  1  0.39590000  0.97460000  0.39560000  1.0 0.4114383983
C  C155  1  0.34028000  0.97064000  0.39390000  1.0 0.048367847
C  C156  1  0.30020000  0.94306000  0.36890000  1.0 -0.0812445623
C  C157  1  0.24640000  0.94374000  0.36400000  1.0 -0.0921730167
C  C158  1  0.23249000  0.97200000  0.38400000  1.0 0.0386078323
C  C159  1  0.27250000  0.99958000  0.40900000  1.0 -0.1169834485
C  C160  1  0.32650000  0.99890000  0.41400000  1.0 -0.0812445623
C  C161  1  0.00070000  0.80780000  0.39740000  1.0 0.5999715008
C  C162  1  0.02440000  0.84260000  0.38990000  1.0 -0.0192906033
C  C163  1  0.98960000  0.86860000  0.35860000  1.0 -0.0921730167
C  C164  1  0.01170000  0.90010000  0.35250000  1.0 -0.1594424715
C  C165  1  0.07150000  0.90622000  0.37970000  1.0 0.0701443447
C  C166  1  0.10650000  0.87960000  0.41180000  1.0 -0.1397852483
C  C167  1  0.08490000  0.84870000  0.41780000  1.0 -0.1071169457
C  C168  1  0.93930000  0.13310000  0.29490000  1.0 0.5999715008
C  C169  1  0.97810000  0.10013000  0.30920000  1.0 -0.029945269
C  C170  1  0.03790000  0.10260000  0.34200000  1.0 -0.0985939574
C  C171  1  0.07190000  0.07150000  0.35640000  1.0 -0.1520219331
C  C172  1  0.04850000  0.03790000  0.33910000  1.0 0.0701443447
C  C173  1  0.98860000  0.03590000  0.30450000  1.0 -0.1594424715
C  C174  1  0.95400000  0.06670000  0.29040000  1.0 -0.0985939574
C  C175  1  0.17290000  0.97280000  0.37470000  1.0 0.0797341265
C  C176  1  0.15050000  0.94140000  0.37960000  1.0 -0.2242644426
C  C177  1  0.09490000  0.94060000  0.37210000  1.0 0.0900036234
C  C178  1  0.06320000  0.97290000  0.35820000  1.0 -0.207876533
C  C179  1  0.08390000  0.00456000  0.35280000  1.0 0.0797341265
C  C180  1  0.13990000  0.00490000  0.36170000  1.0 -0.2380138142
C  C181  1  0.37760000  0.07560000  0.49010000  1.0 -0.0485585269
C  C182  1  0.33450000  0.06880000  0.44210000  1.0 -0.0584536288
C  C183  1  0.28400000  0.08960000  0.41910000  1.0 -0.0719319975
C  C184  1  0.27640000  0.11710000  0.44410000  1.0 -0.0122175724
C  C185  1  0.31950000  0.12390000  0.49210000  1.0 -0.0485585269
C  C186  1  0.37000000  0.10310000  0.51510000  1.0 -0.0485585269
C  C187  1  0.59740000  0.10270000  0.47840000  1.0 -0.0369742202
C  C188  1  0.63580000  0.13010000  0.48420000  1.0 -0.0812445623
C  C189  1  0.67280000  0.12510000  0.46790000  1.0 -0.0122175724
C  C190  1  0.67160000  0.09260000  0.44590000  1.0 -0.0812445623
C  C191  1  0.63340000  0.06520000  0.44020000  1.0 -0.0584536288
C  C192  1  0.33780000  0.98180000  0.38420000  1.0 0.0386078323
C  C193  1  0.33340000  0.96500000  0.41990000  1.0 -0.029945269
C  C194  1  0.28000000  0.96320000  0.41560000  1.0 -0.0485585269
C  C195  1  0.23080000  0.97810000  0.37550000  1.0 0.048367847
C  C196  1  0.23500000  0.99490000  0.33970000  1.0 -0.1397852483
C  C197  1  0.28860000  0.99680000  0.34410000  1.0 -0.1594424715
C  C198  1  0.59500000  0.06914000  0.45630000  1.0 -0.0369742202
C  C199  1  0.43070000  0.44490000  0.01780000  1.0 0.4501851129
C  C200  1  0.37250000  0.42450000  0.99380000  1.0 -0.029945269
C  C201  1  0.35830000  0.40460000  0.95300000  1.0 -0.0192906033
C  C202  1  0.30680000  0.38480000  0.92870000  1.0 -0.0369742202
C  C203  1  0.26960000  0.38490000  0.94540000  1.0 -0.0016893093
C  C204  1  0.28400000  0.40470000  0.98630000  1.0 -0.1169834485
C  C205  1  0.33540000  0.42450000  0.01050000  1.0 -0.0584536288
C  C206  1  0.03100000  0.28754000  0.65210000  1.0 0.5787227245
C  C207  1  0.05870000  0.29960000  0.70180000  1.0 -0.0584536288
C  C208  1  0.11850000  0.30500000  0.73070000  1.0 -0.1071169457
C  C209  1  0.14530000  0.31520000  0.77800000  1.0 -0.1520219331
C  C210  1  0.11230000  0.32046000  0.79800000  1.0 0.0797341265
C  C211  1  0.05370000  0.31602000  0.77010000  1.0 -0.1397852483
C  C212  1  0.02600000  0.30652000  0.72170000  1.0 -0.0719319975
C  C213  1  0.07490000  0.26270000  0.04670000  1.0 0.6086199733
C  C214  1  0.09430000  0.27720000  0.01470000  1.0 -0.029945269
C  C215  1  0.15230000  0.28570000  0.03390000  1.0 -0.0921730167
C  C216  1  0.17050000  0.29970000  0.00580000  1.0 -0.1594424715
C  C217  1  0.13090000  0.30610000  0.95650000  1.0 0.0626000268
C  C218  1  0.07350000  0.29670000  0.93690000  1.0 -0.1397852483
C  C219  1  0.05500000  0.28210000  0.96620000  1.0 -0.0921730167
C  C220  1  0.22010000  0.36130000  0.92160000  1.0 0.0701443447
C  C221  1  0.18990000  0.35265000  0.87230000  1.0 -0.2504307988
C  C222  1  0.14210000  0.32942000  0.85020000  1.0 0.0900036234
C  C223  1  0.12250000  0.31459000  0.87740000  1.0 -0.2012596389
C  C224  1  0.15080000  0.32211000  0.92670000  1.0 0.0900036234
C  C225  1  0.19860000  0.34590000  0.94830000  1.0 -0.2504307988
C  C226  1  0.55250000  0.45870000  0.94930000  1.0 0.4501851129
C  C227  1  0.63580000  0.41920000  0.00290000  1.0 -0.0719319975
C  C228  1  0.67588000  0.39250000  0.01048000  1.0 -0.0812445623
C  C229  1  0.67530000  0.37752000  0.97150000  1.0 -0.0122175724
C  C230  1  0.63440000  0.38920000  0.92480000  1.0 -0.029945269
C  C231  1  0.59426000  0.41580000  0.91726000  1.0 -0.0369742202
C  C232  1  0.59640000  0.42980000  0.95650000  1.0 -0.0369742202
C  C233  1  0.87940000  0.29970000  0.84480000  1.0 0.5787227245
C  C234  1  0.85410000  0.30530000  0.87370000  1.0 -0.0485585269
C  C235  1  0.79670000  0.31550000  0.85230000  1.0 -0.0985939574
C  C236  1  0.77250000  0.31950000  0.88080000  1.0 -0.1594424715
C  C237  1  0.80510000  0.31366000  0.92900000  1.0 0.0701443447
C  C238  1  0.86230000  0.30390000  0.95000000  1.0 -0.1520219331
C  C239  1  0.88600000  0.29930000  0.92220000  1.0 -0.0719319975
C  C240  1  0.84570000  0.20720000  0.19380000  1.0 0.5999715008
C  C241  1  0.82520000  0.22770000  0.14740000  1.0 -0.029945269
C  C242  1  0.86580000  0.23940000  0.13720000  1.0 -0.0812445623
C  C243  1  0.84860000  0.25990000  0.09610000  1.0 -0.1397852483
C  C244  1  0.79180000  0.26981000  0.06640000  1.0 0.0701443447
C  C245  1  0.74990000  0.25710000  0.07600000  1.0 -0.1520219331
C  C246  1  0.76870000  0.23580000  0.11650000  1.0 -0.0812445623
C  C247  1  0.71570000  0.34710000  0.97850000  1.0 0.0797341265
C  C248  1  0.73970000  0.34370000  0.95020000  1.0 -0.2504307988
C  C249  1  0.77980000  0.31660000  0.95920000  1.0 0.0900036234
C  C250  1  0.79650000  0.29214000  0.99680000  1.0 -0.207876533
C  C251  1  0.77330000  0.29515000  0.02570000  1.0 0.0900036234
C  C252  1  0.73350000  0.32210000  0.01580000  1.0 -0.2380138142
C  C253  1  0.39590000  0.52540000  0.89560000  1.0 0.4114383983
C  C254  1  0.34028000  0.52936000  0.89390000  1.0 0.048367847
C  C255  1  0.30020000  0.55694000  0.86890000  1.0 -0.0812445623
C  C256  1  0.24640000  0.55626000  0.86400000  1.0 -0.0921730167
C  C257  1  0.23249000  0.52800000  0.88400000  1.0 0.0386078323
C  C258  1  0.27250000  0.50042000  0.90900000  1.0 -0.1169834485
C  C259  1  0.32650000  0.50110000  0.91400000  1.0 -0.0812445623
C  C260  1  0.00070000  0.69220000  0.89740000  1.0 0.5999715008
C  C261  1  0.02440000  0.65740000  0.88990000  1.0 -0.0192906033
C  C262  1  0.98960000  0.63140000  0.85860000  1.0 -0.0921730167
C  C263  1  0.01170000  0.59990000  0.85250000  1.0 -0.1594424715
C  C264  1  0.07150000  0.59378000  0.87970000  1.0 0.0701443447
C  C265  1  0.10650000  0.62040000  0.91180000  1.0 -0.1397852483
C  C266  1  0.08490000  0.65130000  0.91780000  1.0 -0.1071169457
C  C267  1  0.93930000  0.36690000  0.79490000  1.0 0.5999715008
C  C268  1  0.97810000  0.39987000  0.80920000  1.0 -0.029945269
C  C269  1  0.03790000  0.39740000  0.84200000  1.0 -0.0985939574
C  C270  1  0.07190000  0.42850000  0.85640000  1.0 -0.1520219331
C  C271  1  0.04850000  0.46210000  0.83910000  1.0 0.0701443447
C  C272  1  0.98860000  0.46410000  0.80450000  1.0 -0.1594424715
C  C273  1  0.95400000  0.43330000  0.79040000  1.0 -0.0985939574
C  C274  1  0.17290000  0.52720000  0.87470000  1.0 0.0797341265
C  C275  1  0.15050000  0.55860000  0.87960000  1.0 -0.2242644426
C  C276  1  0.09490000  0.55940000  0.87210000  1.0 0.0900036234
C  C277  1  0.06320000  0.52710000  0.85820000  1.0 -0.207876533
C  C278  1  0.08390000  0.49544000  0.85280000  1.0 0.0797341265
C  C279  1  0.13990000  0.49510000  0.86170000  1.0 -0.2380138142
C  C280  1  0.37760000  0.42440000  0.99010000  1.0 -0.0485585269
C  C281  1  0.33450000  0.43120000  0.94210000  1.0 -0.0584536288
C  C282  1  0.28400000  0.41040000  0.91910000  1.0 -0.0719319975
C  C283  1  0.27640000  0.38290000  0.94410000  1.0 -0.0122175724
C  C284  1  0.31950000  0.37610000  0.99210000  1.0 -0.0485585269
C  C285  1  0.37000000  0.39690000  0.01510000  1.0 -0.0485585269
C  C286  1  0.59740000  0.39730000  0.97840000  1.0 -0.0369742202
C  C287  1  0.63580000  0.36990000  0.98420000  1.0 -0.0812445623
C  C288  1  0.67280000  0.37490000  0.96790000  1.0 -0.0122175724
C  C289  1  0.67160000  0.40740000  0.94590000  1.0 -0.0812445623
C  C290  1  0.63340000  0.43480000  0.94020000  1.0 -0.0584536288
C  C291  1  0.33780000  0.51820000  0.88420000  1.0 0.0386078323
C  C292  1  0.33340000  0.53500000  0.91990000  1.0 -0.029945269
C  C293  1  0.28000000  0.53680000  0.91560000  1.0 -0.0485585269
C  C294  1  0.23080000  0.52190000  0.87550000  1.0 0.048367847
C  C295  1  0.23500000  0.50510000  0.83970000  1.0 -0.1397852483
C  C296  1  0.28860000  0.50320000  0.84410000  1.0 -0.1594424715
C  C297  1  0.59500000  0.43086000  0.95630000  1.0 -0.029945269
C  C298  1  0.56930000  0.94490000  0.48220000  1.0 0.4501851129
C  C299  1  0.62750000  0.92450000  0.50620000  1.0 -0.029945269
C  C300  1  0.64170000  0.90460000  0.54700000  1.0 -0.0192906033
C  C301  1  0.69320000  0.88480000  0.57130000  1.0 -0.0369742202
C  C302  1  0.73040000  0.88490000  0.55460000  1.0 -0.0016893093
C  C303  1  0.71600000  0.90470000  0.51370000  1.0 -0.1169834485
C  C304  1  0.66460000  0.92450000  0.48950000  1.0 -0.0584536288
C  C305  1  0.96900000  0.78754000  0.84790000  1.0 0.5787227245
C  C306  1  0.94130000  0.79960000  0.79820000  1.0 -0.0584536288
C  C307  1  0.88150000  0.80500000  0.76930000  1.0 -0.1071169457
C  C308  1  0.85470000  0.81520000  0.72200000  1.0 -0.1520219331
C  C309  1  0.88770000  0.82046000  0.70200000  1.0 0.0797341265
C  C310  1  0.94630000  0.81602000  0.72990000  1.0 -0.1397852483
C  C311  1  0.97400000  0.80652000  0.77830000  1.0 -0.0719319975
C  C312  1  0.92510000  0.76270000  0.45330000  1.0 0.6086199733
C  C313  1  0.90570000  0.77720000  0.48530000  1.0 -0.029945269
C  C314  1  0.84770000  0.78570000  0.46610000  1.0 -0.0985939574
C  C315  1  0.82950000  0.79970000  0.49420000  1.0 -0.1594424715
C  C316  1  0.86910000  0.80610000  0.54350000  1.0 0.0626000268
C  C317  1  0.92650000  0.79670000  0.56310000  1.0 -0.1397852483
C  C318  1  0.94500000  0.78210000  0.53380000  1.0 -0.0921730167
C  C319  1  0.77990000  0.86130000  0.57840000  1.0 0.0701443447
C  C320  1  0.81010000  0.85265000  0.62770000  1.0 -0.2504307988
C  C321  1  0.85790000  0.82942000  0.64980000  1.0 0.0900036234
C  C322  1  0.87750000  0.81459000  0.62260000  1.0 -0.2012596389
C  C323  1  0.84920000  0.82211000  0.57330000  1.0 0.0900036234
C  C324  1  0.80140000  0.84590000  0.55170000  1.0 -0.2504307988
C  C325  1  0.44750000  0.95870000  0.55070000  1.0 0.4501851129
C  C326  1  0.36420000  0.91920000  0.49710000  1.0 -0.0719319975
C  C327  1  0.32412000  0.89250000  0.48952000  1.0 -0.0812445623
C  C328  1  0.32470000  0.87752000  0.52850000  1.0 -0.0122175724
C  C329  1  0.36560000  0.88920000  0.57520000  1.0 -0.029945269
C  C330  1  0.40574000  0.91580000  0.58274000  1.0 -0.0369742202
C  C331  1  0.40360000  0.92980000  0.54350000  1.0 -0.0369742202
C  C332  1  0.12060000  0.79970000  0.65520000  1.0 0.5787227245
C  C333  1  0.14590000  0.80530000  0.62630000  1.0 -0.0485585269
C  C334  1  0.20330000  0.81550000  0.64770000  1.0 -0.0985939574
C  C335  1  0.22750000  0.81950000  0.61920000  1.0 -0.1594424715
C  C336  1  0.19490000  0.81366000  0.57100000  1.0 0.0701443447
C  C337  1  0.13770000  0.80390000  0.55000000  1.0 -0.1520219331
C  C338  1  0.11400000  0.79930000  0.57780000  1.0 -0.0719319975
C  C339  1  0.15430000  0.70720000  0.30620000  1.0 0.5999715008
C  C340  1  0.17480000  0.72770000  0.35260000  1.0 -0.029945269
C  C341  1  0.13420000  0.73940000  0.36280000  1.0 -0.0812445623
C  C342  1  0.15140000  0.75990000  0.40390000  1.0 -0.1397852483
C  C343  1  0.20820000  0.76981000  0.43360000  1.0 0.0701443447
C  C344  1  0.25010000  0.75710000  0.42400000  1.0 -0.1520219331
C  C345  1  0.23130000  0.73580000  0.38350000  1.0 -0.0812445623
C  C346  1  0.28430000  0.84710000  0.52150000  1.0 0.0797341265
C  C347  1  0.26030000  0.84370000  0.54980000  1.0 -0.2504307988
C  C348  1  0.22020000  0.81660000  0.54080000  1.0 0.0900036234
C  C349  1  0.20350000  0.79214000  0.50320000  1.0 -0.207876533
C  C350  1  0.22670000  0.79515000  0.47430000  1.0 0.0900036234
C  C351  1  0.26650000  0.82210000  0.48420000  1.0 -0.2504307988
C  C352  1  0.60410000  0.02540000  0.60440000  1.0 0.4114383983
C  C353  1  0.65972000  0.02936000  0.60610000  1.0 0.048367847
C  C354  1  0.69980000  0.05694000  0.63110000  1.0 -0.0812445623
C  C355  1  0.75360000  0.05626000  0.63600000  1.0 -0.0921730167
C  C356  1  0.76751000  0.02800000  0.61600000  1.0 0.0386078323
C  C357  1  0.72750000  0.00042000  0.59100000  1.0 -0.1169834485
C  C358  1  0.67350000  0.00110000  0.58600000  1.0 -0.0812445623
C  C359  1  0.99930000  0.19220000  0.60260000  1.0 0.5999715008
C  C360  1  0.97560000  0.15740000  0.61010000  1.0 -0.0192906033
C  C361  1  0.01040000  0.13140000  0.64140000  1.0 -0.0921730167
C  C362  1  0.98830000  0.09990000  0.64750000  1.0 -0.1594424715
C  C363  1  0.92850000  0.09378000  0.62030000  1.0 0.0701443447
C  C364  1  0.89350000  0.12040000  0.58820000  1.0 -0.1397852483
C  C365  1  0.91510000  0.15130000  0.58220000  1.0 -0.1071169457
C  C366  1  0.06070000  0.86690000  0.70510000  1.0 0.5999715008
C  C367  1  0.02190000  0.89987000  0.69080000  1.0 -0.029945269
C  C368  1  0.96210000  0.89740000  0.65800000  1.0 -0.0985939574
C  C369  1  0.92810000  0.92850000  0.64360000  1.0 -0.1520219331
C  C370  1  0.95150000  0.96210000  0.66090000  1.0 0.0701443447
C  C371  1  0.01140000  0.96410000  0.69550000  1.0 -0.1594424715
C  C372  1  0.04600000  0.93330000  0.70960000  1.0 -0.0985939574
C  C373  1  0.82710000  0.02720000  0.62530000  1.0 0.0797341265
C  C374  1  0.84950000  0.05860000  0.62040000  1.0 -0.2242644426
C  C375  1  0.90510000  0.05940000  0.62790000  1.0 0.0900036234
C  C376  1  0.93680000  0.02710000  0.64180000  1.0 -0.207876533
C  C377  1  0.91610000  0.99544000  0.64720000  1.0 0.0797341265
C  C378  1  0.86010000  0.99510000  0.63830000  1.0 -0.2380138142
C  C379  1  0.62240000  0.92440000  0.50990000  1.0 -0.0485585269
C  C380  1  0.66550000  0.93120000  0.55790000  1.0 -0.0584536288
C  C381  1  0.71600000  0.91040000  0.58090000  1.0 -0.0719319975
C  C382  1  0.72360000  0.88290000  0.55590000  1.0 -0.0122175724
C  C383  1  0.68050000  0.87610000  0.50790000  1.0 -0.0485585269
C  C384  1  0.63000000  0.89690000  0.48490000  1.0 -0.0369742202
C  C385  1  0.40260000  0.89730000  0.52160000  1.0 -0.0369742202
C  C386  1  0.36420000  0.86990000  0.51580000  1.0 -0.0812445623
C  C387  1  0.32720000  0.87490000  0.53210000  1.0 -0.0122175724
C  C388  1  0.32840000  0.90740000  0.55410000  1.0 -0.0812445623
C  C389  1  0.36660000  0.93480000  0.55980000  1.0 -0.0584536288
C  C390  1  0.66220000  0.01820000  0.61580000  1.0 0.0386078323
C  C391  1  0.66666667  0.03500000  0.58010000  1.0 -0.029945269
C  C392  1  0.72000000  0.03680000  0.58440000  1.0 -0.0485585269
C  C393  1  0.76920000  0.02190000  0.62450000  1.0 0.048367847
C  C394  1  0.76500000  0.00510000  0.66030000  1.0 -0.1397852483
C  C395  1  0.71140000  0.00320000  0.65590000  1.0 -0.1594424715
C  C396  1  0.40500000  0.93086000  0.54370000  1.0 -0.029945269
N  N1  1  0.02630000  0.77300000  0.18220000  1.0 0.5787227245
N  N2  1  0.20820000  0.79820000  0.28410000  1.0 0.6086199733
N  N3  1  0.97370000  0.27300000  0.31780000  1.0 0.5787227245
N  N4  1  0.79180000  0.29820000  0.21590000  1.0 0.6086199733
N  N5  1  0.97370000  0.22700000  0.81780000  1.0 0.5850716757
N  N6  1  0.79180000  0.20180000  0.71590000  1.0 0.6086199733
N  N7  1  0.02630000  0.72700000  0.68220000  1.0 0.5787227245
N  N8  1  0.20820000  0.70180000  0.78410000  1.0 0.6086199733
O  O1  1  0.55150000  0.54231000  0.00470000  1.0 -0.4590730391
O  O2  1  0.54720000  0.55017000  0.93810000  1.0 -0.5123386604
O  O3  1  0.93759000  0.72698000  0.36234000  1.0 -0.6474014592
O  O4  1  0.02261000  0.70961000  0.37805000  1.0 -0.5255516754
O  O5  1  0.88536000  0.73987000  0.90870000  1.0 -0.6101978791
O  O6  1  0.97751000  0.74477000  0.97206000  1.0 -0.5611399335
O  O7  1  0.45580000  0.53470000  0.01920000  1.0 -0.5000618135
O  O8  1  0.47340000  0.52581000  0.09080000  1.0 -0.5187287045
O  O9  1  0.14929000  0.69397000  0.20091000  1.0 -0.6377743852
O  O10  1  0.06995000  0.71289000  0.13555000  1.0 -0.5187287045
O  O11  1  0.10170000  0.78770000  0.77170000  1.0 -0.5611399335
O  O12  1  0.19264000  0.81054000  0.80395000  1.0 -0.5963160467
O  O13  1  0.56310000  0.48880000  0.07520000  1.0 -0.4590730391
O  O14  1  0.59670000  0.45300000  0.13120000  1.0 -0.4590730391
O  O15  1  0.05420000  0.30695000  0.12470000  1.0 -0.6101978791
O  O16  1  0.96499000  0.28299000  0.07735000  1.0 -0.5509552431
O  O17  1  0.11352000  0.62873000  0.23440000  1.0 -0.5920252573
O  O18  1  0.03492000  0.66300000  0.18661000  1.0 -0.5509552431
O  O19  1  0.99950000  0.74330000  0.18090000  1.0 -0.4212773067
O  O20  1  0.08100000  0.77145000  0.19870000  1.0 0.0797341265
O  O21  1  0.99950000  0.80438000  0.17160000  1.0 -0.3164023829
O  O22  1  0.18150000  0.76870000  0.25660000  1.0 -0.1397852483
O  O23  1  0.26550000  0.79290000  0.31080000  1.0 -0.4399530214
O  O24  1  0.18770000  0.82850000  0.29760000  1.0 -0.5000618135
O  O25  1  0.12270000  0.76230000  0.23080000  1.0 0.0998579136
O  O26  1  0.44850000  0.04231000  0.49530000  1.0 -0.4590730391
O  O27  1  0.45280000  0.05017000  0.56190000  1.0 -0.5123386604
O  O28  1  0.06241000  0.22698000  0.13766000  1.0 -0.6474014592
O  O29  1  0.97739000  0.20961000  0.12195000  1.0 -0.5255516754
O  O30  1  0.11464000  0.23987000  0.59130000  1.0 -0.6101978791
O  O31  1  0.02249000  0.24477000  0.52794000  1.0 -0.5611399335
O  O32  1  0.54420000  0.03470000  0.48080000  1.0 -0.5000618135
O  O33  1  0.52660000  0.02581000  0.40920000  1.0 -0.5255516754
O  O34  1  0.85071000  0.19397000  0.29909000  1.0 -0.6377743852
O  O35  1  0.93005000  0.21289000  0.36445000  1.0 -0.5187287045
O  O36  1  0.89830000  0.28770000  0.72830000  1.0 -0.5611399335
O  O37  1  0.80736000  0.31054000  0.69605000  1.0 -0.5963160467
O  O38  1  0.43690000  0.98880000  0.42480000  1.0 -0.4590730391
O  O39  1  0.40330000  0.95300000  0.36880000  1.0 -0.4590730391
O  O40  1  0.94580000  0.80695000  0.37530000  1.0 -0.6101978791
O  O41  1  0.03501000  0.78299000  0.42265000  1.0 -0.5509552431
O  O42  1  0.88648000  0.12873000  0.26560000  1.0 -0.5920252573
O  O43  1  0.96508000  0.16300000  0.31339000  1.0 -0.5509552431
O  O44  1  0.00050000  0.24330000  0.31910000  1.0 -0.4212773067
O  O45  1  0.91900000  0.27145000  0.30130000  1.0 0.0900036234
O  O46  1  0.00050000  0.30438000  0.32840000  1.0 -0.3127387735
O  O47  1  0.81850000  0.26870000  0.24340000  1.0 -0.1322000546
O  O48  1  0.73450000  0.29290000  0.18920000  1.0 -0.4399530214
O  O49  1  0.81230000  0.32850000  0.20240000  1.0 -0.5000618135
O  O50  1  0.87730000  0.26230000  0.26920000  1.0 0.0998579136
O  O51  1  0.44850000  0.45769000  0.99530000  1.0 -0.4590730391
O  O52  1  0.45280000  0.44983000  0.06190000  1.0 -0.5123386604
O  O53  1  0.06241000  0.27302000  0.63766000  1.0 -0.6474014592
O  O54  1  0.97739000  0.29039000  0.62195000  1.0 -0.5255516754
O  O55  1  0.11464000  0.26013000  0.09130000  1.0 -0.6101978791
O  O56  1  0.02249000  0.25523000  0.02794000  1.0 -0.5611399335
O  O57  1  0.54420000  0.46530000  0.98080000  1.0 -0.5000618135
O  O58  1  0.52660000  0.47419000  0.90920000  1.0 -0.5255516754
O  O59  1  0.85071000  0.30603000  0.79909000  1.0 -0.6377743852
O  O60  1  0.93005000  0.28711000  0.86445000  1.0 -0.5187287045
O  O61  1  0.89830000  0.21230000  0.22830000  1.0 -0.5611399335
O  O62  1  0.80736000  0.18946000  0.19605000  1.0 -0.5963160467
O  O63  1  0.43690000  0.51120000  0.92480000  1.0 -0.4590730391
O  O64  1  0.40330000  0.54700000  0.86880000  1.0 -0.4590730391
O  O65  1  0.94580000  0.69305000  0.87530000  1.0 -0.6101978791
O  O66  1  0.03501000  0.71701000  0.92265000  1.0 -0.5509552431
O  O67  1  0.88648000  0.37127000  0.76560000  1.0 -0.5920252573
O  O68  1  0.96508000  0.33700000  0.81339000  1.0 -0.5509552431
O  O69  1  0.00050000  0.25670000  0.81910000  1.0 -0.4212773067
O  O70  1  0.91900000  0.22855000  0.80130000  1.0 0.0797341265
O  O71  1  0.00050000  0.19562000  0.82840000  1.0 -0.3127387735
O  O72  1  0.81850000  0.23130000  0.74340000  1.0 -0.1397852483
O  O73  1  0.73450000  0.20710000  0.68920000  1.0 -0.4399530214
O  O74  1  0.81230000  0.17150000  0.70240000  1.0 -0.5000618135
O  O75  1  0.87730000  0.23770000  0.76920000  1.0 0.0900036234
O  O76  1  0.55150000  0.95769000  0.50470000  1.0 -0.4590730391
O  O77  1  0.54720000  0.94983000  0.43810000  1.0 -0.5123386604
O  O78  1  0.93759000  0.77302000  0.86234000  1.0 -0.6474014592
O  O79  1  0.02261000  0.79039000  0.87805000  1.0 -0.5255516754
O  O80  1  0.88536000  0.76013000  0.40870000  1.0 -0.6101978791
O  O81  1  0.97751000  0.75523000  0.47206000  1.0 -0.5611399335
O  O82  1  0.45580000  0.96530000  0.51920000  1.0 -0.5000618135
O  O83  1  0.47340000  0.97419000  0.59080000  1.0 -0.5255516754
O  O84  1  0.14929000  0.80603000  0.70091000  1.0 -0.6377743852
O  O85  1  0.06995000  0.78711000  0.63555000  1.0 -0.5187287045
O  O86  1  0.10170000  0.71230000  0.27170000  1.0 -0.5611399335
O  O87  1  0.19264000  0.68946000  0.30395000  1.0 -0.5963160467
O  O88  1  0.56310000  0.01120000  0.57520000  1.0 -0.4590730391
O  O89  1  0.59670000  0.04700000  0.63120000  1.0 -0.4590730391
O  O90  1  0.05420000  0.19305000  0.62470000  1.0 -0.6101978791
O  O91  1  0.96499000  0.21701000  0.57735000  1.0 -0.5509552431
O  O92  1  0.11352000  0.87127000  0.73440000  1.0 -0.5920252573
O  O93  1  0.03492000  0.83700000  0.68661000  1.0 -0.5509552431
O  O94  1  0.99950000  0.75670000  0.68090000  1.0 -0.4212773067
O  O95  1  0.08100000  0.72855000  0.69870000  1.0 0.0797341265
O  O96  1  0.99950000  0.69562000  0.67160000  1.0 -0.3127387735
O  O97  1  0.18150000  0.73130000  0.75660000  1.0 -0.1397852483
O  O98  1  0.26550000  0.70710000  0.81080000  1.0 -0.4399530214
O  O99  1  0.18770000  0.67150000  0.79760000  1.0 -0.5000618135
O  O100  1  0.12270000  0.73770000  0.73080000  1.0 0.0998579136
