# DDEC6 charges by PACMAN v1.1 (https://github.com/mtap-research/PACMAN-charge/)
data_LORNEL_FSR_pacman
_symmetry_space_group_name_H-M   'P 1'
_cell_length_a   8.95265000
_cell_length_b   8.95265000
_cell_length_c   8.95265000
_cell_angle_alpha   60.00260000
_cell_angle_beta   60.00260000
_cell_angle_gamma   60.00260000
_symmetry_Int_Tables_number   1
_chemical_formula_structural   CdC3N
_chemical_formula_sum   'Cd2 C6 N2'
_cell_volume   507.41747611
_cell_formula_units_Z   2
loop_
 _symmetry_equiv_pos_site_id
 _symmetry_equiv_pos_as_xyz
  1  'x, y, z'
loop_
 _atom_site_type_symbol
 _atom_site_label
 _atom_site_symmetry_multiplicity
 _atom_site_fract_x
 _atom_site_fract_y
 _atom_site_fract_z
 _atom_site_occupancy
 _atom_site_charge
Cd  Cd1  1  0.37498000  0.37498000  0.37498000  1.0 0.6395606268
Cd  Cd2  1  0.62502000  0.62502000  0.62502000  1.0 0.6338939536
C  C1  1  0.07350000  0.47490000  0.47490000  1.0 -0.1898206702
C  C2  1  0.47490000  0.47490000  0.07350000  1.0 -0.1898206702
C  C3  1  0.47490000  0.07350000  0.47490000  1.0 -0.1898206702
C  C4  1  0.92650000  0.52510000  0.52510000  1.0 -0.1898206702
C  C5  1  0.52510000  0.52510000  0.92650000  1.0 -0.1898206702
C  C6  1  0.52510000  0.92650000  0.52510000  1.0 -0.1898206702
N  N1  1  0.47610000  0.47610000  0.47610000  1.0 -0.0672652796
N  N2  1  0.52390000  0.52390000  0.52390000  1.0 -0.0672652796
