# DDEC6 charges by PACMAN v1.1 (https://github.com/mtap-research/PACMAN-charge/)
data_LORROB_FSR_pacman
_symmetry_space_group_name_H-M   'P 1'
_cell_length_a   14.65340000
_cell_length_b   17.76870000
_cell_length_c   35.07860000
_cell_angle_alpha   90.00000000
_cell_angle_beta   114.39900000
_cell_angle_gamma   90.00000000
_symmetry_Int_Tables_number   1
_chemical_formula_structural   Eu3H45C76N7O17
_chemical_formula_sum   'Eu12 H180 C304 N28 O68'
_cell_volume   8317.77742670
_cell_formula_units_Z   4
loop_
 _symmetry_equiv_pos_site_id
 _symmetry_equiv_pos_as_xyz
  1  'x, y, z'
loop_
 _atom_site_type_symbol
 _atom_site_label
 _atom_site_symmetry_multiplicity
 _atom_site_fract_x
 _atom_site_fract_y
 _atom_site_fract_z
 _atom_site_occupancy
 _atom_site_charge
Eu  Eu1  1  0.21623000  0.93813000  0.06939000  1.0 2.0676606525
Eu  Eu2  1  0.78377000  0.43813000  0.43061000  1.0 2.0676606525
Eu  Eu3  1  0.78377000  0.06187000  0.93061000  1.0 2.0676606525
Eu  Eu4  1  0.21623000  0.56187000  0.56939000  1.0 2.0676606525
Eu  Eu5  1  0.91815000  0.92457000  0.01238000  1.0 2.2188070048
Eu  Eu6  1  0.08185000  0.42457000  0.48762000  1.0 2.2188070048
Eu  Eu7  1  0.08185000  0.07543000  0.98762000  1.0 2.2188070048
Eu  Eu8  1  0.91815000  0.57543000  0.51238000  1.0 2.2188070048
Eu  Eu9  1  0.35955000  0.99742000  0.00142000  1.0 2.1167992581
Eu  Eu10  1  0.64045000  0.49742000  0.49858000  1.0 2.1167992581
Eu  Eu11  1  0.64045000  0.00258000  0.99858000  1.0 2.1167992581
Eu  Eu12  1  0.35955000  0.50258000  0.50142000  1.0 2.1167992581
H  H1  1  0.50440000  0.64400000  0.93980000  1.0 0.1293470391
H  H2  1  0.49560000  0.14400000  0.56020000  1.0 0.1293470391
H  H3  1  0.49560000  0.35600000  0.06020000  1.0 0.1293470391
H  H4  1  0.50440000  0.85600000  0.43980000  1.0 0.1293470391
H  H5  1  0.50950000  0.42160000  0.91680000  1.0 0.1202788381
H  H6  1  0.49050000  0.92160000  0.58320000  1.0 0.1202788381
H  H7  1  0.49050000  0.57840000  0.08320000  1.0 0.1202788381
H  H8  1  0.50950000  0.07840000  0.41680000  1.0 0.1202788381
H  H9  1  0.48040000  0.31360000  0.93990000  1.0 0.1097319967
H  H10  1  0.51960000  0.81360000  0.56010000  1.0 0.1097319967
H  H11  1  0.51960000  0.68640000  0.06010000  1.0 0.1097319967
H  H12  1  0.48040000  0.18640000  0.43990000  1.0 0.1097319967
H  H13  1  0.41830000  0.19720000  0.94920000  1.0 0.1293470391
H  H14  1  0.58170000  0.69720000  0.55080000  1.0 0.1350363422
H  H15  1  0.58170000  0.80280000  0.05080000  1.0 0.1350363422
H  H16  1  0.41830000  0.30280000  0.44920000  1.0 0.1293470391
H  H17  1  0.19080000  0.30200000  0.96380000  1.0 0.1202788381
H  H18  1  0.80920000  0.80200000  0.53620000  1.0 0.1202788381
H  H19  1  0.80920000  0.69800000  0.03620000  1.0 0.1202788381
H  H20  1  0.19080000  0.19800000  0.46380000  1.0 0.1202788381
H  H21  1  0.25220000  0.41800000  0.95410000  1.0 0.1202788381
H  H22  1  0.74780000  0.91800000  0.54590000  1.0 0.1202788381
H  H23  1  0.74780000  0.58200000  0.04590000  1.0 0.1202788381
H  H24  1  0.25220000  0.08200000  0.45410000  1.0 0.1202788381
H  H25  1  0.66350000  0.44400000  0.92110000  1.0 0.1202788381
H  H26  1  0.33650000  0.94400000  0.57890000  1.0 0.1202788381
H  H27  1  0.33650000  0.55600000  0.07890000  1.0 0.1202788381
H  H28  1  0.66350000  0.05600000  0.42110000  1.0 0.1202788381
H  H29  1  0.78080000  0.46800000  0.89510000  1.0 0.0991663247
H  H30  1  0.21920000  0.96800000  0.60490000  1.0 0.0991663247
H  H31  1  0.21920000  0.53200000  0.10490000  1.0 0.0991663247
H  H32  1  0.78080000  0.03200000  0.39510000  1.0 0.0991663247
H  H33  1  0.68850000  0.67620000  0.86840000  1.0 0.1097319967
H  H34  1  0.31150000  0.17620000  0.63160000  1.0 0.1097319967
H  H35  1  0.31150000  0.32380000  0.13160000  1.0 0.1097319967
H  H36  1  0.68850000  0.82380000  0.36840000  1.0 0.1097319967
H  H37  1  0.56930000  0.65890000  0.89430000  1.0 0.1293470391
H  H38  1  0.43070000  0.15890000  0.60570000  1.0 0.1293470391
H  H39  1  0.43070000  0.34110000  0.10570000  1.0 0.1293470391
H  H40  1  0.56930000  0.84110000  0.39430000  1.0 0.1293470391
H  H41  1  0.92480000  0.87630000  0.10400000  1.0 0.1202788381
H  H42  1  0.07520000  0.37630000  0.39600000  1.0 0.1202788381
H  H43  1  0.07520000  0.12370000  0.89600000  1.0 0.1202788381
H  H44  1  0.92480000  0.62370000  0.60400000  1.0 0.1202788381
H  H45  1  0.83960000  0.81370000  0.13780000  1.0 0.1097319967
H  H46  1  0.16040000  0.31370000  0.36220000  1.0 0.1097319967
H  H47  1  0.16040000  0.18630000  0.86220000  1.0 0.1097319967
H  H48  1  0.83960000  0.68630000  0.63780000  1.0 0.1097319967
H  H49  1  0.09260000  0.70060000  0.20840000  1.0 0.1202788381
H  H50  1  0.90740000  0.20060000  0.29160000  1.0 0.1202788381
H  H51  1  0.90740000  0.29940000  0.79160000  1.0 0.1202788381
H  H52  1  0.09260000  0.79940000  0.70840000  1.0 0.1202788381
H  H53  1  0.17760000  0.76330000  0.17460000  1.0 0.1293470391
H  H54  1  0.82240000  0.26330000  0.32540000  1.0 0.1293470391
H  H55  1  0.82240000  0.23670000  0.82540000  1.0 0.1293470391
H  H56  1  0.17760000  0.73670000  0.67460000  1.0 0.1293470391
H  H57  1  0.76020000  0.72440000  0.15150000  1.0 0.1202788381
H  H58  1  0.23980000  0.22440000  0.34850000  1.0 0.1202788381
H  H59  1  0.23980000  0.27560000  0.84850000  1.0 0.1202788381
H  H60  1  0.76020000  0.77560000  0.65150000  1.0 0.1202788381
H  H61  1  0.77400000  0.60740000  0.25250000  1.0 0.1202788381
H  H62  1  0.22600000  0.10740000  0.24750000  1.0 0.1202788381
H  H63  1  0.22600000  0.39260000  0.74750000  1.0 0.1202788381
H  H64  1  0.77400000  0.89260000  0.75250000  1.0 0.1202788381
H  H65  1  0.86880000  0.54620000  0.30500000  1.0 0.1097319967
H  H66  1  0.13120000  0.04620000  0.19500000  1.0 0.1097319967
H  H67  1  0.13120000  0.45380000  0.69500000  1.0 0.1097319967
H  H68  1  0.86880000  0.95380000  0.80500000  1.0 0.1097319967
H  H69  1  0.97250000  0.50290000  0.37170000  1.0 0.1202788381
H  H70  1  0.02750000  0.00290000  0.12830000  1.0 0.1202788381
H  H71  1  0.02750000  0.49710000  0.62830000  1.0 0.1202788381
H  H72  1  0.97250000  0.99710000  0.87170000  1.0 0.1202788381
H  H73  1  0.20620000  0.61500000  0.36600000  1.0 0.1202788381
H  H74  1  0.79380000  0.11500000  0.13400000  1.0 0.1202788381
H  H75  1  0.79380000  0.38500000  0.63400000  1.0 0.1202788381
H  H76  1  0.20620000  0.88500000  0.86600000  1.0 0.1202788381
H  H77  1  0.10340000  0.65960000  0.30030000  1.0 0.1202788381
H  H78  1  0.89660000  0.15960000  0.19970000  1.0 0.1202788381
H  H79  1  0.89660000  0.34040000  0.69970000  1.0 0.1202788381
H  H80  1  0.10340000  0.84040000  0.80030000  1.0 0.1202788381
H  H81  1  0.61980000  0.57250000  0.21190000  1.0 0.1293470391
H  H82  1  0.38020000  0.07250000  0.28810000  1.0 0.1293470391
H  H83  1  0.38020000  0.42750000  0.78810000  1.0 0.1293470391
H  H84  1  0.61980000  0.92750000  0.71190000  1.0 0.1293470391
H  H85  1  0.44690000  0.57750000  0.18590000  1.0 0.1097319967
H  H86  1  0.55310000  0.07750000  0.31410000  1.0 0.1097319967
H  H87  1  0.55310000  0.42250000  0.81410000  1.0 0.1097319967
H  H88  1  0.44690000  0.92250000  0.68590000  1.0 0.1097319967
H  H89  1  0.43750000  0.75660000  0.12070000  1.0 0.1097319967
H  H90  1  0.56250000  0.25660000  0.37930000  1.0 0.1097319967
H  H91  1  0.56250000  0.24340000  0.87930000  1.0 0.1097319967
H  H92  1  0.43750000  0.74340000  0.62070000  1.0 0.1097319967
H  H93  1  0.61060000  0.75930000  0.14630000  1.0 0.1202788381
H  H94  1  0.38940000  0.25930000  0.35370000  1.0 0.1202788381
H  H95  1  0.38940000  0.24070000  0.85370000  1.0 0.1202788381
H  H96  1  0.61060000  0.74070000  0.64630000  1.0 0.1202788381
H  H97  1  0.65740000  0.95060000  0.10800000  1.0 0.1350363422
H  H98  1  0.34260000  0.45060000  0.39200000  1.0 0.1350363422
H  H99  1  0.34260000  0.04940000  0.89200000  1.0 0.1350363422
H  H100  1  0.65740000  0.54940000  0.60800000  1.0 0.1350363422
H  H101  1  0.80740000  0.93380000  0.16690000  1.0 0.1097319967
H  H102  1  0.19260000  0.43380000  0.33310000  1.0 0.1097319967
H  H103  1  0.19260000  0.06620000  0.83310000  1.0 0.1097319967
H  H104  1  0.80740000  0.56620000  0.66690000  1.0 0.1097319967
H  H105  1  0.65140000  0.88150000  0.23520000  1.0 0.1202788381
H  H106  1  0.34860000  0.38150000  0.26480000  1.0 0.1202788381
H  H107  1  0.34860000  0.11850000  0.76480000  1.0 0.1202788381
H  H108  1  0.65140000  0.61850000  0.73520000  1.0 0.1202788381
H  H109  1  0.50330000  0.90290000  0.17700000  1.0 0.1350363422
H  H110  1  0.49670000  0.40290000  0.32300000  1.0 0.1350363422
H  H111  1  0.49670000  0.09710000  0.82300000  1.0 0.1293470391
H  H112  1  0.50330000  0.59710000  0.67700000  1.0 0.1293470391
H  H113  1  0.94100000  0.93690000  0.22800000  1.0 0.1202788381
H  H114  1  0.05900000  0.43690000  0.27200000  1.0 0.1202788381
H  H115  1  0.05900000  0.06310000  0.77200000  1.0 0.1202788381
H  H116  1  0.94100000  0.56310000  0.72800000  1.0 0.1202788381
H  H117  1  0.05710000  0.81540000  0.33480000  1.0 0.1293470391
H  H118  1  0.94290000  0.31540000  0.16520000  1.0 0.1293470391
H  H119  1  0.94290000  0.18460000  0.66520000  1.0 0.1293470391
H  H120  1  0.05710000  0.68460000  0.83480000  1.0 0.1293470391
H  H121  1  0.01440000  0.77090000  0.38470000  1.0 0.1202788381
H  H122  1  0.98560000  0.27090000  0.11530000  1.0 0.1202788381
H  H123  1  0.98560000  0.22910000  0.61530000  1.0 0.1202788381
H  H124  1  0.01440000  0.72910000  0.88470000  1.0 0.1202788381
H  H125  1  0.98220000  0.67620000  0.42330000  1.0 0.1293470391
H  H126  1  0.01780000  0.17620000  0.07670000  1.0 0.1293470391
H  H127  1  0.01780000  0.32380000  0.57670000  1.0 0.1293470391
H  H128  1  0.98220000  0.82380000  0.92330000  1.0 0.1293470391
H  H129  1  0.70830000  0.64330000  0.32930000  1.0 0.1293470391
H  H130  1  0.29170000  0.14330000  0.17070000  1.0 0.1293470391
H  H131  1  0.29170000  0.35670000  0.67070000  1.0 0.1293470391
H  H132  1  0.70830000  0.85670000  0.82930000  1.0 0.1293470391
H  H133  1  0.73770000  0.74030000  0.29200000  1.0 0.1202788381
H  H134  1  0.26230000  0.24030000  0.20800000  1.0 0.1202788381
H  H135  1  0.26230000  0.25970000  0.70800000  1.0 0.1202788381
H  H136  1  0.73770000  0.75970000  0.79200000  1.0 0.1202788381
H  H137  1  0.08920000  0.89820000  0.22520000  1.0 0.1202788381
H  H138  1  0.91080000  0.39820000  0.27480000  1.0 0.1202788381
H  H139  1  0.91080000  0.10180000  0.77480000  1.0 0.1202788381
H  H140  1  0.08920000  0.60180000  0.72520000  1.0 0.1202788381
H  H141  1  0.24940000  0.92340000  0.23310000  1.0 0.1097319967
H  H142  1  0.75060000  0.42340000  0.26690000  1.0 0.1097319967
H  H143  1  0.75060000  0.07660000  0.76690000  1.0 0.1097319967
H  H144  1  0.24940000  0.57660000  0.73310000  1.0 0.1097319967
H  H145  1  0.34300000  0.93710000  0.35310000  1.0 0.0991663247
H  H146  1  0.65700000  0.43710000  0.14690000  1.0 0.0991663247
H  H147  1  0.65700000  0.06290000  0.64690000  1.0 0.0991663247
H  H148  1  0.34300000  0.56290000  0.85310000  1.0 0.0991663247
H  H149  1  0.18570000  0.90810000  0.35070000  1.0 0.1293470391
H  H150  1  0.81430000  0.40810000  0.14930000  1.0 0.1293470391
H  H151  1  0.81430000  0.09190000  0.64930000  1.0 0.1293470391
H  H152  1  0.18570000  0.59190000  0.85070000  1.0 0.1293470391
H  H153  1  0.57380000  0.13260000  0.06750000  1.0 0.0991663247
H  H154  1  0.42620000  0.63260000  0.43250000  1.0 0.0991663247
H  H155  1  0.42620000  0.86740000  0.93250000  1.0 0.0991663247
H  H156  1  0.57380000  0.36740000  0.56750000  1.0 0.0991663247
H  H157  1  0.27740000  0.06100000  0.05640000  1.0 0.3915455569
H  H158  1  0.72260000  0.56100000  0.44360000  1.0 0.3915455569
H  H159  1  0.72260000  0.93900000  0.94360000  1.0 0.3915455569
H  H160  1  0.27740000  0.43900000  0.55640000  1.0 0.3915455569
H  H161  1  0.07100000  0.91800000  0.98600000  1.0 0.399441563
H  H162  1  0.92900000  0.41800000  0.51400000  1.0 0.399441563
H  H163  1  0.92900000  0.08200000  0.01400000  1.0 0.399441563
H  H164  1  0.07100000  0.58200000  0.48600000  1.0 0.399441563
H  H165  1  0.32190000  0.82340000  0.96170000  1.0 0.1202788381
H  H166  1  0.67810000  0.32340000  0.53830000  1.0 0.1202788381
H  H167  1  0.67810000  0.17660000  0.03830000  1.0 0.1202788381
H  H168  1  0.32190000  0.67660000  0.46170000  1.0 0.1202788381
H  H169  1  0.38160000  0.72690000  0.93330000  1.0 0.1097319967
H  H170  1  0.61840000  0.22690000  0.56670000  1.0 0.1097319967
H  H171  1  0.61840000  0.27310000  0.06670000  1.0 0.1097319967
H  H172  1  0.38160000  0.77310000  0.43330000  1.0 0.1097319967
H  H173  1  0.30990000  0.57590000  0.00210000  1.0 0.1097319967
H  H174  1  0.69010000  0.07590000  0.49790000  1.0 0.1097319967
H  H175  1  0.69010000  0.42410000  0.99790000  1.0 0.1097319967
H  H176  1  0.30990000  0.92410000  0.50210000  1.0 0.1097319967
H  H177  1  0.25770000  0.67330000  0.03320000  1.0 0.1202788381
H  H178  1  0.74230000  0.17330000  0.46680000  1.0 0.1202788381
H  H179  1  0.74230000  0.32670000  0.96680000  1.0 0.1202788381
H  H180  1  0.25770000  0.82670000  0.53320000  1.0 0.1202788381
C  C1  1  0.40451000  0.58080000  0.95251000  1.0 0.2156434622
C  C2  1  0.59549000  0.08080000  0.54749000  1.0 0.2156434622
C  C3  1  0.59549000  0.41920000  0.04749000  1.0 0.2156434622
C  C4  1  0.40451000  0.91920000  0.45251000  1.0 0.2156434622
C  C5  1  0.48045000  0.59420000  0.93935000  1.0 -0.2288380398
C  C6  1  0.51955000  0.09420000  0.56065000  1.0 -0.2288380398
C  C7  1  0.51955000  0.40580000  0.06065000  1.0 -0.2288380398
C  C8  1  0.48045000  0.90580000  0.43935000  1.0 -0.2288380398
C  C9  1  0.52128000  0.53570000  0.92568000  1.0 0.1097319967
C  C10  1  0.47872000  0.03570000  0.57432000  1.0 0.1097319967
C  C11  1  0.47872000  0.46430000  0.07432000  1.0 0.1097319967
C  C12  1  0.52128000  0.96430000  0.42568000  1.0 0.1097319967
C  C13  1  0.48484000  0.46340000  0.92654000  1.0 -0.2367149811
C  C14  1  0.51516000  0.96340000  0.57346000  1.0 -0.2367149811
C  C15  1  0.51516000  0.53660000  0.07346000  1.0 -0.2367149811
C  C16  1  0.48484000  0.03660000  0.42654000  1.0 -0.2367149811
C  C17  1  0.41140000  0.45330000  0.94200000  1.0 0.2156434622
C  C18  1  0.58860000  0.95330000  0.55800000  1.0 0.2156434622
C  C19  1  0.58860000  0.54670000  0.05800000  1.0 0.2156434622
C  C20  1  0.41140000  0.04670000  0.44200000  1.0 0.2156434622
C  C21  1  0.37254000  0.37820000  0.94584000  1.0 0.0413084518
C  C22  1  0.62746000  0.87820000  0.55416000  1.0 0.0413084518
C  C23  1  0.62746000  0.62180000  0.05416000  1.0 0.0413084518
C  C24  1  0.37254000  0.12180000  0.44584000  1.0 0.0413084518
C  C25  1  0.42112000  0.31170000  0.94462000  1.0 -0.1482883362
C  C26  1  0.57888000  0.81170000  0.55538000  1.0 -0.1482883362
C  C27  1  0.57888000  0.68830000  0.05538000  1.0 -0.1482883362
C  C28  1  0.42112000  0.18830000  0.44462000  1.0 -0.1482883362
C  C29  1  0.38416000  0.24220000  0.95016000  1.0 -0.1003190131
C  C30  1  0.61584000  0.74220000  0.54984000  1.0 -0.1003190131
C  C31  1  0.61584000  0.75780000  0.04984000  1.0 -0.1003190131
C  C32  1  0.38416000  0.25780000  0.45016000  1.0 -0.1003190131
C  C33  1  0.29818000  0.23860000  0.95708000  1.0 -0.0282761078
C  C34  1  0.70182000  0.73860000  0.54292000  1.0 -0.0282761078
C  C35  1  0.70182000  0.76140000  0.04292000  1.0 -0.0282761078
C  C36  1  0.29818000  0.26140000  0.45708000  1.0 -0.0282761078
C  C37  1  0.24960000  0.30410000  0.95870000  1.0 -0.0913540107
C  C38  1  0.75040000  0.80410000  0.54130000  1.0 -0.0913540107
C  C39  1  0.75040000  0.69590000  0.04130000  1.0 -0.0913540107
C  C40  1  0.24960000  0.19590000  0.45870000  1.0 -0.0913540107
C  C41  1  0.28660000  0.37320000  0.95300000  1.0 -0.1287070107
C  C42  1  0.71340000  0.87320000  0.54700000  1.0 -0.1287070107
C  C43  1  0.71340000  0.62680000  0.04700000  1.0 -0.1287070107
C  C44  1  0.28660000  0.12680000  0.45300000  1.0 -0.1287070107
C  C45  1  0.25966000  0.16430000  0.96426000  1.0 0.6406514872
C  C46  1  0.74034000  0.66430000  0.53574000  1.0 0.6406514872
C  C47  1  0.74034000  0.83570000  0.03574000  1.0 0.6406514872
C  C48  1  0.25966000  0.33570000  0.46426000  1.0 0.6406514872
C  C49  1  0.60030000  0.54880000  0.91010000  1.0 0.1097319967
C  C50  1  0.39970000  0.04880000  0.58990000  1.0 0.1097319967
C  C51  1  0.39970000  0.45120000  0.08990000  1.0 0.1097319967
C  C52  1  0.60030000  0.95120000  0.41010000  1.0 0.1097319967
C  C53  1  0.66666667  0.49250000  0.91030000  1.0 -0.1992155272
C  C54  1  0.33333333  0.99250000  0.58970000  1.0 -0.1992155272
C  C55  1  0.33333333  0.50750000  0.08970000  1.0 -0.1992155272
C  C56  1  0.66666667  0.00750000  0.41030000  1.0 -0.1992155272
C  C57  1  0.73670000  0.50750000  0.89460000  1.0 0.0826415703
C  C58  1  0.26330000  0.00750000  0.60540000  1.0 0.0826415703
C  C59  1  0.26330000  0.49250000  0.10540000  1.0 0.0826415703
C  C60  1  0.73670000  0.99250000  0.39460000  1.0 0.0826415703
C  C61  1  0.68330000  0.62820000  0.87920000  1.0 0.0682117893
C  C62  1  0.31670000  0.12820000  0.62080000  1.0 0.0682117893
C  C63  1  0.31670000  0.37180000  0.12080000  1.0 0.0682117893
C  C64  1  0.68330000  0.87180000  0.37920000  1.0 0.0682117893
C  C65  1  0.61150000  0.61820000  0.89450000  1.0 -0.1992155272
C  C66  1  0.38850000  0.11820000  0.60550000  1.0 -0.1992155272
C  C67  1  0.38850000  0.38180000  0.10550000  1.0 -0.1992155272
C  C68  1  0.61150000  0.88180000  0.39450000  1.0 -0.1992155272
C  C69  1  0.11277000  0.86570000  0.11367000  1.0 0.6078407992
C  C70  1  0.88723000  0.36570000  0.38633000  1.0 0.6078407992
C  C71  1  0.88723000  0.13430000  0.88633000  1.0 0.6078407992
C  C72  1  0.11277000  0.63430000  0.61367000  1.0 0.6078407992
C  C73  1  0.05931000  0.82520000  0.13611000  1.0 -0.0203743796
C  C74  1  0.94069000  0.32520000  0.36389000  1.0 -0.0203743796
C  C75  1  0.94069000  0.17480000  0.86389000  1.0 -0.0203743796
C  C76  1  0.05931000  0.67480000  0.63611000  1.0 -0.0203743796
C  C77  1  0.95885000  0.84030000  0.12515000  1.0 -0.1003190131
C  C78  1  0.04115000  0.34030000  0.37485000  1.0 -0.1003190131
C  C79  1  0.04115000  0.15970000  0.87485000  1.0 -0.1003190131
C  C80  1  0.95885000  0.65970000  0.62515000  1.0 -0.1003190131
C  C81  1  0.90816000  0.80260000  0.14516000  1.0 -0.1482883362
C  C82  1  0.09184000  0.30260000  0.35484000  1.0 -0.1482883362
C  C83  1  0.09184000  0.19740000  0.85484000  1.0 -0.1482883362
C  C84  1  0.90816000  0.69740000  0.64516000  1.0 -0.1482883362
C  C85  1  0.95580000  0.74910000  0.17570000  1.0 0.0493041647
C  C86  1  0.04420000  0.24910000  0.32430000  1.0 0.0493041647
C  C87  1  0.04420000  0.25090000  0.82430000  1.0 0.0493041647
C  C88  1  0.95580000  0.75090000  0.67570000  1.0 0.0493041647
C  C89  1  0.05780000  0.73580000  0.18690000  1.0 -0.1287070107
C  C90  1  0.94220000  0.23580000  0.31310000  1.0 -0.1287070107
C  C91  1  0.94220000  0.26420000  0.81310000  1.0 -0.1287070107
C  C92  1  0.05780000  0.76420000  0.68690000  1.0 -0.1287070107
C  C93  1  0.10854000  0.77330000  0.16694000  1.0 -0.1003190131
C  C94  1  0.89146000  0.27330000  0.33306000  1.0 -0.1003190131
C  C95  1  0.89146000  0.22670000  0.83306000  1.0 -0.1003190131
C  C96  1  0.10854000  0.72670000  0.66694000  1.0 -0.1003190131
C  C97  1  0.90043000  0.70790000  0.19663000  1.0 0.2118161399
C  C98  1  0.09957000  0.20790000  0.30337000  1.0 0.2118161399
C  C99  1  0.09957000  0.29210000  0.80337000  1.0 0.2118161399
C  C100  1  0.90043000  0.79210000  0.69663000  1.0 0.2118161399
C  C101  1  0.79713000  0.70300000  0.17833000  1.0 -0.2216676097
C  C102  1  0.20287000  0.20300000  0.32167000  1.0 -0.2216676097
C  C103  1  0.20287000  0.29700000  0.82167000  1.0 -0.2216676097
C  C104  1  0.79713000  0.79700000  0.67833000  1.0 -0.2216676097
C  C105  1  0.74739000  0.66680000  0.19939000  1.0 0.1202788381
C  C106  1  0.25261000  0.16680000  0.30061000  1.0 0.1202788381
C  C107  1  0.25261000  0.33320000  0.80061000  1.0 0.1202788381
C  C108  1  0.74739000  0.83320000  0.69939000  1.0 0.1202788381
C  C109  1  0.80508000  0.63370000  0.23748000  1.0 -0.2216676097
C  C110  1  0.19492000  0.13370000  0.26252000  1.0 -0.2216676097
C  C111  1  0.19492000  0.36630000  0.76252000  1.0 -0.2216676097
C  C112  1  0.80508000  0.86630000  0.73748000  1.0 -0.2216676097
C  C113  1  0.90915000  0.63910000  0.25365000  1.0 0.2156434622
C  C114  1  0.09085000  0.13910000  0.24635000  1.0 0.2156434622
C  C115  1  0.09085000  0.36090000  0.74635000  1.0 0.2156434622
C  C116  1  0.90915000  0.86090000  0.75365000  1.0 0.2156434622
C  C117  1  0.97540000  0.60740000  0.29550000  1.0 0.0493041647
C  C118  1  0.02460000  0.10740000  0.20450000  1.0 0.0493041647
C  C119  1  0.02460000  0.39260000  0.70450000  1.0 0.0493041647
C  C120  1  0.97540000  0.89260000  0.79550000  1.0 0.0493041647
C  C121  1  0.93724000  0.56070000  0.31734000  1.0 -0.1427416872
C  C122  1  0.06276000  0.06070000  0.18266000  1.0 -0.1427416872
C  C123  1  0.06276000  0.43930000  0.68266000  1.0 -0.1427416872
C  C124  1  0.93724000  0.93930000  0.81734000  1.0 -0.1427416872
C  C125  1  0.99931000  0.53520000  0.35731000  1.0 -0.0913540107
C  C126  1  0.00069000  0.03520000  0.14269000  1.0 -0.0913540107
C  C127  1  0.00069000  0.46480000  0.64269000  1.0 -0.0913540107
C  C128  1  0.99931000  0.96480000  0.85731000  1.0 -0.0913540107
C  C129  1  0.09850000  0.55600000  0.37620000  1.0 -0.0370649398
C  C130  1  0.90150000  0.05600000  0.12380000  1.0 -0.0370649398
C  C131  1  0.90150000  0.44400000  0.62380000  1.0 -0.0370649398
C  C132  1  0.09850000  0.94400000  0.87620000  1.0 -0.0370649398
C  C133  1  0.13731000  0.60170000  0.35391000  1.0 -0.1003190131
C  C134  1  0.86269000  0.10170000  0.14609000  1.0 -0.1003190131
C  C135  1  0.86269000  0.39830000  0.64609000  1.0 -0.1003190131
C  C136  1  0.13731000  0.89830000  0.85391000  1.0 -0.1003190131
C  C137  1  0.07629000  0.62750000  0.31469000  1.0 -0.1287070107
C  C138  1  0.92371000  0.12750000  0.18531000  1.0 -0.1287070107
C  C139  1  0.92371000  0.37250000  0.68531000  1.0 -0.1287070107
C  C140  1  0.07629000  0.87250000  0.81469000  1.0 -0.1287070107
C  C141  1  0.16426000  0.53160000  0.41936000  1.0 0.6406514872
C  C142  1  0.83574000  0.03160000  0.08064000  1.0 0.6406514872
C  C143  1  0.83574000  0.46840000  0.58064000  1.0 0.6406514872
C  C144  1  0.16426000  0.96840000  0.91936000  1.0 0.6406514872
C  C145  1  0.63637000  0.66650000  0.18207000  1.0 0.1097319967
C  C146  1  0.36363000  0.16650000  0.31793000  1.0 0.1097319967
C  C147  1  0.36363000  0.33350000  0.81793000  1.0 0.1097319967
C  C148  1  0.63637000  0.83350000  0.68207000  1.0 0.1097319967
C  C149  1  0.58450000  0.61190000  0.19340000  1.0 -0.1992155272
C  C150  1  0.41550000  0.11190000  0.30660000  1.0 -0.1992155272
C  C151  1  0.41550000  0.38810000  0.80660000  1.0 -0.1992155272
C  C152  1  0.58450000  0.88810000  0.69340000  1.0 -0.1992155272
C  C153  1  0.48090000  0.61510000  0.17750000  1.0 0.0682117893
C  C154  1  0.51910000  0.11510000  0.32250000  1.0 0.0682117893
C  C155  1  0.51910000  0.38490000  0.82250000  1.0 0.0682117893
C  C156  1  0.48090000  0.88490000  0.67750000  1.0 0.0682117893
C  C157  1  0.47500000  0.71880000  0.14000000  1.0 0.0927693475
C  C158  1  0.52500000  0.21880000  0.36000000  1.0 0.0927693475
C  C159  1  0.52500000  0.28120000  0.86000000  1.0 0.0927693475
C  C160  1  0.47500000  0.78120000  0.64000000  1.0 0.0927693475
C  C161  1  0.57909000  0.72030000  0.15499000  1.0 -0.1992155272
C  C162  1  0.42091000  0.22030000  0.34501000  1.0 -0.1992155272
C  C163  1  0.42091000  0.27970000  0.84501000  1.0 -0.1992155272
C  C164  1  0.57909000  0.77970000  0.65499000  1.0 -0.1992155272
C  C165  1  0.46784000  0.93380000  0.09884000  1.0 0.6406514872
C  C166  1  0.53216000  0.43380000  0.40116000  1.0 0.6406514872
C  C167  1  0.53216000  0.06620000  0.90116000  1.0 0.6406514872
C  C168  1  0.46784000  0.56620000  0.59884000  1.0 0.6406514872
C  C169  1  0.56559000  0.92630000  0.13679000  1.0 -0.0282761078
C  C170  1  0.43441000  0.42630000  0.36321000  1.0 -0.0282761078
C  C171  1  0.43441000  0.07370000  0.86321000  1.0 -0.0282761078
C  C172  1  0.56559000  0.57370000  0.63679000  1.0 -0.0282761078
C  C173  1  0.65630000  0.93650000  0.13390000  1.0 -0.0913540107
C  C174  1  0.34370000  0.43650000  0.36610000  1.0 -0.0913540107
C  C175  1  0.34370000  0.06350000  0.86610000  1.0 -0.0913540107
C  C176  1  0.65630000  0.56350000  0.63390000  1.0 -0.0913540107
C  C177  1  0.74538000  0.92600000  0.16888000  1.0 -0.1482883362
C  C178  1  0.25462000  0.42600000  0.33112000  1.0 -0.1482883362
C  C179  1  0.25462000  0.07400000  0.83112000  1.0 -0.1482883362
C  C180  1  0.74538000  0.57400000  0.66888000  1.0 -0.1482883362
C  C181  1  0.74488000  0.90410000  0.20698000  1.0 0.0493041647
C  C182  1  0.25512000  0.40410000  0.29302000  1.0 0.0493041647
C  C183  1  0.25512000  0.09590000  0.79302000  1.0 0.0493041647
C  C184  1  0.74488000  0.59590000  0.70698000  1.0 0.0493041647
C  C185  1  0.65338000  0.89560000  0.20948000  1.0 -0.1287070107
C  C186  1  0.34662000  0.39560000  0.29052000  1.0 -0.1287070107
C  C187  1  0.34662000  0.10440000  0.79052000  1.0 -0.1287070107
C  C188  1  0.65338000  0.60440000  0.70948000  1.0 -0.1287070107
C  C189  1  0.56553000  0.90760000  0.17473000  1.0 -0.1003190131
C  C190  1  0.43447000  0.40760000  0.32527000  1.0 -0.1003190131
C  C191  1  0.43447000  0.09240000  0.82527000  1.0 -0.1003190131
C  C192  1  0.56553000  0.59240000  0.67473000  1.0 -0.1003190131
C  C193  1  0.83880000  0.88380000  0.24380000  1.0 0.2118161399
C  C194  1  0.16120000  0.38380000  0.25620000  1.0 0.2118161399
C  C195  1  0.16120000  0.11620000  0.75620000  1.0 0.2118161399
C  C196  1  0.83880000  0.61620000  0.74380000  1.0 0.2118161399
C  C197  1  0.93295000  0.90520000  0.24825000  1.0 -0.2288380398
C  C198  1  0.06705000  0.40520000  0.25175000  1.0 -0.2288380398
C  C199  1  0.06705000  0.09480000  0.75175000  1.0 -0.2288380398
C  C200  1  0.93295000  0.59480000  0.74825000  1.0 -0.2288380398
C  C201  1  0.01631000  0.87990000  0.28271000  1.0 0.1202788381
C  C202  1  0.98369000  0.37990000  0.21729000  1.0 0.1202788381
C  C203  1  0.98369000  0.12010000  0.71729000  1.0 0.1202788381
C  C204  1  0.01631000  0.62010000  0.78271000  1.0 0.1202788381
C  C205  1  0.00140000  0.83390000  0.31120000  1.0 -0.2288380398
C  C206  1  0.99860000  0.33390000  0.18880000  1.0 -0.2288380398
C  C207  1  0.99860000  0.16610000  0.68880000  1.0 -0.2288380398
C  C208  1  0.00140000  0.66610000  0.81120000  1.0 -0.2288380398
C  C209  1  0.90405000  0.81460000  0.30515000  1.0 0.2156434622
C  C210  1  0.09595000  0.31460000  0.19485000  1.0 0.2156434622
C  C211  1  0.09595000  0.18540000  0.69485000  1.0 0.2156434622
C  C212  1  0.90405000  0.68540000  0.80515000  1.0 0.2156434622
C  C213  1  0.88211000  0.76250000  0.33351000  1.0 0.0493041647
C  C214  1  0.11789000  0.26250000  0.16649000  1.0 0.0493041647
C  C215  1  0.11789000  0.23750000  0.66649000  1.0 0.0493041647
C  C216  1  0.88211000  0.73750000  0.83351000  1.0 0.0493041647
C  C217  1  0.95256000  0.74440000  0.37316000  1.0 -0.1427416872
C  C218  1  0.04744000  0.24440000  0.12684000  1.0 -0.1427416872
C  C219  1  0.04744000  0.25560000  0.62684000  1.0 -0.1427416872
C  C220  1  0.95256000  0.75560000  0.87316000  1.0 -0.1427416872
C  C221  1  0.93347000  0.68800000  0.39607000  1.0 -0.0788198184
C  C222  1  0.06653000  0.18800000  0.10393000  1.0 -0.0788198184
C  C223  1  0.06653000  0.31200000  0.60393000  1.0 -0.0788198184
C  C224  1  0.93347000  0.81200000  0.89607000  1.0 -0.0788198184
C  C225  1  0.84399000  0.64860000  0.37969000  1.0 -0.0370649398
C  C226  1  0.15601000  0.14860000  0.12031000  1.0 -0.0370649398
C  C227  1  0.15601000  0.35140000  0.62031000  1.0 -0.0370649398
C  C228  1  0.84399000  0.85140000  0.87969000  1.0 -0.0370649398
C  C229  1  0.77079000  0.66890000  0.34049000  1.0 -0.1003190131
C  C230  1  0.22921000  0.16890000  0.15951000  1.0 -0.1003190131
C  C231  1  0.22921000  0.33110000  0.65951000  1.0 -0.1003190131
C  C232  1  0.77079000  0.83110000  0.84049000  1.0 -0.1003190131
C  C233  1  0.78862000  0.72560000  0.31812000  1.0 -0.1427416872
C  C234  1  0.21138000  0.22560000  0.18188000  1.0 -0.1427416872
C  C235  1  0.21138000  0.27440000  0.68188000  1.0 -0.1427416872
C  C236  1  0.78862000  0.77440000  0.81812000  1.0 -0.1427416872
C  C237  1  0.82767000  0.58100000  0.40067000  1.0 0.6078407992
C  C238  1  0.17233000  0.08100000  0.09933000  1.0 0.6078407992
C  C239  1  0.17233000  0.41900000  0.59933000  1.0 0.6078407992
C  C240  1  0.82767000  0.91900000  0.90067000  1.0 0.6078407992
C  C241  1  0.11830000  0.89850000  0.28700000  1.0 0.1097319967
C  C242  1  0.88170000  0.39850000  0.21300000  1.0 0.1097319967
C  C243  1  0.88170000  0.10150000  0.71300000  1.0 0.1097319967
C  C244  1  0.11830000  0.60150000  0.78700000  1.0 0.1097319967
C  C245  1  0.14050000  0.90500000  0.25250000  1.0 -0.1943897601
C  C246  1  0.85950000  0.40500000  0.24750000  1.0 -0.1943897601
C  C247  1  0.85950000  0.09500000  0.74750000  1.0 -0.1943897601
C  C248  1  0.14050000  0.59500000  0.75250000  1.0 -0.1943897601
C  C249  1  0.23650000  0.92120000  0.25750000  1.0 0.0682117893
C  C250  1  0.76350000  0.42120000  0.24250000  1.0 0.0682117893
C  C251  1  0.76350000  0.07880000  0.74250000  1.0 0.0682117893
C  C252  1  0.23650000  0.57880000  0.75750000  1.0 0.0682117893
C  C253  1  0.29010000  0.92850000  0.32640000  1.0 0.0826415703
C  C254  1  0.70990000  0.42850000  0.17360000  1.0 0.0826415703
C  C255  1  0.70990000  0.07150000  0.67360000  1.0 0.0826415703
C  C256  1  0.29010000  0.57150000  0.82640000  1.0 0.0826415703
C  C257  1  0.19580000  0.91110000  0.32570000  1.0 -0.20799721
C  C258  1  0.80420000  0.41110000  0.17430000  1.0 -0.20799721
C  C259  1  0.80420000  0.08890000  0.67430000  1.0 -0.20799721
C  C260  1  0.19580000  0.58890000  0.82570000  1.0 -0.20799721
C  C261  1  0.51792000  0.10420000  0.04912000  1.0 0.5026350547
C  C262  1  0.48208000  0.60420000  0.45088000  1.0 0.5026350547
C  C263  1  0.48208000  0.89580000  0.95088000  1.0 0.5026350547
C  C264  1  0.51792000  0.39580000  0.54912000  1.0 0.5026350547
C  C265  1  0.00740000  0.60830000  0.03500000  1.0 -0.1287070107
C  C266  1  0.99260000  0.10830000  0.46500000  1.0 -0.1287070107
C  C267  1  0.99260000  0.39170000  0.96500000  1.0 -0.1287070107
C  C268  1  0.00740000  0.89170000  0.53500000  1.0 -0.1287070107
C  C269  1  0.90350000  0.66030000  0.96480000  1.0 0.0493041647
C  C270  1  0.09650000  0.16030000  0.53520000  1.0 0.0493041647
C  C271  1  0.09650000  0.33970000  0.03520000  1.0 0.0493041647
C  C272  1  0.90350000  0.83970000  0.46480000  1.0 0.0493041647
C  C273  1  0.99140000  0.74460000  0.02060000  1.0 0.2332982164
C  C274  1  0.00860000  0.24460000  0.47940000  1.0 0.2332982164
C  C275  1  0.00860000  0.25540000  0.97940000  1.0 0.2332982164
C  C276  1  0.99140000  0.75540000  0.52060000  1.0 0.2332982164
C  C277  1  0.26009000  0.82100000  0.02239000  1.0 0.6165321101
C  C278  1  0.73991000  0.32100000  0.47761000  1.0 0.6165321101
C  C279  1  0.73991000  0.17900000  0.97761000  1.0 0.6165321101
C  C280  1  0.26009000  0.67900000  0.52239000  1.0 0.6165321101
C  C281  1  0.28822000  0.75840000  0.00142000  1.0 -0.0203743796
C  C282  1  0.71178000  0.25840000  0.49858000  1.0 -0.0203743796
C  C283  1  0.71178000  0.24160000  0.99858000  1.0 -0.0203743796
C  C284  1  0.28822000  0.74160000  0.50142000  1.0 -0.0203743796
C  C285  1  0.32250000  0.77320000  0.97110000  1.0 -0.1003190131
C  C286  1  0.67750000  0.27320000  0.52890000  1.0 -0.1003190131
C  C287  1  0.67750000  0.22680000  0.02890000  1.0 -0.1003190131
C  C288  1  0.32250000  0.72680000  0.47110000  1.0 -0.1003190131
C  C289  1  0.35800000  0.71570000  0.95410000  1.0 -0.1482883362
C  C290  1  0.64200000  0.21570000  0.54590000  1.0 -0.1482883362
C  C291  1  0.64200000  0.28430000  0.04590000  1.0 -0.1482883362
C  C292  1  0.35800000  0.78430000  0.45410000  1.0 -0.1482883362
C  C293  1  0.35945000  0.64220000  0.96725000  1.0 0.0493041647
C  C294  1  0.64055000  0.14220000  0.53275000  1.0 0.0493041647
C  C295  1  0.64055000  0.35780000  0.03275000  1.0 0.0493041647
C  C296  1  0.35945000  0.85780000  0.46725000  1.0 0.0493041647
C  C297  1  0.31650000  0.62670000  0.99510000  1.0 -0.1427416872
C  C298  1  0.68350000  0.12670000  0.50490000  1.0 -0.1427416872
C  C299  1  0.68350000  0.37330000  0.00490000  1.0 -0.1427416872
C  C300  1  0.31650000  0.87330000  0.49510000  1.0 -0.1427416872
C  C301  1  0.28340000  0.68450000  0.01300000  1.0 -0.0913540107
C  C302  1  0.71660000  0.18450000  0.48700000  1.0 -0.0913540107
C  C303  1  0.71660000  0.31550000  0.98700000  1.0 -0.0913540107
C  C304  1  0.28340000  0.81550000  0.51300000  1.0 -0.0913540107
N  N1  1  0.74720000  0.57330000  0.87890000  1.0 -0.2527323324
N  N2  1  0.25280000  0.07330000  0.62110000  1.0 -0.2527323324
N  N3  1  0.25280000  0.42670000  0.12110000  1.0 -0.2527323324
N  N4  1  0.74720000  0.92670000  0.37890000  1.0 -0.2527323324
N  N5  1  0.37165000  0.51160000  0.95425000  1.0 -0.3098230731
N  N6  1  0.62835000  0.01160000  0.54575000  1.0 -0.3098230731
N  N7  1  0.62835000  0.48840000  0.04575000  1.0 -0.3098230731
N  N8  1  0.37165000  0.98840000  0.45425000  1.0 -0.3098230731
N  N9  1  0.42670000  0.66830000  0.15110000  1.0 -0.2527323324
N  N10  1  0.57330000  0.16830000  0.34890000  1.0 -0.2527323324
N  N11  1  0.57330000  0.33170000  0.84890000  1.0 -0.2527323324
N  N12  1  0.42670000  0.83170000  0.65110000  1.0 -0.2527323324
N  N13  1  0.95694000  0.67580000  0.23374000  1.0 -0.3297334161
N  N14  1  0.04306000  0.17580000  0.26626000  1.0 -0.3297334161
N  N15  1  0.04306000  0.32420000  0.76626000  1.0 -0.3297334161
N  N16  1  0.95694000  0.82420000  0.73374000  1.0 -0.3297334161
N  N17  1  0.31230000  0.93390000  0.29420000  1.0 -0.2669820856
N  N18  1  0.68770000  0.43390000  0.20580000  1.0 -0.2669820856
N  N19  1  0.68770000  0.06610000  0.70580000  1.0 -0.2669820856
N  N20  1  0.31230000  0.56610000  0.79420000  1.0 -0.2669820856
N  N21  1  0.82426000  0.83950000  0.27186000  1.0 -0.3297334161
N  N22  1  0.17574000  0.33950000  0.22814000  1.0 -0.3297334161
N  N23  1  0.17574000  0.16050000  0.72814000  1.0 -0.3297334161
N  N24  1  0.82426000  0.66050000  0.77186000  1.0 -0.3297334161
N  N25  1  0.97540000  0.67540000  0.00500000  1.0 -0.1003190131
N  N26  1  0.02460000  0.17540000  0.49500000  1.0 -0.1003190131
N  N27  1  0.02460000  0.32460000  0.99500000  1.0 -0.1003190131
N  N28  1  0.97540000  0.82460000  0.50500000  1.0 -0.1003190131
O  O1  1  0.96489000  0.80200000  0.99889000  1.0 -0.573183484
O  O2  1  0.03511000  0.30200000  0.50111000  1.0 -0.573183484
O  O3  1  0.03511000  0.19800000  0.00111000  1.0 -0.573183484
O  O4  1  0.96489000  0.69800000  0.49889000  1.0 -0.573183484
O  O5  1  0.30658000  0.10669000  0.96238000  1.0 -0.6535161561
O  O6  1  0.69342000  0.60669000  0.53762000  1.0 -0.6535161561
O  O7  1  0.69342000  0.89331000  0.03762000  1.0 -0.6535161561
O  O8  1  0.30658000  0.39331000  0.46238000  1.0 -0.6535161561
O  O9  1  0.18307000  0.16432000  0.97187000  1.0 -0.658181883
O  O10  1  0.81693000  0.66432000  0.52813000  1.0 -0.6535161561
O  O11  1  0.81693000  0.83568000  0.02813000  1.0 -0.6535161561
O  O12  1  0.18307000  0.33568000  0.47187000  1.0 -0.6535161561
O  O13  1  0.06115000  0.89907000  0.07915000  1.0 -0.7359617721
O  O14  1  0.93885000  0.39907000  0.42085000  1.0 -0.7359617721
O  O15  1  0.93885000  0.10093000  0.92085000  1.0 -0.7359617721
O  O16  1  0.06115000  0.60093000  0.57915000  1.0 -0.7359617721
O  O17  1  0.20657000  0.86650000  0.12837000  1.0 -0.5809414756
O  O18  1  0.79343000  0.36650000  0.37163000  1.0 -0.5809414756
O  O19  1  0.79343000  0.13350000  0.87163000  1.0 -0.5809414756
O  O20  1  0.20657000  0.63350000  0.62837000  1.0 -0.5809414756
O  O21  1  0.25654000  0.54672000  0.43344000  1.0 -0.658181883
O  O22  1  0.74346000  0.04672000  0.06656000  1.0 -0.658181883
O  O23  1  0.74346000  0.45328000  0.56656000  1.0 -0.658181883
O  O24  1  0.25654000  0.95328000  0.93344000  1.0 -0.658181883
O  O25  1  0.12475000  0.49743000  0.44055000  1.0 -0.6927110326
O  O26  1  0.87525000  0.99743000  0.05945000  1.0 -0.6927110326
O  O27  1  0.87525000  0.50257000  0.55945000  1.0 -0.6927110326
O  O28  1  0.12475000  0.00257000  0.94055000  1.0 -0.6927110326
O  O29  1  0.47243000  0.94440000  0.06423000  1.0 -0.6651778143
O  O30  1  0.52757000  0.44440000  0.43577000  1.0 -0.6651778143
O  O31  1  0.52757000  0.05560000  0.93577000  1.0 -0.6651778143
O  O32  1  0.47243000  0.55560000  0.56423000  1.0 -0.6651778143
O  O33  1  0.38883000  0.92720000  0.10423000  1.0 -0.6535161561
O  O34  1  0.61117000  0.42720000  0.39577000  1.0 -0.6535161561
O  O35  1  0.61117000  0.07280000  0.89577000  1.0 -0.6535161561
O  O36  1  0.38883000  0.57280000  0.60423000  1.0 -0.6535161561
O  O37  1  0.75600000  0.53770000  0.38100000  1.0 -0.603053398
O  O38  1  0.24400000  0.03770000  0.11900000  1.0 -0.603053398
O  O39  1  0.24400000  0.46230000  0.61900000  1.0 -0.603053398
O  O40  1  0.75600000  0.96230000  0.88100000  1.0 -0.603053398
O  O41  1  0.88970000  0.56562000  0.43810000  1.0 -0.7131784033
O  O42  1  0.11030000  0.06562000  0.06190000  1.0 -0.7131784033
O  O43  1  0.11030000  0.43438000  0.56190000  1.0 -0.7131784033
O  O44  1  0.88970000  0.93438000  0.93810000  1.0 -0.7131784033
O  O45  1  0.52677000  0.06646000  0.02047000  1.0 -0.6824353855
O  O46  1  0.47323000  0.56646000  0.47953000  1.0 -0.6824353855
O  O47  1  0.47323000  0.93354000  0.97953000  1.0 -0.6824353855
O  O48  1  0.52677000  0.43354000  0.52047000  1.0 -0.6824353855
O  O49  1  0.44001000  0.10580000  0.05431000  1.0 -0.5227108371
O  O50  1  0.55999000  0.60580000  0.44569000  1.0 -0.5227108371
O  O51  1  0.55999000  0.89420000  0.94569000  1.0 -0.5227108371
O  O52  1  0.44001000  0.39420000  0.55431000  1.0 -0.5227108371
O  O53  1  0.25250000  0.03735000  0.03220000  1.0 -1.1927711736
O  O54  1  0.74750000  0.53735000  0.46780000  1.0 -1.1927711736
O  O55  1  0.74750000  0.96265000  0.96780000  1.0 -1.1927711736
O  O56  1  0.25250000  0.46265000  0.53220000  1.0 -1.1927711736
O  O57  1  0.07420000  0.94659000  0.00600000  1.0 -1.1442762684
O  O58  1  0.92580000  0.44659000  0.49400000  1.0 -1.1442762684
O  O59  1  0.92580000  0.05341000  0.99400000  1.0 -1.1442762684
O  O60  1  0.07420000  0.55341000  0.50600000  1.0 -1.1442762684
O  O61  1  0.27073000  0.88857000  0.01343000  1.0 -0.7014062177
O  O62  1  0.72927000  0.38857000  0.48657000  1.0 -0.7014062177
O  O63  1  0.72927000  0.11143000  0.98657000  1.0 -0.7014062177
O  O64  1  0.27073000  0.61143000  0.51343000  1.0 -0.7014062177
O  O65  1  0.22577000  0.80730000  0.04957000  1.0 -0.603053398
O  O66  1  0.77423000  0.30730000  0.45043000  1.0 -0.603053398
O  O67  1  0.77423000  0.19270000  0.95043000  1.0 -0.603053398
O  O68  1  0.22577000  0.69270000  0.54957000  1.0 -0.603053398
