# DDEC6 charges by PACMAN v1.1 (https://github.com/mtap-research/PACMAN-charge/)
data_LOSBOM_FSR_pacman
_symmetry_space_group_name_H-M   'P 1'
_cell_length_a   11.06400000
_cell_length_b   15.95700000
_cell_length_c   23.36200000
_cell_angle_alpha   90.00000000
_cell_angle_beta   92.26500000
_cell_angle_gamma   90.00000000
_symmetry_Int_Tables_number   1
_chemical_formula_structural   Mg2H37C36(NO4)4
_chemical_formula_sum   'Mg8 H148 C144 N16 O64'
_cell_volume   4121.29778034
_cell_formula_units_Z   4
loop_
 _symmetry_equiv_pos_site_id
 _symmetry_equiv_pos_as_xyz
  1  'x, y, z'
loop_
 _atom_site_type_symbol
 _atom_site_label
 _atom_site_symmetry_multiplicity
 _atom_site_fract_x
 _atom_site_fract_y
 _atom_site_fract_z
 _atom_site_occupancy
 _atom_site_charge
Mg  Mg1  1  0.35870000  0.65324000  0.75929000  1.0 1.134834809
Mg  Mg2  1  0.64130000  0.15324000  0.74071000  1.0 1.134834809
Mg  Mg3  1  0.64130000  0.34676000  0.24071000  1.0 1.134834809
Mg  Mg4  1  0.35870000  0.84676000  0.25929000  1.0 1.1355907151
Mg  Mg5  1  0.55275000  0.51090000  0.83946000  1.0 1.3407712409
Mg  Mg6  1  0.44725000  0.01090000  0.66054000  1.0 1.3407712409
Mg  Mg7  1  0.44725000  0.48910000  0.16054000  1.0 1.3407712409
Mg  Mg8  1  0.55275000  0.98910000  0.33946000  1.0 1.3407712409
H  H1  1  0.57640000  0.79600000  0.75110000  1.0 0.1203226562
H  H2  1  0.42360000  0.29600000  0.74890000  1.0 0.1203226562
H  H3  1  0.42360000  0.20400000  0.24890000  1.0 0.1203226562
H  H4  1  0.57640000  0.70400000  0.25110000  1.0 0.1203226562
H  H5  1  0.79590000  0.96550000  0.82920000  1.0 0.1203226562
H  H6  1  0.20410000  0.46550000  0.67080000  1.0 0.1203226562
H  H7  1  0.20410000  0.03450000  0.17080000  1.0 0.1203226562
H  H8  1  0.79590000  0.53450000  0.32920000  1.0 0.1203226562
H  H9  1  0.78140000  0.73130000  0.88940000  1.0 0.1203226562
H  H10  1  0.21860000  0.23130000  0.61060000  1.0 0.1203226562
H  H11  1  0.21860000  0.26870000  0.11060000  1.0 0.1203226562
H  H12  1  0.78140000  0.76870000  0.38940000  1.0 0.1203226562
H  H13  1  0.98410000  0.76090000  0.90440000  1.0 0.1203226562
H  H14  1  0.01590000  0.26090000  0.59560000  1.0 0.1203226562
H  H15  1  0.01590000  0.23910000  0.09560000  1.0 0.1203226562
H  H16  1  0.98410000  0.73910000  0.40440000  1.0 0.1203226562
H  H17  1  0.73510000  0.99480000  0.91680000  1.0 0.1203226562
H  H18  1  0.26490000  0.49480000  0.58320000  1.0 0.1203226562
H  H19  1  0.26490000  0.00520000  0.08320000  1.0 0.1203226562
H  H20  1  0.73510000  0.50520000  0.41680000  1.0 0.1203226562
H  H21  1  0.74440000  0.11660000  0.96480000  1.0 0.1203226562
H  H22  1  0.25560000  0.61660000  0.53520000  1.0 0.1203226562
H  H23  1  0.25560000  0.88340000  0.03520000  1.0 0.1203226562
H  H24  1  0.74440000  0.38340000  0.46480000  1.0 0.1203226562
H  H25  1  0.16470000  0.74930000  0.06220000  1.0 0.1089460088
H  H26  1  0.83530000  0.24930000  0.43780000  1.0 0.1089460088
H  H27  1  0.83530000  0.25070000  0.93780000  1.0 0.1089460088
H  H28  1  0.16470000  0.75070000  0.56220000  1.0 0.1089460088
H  H29  1  0.38140000  0.57580000  0.99660000  1.0 0.1361734697
H  H30  1  0.61860000  0.07580000  0.50340000  1.0 0.1361734697
H  H31  1  0.61860000  0.42420000  0.00340000  1.0 0.1361734697
H  H32  1  0.38140000  0.92420000  0.49660000  1.0 0.1361734697
H  H33  1  0.19280000  0.73110000  0.89250000  1.0 0.1089460088
H  H34  1  0.80720000  0.23110000  0.60750000  1.0 0.1089460088
H  H35  1  0.80720000  0.26890000  0.10750000  1.0 0.1089460088
H  H36  1  0.19280000  0.76890000  0.39250000  1.0 0.1089460088
H  H37  1  0.14390000  0.63320000  0.67890000  1.0 0.1660249808
H  H38  1  0.85610000  0.13320000  0.82110000  1.0 0.1648732552
H  H39  1  0.85610000  0.36680000  0.32110000  1.0 0.1648732552
H  H40  1  0.14390000  0.86680000  0.17890000  1.0 0.1660249808
H  H41  1  0.93950000  0.72540000  0.76150000  1.0 0.0799154909
H  H42  1  0.06050000  0.22540000  0.73850000  1.0 0.0799154909
H  H43  1  0.06050000  0.27460000  0.23850000  1.0 0.0799154909
H  H44  1  0.93950000  0.77460000  0.26150000  1.0 0.0799154909
H  H45  1  0.87000000  0.74780000  0.70380000  1.0 0.0603362283
H  H46  1  0.13000000  0.24780000  0.79620000  1.0 0.0603362283
H  H47  1  0.13000000  0.25220000  0.29620000  1.0 0.0603362283
H  H48  1  0.87000000  0.75220000  0.20380000  1.0 0.0603362283
H  H49  1  0.84520000  0.66230000  0.73420000  1.0 0.070461139
H  H50  1  0.15480000  0.16230000  0.76580000  1.0 0.070461139
H  H51  1  0.15480000  0.33770000  0.26580000  1.0 0.070461139
H  H52  1  0.84520000  0.83770000  0.23420000  1.0 0.070461139
H  H53  1  0.01000000  0.60840000  0.62120000  1.0 0.0799154909
H  H54  1  0.99000000  0.10840000  0.87880000  1.0 0.0799154909
H  H55  1  0.99000000  0.39160000  0.37880000  1.0 0.0799154909
H  H56  1  0.01000000  0.89160000  0.12120000  1.0 0.0799154909
H  H57  1  0.89880000  0.57900000  0.65560000  1.0 0.070461139
H  H58  1  0.10120000  0.07900000  0.84440000  1.0 0.070461139
H  H59  1  0.10120000  0.42100000  0.34440000  1.0 0.070461139
H  H60  1  0.89880000  0.92100000  0.15560000  1.0 0.070461139
H  H61  1  0.89570000  0.66610000  0.62440000  1.0 0.0799154909
H  H62  1  0.10430000  0.16610000  0.87560000  1.0 0.0799154909
H  H63  1  0.10430000  0.33390000  0.37560000  1.0 0.0799154909
H  H64  1  0.89570000  0.83390000  0.12440000  1.0 0.0799154909
H  H65  1  0.31590000  0.88140000  0.78590000  1.0 0.070461139
H  H66  1  0.68410000  0.38140000  0.71410000  1.0 0.070461139
H  H67  1  0.68410000  0.11860000  0.21410000  1.0 0.070461139
H  H68  1  0.31590000  0.61860000  0.28590000  1.0 0.070461139
H  H69  1  0.44530000  0.80760000  0.90740000  1.0 0.0799154909
H  H70  1  0.55470000  0.30760000  0.59260000  1.0 0.0799154909
H  H71  1  0.55470000  0.19240000  0.09260000  1.0 0.0799154909
H  H72  1  0.44530000  0.69240000  0.40740000  1.0 0.0799154909
H  H73  1  0.52910000  0.88660000  0.90510000  1.0 0.070461139
H  H74  1  0.47090000  0.38660000  0.59490000  1.0 0.070461139
H  H75  1  0.47090000  0.11340000  0.09490000  1.0 0.070461139
H  H76  1  0.52910000  0.61340000  0.40510000  1.0 0.070461139
H  H77  1  0.40870000  0.89050000  0.93830000  1.0 0.0890496352
H  H78  1  0.59130000  0.39050000  0.56170000  1.0 0.0890496352
H  H79  1  0.59130000  0.10950000  0.06170000  1.0 0.0890496352
H  H80  1  0.40870000  0.60950000  0.43830000  1.0 0.0890496352
H  H81  1  0.31200000  0.99940000  0.82680000  1.0 0.0799154909
H  H82  1  0.68800000  0.49940000  0.67320000  1.0 0.0799154909
H  H83  1  0.68800000  0.00060000  0.17320000  1.0 0.0799154909
H  H84  1  0.31200000  0.50060000  0.32680000  1.0 0.0799154909
H  H85  1  0.30990000  0.98890000  0.89350000  1.0 0.0603362283
H  H86  1  0.69010000  0.48890000  0.60650000  1.0 0.0603362283
H  H87  1  0.69010000  0.01110000  0.10650000  1.0 0.0603362283
H  H88  1  0.30990000  0.51110000  0.39350000  1.0 0.0603362283
H  H89  1  0.43110000  0.01160000  0.86460000  1.0 0.0603362283
H  H90  1  0.56890000  0.51160000  0.63540000  1.0 0.0603362283
H  H91  1  0.56890000  0.98840000  0.13540000  1.0 0.0603362283
H  H92  1  0.43110000  0.48840000  0.36460000  1.0 0.0603362283
H  H93  1  0.12040000  0.70440000  0.75880000  1.0 0.1660249808
H  H94  1  0.87960000  0.20440000  0.74120000  1.0 0.1660249808
H  H95  1  0.87960000  0.29560000  0.24120000  1.0 0.1660249808
H  H96  1  0.12040000  0.79560000  0.25880000  1.0 0.1660249808
H  H97  1  0.95860000  0.63910000  0.64050000  1.0 0.02728602
H  H98  1  0.04140000  0.13910000  0.85950000  1.0 0.02728602
H  H99  1  0.04140000  0.36090000  0.35950000  1.0 0.02728602
H  H100  1  0.95860000  0.86090000  0.14050000  1.0 0.02728602
H  H101  1  0.88770000  0.72390000  0.64390000  1.0 0.0890496352
H  H102  1  0.11230000  0.22390000  0.85610000  1.0 0.0890496352
H  H103  1  0.11230000  0.27610000  0.35610000  1.0 0.0890496352
H  H104  1  0.88770000  0.77610000  0.14390000  1.0 0.0890496352
H  H105  1  0.01570000  0.72180000  0.61740000  1.0 0.0799154909
H  H106  1  0.98430000  0.22180000  0.88260000  1.0 0.0799154909
H  H107  1  0.98430000  0.27820000  0.38260000  1.0 0.0799154909
H  H108  1  0.01570000  0.77820000  0.11740000  1.0 0.0799154909
H  H109  1  0.01190000  0.80680000  0.75540000  1.0 0.0603362283
H  H110  1  0.98810000  0.30680000  0.74460000  1.0 0.0603362283
H  H111  1  0.98810000  0.19320000  0.24460000  1.0 0.0603362283
H  H112  1  0.01190000  0.69320000  0.25540000  1.0 0.0603362283
H  H113  1  0.93060000  0.81960000  0.69960000  1.0 0.0890496352
H  H114  1  0.06940000  0.31960000  0.80040000  1.0 0.0890496352
H  H115  1  0.06940000  0.18040000  0.30040000  1.0 0.0890496352
H  H116  1  0.93060000  0.68040000  0.19960000  1.0 0.0890496352
H  H117  1  0.89040000  0.75700000  0.74690000  1.0 0.0799154909
H  H118  1  0.10960000  0.25700000  0.75310000  1.0 0.0799154909
H  H119  1  0.10960000  0.24300000  0.25310000  1.0 0.0799154909
H  H120  1  0.89040000  0.74300000  0.24690000  1.0 0.0799154909
H  H121  1  0.23240000  0.84540000  0.80010000  1.0 0.070461139
H  H122  1  0.76760000  0.34540000  0.69990000  1.0 0.070461139
H  H123  1  0.76760000  0.15460000  0.19990000  1.0 0.070461139
H  H124  1  0.23240000  0.65460000  0.30010000  1.0 0.070461139
H  H125  1  0.18750000  0.96740000  0.82400000  1.0 0.070461139
H  H126  1  0.81250000  0.46740000  0.67600000  1.0 0.070461139
H  H127  1  0.81250000  0.03260000  0.17600000  1.0 0.070461139
H  H128  1  0.18750000  0.53260000  0.32400000  1.0 0.070461139
H  H129  1  0.20110000  0.96350000  0.89100000  1.0 0.070461139
H  H130  1  0.79890000  0.46350000  0.60900000  1.0 0.070461139
H  H131  1  0.79890000  0.03650000  0.10900000  1.0 0.070461139
H  H132  1  0.20110000  0.53650000  0.39100000  1.0 0.070461139
H  H133  1  0.29050000  0.01810000  0.85630000  1.0 0.0799154909
H  H134  1  0.70950000  0.51810000  0.64370000  1.0 0.0799154909
H  H135  1  0.70950000  0.98190000  0.14370000  1.0 0.0799154909
H  H136  1  0.29050000  0.48190000  0.35630000  1.0 0.0799154909
H  H137  1  0.48050000  0.86420000  0.88570000  1.0 0.070461139
H  H138  1  0.51950000  0.36420000  0.61430000  1.0 0.070461139
H  H139  1  0.51950000  0.13580000  0.11430000  1.0 0.070461139
H  H140  1  0.48050000  0.63580000  0.38570000  1.0 0.070461139
H  H141  1  0.45920000  0.96140000  0.88530000  1.0 0.0603362283
H  H142  1  0.54080000  0.46140000  0.61470000  1.0 0.0603362283
H  H143  1  0.54080000  0.03860000  0.11470000  1.0 0.0603362283
H  H144  1  0.45920000  0.53860000  0.38530000  1.0 0.0603362283
H  H145  1  0.39490000  0.90480000  0.92980000  1.0 0.1089460088
H  H146  1  0.60510000  0.40480000  0.57020000  1.0 0.1089460088
H  H147  1  0.60510000  0.09520000  0.07020000  1.0 0.1089460088
H  H148  1  0.39490000  0.59520000  0.42980000  1.0 0.1089460088
C  C1  1  0.62160000  0.66290000  0.82070000  1.0 0.5230699459
C  C2  1  0.37840000  0.16290000  0.67930000  1.0 0.5230699459
C  C3  1  0.37840000  0.33710000  0.17930000  1.0 0.5230699459
C  C4  1  0.62160000  0.83710000  0.32070000  1.0 0.5230699459
C  C5  1  0.67170000  0.75040000  0.82060000  1.0 -0.011585419
C  C6  1  0.32830000  0.25040000  0.67940000  1.0 -0.011585419
C  C7  1  0.32830000  0.24960000  0.17940000  1.0 -0.011585419
C  C8  1  0.67170000  0.74960000  0.32060000  1.0 -0.011585419
C  C9  1  0.63220000  0.81030000  0.78030000  1.0 -0.220016232
C  C10  1  0.36780000  0.31030000  0.71970000  1.0 -0.220016232
C  C11  1  0.36780000  0.18970000  0.21970000  1.0 -0.220016232
C  C12  1  0.63220000  0.68970000  0.28030000  1.0 -0.220016232
C  C13  1  0.67750000  0.89130000  0.78440000  1.0 -0.0229394317
C  C14  1  0.32250000  0.39130000  0.71560000  1.0 -0.0229394317
C  C15  1  0.32250000  0.10870000  0.21560000  1.0 -0.0229394317
C  C16  1  0.67750000  0.60870000  0.28440000  1.0 -0.0229394317
C  C17  1  0.76440000  0.91150000  0.82720000  1.0 -0.2516692202
C  C18  1  0.23560000  0.41150000  0.67280000  1.0 -0.2516692202
C  C19  1  0.23560000  0.08850000  0.17280000  1.0 -0.2516692202
C  C20  1  0.76440000  0.58850000  0.32720000  1.0 -0.2516692202
C  C21  1  0.80440000  0.85160000  0.86690000  1.0 0.070461139
C  C22  1  0.19560000  0.35160000  0.63310000  1.0 0.070461139
C  C23  1  0.19560000  0.14840000  0.13310000  1.0 0.070461139
C  C24  1  0.80440000  0.64840000  0.36690000  1.0 0.070461139
C  C25  1  0.75610000  0.77160000  0.86290000  1.0 -0.1728711895
C  C26  1  0.24390000  0.27160000  0.63710000  1.0 -0.1728711895
C  C27  1  0.24390000  0.22840000  0.13710000  1.0 -0.1728711895
C  C28  1  0.75610000  0.72840000  0.36290000  1.0 -0.1728711895
C  C29  1  0.62660000  0.95950000  0.74590000  1.0 0.5544857809
C  C30  1  0.37340000  0.45950000  0.75410000  1.0 0.5544857809
C  C31  1  0.37340000  0.04050000  0.25410000  1.0 0.5544857809
C  C32  1  0.62660000  0.54050000  0.24590000  1.0 0.5544857809
C  C33  1  0.89750000  0.87100000  0.91250000  1.0 0.02728602
C  C34  1  0.10250000  0.37100000  0.58750000  1.0 0.0244579182
C  C35  1  0.10250000  0.12900000  0.08750000  1.0 0.02728602
C  C36  1  0.89750000  0.62900000  0.41250000  1.0 0.02728602
C  C37  1  0.89860000  0.94590000  0.94450000  1.0 0.0080927228
C  C38  1  0.10140000  0.44590000  0.55550000  1.0 0.0080927228
C  C39  1  0.10140000  0.05410000  0.05550000  1.0 0.0080927228
C  C40  1  0.89860000  0.55410000  0.44450000  1.0 0.0080927228
C  C41  1  0.99700000  0.96120000  0.98480000  1.0 0.0080927228
C  C42  1  0.00300000  0.46120000  0.51520000  1.0 0.0080927228
C  C43  1  0.00300000  0.03880000  0.01520000  1.0 0.0080927228
C  C44  1  0.99700000  0.53880000  0.48480000  1.0 0.0080927228
C  C45  1  0.08870000  0.89940000  0.99420000  1.0 0.0080927228
C  C46  1  0.91130000  0.39940000  0.50580000  1.0 0.0080927228
C  C47  1  0.91130000  0.10060000  0.00580000  1.0 0.0080927228
C  C48  1  0.08870000  0.60060000  0.49420000  1.0 0.0080927228
C  C49  1  0.07940000  0.82260000  0.96520000  1.0 0.02728602
C  C50  1  0.92060000  0.32260000  0.53480000  1.0 0.02728602
C  C51  1  0.92060000  0.17740000  0.03480000  1.0 0.02728602
C  C52  1  0.07940000  0.67740000  0.46520000  1.0 0.02728602
C  C53  1  0.98700000  0.81100000  0.92470000  1.0 -0.2316973082
C  C54  1  0.01300000  0.31100000  0.57530000  1.0 -0.2316973082
C  C55  1  0.01300000  0.18900000  0.07530000  1.0 -0.2316973082
C  C56  1  0.98700000  0.68900000  0.42470000  1.0 -0.2316973082
C  C57  1  0.80310000  0.00640000  0.94020000  1.0 -0.240268959
C  C58  1  0.19690000  0.50640000  0.55980000  1.0 -0.240268959
C  C59  1  0.19690000  0.99360000  0.05980000  1.0 -0.240268959
C  C60  1  0.80310000  0.49360000  0.44020000  1.0 -0.240268959
C  C61  1  0.80850000  0.07910000  0.96890000  1.0 -0.2516692202
C  C62  1  0.19150000  0.57910000  0.53110000  1.0 -0.2516692202
C  C63  1  0.19150000  0.92090000  0.03110000  1.0 -0.2516692202
C  C64  1  0.80850000  0.42090000  0.46890000  1.0 -0.2516692202
C  C65  1  0.16550000  0.75320000  0.97560000  1.0 0.070461139
C  C66  1  0.83450000  0.25320000  0.52440000  1.0 0.070461139
C  C67  1  0.83450000  0.24680000  0.02440000  1.0 0.070461139
C  C68  1  0.16550000  0.74680000  0.47560000  1.0 0.070461139
C  C69  1  0.19760000  0.72400000  0.03040000  1.0 -0.1786815135
C  C70  1  0.80240000  0.22400000  0.46960000  1.0 -0.1786815135
C  C71  1  0.80240000  0.27600000  0.96960000  1.0 -0.1786815135
C  C72  1  0.19760000  0.77600000  0.53040000  1.0 -0.1786815135
C  C73  1  0.27790000  0.65800000  0.03830000  1.0 -0.011585419
C  C74  1  0.72210000  0.15800000  0.46170000  1.0 -0.011585419
C  C75  1  0.72210000  0.34200000  0.96170000  1.0 -0.011585419
C  C76  1  0.27790000  0.84200000  0.53830000  1.0 -0.011585419
C  C77  1  0.32700000  0.61970000  0.99140000  1.0 -0.1187180252
C  C78  1  0.67300000  0.11970000  0.50860000  1.0 -0.1187180252
C  C79  1  0.67300000  0.38030000  0.00860000  1.0 -0.1187180252
C  C80  1  0.32700000  0.88030000  0.49140000  1.0 -0.1187180252
C  C81  1  0.29470000  0.64720000  0.93660000  1.0 -0.011585419
C  C82  1  0.70530000  0.14720000  0.56340000  1.0 -0.011585419
C  C83  1  0.70530000  0.35280000  0.06340000  1.0 -0.011585419
C  C84  1  0.29470000  0.85280000  0.43660000  1.0 -0.011585419
C  C85  1  0.21440000  0.71320000  0.92940000  1.0 -0.1885959416
C  C86  1  0.78560000  0.21320000  0.57060000  1.0 -0.1885959416
C  C87  1  0.78560000  0.28680000  0.07060000  1.0 -0.1885959416
C  C88  1  0.21440000  0.78680000  0.42940000  1.0 -0.1885959416
C  C89  1  0.31350000  0.62740000  0.09780000  1.0 0.5742821821
C  C90  1  0.68650000  0.12740000  0.40220000  1.0 0.5742821821
C  C91  1  0.68650000  0.37260000  0.90220000  1.0 0.5742821821
C  C92  1  0.31350000  0.87260000  0.59780000  1.0 0.5742821821
C  C93  1  0.34920000  0.60840000  0.88530000  1.0 0.619345946
C  C94  1  0.65080000  0.10840000  0.61470000  1.0 0.619345946
C  C95  1  0.65080000  0.39160000  0.11470000  1.0 0.619345946
C  C96  1  0.34920000  0.89160000  0.38530000  1.0 0.619345946
C  C97  1  0.10480000  0.66290000  0.70700000  1.0 0.1835187131
C  C98  1  0.89520000  0.16290000  0.79300000  1.0 0.1835187131
C  C99  1  0.89520000  0.33710000  0.29300000  1.0 0.1835187131
C  C100  1  0.10480000  0.83710000  0.20700000  1.0 0.1835187131
C  C101  1  0.90580000  0.70320000  0.72620000  1.0 -0.1123307629
C  C102  1  0.09420000  0.20320000  0.77380000  1.0 -0.1123307629
C  C103  1  0.09420000  0.29680000  0.27380000  1.0 -0.1123307629
C  C104  1  0.90580000  0.79680000  0.22620000  1.0 -0.1123307629
C  C105  1  0.94630000  0.62650000  0.64500000  1.0 -0.1885959416
C  C106  1  0.05370000  0.12650000  0.85500000  1.0 -0.1885959416
C  C107  1  0.05370000  0.37350000  0.35500000  1.0 -0.1885959416
C  C108  1  0.94630000  0.87350000  0.14500000  1.0 -0.1885959416
C  C109  1  0.35800000  0.85160000  0.81470000  1.0 0.1879114637
C  C110  1  0.64200000  0.35160000  0.68530000  1.0 0.1879114637
C  C111  1  0.64200000  0.14840000  0.18530000  1.0 0.1879114637
C  C112  1  0.35800000  0.64840000  0.31470000  1.0 0.1879114637
C  C113  1  0.44700000  0.86800000  0.90550000  1.0 -0.2064614168
C  C114  1  0.55300000  0.36800000  0.59450000  1.0 -0.2064614168
C  C115  1  0.55300000  0.13200000  0.09450000  1.0 -0.2064614168
C  C116  1  0.44700000  0.63200000  0.40550000  1.0 -0.2064614168
C  C117  1  0.35700000  0.98050000  0.86040000  1.0 -0.1187180252
C  C118  1  0.64300000  0.48050000  0.63960000  1.0 -0.1187180252
C  C119  1  0.64300000  0.01950000  0.13960000  1.0 -0.1187180252
C  C120  1  0.35700000  0.51950000  0.36040000  1.0 -0.1187180252
C  C121  1  0.10710000  0.67970000  0.72310000  1.0 0.195396913
C  C122  1  0.89290000  0.17970000  0.77690000  1.0 0.1879114637
C  C123  1  0.89290000  0.32030000  0.27690000  1.0 0.1879114637
C  C124  1  0.10710000  0.82030000  0.22310000  1.0 0.195396913
C  C125  1  0.96600000  0.69800000  0.64630000  1.0 -0.1123307629
C  C126  1  0.03400000  0.19800000  0.85370000  1.0 -0.1123307629
C  C127  1  0.03400000  0.30200000  0.35370000  1.0 -0.1123307629
C  C128  1  0.96600000  0.80200000  0.14630000  1.0 -0.1123307629
C  C129  1  0.95800000  0.77960000  0.72790000  1.0 -0.220016232
C  C130  1  0.04200000  0.27960000  0.77210000  1.0 -0.220016232
C  C131  1  0.04200000  0.22040000  0.27210000  1.0 -0.220016232
C  C132  1  0.95800000  0.72040000  0.22790000  1.0 -0.220016232
C  C133  1  0.30400000  0.83860000  0.82160000  1.0 0.1879114637
C  C134  1  0.69600000  0.33860000  0.67840000  1.0 0.1879114637
C  C135  1  0.69600000  0.16140000  0.17840000  1.0 0.1879114637
C  C136  1  0.30400000  0.66140000  0.32160000  1.0 0.1879114637
C  C137  1  0.24400000  0.96720000  0.85620000  1.0 -0.240268959
C  C138  1  0.75600000  0.46720000  0.64380000  1.0 -0.240268959
C  C139  1  0.75600000  0.03280000  0.14380000  1.0 -0.240268959
C  C140  1  0.24400000  0.53280000  0.35620000  1.0 -0.240268959
C  C141  1  0.42200000  0.90780000  0.89140000  1.0 -0.0561804625
C  C142  1  0.57800000  0.40780000  0.60860000  1.0 -0.0561804625
C  C143  1  0.57800000  0.09220000  0.10860000  1.0 -0.0561804625
C  C144  1  0.42200000  0.59220000  0.39140000  1.0 -0.0561804625
N  N1  1  0.99760000  0.66540000  0.69560000  1.0 0.070461139
N  N2  1  0.00240000  0.16540000  0.80440000  1.0 0.070461139
N  N3  1  0.00240000  0.33460000  0.30440000  1.0 0.070461139
N  N4  1  0.99760000  0.83460000  0.19560000  1.0 0.0603362283
N  N5  1  0.38300000  0.89480000  0.85470000  1.0 0.1089460088
N  N6  1  0.61700000  0.39480000  0.64530000  1.0 0.1089460088
N  N7  1  0.61700000  0.10520000  0.14530000  1.0 0.1089460088
N  N8  1  0.38300000  0.60520000  0.35470000  1.0 0.1089460088
N  N9  1  0.02100000  0.71390000  0.70090000  1.0 0.0498460901
N  N10  1  0.97900000  0.21390000  0.79910000  1.0 0.0498460901
N  N11  1  0.97900000  0.28610000  0.29910000  1.0 0.0498460901
N  N12  1  0.02100000  0.78610000  0.20090000  1.0 0.0498460901
N  N13  1  0.32300000  0.89730000  0.85220000  1.0 0.0603362283
N  N14  1  0.67700000  0.39730000  0.64780000  1.0 0.0603362283
N  N15  1  0.67700000  0.10270000  0.14780000  1.0 0.0603362283
N  N16  1  0.32300000  0.60270000  0.35220000  1.0 0.0603362283
O  O1  1  0.53900000  0.64290000  0.78510000  1.0 -0.62760021
O  O2  1  0.46100000  0.14290000  0.71490000  1.0 -0.62760021
O  O3  1  0.46100000  0.35710000  0.21490000  1.0 -0.62760021
O  O4  1  0.53900000  0.85710000  0.28510000  1.0 -0.62760021
O  O5  1  0.66550000  0.61180000  0.85680000  1.0 -0.5689592233
O  O6  1  0.33450000  0.11180000  0.64320000  1.0 -0.5689592233
O  O7  1  0.33450000  0.38820000  0.14320000  1.0 -0.5689592233
O  O8  1  0.66550000  0.88820000  0.35680000  1.0 -0.5689592233
O  O9  1  0.56140000  0.93910000  0.70490000  1.0 -0.58882718
O  O10  1  0.43860000  0.43910000  0.79510000  1.0 -0.58882718
O  O11  1  0.43860000  0.06090000  0.29510000  1.0 -0.58882718
O  O12  1  0.56140000  0.56090000  0.20490000  1.0 -0.58882718
O  O13  1  0.65220000  0.03390000  0.76110000  1.0 -0.6764700881
O  O14  1  0.34780000  0.53390000  0.73890000  1.0 -0.6764700881
O  O15  1  0.34780000  0.96610000  0.23890000  1.0 -0.6764700881
O  O16  1  0.65220000  0.46610000  0.26110000  1.0 -0.6764700881
O  O17  1  0.27350000  0.66680000  0.13930000  1.0 -0.5689592233
O  O18  1  0.72650000  0.16680000  0.36070000  1.0 -0.5689592233
O  O19  1  0.72650000  0.33320000  0.86070000  1.0 -0.5689592233
O  O20  1  0.27350000  0.83320000  0.63930000  1.0 -0.5689592233
O  O21  1  0.37900000  0.56550000  0.10138000  1.0 -0.6132246128
O  O22  1  0.62100000  0.06550000  0.39862000  1.0 -0.6132246128
O  O23  1  0.62100000  0.43450000  0.89862000  1.0 -0.6132246128
O  O24  1  0.37900000  0.93450000  0.60138000  1.0 -0.6132246128
O  O25  1  0.43070000  0.55520000  0.89296000  1.0 -0.6211488417
O  O26  1  0.56930000  0.05520000  0.60704000  1.0 -0.6211488417
O  O27  1  0.56930000  0.44480000  0.10704000  1.0 -0.6211488417
O  O28  1  0.43070000  0.94480000  0.39296000  1.0 -0.6211488417
O  O29  1  0.30900000  0.63410000  0.83780000  1.0 -0.6565870217
O  O30  1  0.69100000  0.13410000  0.66220000  1.0 -0.6565870217
O  O31  1  0.69100000  0.36590000  0.16220000  1.0 -0.6565870217
O  O32  1  0.30900000  0.86590000  0.33780000  1.0 -0.6565870217
O  O33  1  0.68680000  0.47220000  0.78200000  1.0 -0.2064614168
O  O34  1  0.31320000  0.97220000  0.71800000  1.0 -0.2064614168
O  O35  1  0.31320000  0.52780000  0.21800000  1.0 -0.2064614168
O  O36  1  0.68680000  0.02780000  0.28200000  1.0 -0.2023292354
O  O37  1  0.39810000  0.70970000  0.69170000  1.0 -0.135931345
O  O38  1  0.60190000  0.20970000  0.80830000  1.0 -0.135931345
O  O39  1  0.60190000  0.29030000  0.30830000  1.0 -0.1327960363
O  O40  1  0.39810000  0.79030000  0.19170000  1.0 -0.135931345
O  O41  1  0.17530000  0.68590000  0.74230000  1.0 -0.0986626542
O  O42  1  0.82470000  0.18590000  0.75770000  1.0 -0.0986626542
O  O43  1  0.82470000  0.31410000  0.25770000  1.0 -0.0986626542
O  O44  1  0.17530000  0.81410000  0.24230000  1.0 -0.0986626542
O  O45  1  0.37100000  0.77920000  0.80200000  1.0 -0.2516692202
O  O46  1  0.62900000  0.27920000  0.69800000  1.0 -0.2516692202
O  O47  1  0.62900000  0.22080000  0.19800000  1.0 -0.2516692202
O  O48  1  0.37100000  0.72080000  0.30200000  1.0 -0.2516692202
O  O49  1  0.40190000  0.66080000  0.66350000  1.0 0.02728602
O  O50  1  0.59810000  0.16080000  0.83650000  1.0 0.02728602
O  O51  1  0.59810000  0.33920000  0.33650000  1.0 0.02728602
O  O52  1  0.40190000  0.83920000  0.16350000  1.0 0.02728602
O  O53  1  0.18120000  0.62850000  0.71860000  1.0 -0.1187180252
O  O54  1  0.81880000  0.12850000  0.78140000  1.0 -0.1187180252
O  O55  1  0.81880000  0.37150000  0.28140000  1.0 -0.1187180252
O  O56  1  0.18120000  0.87150000  0.21860000  1.0 -0.1187180252
O  O57  1  0.35100000  0.77320000  0.81060000  1.0 -0.2700655035
O  O58  1  0.64900000  0.27320000  0.68940000  1.0 -0.2700655035
O  O59  1  0.64900000  0.22680000  0.18940000  1.0 -0.2700655035
O  O60  1  0.35100000  0.72680000  0.31060000  1.0 -0.2700655035
O  O61  1  0.34230000  0.77670000  0.74790000  1.0 -0.1786815135
O  O62  1  0.65770000  0.27670000  0.75210000  1.0 -0.1786815135
O  O63  1  0.65770000  0.22330000  0.25210000  1.0 -0.1786815135
O  O64  1  0.34230000  0.72330000  0.24790000  1.0 -0.1786815135
