# DDEC6 charges by PACMAN v1.1 (https://github.com/mtap-research/PACMAN-charge/)
data_LOSXIC_FSR_pacman
_symmetry_space_group_name_H-M   'P 1'
_cell_length_a   15.68300000
_cell_length_b   15.68300000
_cell_length_c   11.55260000
_cell_angle_alpha   90.00000000
_cell_angle_beta   90.00000000
_cell_angle_gamma   120.00000000
_symmetry_Int_Tables_number   1
_chemical_formula_structural   InC16(NO)8
_chemical_formula_sum   'In3 C48 N24 O24'
_cell_volume   2460.75656881
_cell_formula_units_Z   3
loop_
 _symmetry_equiv_pos_site_id
 _symmetry_equiv_pos_as_xyz
  1  'x, y, z'
loop_
 _atom_site_type_symbol
 _atom_site_label
 _atom_site_symmetry_multiplicity
 _atom_site_fract_x
 _atom_site_fract_y
 _atom_site_fract_z
 _atom_site_occupancy
 _atom_site_charge
In  In1  1  0.00000000  0.50000000  0.66666667  1.0 1.3673211236
In  In2  1  0.50000000  0.00000000  0.00000000  1.0 1.3673211236
In  In3  1  0.50000000  0.50000000  0.33333333  1.0 1.3673211236
C  C1  1  0.87420000  0.49310000  0.82300000  1.0 0.568513135
C  C2  1  0.38110000  0.87420000  0.15633000  1.0 0.568513135
C  C3  1  0.50690000  0.38110000  0.48967000  1.0 0.568513135
C  C4  1  0.12580000  0.50690000  0.82300000  1.0 0.568513135
C  C5  1  0.61890000  0.12580000  0.15633000  1.0 0.568513135
C  C6  1  0.49310000  0.61890000  0.48967000  1.0 0.568513135
C  C7  1  0.38110000  0.50690000  0.17700000  1.0 0.568513135
C  C8  1  0.12580000  0.61890000  0.51033000  1.0 0.568513135
C  C9  1  0.49310000  0.87420000  0.84367000  1.0 0.568513135
C  C10  1  0.50690000  0.12580000  0.84367000  1.0 0.568513135
C  C11  1  0.61890000  0.49310000  0.17700000  1.0 0.568513135
C  C12  1  0.87420000  0.38110000  0.51033000  1.0 0.568513135
C  C13  1  0.80820000  0.49620000  0.91040000  1.0 -0.1256376704
C  C14  1  0.31200000  0.80820000  0.24373000  1.0 -0.1256376704
C  C15  1  0.50380000  0.31200000  0.57707000  1.0 -0.1236994138
C  C16  1  0.19180000  0.50380000  0.91040000  1.0 -0.1236994138
C  C17  1  0.68800000  0.19180000  0.24373000  1.0 -0.1236994138
C  C18  1  0.49620000  0.68800000  0.57707000  1.0 -0.1236994138
C  C19  1  0.31200000  0.50380000  0.08960000  1.0 -0.1236994138
C  C20  1  0.19180000  0.68800000  0.42293000  1.0 -0.1236994138
C  C21  1  0.49620000  0.80820000  0.75627000  1.0 -0.1236994138
C  C22  1  0.50380000  0.19180000  0.75627000  1.0 -0.1236994138
C  C23  1  0.68800000  0.49620000  0.08960000  1.0 -0.1236994138
C  C24  1  0.80820000  0.31200000  0.42293000  1.0 -0.1236994138
C  C25  1  0.73260000  0.40670000  0.95640000  1.0 0.0991551497
C  C26  1  0.32590000  0.73260000  0.28973000  1.0 0.0991551497
C  C27  1  0.59330000  0.32590000  0.62307000  1.0 0.0991551497
C  C28  1  0.26740000  0.59330000  0.95640000  1.0 0.0991551497
C  C29  1  0.67410000  0.26740000  0.28973000  1.0 0.0991551497
C  C30  1  0.40670000  0.67410000  0.62307000  1.0 0.0991551497
C  C31  1  0.32590000  0.59330000  0.04360000  1.0 0.0991551497
C  C32  1  0.26740000  0.67410000  0.37693000  1.0 0.0991551497
C  C33  1  0.40670000  0.73260000  0.71027000  1.0 0.0991551497
C  C34  1  0.59330000  0.26740000  0.71027000  1.0 0.0991551497
C  C35  1  0.67410000  0.40670000  0.04360000  1.0 0.0991551497
C  C36  1  0.73260000  0.32590000  0.37693000  1.0 0.0991551497
C  C37  1  0.82380000  0.58530000  0.95350000  1.0 0.1566049853
C  C38  1  0.23850000  0.82380000  0.28683000  1.0 0.1566049853
C  C39  1  0.41470000  0.23850000  0.62017000  1.0 0.1527601943
C  C40  1  0.17620000  0.41470000  0.95350000  1.0 0.1527601943
C  C41  1  0.76150000  0.17620000  0.28683000  1.0 0.1566049853
C  C42  1  0.58530000  0.76150000  0.62017000  1.0 0.1527601943
C  C43  1  0.23850000  0.41470000  0.04650000  1.0 0.1527601943
C  C44  1  0.17620000  0.76150000  0.37983000  1.0 0.1527601943
C  C45  1  0.58530000  0.82380000  0.71317000  1.0 0.1527601943
C  C46  1  0.41470000  0.17620000  0.71317000  1.0 0.1527601943
C  C47  1  0.76150000  0.58530000  0.04650000  1.0 0.1527601943
C  C48  1  0.82380000  0.23850000  0.37983000  1.0 0.1527601943
N  N1  1  0.89760000  0.67900000  0.91300000  1.0 -0.1087507457
N  N2  1  0.21860000  0.89760000  0.24633000  1.0 -0.1087507457
N  N3  1  0.32100000  0.21860000  0.57967000  1.0 -0.1022741986
N  N4  1  0.10240000  0.32100000  0.91300000  1.0 -0.1022741986
N  N5  1  0.78140000  0.10240000  0.24633000  1.0 -0.1087507457
N  N6  1  0.67900000  0.78140000  0.57967000  1.0 -0.1022741986
N  N7  1  0.21860000  0.32100000  0.08700000  1.0 -0.1022741986
N  N8  1  0.10240000  0.78140000  0.42033000  1.0 -0.1022741986
N  N9  1  0.67900000  0.89760000  0.75367000  1.0 -0.1022741986
N  N10  1  0.32100000  0.10240000  0.75367000  1.0 -0.1022741986
N  N11  1  0.78140000  0.67900000  0.08700000  1.0 -0.1022741986
N  N12  1  0.89760000  0.21860000  0.42033000  1.0 -0.1022741986
N  N13  1  0.71300000  0.31310000  0.91600000  1.0 0.013418278
N  N14  1  0.39990000  0.71300000  0.24933000  1.0 0.0181276874
N  N15  1  0.68690000  0.39990000  0.58267000  1.0 0.0181276874
N  N16  1  0.28700000  0.68690000  0.91600000  1.0 0.013418278
N  N17  1  0.60010000  0.28700000  0.24933000  1.0 0.0181276874
N  N18  1  0.31310000  0.60010000  0.58267000  1.0 0.013418278
N  N19  1  0.39990000  0.68690000  0.08400000  1.0 0.0181276874
N  N20  1  0.28700000  0.60010000  0.41733000  1.0 0.0181276874
N  N21  1  0.31310000  0.71300000  0.75067000  1.0 0.013418278
N  N22  1  0.68690000  0.28700000  0.75067000  1.0 0.013418278
N  N23  1  0.60010000  0.31310000  0.08400000  1.0 0.0181276874
N  N24  1  0.71300000  0.39990000  0.41733000  1.0 0.013418278
O  O1  1  0.93450000  0.57200000  0.77570000  1.0 -0.4788228175
O  O2  1  0.36250000  0.93450000  0.10903000  1.0 -0.4788228175
O  O3  1  0.42800000  0.36250000  0.44237000  1.0 -0.4788228175
O  O4  1  0.06550000  0.42800000  0.77570000  1.0 -0.4788228175
O  O5  1  0.63750000  0.06550000  0.10903000  1.0 -0.4788228175
O  O6  1  0.57200000  0.63750000  0.44237000  1.0 -0.4788228175
O  O7  1  0.36250000  0.42800000  0.22430000  1.0 -0.4788228175
O  O8  1  0.06550000  0.63750000  0.55763000  1.0 -0.4788228175
O  O9  1  0.57200000  0.93450000  0.89097000  1.0 -0.4788228175
O  O10  1  0.42800000  0.06550000  0.89097000  1.0 -0.4788228175
O  O11  1  0.63750000  0.57200000  0.22430000  1.0 -0.4788228175
O  O12  1  0.93450000  0.36250000  0.55763000  1.0 -0.4788228175
O  O13  1  0.87180000  0.41500000  0.79110000  1.0 -0.472254331
O  O14  1  0.45680000  0.87180000  0.12443000  1.0 -0.472254331
O  O15  1  0.58500000  0.45680000  0.45777000  1.0 -0.472254331
O  O16  1  0.12820000  0.58500000  0.79110000  1.0 -0.472254331
O  O17  1  0.54320000  0.12820000  0.12443000  1.0 -0.472254331
O  O18  1  0.41500000  0.54320000  0.45777000  1.0 -0.472254331
O  O19  1  0.45680000  0.58500000  0.20890000  1.0 -0.472254331
O  O20  1  0.12820000  0.54320000  0.54223000  1.0 -0.472254331
O  O21  1  0.41500000  0.87180000  0.87557000  1.0 -0.472254331
O  O22  1  0.58500000  0.12820000  0.87557000  1.0 -0.472254331
O  O23  1  0.54320000  0.41500000  0.20890000  1.0 -0.472254331
O  O24  1  0.87180000  0.45680000  0.54223000  1.0 -0.472254331
