# DDEC6 charges by PACMAN v1.1 (https://github.com/mtap-research/PACMAN-charge/)
data_LOTDIJ_FSR_pacman
_symmetry_space_group_name_H-M   'P 1'
_cell_length_a   17.89160000
_cell_length_b   19.08800000
_cell_length_c   19.67450000
_cell_angle_alpha   90.00000000
_cell_angle_beta   90.00000000
_cell_angle_gamma   90.00000000
_symmetry_Int_Tables_number   1
_chemical_formula_structural   CoH56C54S2(N4O)2
_chemical_formula_sum   'Co4 H224 C216 S8 N32 O8'
_cell_volume   6719.13412881
_cell_formula_units_Z   4
loop_
 _symmetry_equiv_pos_site_id
 _symmetry_equiv_pos_as_xyz
  1  'x, y, z'
loop_
 _atom_site_type_symbol
 _atom_site_label
 _atom_site_symmetry_multiplicity
 _atom_site_fract_x
 _atom_site_fract_y
 _atom_site_fract_z
 _atom_site_occupancy
 _atom_site_charge
Co  Co1  1  0.18159000  0.23465000  0.50004000  1.0 0.6444768105
Co  Co2  1  0.31841000  0.73465000  0.00004000  1.0 0.6444768105
Co  Co3  1  0.68159000  0.23465000  0.99996000  1.0 0.6444768105
Co  Co4  1  0.81841000  0.73465000  0.49996000  1.0 0.6444768105
H  H1  1  0.11520000  0.08970000  0.46790000  1.0 0.0919249966
H  H2  1  0.38480000  0.58970000  0.96790000  1.0 0.0919249966
H  H3  1  0.61520000  0.08970000  0.03210000  1.0 0.0919249966
H  H4  1  0.88480000  0.58970000  0.53210000  1.0 0.0919249966
H  H5  1  0.01950000  0.03820000  0.39700000  1.0 0.1282539853
H  H6  1  0.48050000  0.53820000  0.89700000  1.0 0.1282539853
H  H7  1  0.51950000  0.03820000  0.10300000  1.0 0.1282539853
H  H8  1  0.98050000  0.53820000  0.60300000  1.0 0.1282539853
H  H9  1  0.96710000  0.10950000  0.30780000  1.0 0.1196670125
H  H10  1  0.53290000  0.60950000  0.80780000  1.0 0.1196670125
H  H11  1  0.46710000  0.10950000  0.19220000  1.0 0.1196670125
H  H12  1  0.03290000  0.60950000  0.69220000  1.0 0.1196670125
H  H13  1  0.09910000  0.26450000  0.36770000  1.0 0.0989774738
H  H14  1  0.40090000  0.76450000  0.86770000  1.0 0.0989774738
H  H15  1  0.59910000  0.26450000  0.13230000  1.0 0.0989774738
H  H16  1  0.90090000  0.76450000  0.63230000  1.0 0.0989774738
H  H17  1  0.03910000  0.33120000  0.30140000  1.0 0.1386348264
H  H18  1  0.46090000  0.83120000  0.80140000  1.0 0.1386348264
H  H19  1  0.53910000  0.33120000  0.19860000  1.0 0.1386348264
H  H20  1  0.96090000  0.83120000  0.69860000  1.0 0.1386348264
H  H21  1  0.90940000  0.33570000  0.13350000  1.0 0.1282539853
H  H22  1  0.59060000  0.83570000  0.63350000  1.0 0.1282539853
H  H23  1  0.40940000  0.33570000  0.36650000  1.0 0.1282539853
H  H24  1  0.09060000  0.83570000  0.86650000  1.0 0.1282539853
H  H25  1  0.94510000  0.10770000  0.13790000  1.0 0.1196670125
H  H26  1  0.55490000  0.60770000  0.63790000  1.0 0.1196670125
H  H27  1  0.44510000  0.10770000  0.36210000  1.0 0.1196670125
H  H28  1  0.05490000  0.60770000  0.86210000  1.0 0.1196670125
H  H29  1  0.88150000  0.04570000  0.05270000  1.0 0.1282539853
H  H30  1  0.61850000  0.54570000  0.55270000  1.0 0.1282539853
H  H31  1  0.38150000  0.04570000  0.44730000  1.0 0.1282539853
H  H32  1  0.11850000  0.54570000  0.94730000  1.0 0.1282539853
H  H33  1  0.77600000  0.09460000  0.00170000  1.0 0.0989774738
H  H34  1  0.72400000  0.59460000  0.50170000  1.0 0.0989774738
H  H35  1  0.27600000  0.09460000  0.49830000  1.0 0.0989774738
H  H36  1  0.22400000  0.59460000  0.99830000  1.0 0.0989774738
H  H37  1  0.81750000  0.27340000  0.09510000  1.0 0.0989774738
H  H38  1  0.68250000  0.77340000  0.59510000  1.0 0.0989774738
H  H39  1  0.31750000  0.27340000  0.40490000  1.0 0.0989774738
H  H40  1  0.18250000  0.77340000  0.90490000  1.0 0.0989774738
H  H41  1  0.88600000  0.45880000  0.21330000  1.0 0.1196670125
H  H42  1  0.61400000  0.95880000  0.71330000  1.0 0.1196670125
H  H43  1  0.38600000  0.45880000  0.28670000  1.0 0.1196670125
H  H44  1  0.11400000  0.95880000  0.78670000  1.0 0.1196670125
H  H45  1  0.19970000  0.44810000  0.25740000  1.0 0.0919249966
H  H46  1  0.30030000  0.94810000  0.75740000  1.0 0.0919249966
H  H47  1  0.69970000  0.44810000  0.24260000  1.0 0.0919249966
H  H48  1  0.80030000  0.94810000  0.74260000  1.0 0.0919249966
H  H49  1  0.21680000  0.43600000  0.18100000  1.0 0.1092771551
H  H50  1  0.28320000  0.93600000  0.68100000  1.0 0.1092771551
H  H51  1  0.71680000  0.43600000  0.31900000  1.0 0.0989774738
H  H52  1  0.78320000  0.93600000  0.81900000  1.0 0.1092771551
H  H53  1  0.21440000  0.32530000  0.27300000  1.0 0.1092771551
H  H54  1  0.28560000  0.82530000  0.77300000  1.0 0.1092771551
H  H55  1  0.71440000  0.32530000  0.22700000  1.0 0.1092771551
H  H56  1  0.78560000  0.82530000  0.72700000  1.0 0.1092771551
H  H57  1  0.28850000  0.36360000  0.25580000  1.0 0.1092771551
H  H58  1  0.21150000  0.86360000  0.75580000  1.0 0.1092771551
H  H59  1  0.78850000  0.36360000  0.24420000  1.0 0.1092771551
H  H60  1  0.71150000  0.86360000  0.74420000  1.0 0.1092771551
H  H61  1  0.19890000  0.30100000  0.15480000  1.0 0.0989774738
H  H62  1  0.30110000  0.80100000  0.65480000  1.0 0.0989774738
H  H63  1  0.69890000  0.30100000  0.34520000  1.0 0.0989774738
H  H64  1  0.80110000  0.80100000  0.84520000  1.0 0.0989774738
H  H65  1  0.27750000  0.33290000  0.14220000  1.0 0.0989774738
H  H66  1  0.22250000  0.83290000  0.64220000  1.0 0.0989774738
H  H67  1  0.77750000  0.33290000  0.35780000  1.0 0.0989774738
H  H68  1  0.72250000  0.83290000  0.85780000  1.0 0.0989774738
H  H69  1  0.33130000  0.24210000  0.20180000  1.0 0.0919249966
H  H70  1  0.16870000  0.74210000  0.70180000  1.0 0.0919249966
H  H71  1  0.83130000  0.24210000  0.29820000  1.0 0.0919249966
H  H72  1  0.66870000  0.74210000  0.79820000  1.0 0.0919249966
H  H73  1  0.28800000  0.21700000  0.13800000  1.0 0.0989774738
H  H74  1  0.21200000  0.71700000  0.63800000  1.0 0.0989774738
H  H75  1  0.78800000  0.21700000  0.36200000  1.0 0.0989774738
H  H76  1  0.71200000  0.71700000  0.86200000  1.0 0.0989774738
H  H77  1  0.23750000  0.20230000  0.27270000  1.0 0.0919249966
H  H78  1  0.26250000  0.70230000  0.77270000  1.0 0.0919249966
H  H79  1  0.73750000  0.20230000  0.22730000  1.0 0.0919249966
H  H80  1  0.76250000  0.70230000  0.72730000  1.0 0.0919249966
H  H81  1  0.19030000  0.18100000  0.20990000  1.0 0.0989774738
H  H82  1  0.30970000  0.68100000  0.70990000  1.0 0.0989774738
H  H83  1  0.69030000  0.18100000  0.29010000  1.0 0.0989774738
H  H84  1  0.80970000  0.68100000  0.79010000  1.0 0.0989774738
H  H85  1  0.32290000  0.11660000  0.23990000  1.0 0.0919249966
H  H86  1  0.17710000  0.61660000  0.73990000  1.0 0.0919249966
H  H87  1  0.82290000  0.11660000  0.26010000  1.0 0.0919249966
H  H88  1  0.67710000  0.61660000  0.76010000  1.0 0.0919249966
H  H89  1  0.26840000  0.09270000  0.18310000  1.0 0.0919249966
H  H90  1  0.23160000  0.59270000  0.68310000  1.0 0.0919249966
H  H91  1  0.76840000  0.09270000  0.31690000  1.0 0.0919249966
H  H92  1  0.73160000  0.59270000  0.81690000  1.0 0.0919249966
H  H93  1  0.26410000  0.01470000  0.27140000  1.0 0.083197004
H  H94  1  0.23590000  0.51470000  0.77140000  1.0 0.083197004
H  H95  1  0.76410000  0.01470000  0.22860000  1.0 0.083197004
H  H96  1  0.73590000  0.51470000  0.72860000  1.0 0.083197004
H  H97  1  0.23640000  0.07300000  0.32020000  1.0 0.0919249966
H  H98  1  0.26360000  0.57300000  0.82020000  1.0 0.0919249966
H  H99  1  0.73640000  0.07300000  0.17980000  1.0 0.0919249966
H  H100  1  0.76360000  0.57300000  0.67980000  1.0 0.0919249966
H  H101  1  0.13730000  0.01110000  0.27260000  1.0 0.1092771551
H  H102  1  0.36270000  0.51110000  0.77260000  1.0 0.1092771551
H  H103  1  0.63730000  0.01110000  0.22740000  1.0 0.1092771551
H  H104  1  0.86270000  0.51110000  0.72740000  1.0 0.1092771551
H  H105  1  0.16120000  0.02980000  0.19900000  1.0 0.1092771551
H  H106  1  0.33880000  0.52980000  0.69900000  1.0 0.1092771551
H  H107  1  0.66120000  0.02980000  0.30100000  1.0 0.1092771551
H  H108  1  0.83880000  0.52980000  0.80100000  1.0 0.1092771551
H  H109  1  0.13340000  0.08820000  0.24780000  1.0 0.1196670125
H  H110  1  0.36660000  0.58820000  0.74780000  1.0 0.1196670125
H  H111  1  0.63340000  0.08820000  0.25220000  1.0 0.1196670125
H  H112  1  0.86660000  0.58820000  0.75220000  1.0 0.1196670125
H  H113  1  0.94340000  0.85560000  0.52710000  1.0 0.0989774738
H  H114  1  0.55660000  0.35560000  0.02710000  1.0 0.0989774738
H  H115  1  0.44340000  0.85560000  0.97290000  1.0 0.0989774738
H  H116  1  0.05660000  0.35560000  0.47290000  1.0 0.0989774738
H  H117  1  0.05330000  0.89940000  0.47800000  1.0 0.1282539853
H  H118  1  0.44670000  0.39940000  0.97800000  1.0 0.1282539853
H  H119  1  0.55330000  0.89940000  0.02200000  1.0 0.1282539853
H  H120  1  0.94670000  0.39940000  0.52200000  1.0 0.1282539853
H  H121  1  0.09360000  0.85420000  0.37320000  1.0 0.1196670125
H  H122  1  0.40640000  0.35420000  0.87320000  1.0 0.1196670125
H  H123  1  0.59360000  0.85420000  0.12680000  1.0 0.1196670125
H  H124  1  0.90640000  0.35420000  0.62680000  1.0 0.1196670125
H  H125  1  0.91650000  0.71810000  0.38020000  1.0 0.0989774738
H  H126  1  0.58350000  0.21810000  0.88020000  1.0 0.0989774738
H  H127  1  0.41650000  0.71810000  0.11980000  1.0 0.0989774738
H  H128  1  0.08350000  0.21810000  0.61980000  1.0 0.0989774738
H  H129  1  0.98530000  0.65010000  0.32150000  1.0 0.1282539853
H  H130  1  0.51470000  0.15010000  0.82150000  1.0 0.1282539853
H  H131  1  0.48530000  0.65010000  0.17850000  1.0 0.1282539853
H  H132  1  0.01470000  0.15010000  0.67850000  1.0 0.1282539853
H  H133  1  0.13430000  0.53530000  0.21070000  1.0 0.1196670125
H  H134  1  0.36570000  0.03530000  0.71070000  1.0 0.1196670125
H  H135  1  0.63430000  0.53530000  0.28930000  1.0 0.1196670125
H  H136  1  0.86570000  0.03530000  0.78930000  1.0 0.1196670125
H  H137  1  0.80910000  0.53410000  0.23530000  1.0 0.0919249966
H  H138  1  0.69090000  0.03410000  0.73530000  1.0 0.0919249966
H  H139  1  0.30910000  0.53410000  0.26470000  1.0 0.0919249966
H  H140  1  0.19090000  0.03410000  0.76470000  1.0 0.0919249966
H  H141  1  0.81890000  0.56570000  0.16330000  1.0 0.0989774738
H  H142  1  0.68110000  0.06570000  0.66330000  1.0 0.0989774738
H  H143  1  0.31890000  0.56570000  0.33670000  1.0 0.0989774738
H  H144  1  0.18110000  0.06570000  0.83670000  1.0 0.0989774738
H  H145  1  0.72070000  0.61680000  0.22060000  1.0 0.1092771551
H  H146  1  0.77930000  0.11680000  0.72060000  1.0 0.1092771551
H  H147  1  0.22070000  0.61680000  0.27940000  1.0 0.1092771551
H  H148  1  0.27930000  0.11680000  0.77940000  1.0 0.1092771551
H  H149  1  0.77710000  0.64320000  0.27470000  1.0 0.1092771551
H  H150  1  0.72290000  0.14320000  0.77470000  1.0 0.1092771551
H  H151  1  0.27710000  0.64320000  0.22530000  1.0 0.1092771551
H  H152  1  0.22290000  0.14320000  0.72530000  1.0 0.1092771551
H  H153  1  0.73350000  0.72830000  0.18820000  1.0 0.0919249966
H  H154  1  0.76650000  0.22830000  0.68820000  1.0 0.0919249966
H  H155  1  0.23350000  0.72830000  0.31180000  1.0 0.0919249966
H  H156  1  0.26650000  0.22830000  0.81180000  1.0 0.0919249966
H  H157  1  0.79040000  0.69030000  0.14150000  1.0 0.0989774738
H  H158  1  0.70960000  0.19030000  0.64150000  1.0 0.0989774738
H  H159  1  0.29040000  0.69030000  0.35850000  1.0 0.0989774738
H  H160  1  0.20960000  0.19030000  0.85850000  1.0 0.0989774738
H  H161  1  0.83000000  0.76240000  0.25760000  1.0 0.0989774738
H  H162  1  0.67000000  0.26240000  0.75760000  1.0 0.0989774738
H  H163  1  0.33000000  0.76240000  0.24240000  1.0 0.0989774738
H  H164  1  0.17000000  0.26240000  0.74240000  1.0 0.0989774738
H  H165  1  0.88570000  0.72730000  0.20770000  1.0 0.1092771551
H  H166  1  0.61430000  0.22730000  0.70770000  1.0 0.1092771551
H  H167  1  0.38570000  0.72730000  0.29230000  1.0 0.1092771551
H  H168  1  0.11430000  0.22730000  0.79230000  1.0 0.1092771551
H  H169  1  0.79730000  0.84020000  0.17770000  1.0 0.0919249966
H  H170  1  0.70270000  0.34020000  0.67770000  1.0 0.0919249966
H  H171  1  0.29730000  0.84020000  0.32230000  1.0 0.0919249966
H  H172  1  0.20270000  0.34020000  0.82230000  1.0 0.0919249966
H  H173  1  0.84750000  0.80310000  0.12450000  1.0 0.0919249966
H  H174  1  0.65250000  0.30310000  0.62450000  1.0 0.0919249966
H  H175  1  0.34750000  0.80310000  0.37550000  1.0 0.0919249966
H  H176  1  0.15250000  0.30310000  0.87550000  1.0 0.0919249966
H  H177  1  0.95490000  0.84470000  0.18150000  1.0 0.0989774738
H  H178  1  0.54510000  0.34470000  0.68150000  1.0 0.0989774738
H  H179  1  0.45490000  0.84470000  0.31850000  1.0 0.0989774738
H  H180  1  0.04510000  0.34470000  0.81850000  1.0 0.0989774738
H  H181  1  0.90630000  0.90620000  0.15500000  1.0 0.0919249966
H  H182  1  0.59370000  0.40620000  0.65500000  1.0 0.0919249966
H  H183  1  0.40630000  0.90620000  0.34500000  1.0 0.0919249966
H  H184  1  0.09370000  0.40620000  0.84500000  1.0 0.0919249966
H  H185  1  0.90900000  0.85710000  0.28640000  1.0 0.083197004
H  H186  1  0.59100000  0.35710000  0.78640000  1.0 0.083197004
H  H187  1  0.40900000  0.85710000  0.21360000  1.0 0.083197004
H  H188  1  0.09100000  0.35710000  0.71360000  1.0 0.083197004
H  H189  1  0.85260000  0.91320000  0.26150000  1.0 0.083197004
H  H190  1  0.64740000  0.41320000  0.76150000  1.0 0.083197004
H  H191  1  0.35260000  0.91320000  0.23850000  1.0 0.083197004
H  H192  1  0.14740000  0.41320000  0.73850000  1.0 0.083197004
H  H193  1  0.95980000  0.96640000  0.31080000  1.0 0.1092771551
H  H194  1  0.54020000  0.46640000  0.81080000  1.0 0.1092771551
H  H195  1  0.45980000  0.96640000  0.18920000  1.0 0.1092771551
H  H196  1  0.04020000  0.46640000  0.68920000  1.0 0.1092771551
H  H197  1  0.01410000  0.93130000  0.25960000  1.0 0.1196670125
H  H198  1  0.48590000  0.43130000  0.75960000  1.0 0.1196670125
H  H199  1  0.51410000  0.93130000  0.24040000  1.0 0.1196670125
H  H200  1  0.98590000  0.43130000  0.74040000  1.0 0.1196670125
H  H201  1  0.95770000  0.98740000  0.23470000  1.0 0.1196670125
H  H202  1  0.54230000  0.48740000  0.73470000  1.0 0.1196670125
H  H203  1  0.45770000  0.98740000  0.26530000  1.0 0.1196670125
H  H204  1  0.04230000  0.48740000  0.76530000  1.0 0.1196670125
H  H205  1  0.29850000  0.88240000  0.05870000  1.0 0.0919249966
H  H206  1  0.20150000  0.38240000  0.55870000  1.0 0.0919249966
H  H207  1  0.79850000  0.88240000  0.44130000  1.0 0.0919249966
H  H208  1  0.70150000  0.38240000  0.94130000  1.0 0.0919249966
H  H209  1  0.23360000  0.94300000  0.14600000  1.0 0.1282539853
H  H210  1  0.26640000  0.44300000  0.64600000  1.0 0.1282539853
H  H211  1  0.73360000  0.94300000  0.35400000  1.0 0.1282539853
H  H212  1  0.76640000  0.44300000  0.85400000  1.0 0.1282539853
H  H213  1  0.14930000  0.88250000  0.21260000  1.0 0.1282539853
H  H214  1  0.35070000  0.38250000  0.71260000  1.0 0.1282539853
H  H215  1  0.64930000  0.88250000  0.28740000  1.0 0.1282539853
H  H216  1  0.85070000  0.38250000  0.78740000  1.0 0.1282539853
H  H217  1  0.20230000  0.70590000  0.10990000  1.0 0.0989774738
H  H218  1  0.29770000  0.20590000  0.60990000  1.0 0.0989774738
H  H219  1  0.70230000  0.70590000  0.39010000  1.0 0.0989774738
H  H220  1  0.79770000  0.20590000  0.89010000  1.0 0.0989774738
H  H221  1  0.11120000  0.65880000  0.15110000  1.0 0.1282539853
H  H222  1  0.38880000  0.15880000  0.65110000  1.0 0.1282539853
H  H223  1  0.61120000  0.65880000  0.34890000  1.0 0.1282539853
H  H224  1  0.88880000  0.15880000  0.84890000  1.0 0.1282539853
C  C1  1  0.09370000  0.11640000  0.43210000  1.0 0.083197004
C  C2  1  0.40630000  0.61640000  0.93210000  1.0 0.083197004
C  C3  1  0.59370000  0.11640000  0.06790000  1.0 0.083197004
C  C4  1  0.90630000  0.61640000  0.56790000  1.0 0.0919249966
C  C5  1  0.03470000  0.08540000  0.39100000  1.0 -0.1501730438
C  C6  1  0.46530000  0.58540000  0.89100000  1.0 -0.1501730438
C  C7  1  0.53470000  0.08540000  0.10900000  1.0 -0.1501730438
C  C8  1  0.96530000  0.58540000  0.60900000  1.0 -0.1501730438
C  C9  1  0.00520000  0.12760000  0.33650000  1.0 -0.0855336543
C  C10  1  0.49480000  0.62760000  0.83650000  1.0 -0.0855336543
C  C11  1  0.50520000  0.12760000  0.16350000  1.0 -0.0855336543
C  C12  1  0.99480000  0.62760000  0.66350000  1.0 -0.0855336543
C  C13  1  0.02850000  0.19280000  0.32820000  1.0 0.0179195715
C  C14  1  0.47150000  0.69280000  0.82820000  1.0 0.0179195715
C  C15  1  0.52850000  0.19280000  0.17180000  1.0 0.0179195715
C  C16  1  0.97150000  0.69280000  0.67180000  1.0 0.0179195715
C  C17  1  0.08280000  0.21750000  0.37320000  1.0 0.0026597464
C  C18  1  0.41720000  0.71750000  0.87320000  1.0 0.0026597464
C  C19  1  0.58280000  0.21750000  0.12680000  1.0 0.0026597464
C  C20  1  0.91720000  0.71750000  0.62680000  1.0 0.0026597464
C  C21  1  0.00070000  0.23890000  0.27220000  1.0 0.1819772814
C  C22  1  0.49930000  0.73890000  0.77220000  1.0 0.1819772814
C  C23  1  0.50070000  0.23890000  0.22780000  1.0 0.1819772814
C  C24  1  0.99930000  0.73890000  0.72780000  1.0 0.1819772814
C  C25  1  0.01010000  0.30820000  0.26760000  1.0 -0.218197627
C  C26  1  0.48990000  0.80820000  0.76760000  1.0 -0.218197627
C  C27  1  0.51010000  0.30820000  0.23240000  1.0 -0.218197627
C  C28  1  0.98990000  0.80820000  0.73240000  1.0 -0.218197627
C  C29  1  0.98230000  0.34720000  0.21710000  1.0 0.1386348264
C  C30  1  0.51770000  0.84720000  0.71710000  1.0 0.1386348264
C  C31  1  0.48230000  0.34720000  0.28290000  1.0 0.1386348264
C  C32  1  0.01770000  0.84720000  0.78290000  1.0 0.1386348264
C  C33  1  0.93460000  0.31110000  0.16870000  1.0 -0.2306747399
C  C34  1  0.56540000  0.81110000  0.66870000  1.0 -0.2306747399
C  C35  1  0.43460000  0.31110000  0.33130000  1.0 -0.2306747399
C  C36  1  0.06540000  0.81110000  0.83130000  1.0 -0.2306747399
C  C37  1  0.92960000  0.24110000  0.17410000  1.0 0.2033839469
C  C38  1  0.57040000  0.74110000  0.67410000  1.0 0.2033839469
C  C39  1  0.42960000  0.24110000  0.32590000  1.0 0.2033839469
C  C40  1  0.07040000  0.74110000  0.82590000  1.0 0.2033839469
C  C41  1  0.88980000  0.19660000  0.12380000  1.0 0.005555572
C  C42  1  0.61020000  0.69660000  0.62380000  1.0 0.005555572
C  C43  1  0.38980000  0.19660000  0.37620000  1.0 0.005555572
C  C44  1  0.11020000  0.69660000  0.87620000  1.0 0.005555572
C  C45  1  0.90670000  0.12940000  0.11210000  1.0 -0.0817392375
C  C46  1  0.59330000  0.62940000  0.61210000  1.0 -0.0817392375
C  C47  1  0.40670000  0.12940000  0.38790000  1.0 -0.0817392375
C  C48  1  0.09330000  0.62940000  0.88790000  1.0 -0.0817392375
C  C49  1  0.86610000  0.09190000  0.06400000  1.0 -0.1501730438
C  C50  1  0.63390000  0.59190000  0.56400000  1.0 -0.1501730438
C  C51  1  0.36610000  0.09190000  0.43600000  1.0 -0.1501730438
C  C52  1  0.13390000  0.59190000  0.93600000  1.0 -0.1501730438
C  C53  1  0.80520000  0.12190000  0.03220000  1.0 0.0471150932
C  C54  1  0.69480000  0.62190000  0.53220000  1.0 0.0471150932
C  C55  1  0.30520000  0.12190000  0.46780000  1.0 0.0471150932
C  C56  1  0.19480000  0.62190000  0.96780000  1.0 0.0471150932
C  C57  1  0.82870000  0.22540000  0.08800000  1.0 0.0179195715
C  C58  1  0.67130000  0.72540000  0.58800000  1.0 0.0179195715
C  C59  1  0.32870000  0.22540000  0.41200000  1.0 0.0179195715
C  C60  1  0.17130000  0.72540000  0.91200000  1.0 0.0179195715
C  C61  1  0.07110000  0.44780000  0.21010000  1.0 0.225424165
C  C62  1  0.42890000  0.94780000  0.71010000  1.0 0.225424165
C  C63  1  0.57110000  0.44780000  0.28990000  1.0 0.225424165
C  C64  1  0.92890000  0.94780000  0.78990000  1.0 0.225424165
C  C65  1  0.99430000  0.42550000  0.21450000  1.0 -0.0246096449
C  C66  1  0.50570000  0.92550000  0.71450000  1.0 -0.0246096449
C  C67  1  0.49430000  0.42550000  0.28550000  1.0 -0.0246096449
C  C68  1  0.00570000  0.92550000  0.78550000  1.0 -0.0246096449
C  C69  1  0.93650000  0.47400000  0.21540000  1.0 -0.2385581564
C  C70  1  0.56350000  0.97400000  0.71540000  1.0 -0.2385581564
C  C71  1  0.43650000  0.47400000  0.28460000  1.0 -0.2385581564
C  C72  1  0.06350000  0.97400000  0.78460000  1.0 -0.2385581564
C  C73  1  0.19650000  0.41560000  0.22090000  1.0 -0.0359126967
C  C74  1  0.30350000  0.91560000  0.72090000  1.0 -0.0359126967
C  C75  1  0.69650000  0.41560000  0.27910000  1.0 -0.0359126967
C  C76  1  0.80350000  0.91560000  0.77910000  1.0 -0.0359126967
C  C77  1  0.24040000  0.35120000  0.23920000  1.0 -0.2018012684
C  C78  1  0.25960000  0.85120000  0.73920000  1.0 -0.2018012684
C  C79  1  0.74040000  0.35120000  0.26080000  1.0 -0.2018012684
C  C80  1  0.75960000  0.85120000  0.76080000  1.0 -0.2018012684
C  C81  1  0.24750000  0.30710000  0.17330000  1.0 -0.1501730438
C  C82  1  0.25250000  0.80710000  0.67330000  1.0 -0.1501730438
C  C83  1  0.74750000  0.30710000  0.32670000  1.0 -0.1501730438
C  C84  1  0.75250000  0.80710000  0.82670000  1.0 -0.1501730438
C  C85  1  0.28320000  0.23630000  0.18230000  1.0 -0.1795628375
C  C86  1  0.21680000  0.73630000  0.68230000  1.0 -0.1795628375
C  C87  1  0.78320000  0.23630000  0.31770000  1.0 -0.1795628375
C  C88  1  0.71680000  0.73630000  0.81770000  1.0 -0.1795628375
C  C89  1  0.23950000  0.18460000  0.22760000  1.0 -0.1716589784
C  C90  1  0.26050000  0.68460000  0.72760000  1.0 -0.1716589784
C  C91  1  0.73950000  0.18460000  0.27240000  1.0 -0.1716589784
C  C92  1  0.76050000  0.68460000  0.77240000  1.0 -0.1716589784
C  C93  1  0.27180000  0.11130000  0.22780000  1.0 -0.1716589784
C  C94  1  0.22820000  0.61130000  0.72780000  1.0 -0.1716589784
C  C95  1  0.77180000  0.11130000  0.27220000  1.0 -0.1716589784
C  C96  1  0.72820000  0.61130000  0.77220000  1.0 -0.1716589784
C  C97  1  0.23600000  0.05680000  0.27450000  1.0 -0.1212628092
C  C98  1  0.26400000  0.55680000  0.77450000  1.0 -0.1212628092
C  C99  1  0.73600000  0.05680000  0.22550000  1.0 -0.1212628092
C  C100  1  0.76400000  0.55680000  0.72550000  1.0 -0.1212628092
C  C101  1  0.16060000  0.04550000  0.24490000  1.0 -0.3868094291
C  C102  1  0.33940000  0.54550000  0.74490000  1.0 -0.3868094291
C  C103  1  0.66060000  0.04550000  0.25510000  1.0 -0.3868094291
C  C104  1  0.83940000  0.54550000  0.75510000  1.0 -0.3868094291
C  C105  1  0.96050000  0.83640000  0.48540000  1.0 0.0276617651
C  C106  1  0.53950000  0.33640000  0.98540000  1.0 0.0276617651
C  C107  1  0.46050000  0.83640000  0.01460000  1.0 0.0276617651
C  C108  1  0.03950000  0.33640000  0.51460000  1.0 0.0276617651
C  C109  1  0.02670000  0.86260000  0.45640000  1.0 -0.140075257
C  C110  1  0.47330000  0.36260000  0.95640000  1.0 -0.140075257
C  C111  1  0.52670000  0.86260000  0.04360000  1.0 -0.140075257
C  C112  1  0.97330000  0.36260000  0.54360000  1.0 -0.140075257
C  C113  1  0.05080000  0.83560000  0.39530000  1.0 -0.0972561444
C  C114  1  0.44920000  0.33560000  0.89530000  1.0 -0.0972561444
C  C115  1  0.55080000  0.83560000  0.10470000  1.0 -0.0972561444
C  C116  1  0.94920000  0.33560000  0.60470000  1.0 -0.0972561444
C  C117  1  0.01170000  0.77790000  0.36790000  1.0 0.0026597464
C  C118  1  0.48830000  0.27790000  0.86790000  1.0 0.0026597464
C  C119  1  0.51170000  0.77790000  0.13210000  1.0 0.0026597464
C  C120  1  0.98830000  0.27790000  0.63210000  1.0 0.0026597464
C  C121  1  0.94400000  0.75520000  0.40030000  1.0 0.0554579507
C  C122  1  0.55600000  0.25520000  0.90030000  1.0 0.0554579507
C  C123  1  0.44400000  0.75520000  0.09970000  1.0 0.0554579507
C  C124  1  0.05600000  0.25520000  0.59970000  1.0 0.0554579507
C  C125  1  0.03860000  0.74310000  0.30540000  1.0 0.1819772814
C  C126  1  0.46140000  0.24310000  0.80540000  1.0 0.1819772814
C  C127  1  0.53860000  0.74310000  0.19460000  1.0 0.1819772814
C  C128  1  0.96140000  0.24310000  0.69460000  1.0 0.1819772814
C  C129  1  0.01780000  0.67440000  0.29130000  1.0 -0.2306747399
C  C130  1  0.48220000  0.17440000  0.79130000  1.0 -0.2306747399
C  C131  1  0.51780000  0.67440000  0.20870000  1.0 -0.2306747399
C  C132  1  0.98220000  0.17440000  0.70870000  1.0 -0.2306747399
C  C133  1  0.04220000  0.64060000  0.23370000  1.0 0.1386348264
C  C134  1  0.45780000  0.14060000  0.73370000  1.0 0.1386348264
C  C135  1  0.54220000  0.64060000  0.26630000  1.0 0.1386348264
C  C136  1  0.95780000  0.14060000  0.76630000  1.0 0.1386348264
C  C137  1  0.02570000  0.56720000  0.22220000  1.0 -0.0086687464
C  C138  1  0.47430000  0.06720000  0.72220000  1.0 -0.0086687464
C  C139  1  0.52570000  0.56720000  0.27780000  1.0 -0.0086687464
C  C140  1  0.97430000  0.06720000  0.77780000  1.0 -0.0086687464
C  C141  1  0.08430000  0.51880000  0.21390000  1.0 -0.2902935054
C  C142  1  0.41570000  0.01880000  0.71390000  1.0 -0.2902935054
C  C143  1  0.58430000  0.51880000  0.28610000  1.0 -0.2902935054
C  C144  1  0.91570000  0.01880000  0.78610000  1.0 -0.2902935054
C  C145  1  0.95110000  0.54270000  0.21920000  1.0 0.1917217468
C  C146  1  0.54890000  0.04270000  0.71920000  1.0 0.1917217468
C  C147  1  0.45110000  0.54270000  0.28080000  1.0 0.1917217468
C  C148  1  0.04890000  0.04270000  0.78080000  1.0 0.1917217468
C  C149  1  0.82240000  0.57500000  0.21060000  1.0 -0.0359126967
C  C150  1  0.67760000  0.07500000  0.71060000  1.0 -0.0359126967
C  C151  1  0.32240000  0.57500000  0.28940000  1.0 -0.0359126967
C  C152  1  0.17760000  0.07500000  0.78940000  1.0 -0.0359126967
C  C153  1  0.77030000  0.63260000  0.22790000  1.0 -0.2018012684
C  C154  1  0.72970000  0.13260000  0.72790000  1.0 -0.2018012684
C  C155  1  0.27030000  0.63260000  0.27210000  1.0 -0.2018012684
C  C156  1  0.22970000  0.13260000  0.77210000  1.0 -0.2018012684
C  C157  1  0.77940000  0.70320000  0.18700000  1.0 -0.1501730438
C  C158  1  0.72060000  0.20320000  0.68700000  1.0 -0.1501730438
C  C159  1  0.27940000  0.70320000  0.31300000  1.0 -0.1501730438
C  C160  1  0.22060000  0.20320000  0.81300000  1.0 -0.1501730438
C  C161  1  0.83900000  0.75050000  0.21140000  1.0 -0.1795628375
C  C162  1  0.66100000  0.25050000  0.71140000  1.0 -0.1795628375
C  C163  1  0.33900000  0.75050000  0.28860000  1.0 -0.1795628375
C  C164  1  0.16100000  0.25050000  0.78860000  1.0 -0.1795628375
C  C165  1  0.84310000  0.81610000  0.17090000  1.0 -0.1624497827
C  C166  1  0.65690000  0.31610000  0.67090000  1.0 -0.1624497827
C  C167  1  0.34310000  0.81610000  0.32910000  1.0 -0.1624497827
C  C168  1  0.15690000  0.31610000  0.82910000  1.0 -0.1624497827
C  C169  1  0.90850000  0.86840000  0.18630000  1.0 -0.1716589784
C  C170  1  0.59150000  0.36840000  0.68630000  1.0 -0.1716589784
C  C171  1  0.40850000  0.86840000  0.31370000  1.0 -0.1716589784
C  C172  1  0.09150000  0.36840000  0.81370000  1.0 -0.1716589784
C  C173  1  0.90110000  0.89420000  0.25500000  1.0 -0.1212628092
C  C174  1  0.59890000  0.39420000  0.75500000  1.0 -0.1212628092
C  C175  1  0.40110000  0.89420000  0.24500000  1.0 -0.1212628092
C  C176  1  0.09890000  0.39420000  0.74500000  1.0 -0.1212628092
C  C177  1  0.96520000  0.94980000  0.26560000  1.0 -0.3839937057
C  C178  1  0.53480000  0.44980000  0.76560000  1.0 -0.3839937057
C  C179  1  0.46520000  0.94980000  0.23440000  1.0 -0.3839937057
C  C180  1  0.03480000  0.44980000  0.73440000  1.0 -0.3839937057
C  C181  1  0.26460000  0.85720000  0.08660000  1.0 0.0989774738
C  C182  1  0.23540000  0.35720000  0.58660000  1.0 0.0919249966
C  C183  1  0.76460000  0.85720000  0.41340000  1.0 0.0989774738
C  C184  1  0.73540000  0.35720000  0.91340000  1.0 0.0989774738
C  C185  1  0.22470000  0.89460000  0.13850000  1.0 -0.140075257
C  C186  1  0.27530000  0.39460000  0.63850000  1.0 -0.140075257
C  C187  1  0.72470000  0.89460000  0.36150000  1.0 -0.140075257
C  C188  1  0.77530000  0.39460000  0.86150000  1.0 -0.140075257
C  C189  1  0.17680000  0.85900000  0.17820000  1.0 -0.0817392375
C  C190  1  0.32320000  0.35900000  0.67820000  1.0 -0.0817392375
C  C191  1  0.67680000  0.85900000  0.32180000  1.0 -0.0817392375
C  C192  1  0.82320000  0.35900000  0.82180000  1.0 -0.0817392375
C  C193  1  0.16410000  0.78730000  0.16520000  1.0 0.0179195715
C  C194  1  0.33590000  0.28730000  0.66520000  1.0 0.0179195715
C  C195  1  0.66410000  0.78730000  0.33480000  1.0 0.0179195715
C  C196  1  0.83590000  0.28730000  0.83480000  1.0 0.0179195715
C  C197  1  0.20740000  0.75490000  0.11660000  1.0 0.0026597464
C  C198  1  0.29260000  0.25490000  0.61660000  1.0 0.0026597464
C  C199  1  0.70740000  0.75490000  0.38340000  1.0 0.0026597464
C  C200  1  0.79260000  0.25490000  0.88340000  1.0 0.0026597464
C  C201  1  0.11000000  0.74560000  0.21070000  1.0 0.2088782583
C  C202  1  0.39000000  0.24560000  0.71070000  1.0 0.2088782583
C  C203  1  0.61000000  0.74560000  0.28930000  1.0 0.2088782583
C  C204  1  0.89000000  0.24560000  0.78930000  1.0 0.2088782583
C  C205  1  0.09130000  0.67950000  0.19110000  1.0 -0.2641997095
C  C206  1  0.40870000  0.17950000  0.69110000  1.0 -0.2641997095
C  C207  1  0.59130000  0.67950000  0.30890000  1.0 -0.2641997095
C  C208  1  0.90870000  0.17950000  0.80890000  1.0 -0.2641997095
C  C209  1  0.16450000  0.09470000  0.58400000  1.0 0.2586132568
C  C210  1  0.33550000  0.59470000  0.08400000  1.0 0.2586132568
C  C211  1  0.66450000  0.09470000  0.91600000  1.0 0.2586132568
C  C212  1  0.83550000  0.59470000  0.41600000  1.0 0.2586132568
C  C213  1  0.22040000  0.37270000  0.42510000  1.0 0.2586132568
C  C214  1  0.27960000  0.87270000  0.92510000  1.0 0.2586132568
C  C215  1  0.72040000  0.37270000  0.07490000  1.0 0.2586132568
C  C216  1  0.77960000  0.87270000  0.57490000  1.0 0.2586132568
S  S1  1  0.14759000  0.01389000  0.61424000  1.0 -0.4207079168
S  S2  1  0.35241000  0.51389000  0.11424000  1.0 -0.4207079168
S  S3  1  0.64759000  0.01389000  0.88576000  1.0 -0.4207079168
S  S4  1  0.85241000  0.51389000  0.38576000  1.0 -0.4207079168
S  S5  1  0.27142000  0.44505000  0.40611000  1.0 -0.3959209602
S  S6  1  0.22858000  0.94505000  0.90611000  1.0 -0.3959209602
S  S7  1  0.77142000  0.44505000  0.09389000  1.0 -0.3959209602
S  S8  1  0.72858000  0.94505000  0.59389000  1.0 -0.3959209602
N  N1  1  0.11220000  0.18160000  0.42450000  1.0 -0.2054238114
N  N2  1  0.38780000  0.68160000  0.92450000  1.0 -0.2054238114
N  N3  1  0.61220000  0.18160000  0.07550000  1.0 -0.2054238114
N  N4  1  0.88780000  0.68160000  0.57550000  1.0 -0.2054238114
N  N5  1  0.96070000  0.20210000  0.22340000  1.0 -0.3839937057
N  N6  1  0.53930000  0.70210000  0.72340000  1.0 -0.3839937057
N  N7  1  0.46070000  0.20210000  0.27660000  1.0 -0.3839937057
N  N8  1  0.03930000  0.70210000  0.77660000  1.0 -0.3839937057
N  N9  1  0.78400000  0.18920000  0.04500000  1.0 -0.2385581564
N  N10  1  0.71600000  0.68920000  0.54500000  1.0 -0.2385581564
N  N11  1  0.28400000  0.18920000  0.45500000  1.0 -0.2385581564
N  N12  1  0.21600000  0.68920000  0.95500000  1.0 -0.2385581564
N  N13  1  0.92010000  0.78210000  0.45660000  1.0 -0.218197627
N  N14  1  0.57990000  0.28210000  0.95660000  1.0 -0.218197627
N  N15  1  0.42010000  0.78210000  0.04340000  1.0 -0.218197627
N  N16  1  0.07990000  0.28210000  0.54340000  1.0 -0.218197627
N  N17  1  0.25580000  0.79140000  0.07760000  1.0 -0.2054238114
N  N18  1  0.24420000  0.29140000  0.57760000  1.0 -0.2054238114
N  N19  1  0.75580000  0.79140000  0.42240000  1.0 -0.2054238114
N  N20  1  0.74420000  0.29140000  0.92240000  1.0 -0.2054238114
N  N21  1  0.08610000  0.77900000  0.26320000  1.0 -0.340146413
N  N22  1  0.41390000  0.27900000  0.76320000  1.0 -0.340146413
N  N23  1  0.58610000  0.77900000  0.23680000  1.0 -0.340146413
N  N24  1  0.91390000  0.27900000  0.73680000  1.0 -0.340146413
N  N25  1  0.17280000  0.14860000  0.56570000  1.0 -0.4796864148
N  N26  1  0.32720000  0.64860000  0.06570000  1.0 -0.4796864148
N  N27  1  0.67280000  0.14860000  0.93430000  1.0 -0.4796864148
N  N28  1  0.82720000  0.64860000  0.43430000  1.0 -0.4796864148
N  N29  1  0.19160000  0.32330000  0.43930000  1.0 -0.4796864148
N  N30  1  0.30840000  0.82330000  0.93930000  1.0 -0.4796864148
N  N31  1  0.69160000  0.32330000  0.06070000  1.0 -0.4796864148
N  N32  1  0.80840000  0.82330000  0.56070000  1.0 -0.4796864148
O  O1  1  0.12220000  0.39800000  0.20690000  1.0 -0.140075257
O  O2  1  0.37780000  0.89800000  0.70690000  1.0 -0.140075257
O  O3  1  0.62220000  0.39800000  0.29310000  1.0 -0.140075257
O  O4  1  0.87780000  0.89800000  0.79310000  1.0 -0.140075257
O  O5  1  0.89750000  0.59350000  0.22680000  1.0 -0.1795628375
O  O6  1  0.60250000  0.09350000  0.72680000  1.0 -0.1795628375
O  O7  1  0.39750000  0.59350000  0.27320000  1.0 -0.1795628375
O  O8  1  0.10250000  0.09350000  0.77320000  1.0 -0.1795628375
