# DDEC6 charges by PACMAN v1.1 (https://github.com/mtap-research/PACMAN-charge/)
data_LOWQIX_ASR_pacman
_symmetry_space_group_name_H-M   'P 1'
_cell_length_a   13.50900000
_cell_length_b   11.98380000
_cell_length_c   27.03900000
_cell_angle_alpha   90.00000000
_cell_angle_beta   93.45900000
_cell_angle_gamma   90.00000000
_symmetry_Int_Tables_number   1
_chemical_formula_structural   Zn7H44C64(NO15)2
_chemical_formula_sum   'Zn14 H88 C128 N4 O60'
_cell_volume   4369.34636111
_cell_formula_units_Z   2
loop_
 _symmetry_equiv_pos_site_id
 _symmetry_equiv_pos_as_xyz
  1  'x, y, z'
loop_
 _atom_site_type_symbol
 _atom_site_label
 _atom_site_symmetry_multiplicity
 _atom_site_fract_x
 _atom_site_fract_y
 _atom_site_fract_z
 _atom_site_occupancy
 _atom_site_charge
Zn  Zn1  1  0.82305000  0.17349000  0.54204000  1.0 0.9732451992
Zn  Zn2  1  0.82305000  0.82651000  0.04204000  1.0 0.9751208581
Zn  Zn3  1  0.17695000  0.82651000  0.45796000  1.0 0.9732451992
Zn  Zn4  1  0.17695000  0.17349000  0.95796000  1.0 0.9751208581
Zn  Zn5  1  0.80152000  0.82683000  0.44362000  1.0 0.9732451992
Zn  Zn6  1  0.80152000  0.17317000  0.94362000  1.0 0.9732451992
Zn  Zn7  1  0.19848000  0.17317000  0.55638000  1.0 0.9732451992
Zn  Zn8  1  0.19848000  0.82683000  0.05638000  1.0 0.9732451992
Zn  Zn9  1  0.00000000  0.00000000  0.50000000  1.0 1.1528156556
Zn  Zn10  1  0.00000000  0.00000000  0.00000000  1.0 1.1528156556
Zn  Zn11  1  0.98844000  0.92406000  0.38895000  1.0 1.0309033252
Zn  Zn12  1  0.98844000  0.07594000  0.88895000  1.0 1.0309033252
Zn  Zn13  1  0.01156000  0.07594000  0.61105000  1.0 1.0309033252
Zn  Zn14  1  0.01156000  0.92406000  0.11105000  1.0 1.0309033252
H  H1  1  0.86120000  0.12460000  0.74610000  1.0 0.1477435312
H  H2  1  0.86120000  0.87540000  0.24610000  1.0 0.1477435312
H  H3  1  0.13880000  0.87540000  0.25390000  1.0 0.1477435312
H  H4  1  0.13880000  0.12460000  0.75390000  1.0 0.1477435312
H  H5  1  0.63890000  0.28240000  0.80740000  1.0 0.1274680457
H  H6  1  0.63890000  0.71760000  0.30740000  1.0 0.1274680457
H  H7  1  0.36110000  0.71760000  0.19260000  1.0 0.1274680457
H  H8  1  0.36110000  0.28240000  0.69260000  1.0 0.1274680457
H  H9  1  0.58830000  0.34930000  0.73190000  1.0 0.1274680457
H  H10  1  0.58830000  0.65070000  0.23190000  1.0 0.1274680457
H  H11  1  0.41170000  0.65070000  0.26810000  1.0 0.1274680457
H  H12  1  0.41170000  0.34930000  0.76810000  1.0 0.1274680457
H  H13  1  0.66650000  0.30510000  0.66040000  1.0 0.1228345777
H  H14  1  0.66650000  0.69490000  0.16040000  1.0 0.1228345777
H  H15  1  0.33350000  0.69490000  0.33960000  1.0 0.1228345777
H  H16  1  0.33350000  0.30510000  0.83960000  1.0 0.1228345777
H  H17  1  0.89120000  0.47700000  0.46450000  1.0 0.1274680457
H  H18  1  0.89120000  0.52300000  0.96450000  1.0 0.1274680457
H  H19  1  0.10880000  0.52300000  0.53550000  1.0 0.1274680457
H  H20  1  0.10880000  0.47700000  0.03550000  1.0 0.1274680457
H  H21  1  0.10950000  0.27760000  0.41850000  1.0 0.1390946636
H  H22  1  0.10950000  0.72240000  0.91850000  1.0 0.1390946636
H  H23  1  0.89050000  0.72240000  0.58150000  1.0 0.1390946636
H  H24  1  0.89050000  0.27760000  0.08150000  1.0 0.1390946636
H  H25  1  0.18350000  0.42510000  0.38190000  1.0 0.1274680457
H  H26  1  0.18350000  0.57490000  0.88190000  1.0 0.1274680457
H  H27  1  0.81650000  0.57490000  0.61810000  1.0 0.1274680457
H  H28  1  0.81650000  0.42510000  0.11810000  1.0 0.1274680457
H  H29  1  0.09940000  0.60300000  0.37780000  1.0 0.1274680457
H  H30  1  0.09940000  0.39700000  0.87780000  1.0 0.1274680457
H  H31  1  0.90060000  0.39700000  0.62220000  1.0 0.1274680457
H  H32  1  0.90060000  0.60300000  0.12220000  1.0 0.1274680457
H  H33  1  0.50250000  0.19680000  0.49410000  1.0 0.1390946636
H  H34  1  0.50250000  0.80320000  0.99410000  1.0 0.1390946636
H  H35  1  0.49750000  0.80320000  0.50590000  1.0 0.1390946636
H  H36  1  0.49750000  0.19680000  0.00590000  1.0 0.1390946636
H  H37  1  0.31960000  0.03220000  0.39040000  1.0 0.0670196682
H  H38  1  0.31960000  0.96780000  0.89040000  1.0 0.0670196682
H  H39  1  0.68040000  0.96780000  0.60960000  1.0 0.0670196682
H  H40  1  0.68040000  0.03220000  0.10960000  1.0 0.0670196682
H  H41  1  0.45220000  0.93990000  0.35300000  1.0 0.1274680457
H  H42  1  0.45220000  0.06010000  0.85300000  1.0 0.1274680457
H  H43  1  0.54780000  0.06010000  0.64700000  1.0 0.1274680457
H  H44  1  0.54780000  0.93990000  0.14700000  1.0 0.1274680457
H  H45  1  0.61440000  0.00840000  0.38490000  1.0 0.0889188058
H  H46  1  0.61440000  0.99160000  0.88490000  1.0 0.0889188058
H  H47  1  0.38560000  0.99160000  0.61510000  1.0 0.0889188058
H  H48  1  0.38560000  0.00840000  0.11510000  1.0 0.0889188058
H  H49  1  0.67420000  0.77970000  0.61750000  1.0 0.1228345777
H  H50  1  0.67420000  0.22030000  0.11750000  1.0 0.1228345777
H  H51  1  0.32580000  0.22030000  0.38250000  1.0 0.1228345777
H  H52  1  0.32580000  0.77970000  0.88250000  1.0 0.1228345777
H  H53  1  0.51810000  0.75000000  0.66060000  1.0 0.1390946636
H  H54  1  0.51810000  0.25000000  0.16060000  1.0 0.1390946636
H  H55  1  0.48190000  0.25000000  0.33940000  1.0 0.1390946636
H  H56  1  0.48190000  0.75000000  0.83940000  1.0 0.1390946636
H  H57  1  0.36760000  0.80420000  0.62780000  1.0 0.1228345777
H  H58  1  0.36760000  0.19580000  0.12780000  1.0 0.1228345777
H  H59  1  0.63240000  0.19580000  0.37220000  1.0 0.1228345777
H  H60  1  0.63240000  0.80420000  0.87220000  1.0 0.1228345777
H  H61  1  0.69510000  0.00470000  0.61930000  1.0 0.0823002763
H  H62  1  0.69510000  0.99530000  0.11930000  1.0 0.0823002763
H  H63  1  0.30490000  0.99530000  0.38070000  1.0 0.0823002763
H  H64  1  0.30490000  0.00470000  0.88070000  1.0 0.0823002763
H  H65  1  0.40470000  0.97120000  0.66580000  1.0 0.0889188058
H  H66  1  0.40470000  0.02880000  0.16580000  1.0 0.0889188058
H  H67  1  0.59530000  0.02880000  0.33420000  1.0 0.0889188058
H  H68  1  0.59530000  0.97120000  0.83420000  1.0 0.0889188058
H  H69  1  0.46500000  0.96660000  0.71860000  1.0 0.1390946636
H  H70  1  0.46500000  0.03340000  0.21860000  1.0 0.1390946636
H  H71  1  0.53500000  0.03340000  0.28140000  1.0 0.1390946636
H  H72  1  0.53500000  0.96660000  0.78140000  1.0 0.1390946636
H  H73  1  0.41000000  0.07910000  0.70080000  1.0 0.1274680457
H  H74  1  0.41000000  0.92090000  0.20080000  1.0 0.1274680457
H  H75  1  0.59000000  0.92090000  0.29920000  1.0 0.1274680457
H  H76  1  0.59000000  0.07910000  0.79920000  1.0 0.1274680457
H  H77  1  0.47340000  0.07600000  0.59020000  1.0 0.1125835299
H  H78  1  0.47340000  0.92400000  0.09020000  1.0 0.1125835299
H  H79  1  0.52660000  0.92400000  0.40980000  1.0 0.1125835299
H  H80  1  0.52660000  0.07600000  0.90980000  1.0 0.1125835299
H  H81  1  0.47440000  0.19000000  0.62100000  1.0 0.1228345777
H  H82  1  0.47440000  0.81000000  0.12100000  1.0 0.1228345777
H  H83  1  0.52560000  0.81000000  0.37900000  1.0 0.1228345777
H  H84  1  0.52560000  0.19000000  0.87900000  1.0 0.1228345777
H  H85  1  0.57320000  0.14760000  0.59720000  1.0 0.1228345777
H  H86  1  0.57320000  0.85240000  0.09720000  1.0 0.1228345777
H  H87  1  0.42680000  0.85240000  0.40280000  1.0 0.1228345777
H  H88  1  0.42680000  0.14760000  0.90280000  1.0 0.1228345777
C  C1  1  0.77650000  0.20660000  0.69460000  1.0 -0.0569576726
C  C2  1  0.77650000  0.79340000  0.19460000  1.0 -0.0569576726
C  C3  1  0.22350000  0.79340000  0.30540000  1.0 -0.0569576726
C  C4  1  0.22350000  0.20660000  0.80540000  1.0 -0.0569576726
C  C5  1  0.80430000  0.17120000  0.74260000  1.0 -0.0812411115
C  C6  1  0.80430000  0.82880000  0.24260000  1.0 -0.0812411115
C  C7  1  0.19570000  0.82880000  0.25740000  1.0 -0.0812411115
C  C8  1  0.19570000  0.17120000  0.75740000  1.0 -0.0812411115
C  C9  1  0.76020000  0.19530000  0.78450000  1.0 -0.0141566449
C  C10  1  0.76020000  0.80470000  0.28450000  1.0 -0.0141566449
C  C11  1  0.23980000  0.80470000  0.21550000  1.0 -0.0141566449
C  C12  1  0.23980000  0.19530000  0.71550000  1.0 -0.0141566449
C  C13  1  0.67460000  0.26400000  0.77930000  1.0 -0.1099185527
C  C14  1  0.67460000  0.73600000  0.27930000  1.0 -0.1099185527
C  C15  1  0.32540000  0.73600000  0.22070000  1.0 -0.1099185527
C  C16  1  0.32540000  0.26400000  0.72070000  1.0 -0.1099185527
C  C17  1  0.64470000  0.30200000  0.73450000  1.0 -0.1099185527
C  C18  1  0.64470000  0.69800000  0.23450000  1.0 -0.1099185527
C  C19  1  0.35530000  0.69800000  0.26550000  1.0 -0.1099185527
C  C20  1  0.35530000  0.30200000  0.76550000  1.0 -0.1099185527
C  C21  1  0.69130000  0.27600000  0.69140000  1.0 -0.0812411115
C  C22  1  0.69130000  0.72400000  0.19140000  1.0 -0.0812411115
C  C23  1  0.30870000  0.72400000  0.30860000  1.0 -0.0812411115
C  C24  1  0.30870000  0.27600000  0.80860000  1.0 -0.0812411115
C  C25  1  0.82760000  0.17320000  0.65170000  1.0 0.5828378506
C  C26  1  0.82760000  0.82680000  0.15170000  1.0 0.5828378506
C  C27  1  0.17240000  0.82680000  0.34830000  1.0 0.5828378506
C  C28  1  0.17240000  0.17320000  0.84830000  1.0 0.5828378506
C  C29  1  0.79810000  0.15770000  0.83570000  1.0 0.5916680849
C  C30  1  0.79810000  0.84230000  0.33570000  1.0 0.5916680849
C  C31  1  0.20190000  0.84230000  0.16430000  1.0 0.5916680849
C  C32  1  0.20190000  0.15770000  0.66430000  1.0 0.5916680849
C  C33  1  0.98880000  0.55680000  0.42040000  1.0 -0.0318972107
C  C34  1  0.98880000  0.44320000  0.92040000  1.0 -0.0318972107
C  C35  1  0.01120000  0.44320000  0.57960000  1.0 -0.0318972107
C  C36  1  0.01120000  0.55680000  0.07960000  1.0 -0.0318972107
C  C37  1  0.94850000  0.46680000  0.44640000  1.0 -0.0898740173
C  C38  1  0.94850000  0.53320000  0.94640000  1.0 -0.0898740173
C  C39  1  0.05150000  0.53320000  0.55360000  1.0 -0.0898740173
C  C40  1  0.05150000  0.46680000  0.05360000  1.0 -0.0898740173
C  C41  1  0.99490000  0.36150000  0.44480000  1.0 -0.0318972107
C  C42  1  0.99490000  0.63850000  0.94480000  1.0 -0.0318972107
C  C43  1  0.00510000  0.63850000  0.55520000  1.0 -0.0318972107
C  C44  1  0.00510000  0.36150000  0.05520000  1.0 -0.0318972107
C  C45  1  0.07980000  0.34930000  0.41970000  1.0 -0.0712478405
C  C46  1  0.07980000  0.65070000  0.91970000  1.0 -0.0712478405
C  C47  1  0.92020000  0.65070000  0.58030000  1.0 -0.0712478405
C  C48  1  0.92020000  0.34930000  0.08030000  1.0 -0.0712478405
C  C49  1  0.12230000  0.43490000  0.39690000  1.0 -0.1030100708
C  C50  1  0.12230000  0.56510000  0.89690000  1.0 -0.1030100708
C  C51  1  0.87770000  0.56510000  0.60310000  1.0 -0.1030100708
C  C52  1  0.87770000  0.43490000  0.10310000  1.0 -0.1030100708
C  C53  1  0.07320000  0.54270000  0.39570000  1.0 -0.0712478405
C  C54  1  0.07320000  0.45730000  0.89570000  1.0 -0.0712478405
C  C55  1  0.92680000  0.45730000  0.60430000  1.0 -0.0712478405
C  C56  1  0.92680000  0.54270000  0.10430000  1.0 -0.0712478405
C  C57  1  0.94310000  0.67030000  0.42420000  1.0 0.6042022265
C  C58  1  0.94310000  0.32970000  0.92420000  1.0 0.6042022265
C  C59  1  0.05690000  0.32970000  0.57580000  1.0 0.6042022265
C  C60  1  0.05690000  0.67030000  0.07580000  1.0 0.6042022265
C  C61  1  0.95260000  0.26910000  0.47390000  1.0 0.5916680849
C  C62  1  0.95260000  0.73090000  0.97390000  1.0 0.5916680849
C  C63  1  0.04740000  0.73090000  0.52610000  1.0 0.5916680849
C  C64  1  0.04740000  0.26910000  0.02610000  1.0 0.5916680849
C  C65  1  0.56800000  0.07900000  0.44440000  1.0 0.0413349957
C  C66  1  0.56800000  0.92100000  0.94440000  1.0 0.0413349957
C  C67  1  0.43200000  0.92100000  0.55560000  1.0 0.0413349957
C  C68  1  0.43200000  0.07900000  0.05560000  1.0 0.0413349957
C  C69  1  0.49240000  0.13920000  0.47020000  1.0 0.0127173634
C  C70  1  0.49240000  0.86080000  0.97020000  1.0 0.0127173634
C  C71  1  0.50760000  0.86080000  0.52980000  1.0 0.0127173634
C  C72  1  0.50760000  0.13920000  0.02980000  1.0 0.0127173634
C  C73  1  0.39000000  0.08800000  0.44980000  1.0 0.0204847858
C  C74  1  0.39000000  0.91200000  0.94980000  1.0 0.0251728396
C  C75  1  0.61000000  0.91200000  0.55020000  1.0 0.0251728396
C  C76  1  0.61000000  0.08800000  0.05020000  1.0 0.0204847858
C  C77  1  0.38400000  0.03700000  0.40630000  1.0 -0.1287403733
C  C78  1  0.38400000  0.96300000  0.90630000  1.0 -0.1287403733
C  C79  1  0.61600000  0.96300000  0.59370000  1.0 -0.1287403733
C  C80  1  0.61600000  0.03700000  0.09370000  1.0 -0.1287403733
C  C81  1  0.46100000  0.98900000  0.38060000  1.0 0.0670196682
C  C82  1  0.46100000  0.01100000  0.88060000  1.0 0.0670196682
C  C83  1  0.53900000  0.01100000  0.61940000  1.0 0.0670196682
C  C84  1  0.53900000  0.98900000  0.11940000  1.0 0.0670196682
C  C85  1  0.55700000  0.02500000  0.40210000  1.0 -0.2003978335
C  C86  1  0.55700000  0.97500000  0.90210000  1.0 -0.2003978335
C  C87  1  0.44300000  0.97500000  0.59790000  1.0 -0.2003978335
C  C88  1  0.44300000  0.02500000  0.09790000  1.0 -0.2003978335
C  C89  1  0.68250000  0.13110000  0.46540000  1.0 0.4883631028
C  C90  1  0.68250000  0.86890000  0.96540000  1.0 0.4883631028
C  C91  1  0.31750000  0.86890000  0.53460000  1.0 0.4883631028
C  C92  1  0.31750000  0.13110000  0.03460000  1.0 0.4883631028
C  C93  1  0.30750000  0.14310000  0.47430000  1.0 0.4796444334
C  C94  1  0.30750000  0.85690000  0.97430000  1.0 0.4796444334
C  C95  1  0.69250000  0.85690000  0.52570000  1.0 0.4796444334
C  C96  1  0.69250000  0.14310000  0.02570000  1.0 0.4796444334
C  C97  1  0.41600000  0.83300000  0.55990000  1.0 0.0204847858
C  C98  1  0.41600000  0.16700000  0.05990000  1.0 0.0204847858
C  C99  1  0.58400000  0.16700000  0.44010000  1.0 0.0204847858
C  C100  1  0.58400000  0.83300000  0.94010000  1.0 0.0204847858
C  C101  1  0.59400000  0.82600000  0.55290000  1.0 0.0127173634
C  C102  1  0.59400000  0.17400000  0.05290000  1.0 0.0127173634
C  C103  1  0.40600000  0.17400000  0.44710000  1.0 0.0127173634
C  C104  1  0.40600000  0.82600000  0.94710000  1.0 0.0127173634
C  C105  1  0.61000000  0.79300000  0.60200000  1.0 -0.1287403733
C  C106  1  0.61000000  0.20700000  0.10200000  1.0 -0.1287403733
C  C107  1  0.39000000  0.20700000  0.39800000  1.0 -0.1287403733
C  C108  1  0.39000000  0.79300000  0.89800000  1.0 -0.1287403733
C  C109  1  0.51400000  0.77900000  0.62800000  1.0 -0.0898740173
C  C110  1  0.51400000  0.22100000  0.12800000  1.0 -0.0898740173
C  C111  1  0.48600000  0.22100000  0.37200000  1.0 -0.0898740173
C  C112  1  0.48600000  0.77900000  0.87200000  1.0 -0.0898740173
C  C113  1  0.42400000  0.80500000  0.60830000  1.0 -0.1190735244
C  C114  1  0.42400000  0.19500000  0.10830000  1.0 -0.1190735244
C  C115  1  0.57600000  0.19500000  0.39170000  1.0 -0.1190735244
C  C116  1  0.57600000  0.80500000  0.89170000  1.0 -0.1190735244
C  C117  1  0.66100000  0.00200000  0.64900000  1.0 0.168328923
C  C118  1  0.66100000  0.99800000  0.14900000  1.0 0.168328923
C  C119  1  0.33900000  0.99800000  0.35100000  1.0 0.168328923
C  C120  1  0.33900000  0.00200000  0.85100000  1.0 0.168328923
C  C121  1  0.44700000  0.01400000  0.69000000  1.0 -0.3281547271
C  C122  1  0.44700000  0.98600000  0.19000000  1.0 -0.3281547271
C  C123  1  0.55300000  0.98600000  0.31000000  1.0 -0.3281547271
C  C124  1  0.55300000  0.01400000  0.81000000  1.0 -0.3281547271
C  C125  1  0.51300000  0.12400000  0.61300000  1.0 -0.2865214192
C  C126  1  0.51300000  0.87600000  0.11300000  1.0 -0.2865214192
C  C127  1  0.48700000  0.87600000  0.38700000  1.0 -0.2865214192
C  C128  1  0.48700000  0.12400000  0.88700000  1.0 -0.2865214192
N  N1  1  0.54500000  0.05400000  0.66500000  1.0 0.0413349957
N  N2  1  0.54500000  0.94600000  0.16500000  1.0 0.0413349957
N  N3  1  0.45500000  0.94600000  0.33500000  1.0 0.0413349957
N  N4  1  0.45500000  0.05400000  0.83500000  1.0 0.0413349957
O  O1  1  0.90190000  0.11050000  0.65660000  1.0 -0.5020793759
O  O2  1  0.90190000  0.88950000  0.15660000  1.0 -0.5020793759
O  O3  1  0.09810000  0.88950000  0.34340000  1.0 -0.5020793759
O  O4  1  0.09810000  0.11050000  0.84340000  1.0 -0.5020793759
O  O5  1  0.79180000  0.20870000  0.60960000  1.0 -0.5377107107
O  O6  1  0.79180000  0.79130000  0.10960000  1.0 -0.5377107107
O  O7  1  0.20820000  0.79130000  0.39040000  1.0 -0.5377107107
O  O8  1  0.20820000  0.20870000  0.89040000  1.0 -0.5377107107
O  O9  1  0.87390000  0.09610000  0.83500000  1.0 -0.5183489986
O  O10  1  0.87390000  0.90390000  0.33500000  1.0 -0.5183489986
O  O11  1  0.12610000  0.90390000  0.16500000  1.0 -0.5183489986
O  O12  1  0.12610000  0.09610000  0.66500000  1.0 -0.5183489986
O  O13  1  0.75390000  0.18370000  0.87260000  1.0 -0.5101103116
O  O14  1  0.75390000  0.81630000  0.37260000  1.0 -0.5101103116
O  O15  1  0.24610000  0.81630000  0.12740000  1.0 -0.5020793759
O  O16  1  0.24610000  0.18370000  0.62740000  1.0 -0.5101103116
O  O17  1  0.86440000  0.68000000  0.44780000  1.0 -0.5101103116
O  O18  1  0.86440000  0.32000000  0.94780000  1.0 -0.5101103116
O  O19  1  0.13560000  0.32000000  0.55220000  1.0 -0.5101103116
O  O20  1  0.13560000  0.68000000  0.05220000  1.0 -0.5101103116
O  O21  1  0.98600000  0.75070000  0.40230000  1.0 -0.5770629489
O  O22  1  0.98600000  0.24930000  0.90230000  1.0 -0.5770629489
O  O23  1  0.01400000  0.24930000  0.59770000  1.0 -0.5770629489
O  O24  1  0.01400000  0.75070000  0.09770000  1.0 -0.5770629489
O  O25  1  0.88670000  0.29080000  0.50340000  1.0 -0.5183489986
O  O26  1  0.88670000  0.70920000  0.00340000  1.0 -0.5183489986
O  O27  1  0.11330000  0.70920000  0.49660000  1.0 -0.5183489986
O  O28  1  0.11330000  0.29080000  0.99660000  1.0 -0.5183489986
O  O29  1  0.98860000  0.17140000  0.46770000  1.0 -0.4890529358
O  O30  1  0.98860000  0.82860000  0.96770000  1.0 -0.4890529358
O  O31  1  0.01140000  0.82860000  0.53230000  1.0 -0.4890529358
O  O32  1  0.01140000  0.17140000  0.03230000  1.0 -0.4890529358
O  O33  1  0.68900000  0.14770000  0.51130000  1.0 -0.4767498516
O  O34  1  0.68900000  0.85230000  0.01130000  1.0 -0.4767498516
O  O35  1  0.31100000  0.85230000  0.48870000  1.0 -0.4767498516
O  O36  1  0.31100000  0.14770000  0.98870000  1.0 -0.4767498516
O  O37  1  0.75100000  0.11870000  0.43870000  1.0 -0.3722029918
O  O38  1  0.75100000  0.88130000  0.93870000  1.0 -0.3722029918
O  O39  1  0.24900000  0.88130000  0.56130000  1.0 -0.3722029918
O  O40  1  0.24900000  0.11870000  0.06130000  1.0 -0.3722029918
O  O41  1  0.32150000  0.16290000  0.52290000  1.0 -0.5290846222
O  O42  1  0.32150000  0.83710000  0.02290000  1.0 -0.5290846222
O  O43  1  0.67850000  0.83710000  0.47710000  1.0 -0.5290846222
O  O44  1  0.67850000  0.16290000  0.97710000  1.0 -0.5290846222
O  O45  1  0.22490000  0.13500000  0.45080000  1.0 -0.415441803
O  O46  1  0.22490000  0.86500000  0.95080000  1.0 -0.415441803
O  O47  1  0.77510000  0.86500000  0.54920000  1.0 -0.415441803
O  O48  1  0.77510000  0.13500000  0.04920000  1.0 -0.415441803
O  O49  1  0.89300000  0.95430000  0.44620000  1.0 -0.7182470881
O  O50  1  0.89300000  0.04570000  0.94620000  1.0 -0.7182470881
O  O51  1  0.10700000  0.04570000  0.55380000  1.0 -0.7182470881
O  O52  1  0.10700000  0.95430000  0.05380000  1.0 -0.7182470881
O  O53  1  0.90430000  0.04240000  0.55260000  1.0 -0.71328702
O  O54  1  0.90430000  0.95760000  0.05260000  1.0 -0.7182470881
O  O55  1  0.09570000  0.95760000  0.44740000  1.0 -0.71328702
O  O56  1  0.09570000  0.04240000  0.94740000  1.0 -0.71328702
O  O57  1  0.68100000  0.96100000  0.69080000  1.0 -0.4090221964
O  O58  1  0.68100000  0.03900000  0.19080000  1.0 -0.4090221964
O  O59  1  0.31900000  0.03900000  0.30920000  1.0 -0.4090221964
O  O60  1  0.31900000  0.96100000  0.80920000  1.0 -0.4090221964
