# DDEC6 charges by PACMAN v1.1 (https://github.com/mtap-research/PACMAN-charge/)
data_LOXBEH_FSR_pacman
_symmetry_space_group_name_H-M   'P 1'
_cell_length_a   29.59550000
_cell_length_b   29.59550000
_cell_length_c   29.59550000
_cell_angle_alpha   90.00000000
_cell_angle_beta   90.00000000
_cell_angle_gamma   90.00000000
_symmetry_Int_Tables_number   1
_chemical_formula_structural   Cd3H36C48N10O17
_chemical_formula_sum   'Cd36 H432 C576 N120 O204'
_cell_volume   25922.50963811
_cell_formula_units_Z   12
loop_
 _symmetry_equiv_pos_site_id
 _symmetry_equiv_pos_as_xyz
  1  'x, y, z'
loop_
 _atom_site_type_symbol
 _atom_site_label
 _atom_site_symmetry_multiplicity
 _atom_site_fract_x
 _atom_site_fract_y
 _atom_site_fract_z
 _atom_site_occupancy
 _atom_site_charge
Cd  Cd1  1  0.97813000  0.27607000  0.99793000  1.0 0.9226337355
Cd  Cd2  1  0.52187000  0.72393000  0.49793000  1.0 0.9226337355
Cd  Cd3  1  0.02187000  0.77607000  0.50207000  1.0 0.9226337355
Cd  Cd4  1  0.47813000  0.22393000  0.00207000  1.0 0.9226337355
Cd  Cd5  1  0.99793000  0.97813000  0.27607000  1.0 0.9226337355
Cd  Cd6  1  0.49793000  0.52187000  0.72393000  1.0 0.9226337355
Cd  Cd7  1  0.50207000  0.02187000  0.77607000  1.0 0.9226337355
Cd  Cd8  1  0.00207000  0.47813000  0.22393000  1.0 0.9226337355
Cd  Cd9  1  0.27607000  0.99793000  0.97813000  1.0 0.9226337355
Cd  Cd10  1  0.72393000  0.49793000  0.52187000  1.0 0.9226337355
Cd  Cd11  1  0.77607000  0.50207000  0.02187000  1.0 0.9226337355
Cd  Cd12  1  0.22393000  0.00207000  0.47813000  1.0 0.9226337355
Cd  Cd13  1  0.52607000  0.72813000  0.75207000  1.0 0.9226337355
Cd  Cd14  1  0.97393000  0.27187000  0.25207000  1.0 0.9226337355
Cd  Cd15  1  0.02607000  0.77187000  0.24793000  1.0 0.9226337355
Cd  Cd16  1  0.47393000  0.22813000  0.74793000  1.0 0.9226337355
Cd  Cd17  1  0.22813000  0.74793000  0.47393000  1.0 0.9226337355
Cd  Cd18  1  0.77187000  0.24793000  0.02607000  1.0 0.9226337355
Cd  Cd19  1  0.27187000  0.25207000  0.97393000  1.0 0.9226337355
Cd  Cd20  1  0.72813000  0.75207000  0.52607000  1.0 0.9226337355
Cd  Cd21  1  0.24793000  0.02607000  0.77187000  1.0 0.9226337355
Cd  Cd22  1  0.74793000  0.47393000  0.22813000  1.0 0.9226337355
Cd  Cd23  1  0.75207000  0.52607000  0.72813000  1.0 0.9226337355
Cd  Cd24  1  0.25207000  0.97393000  0.27187000  1.0 0.9226337355
Cd  Cd25  1  0.81324000  0.43676000  0.62500000  1.0 0.8892529638
Cd  Cd26  1  0.68676000  0.56324000  0.12500000  1.0 0.8892529638
Cd  Cd27  1  0.18676000  0.93676000  0.87500000  1.0 0.8892529638
Cd  Cd28  1  0.31324000  0.06324000  0.37500000  1.0 0.8892529638
Cd  Cd29  1  0.62500000  0.81324000  0.43676000  1.0 0.8892529638
Cd  Cd30  1  0.12500000  0.68676000  0.56324000  1.0 0.8892529638
Cd  Cd31  1  0.87500000  0.18676000  0.93676000  1.0 0.8892529638
Cd  Cd32  1  0.37500000  0.31324000  0.06324000  1.0 0.8892529638
Cd  Cd33  1  0.43676000  0.62500000  0.81324000  1.0 0.8892529638
Cd  Cd34  1  0.56324000  0.12500000  0.68676000  1.0 0.8892529638
Cd  Cd35  1  0.93676000  0.87500000  0.18676000  1.0 0.8892529638
Cd  Cd36  1  0.06324000  0.37500000  0.31324000  1.0 0.8892529638
H  H1  1  0.98090000  0.56950000  0.54000000  1.0 0.1545450744
H  H2  1  0.51910000  0.43050000  0.04000000  1.0 0.1545450744
H  H3  1  0.01910000  0.06950000  0.96000000  1.0 0.1545450744
H  H4  1  0.48090000  0.93050000  0.46000000  1.0 0.1545450744
H  H5  1  0.54000000  0.98090000  0.56950000  1.0 0.1545450744
H  H6  1  0.04000000  0.51910000  0.43050000  1.0 0.1545450744
H  H7  1  0.96000000  0.01910000  0.06950000  1.0 0.1545450744
H  H8  1  0.46000000  0.48090000  0.93050000  1.0 0.1545450744
H  H9  1  0.56950000  0.54000000  0.98090000  1.0 0.1545450744
H  H10  1  0.43050000  0.04000000  0.51910000  1.0 0.1545450744
H  H11  1  0.06950000  0.96000000  0.01910000  1.0 0.1545450744
H  H12  1  0.93050000  0.46000000  0.48090000  1.0 0.1545450744
H  H13  1  0.81950000  0.73090000  0.21000000  1.0 0.1545450744
H  H14  1  0.68050000  0.26910000  0.71000000  1.0 0.1545450744
H  H15  1  0.31950000  0.76910000  0.79000000  1.0 0.1545450744
H  H16  1  0.18050000  0.23090000  0.29000000  1.0 0.1545450744
H  H17  1  0.23090000  0.29000000  0.18050000  1.0 0.1545450744
H  H18  1  0.76910000  0.79000000  0.31950000  1.0 0.1545450744
H  H19  1  0.26910000  0.71000000  0.68050000  1.0 0.1545450744
H  H20  1  0.73090000  0.21000000  0.81950000  1.0 0.1545450744
H  H21  1  0.79000000  0.31950000  0.76910000  1.0 0.1545450744
H  H22  1  0.29000000  0.18050000  0.23090000  1.0 0.1545450744
H  H23  1  0.21000000  0.81950000  0.73090000  1.0 0.1545450744
H  H24  1  0.71000000  0.68050000  0.26910000  1.0 0.1545450744
H  H25  1  0.90670000  0.57440000  0.56910000  1.0 0.138618506
H  H26  1  0.59330000  0.42560000  0.06910000  1.0 0.138618506
H  H27  1  0.09330000  0.07440000  0.93090000  1.0 0.138618506
H  H28  1  0.40670000  0.92560000  0.43090000  1.0 0.138618506
H  H29  1  0.56910000  0.90670000  0.57440000  1.0 0.138618506
H  H30  1  0.06910000  0.59330000  0.42560000  1.0 0.138618506
H  H31  1  0.93090000  0.09330000  0.07440000  1.0 0.138618506
H  H32  1  0.43090000  0.40670000  0.92560000  1.0 0.138618506
H  H33  1  0.57440000  0.56910000  0.90670000  1.0 0.138618506
H  H34  1  0.42560000  0.06910000  0.59330000  1.0 0.138618506
H  H35  1  0.07440000  0.93090000  0.09330000  1.0 0.138618506
H  H36  1  0.92560000  0.43090000  0.40670000  1.0 0.138618506
H  H37  1  0.82440000  0.65670000  0.18090000  1.0 0.138618506
H  H38  1  0.67560000  0.34330000  0.68090000  1.0 0.138618506
H  H39  1  0.32440000  0.84330000  0.81910000  1.0 0.138618506
H  H40  1  0.17560000  0.15670000  0.31910000  1.0 0.138618506
H  H41  1  0.15670000  0.31910000  0.17560000  1.0 0.138618506
H  H42  1  0.84330000  0.81910000  0.32440000  1.0 0.138618506
H  H43  1  0.34330000  0.68090000  0.67560000  1.0 0.138618506
H  H44  1  0.65670000  0.18090000  0.82440000  1.0 0.138618506
H  H45  1  0.81910000  0.32440000  0.84330000  1.0 0.138618506
H  H46  1  0.31910000  0.17560000  0.15670000  1.0 0.138618506
H  H47  1  0.18090000  0.82440000  0.65670000  1.0 0.138618506
H  H48  1  0.68090000  0.67560000  0.34330000  1.0 0.138618506
H  H49  1  0.82270000  0.45050000  0.87010000  1.0 0.138618506
H  H50  1  0.67730000  0.54950000  0.37010000  1.0 0.138618506
H  H51  1  0.17730000  0.95050000  0.62990000  1.0 0.138618506
H  H52  1  0.32270000  0.04950000  0.12990000  1.0 0.138618506
H  H53  1  0.87010000  0.82270000  0.45050000  1.0 0.138618506
H  H54  1  0.37010000  0.67730000  0.54950000  1.0 0.138618506
H  H55  1  0.62990000  0.17730000  0.95050000  1.0 0.138618506
H  H56  1  0.12990000  0.32270000  0.04950000  1.0 0.138618506
H  H57  1  0.45050000  0.87010000  0.82270000  1.0 0.138618506
H  H58  1  0.54950000  0.37010000  0.67730000  1.0 0.138618506
H  H59  1  0.95050000  0.62990000  0.17730000  1.0 0.138618506
H  H60  1  0.04950000  0.12990000  0.32270000  1.0 0.138618506
H  H61  1  0.70050000  0.57270000  0.87990000  1.0 0.138618506
H  H62  1  0.79950000  0.42730000  0.37990000  1.0 0.138618506
H  H63  1  0.20050000  0.92730000  0.12010000  1.0 0.138618506
H  H64  1  0.29950000  0.07270000  0.62010000  1.0 0.138618506
H  H65  1  0.07270000  0.62010000  0.29950000  1.0 0.138618506
H  H66  1  0.92730000  0.12010000  0.20050000  1.0 0.138618506
H  H67  1  0.42730000  0.37990000  0.79950000  1.0 0.138618506
H  H68  1  0.57270000  0.87990000  0.70050000  1.0 0.138618506
H  H69  1  0.12010000  0.20050000  0.92730000  1.0 0.138618506
H  H70  1  0.62010000  0.29950000  0.07270000  1.0 0.138618506
H  H71  1  0.87990000  0.70050000  0.57270000  1.0 0.138618506
H  H72  1  0.37990000  0.79950000  0.42730000  1.0 0.138618506
H  H73  1  0.02750000  0.09470000  0.13790000  1.0 0.1545450744
H  H74  1  0.47250000  0.90530000  0.63790000  1.0 0.1545450744
H  H75  1  0.97250000  0.59470000  0.36210000  1.0 0.1545450744
H  H76  1  0.52750000  0.40530000  0.86210000  1.0 0.1545450744
H  H77  1  0.13790000  0.02750000  0.09470000  1.0 0.1545450744
H  H78  1  0.63790000  0.47250000  0.90530000  1.0 0.1545450744
H  H79  1  0.36210000  0.97250000  0.59470000  1.0 0.1545450744
H  H80  1  0.86210000  0.52750000  0.40530000  1.0 0.1545450744
H  H81  1  0.09470000  0.13790000  0.02750000  1.0 0.1545450744
H  H82  1  0.90530000  0.63790000  0.47250000  1.0 0.1545450744
H  H83  1  0.59470000  0.36210000  0.97250000  1.0 0.1545450744
H  H84  1  0.40530000  0.86210000  0.52750000  1.0 0.1545450744
H  H85  1  0.34470000  0.77750000  0.61210000  1.0 0.1545450744
H  H86  1  0.15530000  0.22250000  0.11210000  1.0 0.1545450744
H  H87  1  0.84470000  0.72250000  0.38790000  1.0 0.1545450744
H  H88  1  0.65530000  0.27750000  0.88790000  1.0 0.1545450744
H  H89  1  0.27750000  0.88790000  0.65530000  1.0 0.1545450744
H  H90  1  0.72250000  0.38790000  0.84470000  1.0 0.1545450744
H  H91  1  0.22250000  0.11210000  0.15530000  1.0 0.1545450744
H  H92  1  0.77750000  0.61210000  0.34470000  1.0 0.1545450744
H  H93  1  0.38790000  0.84470000  0.72250000  1.0 0.1545450744
H  H94  1  0.88790000  0.65530000  0.27750000  1.0 0.1545450744
H  H95  1  0.61210000  0.34470000  0.77750000  1.0 0.1545450744
H  H96  1  0.11210000  0.15530000  0.22250000  1.0 0.1545450744
H  H97  1  0.92510000  0.37280000  0.84120000  1.0 0.1213832598
H  H98  1  0.57490000  0.62720000  0.34120000  1.0 0.1213832598
H  H99  1  0.07490000  0.87280000  0.65880000  1.0 0.1213832598
H  H100  1  0.42510000  0.12720000  0.15880000  1.0 0.1213832598
H  H101  1  0.84120000  0.92510000  0.37280000  1.0 0.1213832598
H  H102  1  0.34120000  0.57490000  0.62720000  1.0 0.1213832598
H  H103  1  0.65880000  0.07490000  0.87280000  1.0 0.1213832598
H  H104  1  0.15880000  0.42510000  0.12720000  1.0 0.1213832598
H  H105  1  0.37280000  0.84120000  0.92510000  1.0 0.1213832598
H  H106  1  0.62720000  0.34120000  0.57490000  1.0 0.1213832598
H  H107  1  0.87280000  0.65880000  0.07490000  1.0 0.1213832598
H  H108  1  0.12720000  0.15880000  0.42510000  1.0 0.1213832598
H  H109  1  0.62280000  0.67510000  0.90880000  1.0 0.1213832598
H  H110  1  0.87720000  0.32490000  0.40880000  1.0 0.1213832598
H  H111  1  0.12280000  0.82490000  0.09120000  1.0 0.1213832598
H  H112  1  0.37720000  0.17510000  0.59120000  1.0 0.1213832598
H  H113  1  0.17510000  0.59120000  0.37720000  1.0 0.1213832598
H  H114  1  0.82490000  0.09120000  0.12280000  1.0 0.1213832598
H  H115  1  0.32490000  0.40880000  0.87720000  1.0 0.1213832598
H  H116  1  0.67510000  0.90880000  0.62280000  1.0 0.1213832598
H  H117  1  0.09120000  0.12280000  0.82490000  1.0 0.1213832598
H  H118  1  0.59120000  0.37720000  0.17510000  1.0 0.1213832598
H  H119  1  0.90880000  0.62280000  0.67510000  1.0 0.1213832598
H  H120  1  0.40880000  0.87720000  0.32490000  1.0 0.1213832598
H  H121  1  0.03510000  0.18120000  0.00820000  1.0 0.1286287475
H  H122  1  0.46490000  0.81880000  0.50820000  1.0 0.1286287475
H  H123  1  0.96490000  0.68120000  0.49180000  1.0 0.1286287475
H  H124  1  0.53510000  0.31880000  0.99180000  1.0 0.1286287475
H  H125  1  0.00820000  0.03510000  0.18120000  1.0 0.1286287475
H  H126  1  0.50820000  0.46490000  0.81880000  1.0 0.1286287475
H  H127  1  0.49180000  0.96490000  0.68120000  1.0 0.1286287475
H  H128  1  0.99180000  0.53510000  0.31880000  1.0 0.1286287475
H  H129  1  0.18120000  0.00820000  0.03510000  1.0 0.1286287475
H  H130  1  0.81880000  0.50820000  0.46490000  1.0 0.1286287475
H  H131  1  0.68120000  0.49180000  0.96490000  1.0 0.1286287475
H  H132  1  0.31880000  0.99180000  0.53510000  1.0 0.1286287475
H  H133  1  0.43120000  0.78510000  0.74180000  1.0 0.1286287475
H  H134  1  0.06880000  0.21490000  0.24180000  1.0 0.1286287475
H  H135  1  0.93120000  0.71490000  0.25820000  1.0 0.1286287475
H  H136  1  0.56880000  0.28510000  0.75820000  1.0 0.1286287475
H  H137  1  0.28510000  0.75820000  0.56880000  1.0 0.1286287475
H  H138  1  0.71490000  0.25820000  0.93120000  1.0 0.1286287475
H  H139  1  0.21490000  0.24180000  0.06880000  1.0 0.1286287475
H  H140  1  0.78510000  0.74180000  0.43120000  1.0 0.1286287475
H  H141  1  0.25820000  0.93120000  0.71490000  1.0 0.1286287475
H  H142  1  0.75820000  0.56880000  0.28510000  1.0 0.1286287475
H  H143  1  0.74180000  0.43120000  0.78510000  1.0 0.1286287475
H  H144  1  0.24180000  0.06880000  0.21490000  1.0 0.1286287475
H  H145  1  0.85120000  0.54510000  0.62270000  1.0 0.1286287475
H  H146  1  0.64880000  0.45490000  0.12270000  1.0 0.1286287475
H  H147  1  0.14880000  0.04510000  0.87730000  1.0 0.1286287475
H  H148  1  0.35120000  0.95490000  0.37730000  1.0 0.1286287475
H  H149  1  0.62270000  0.85120000  0.54510000  1.0 0.1286287475
H  H150  1  0.12270000  0.64880000  0.45490000  1.0 0.1286287475
H  H151  1  0.87730000  0.14880000  0.04510000  1.0 0.1286287475
H  H152  1  0.37730000  0.35120000  0.95490000  1.0 0.1286287475
H  H153  1  0.54510000  0.62270000  0.85120000  1.0 0.1286287475
H  H154  1  0.45490000  0.12270000  0.64880000  1.0 0.1286287475
H  H155  1  0.04510000  0.87730000  0.14880000  1.0 0.1286287475
H  H156  1  0.95490000  0.37730000  0.35120000  1.0 0.1286287475
H  H157  1  0.79510000  0.60120000  0.12730000  1.0 0.1286287475
H  H158  1  0.70490000  0.39880000  0.62730000  1.0 0.1286287475
H  H159  1  0.29510000  0.89880000  0.87270000  1.0 0.1286287475
H  H160  1  0.20490000  0.10120000  0.37270000  1.0 0.1286287475
H  H161  1  0.10120000  0.37270000  0.20490000  1.0 0.1286287475
H  H162  1  0.89880000  0.87270000  0.29510000  1.0 0.1286287475
H  H163  1  0.39880000  0.62730000  0.70490000  1.0 0.1286287475
H  H164  1  0.60120000  0.12730000  0.79510000  1.0 0.1286287475
H  H165  1  0.87270000  0.29510000  0.89880000  1.0 0.1286287475
H  H166  1  0.37270000  0.20490000  0.10120000  1.0 0.1286287475
H  H167  1  0.12730000  0.79510000  0.60120000  1.0 0.1286287475
H  H168  1  0.62730000  0.70490000  0.39880000  1.0 0.1286287475
H  H169  1  0.88990000  0.44700000  0.54520000  1.0 0.1213832598
H  H170  1  0.61010000  0.55300000  0.04520000  1.0 0.1213832598
H  H171  1  0.11010000  0.94700000  0.95480000  1.0 0.1213832598
H  H172  1  0.38990000  0.05300000  0.45480000  1.0 0.1213832598
H  H173  1  0.54520000  0.88990000  0.44700000  1.0 0.1213832598
H  H174  1  0.04520000  0.61010000  0.55300000  1.0 0.1213832598
H  H175  1  0.95480000  0.11010000  0.94700000  1.0 0.1213832598
H  H176  1  0.45480000  0.38990000  0.05300000  1.0 0.1213832598
H  H177  1  0.44700000  0.54520000  0.88990000  1.0 0.1213832598
H  H178  1  0.55300000  0.04520000  0.61010000  1.0 0.1213832598
H  H179  1  0.94700000  0.95480000  0.11010000  1.0 0.1213832598
H  H180  1  0.05300000  0.45480000  0.38990000  1.0 0.1213832598
H  H181  1  0.69700000  0.63990000  0.20480000  1.0 0.1213832598
H  H182  1  0.80300000  0.36010000  0.70480000  1.0 0.1213832598
H  H183  1  0.19700000  0.86010000  0.79520000  1.0 0.1213832598
H  H184  1  0.30300000  0.13990000  0.29520000  1.0 0.1213832598
H  H185  1  0.13990000  0.29520000  0.30300000  1.0 0.1213832598
H  H186  1  0.86010000  0.79520000  0.19700000  1.0 0.1213832598
H  H187  1  0.36010000  0.70480000  0.80300000  1.0 0.1213832598
H  H188  1  0.63990000  0.20480000  0.69700000  1.0 0.1213832598
H  H189  1  0.79520000  0.19700000  0.86010000  1.0 0.1213832598
H  H190  1  0.29520000  0.30300000  0.13990000  1.0 0.1213832598
H  H191  1  0.20480000  0.69700000  0.63990000  1.0 0.1213832598
H  H192  1  0.70480000  0.80300000  0.36010000  1.0 0.1213832598
H  H193  1  0.89370000  0.39610000  0.97050000  1.0 0.138618506
H  H194  1  0.60630000  0.60390000  0.47050000  1.0 0.138618506
H  H195  1  0.10630000  0.89610000  0.52950000  1.0 0.138618506
H  H196  1  0.39370000  0.10390000  0.02950000  1.0 0.138618506
H  H197  1  0.97050000  0.89370000  0.39610000  1.0 0.138618506
H  H198  1  0.47050000  0.60630000  0.60390000  1.0 0.138618506
H  H199  1  0.52950000  0.10630000  0.89610000  1.0 0.138618506
H  H200  1  0.02950000  0.39370000  0.10390000  1.0 0.138618506
H  H201  1  0.39610000  0.97050000  0.89370000  1.0 0.138618506
H  H202  1  0.60390000  0.47050000  0.60630000  1.0 0.138618506
H  H203  1  0.89610000  0.52950000  0.10630000  1.0 0.138618506
H  H204  1  0.10390000  0.02950000  0.39370000  1.0 0.138618506
H  H205  1  0.64610000  0.64370000  0.77950000  1.0 0.138618506
H  H206  1  0.85390000  0.35630000  0.27950000  1.0 0.138618506
H  H207  1  0.14610000  0.85630000  0.22050000  1.0 0.138618506
H  H208  1  0.35390000  0.14370000  0.72050000  1.0 0.138618506
H  H209  1  0.14370000  0.72050000  0.35390000  1.0 0.138618506
H  H210  1  0.85630000  0.22050000  0.14610000  1.0 0.138618506
H  H211  1  0.35630000  0.27950000  0.85390000  1.0 0.138618506
H  H212  1  0.64370000  0.77950000  0.64610000  1.0 0.138618506
H  H213  1  0.22050000  0.14610000  0.85630000  1.0 0.138618506
H  H214  1  0.72050000  0.35390000  0.14370000  1.0 0.138618506
H  H215  1  0.77950000  0.64610000  0.64370000  1.0 0.138618506
H  H216  1  0.27950000  0.85390000  0.35630000  1.0 0.138618506
H  H217  1  0.87100000  0.41770000  0.71090000  1.0 0.1071077492
H  H218  1  0.62900000  0.58230000  0.21090000  1.0 0.1071077492
H  H219  1  0.12900000  0.91770000  0.78910000  1.0 0.1071077492
H  H220  1  0.37100000  0.08230000  0.28910000  1.0 0.1071077492
H  H221  1  0.71090000  0.87100000  0.41770000  1.0 0.1071077492
H  H222  1  0.21090000  0.62900000  0.58230000  1.0 0.1071077492
H  H223  1  0.78910000  0.12900000  0.91770000  1.0 0.1071077492
H  H224  1  0.28910000  0.37100000  0.08230000  1.0 0.1071077492
H  H225  1  0.41770000  0.71090000  0.87100000  1.0 0.1071077492
H  H226  1  0.58230000  0.21090000  0.62900000  1.0 0.1071077492
H  H227  1  0.91770000  0.78910000  0.12900000  1.0 0.1071077492
H  H228  1  0.08230000  0.28910000  0.37100000  1.0 0.1071077492
H  H229  1  0.66770000  0.62100000  0.03910000  1.0 0.1071077492
H  H230  1  0.83230000  0.37900000  0.53910000  1.0 0.1071077492
H  H231  1  0.16770000  0.87900000  0.96090000  1.0 0.1071077492
H  H232  1  0.33230000  0.12100000  0.46090000  1.0 0.1071077492
H  H233  1  0.12100000  0.46090000  0.33230000  1.0 0.1071077492
H  H234  1  0.87900000  0.96090000  0.16770000  1.0 0.1071077492
H  H235  1  0.37900000  0.53910000  0.83230000  1.0 0.1071077492
H  H236  1  0.62100000  0.03910000  0.66770000  1.0 0.1071077492
H  H237  1  0.96090000  0.16770000  0.87900000  1.0 0.1071077492
H  H238  1  0.46090000  0.33230000  0.12100000  1.0 0.1071077492
H  H239  1  0.03910000  0.66770000  0.62100000  1.0 0.1071077492
H  H240  1  0.53910000  0.83230000  0.37900000  1.0 0.1071077492
H  H241  1  0.94870000  0.43780000  0.79530000  1.0 0.1213832598
H  H242  1  0.55130000  0.56220000  0.29530000  1.0 0.1213832598
H  H243  1  0.05130000  0.93780000  0.70470000  1.0 0.1213832598
H  H244  1  0.44870000  0.06220000  0.20470000  1.0 0.1213832598
H  H245  1  0.79530000  0.94870000  0.43780000  1.0 0.1213832598
H  H246  1  0.29530000  0.55130000  0.56220000  1.0 0.1213832598
H  H247  1  0.70470000  0.05130000  0.93780000  1.0 0.1213832598
H  H248  1  0.20470000  0.44870000  0.06220000  1.0 0.1213832598
H  H249  1  0.43780000  0.79530000  0.94870000  1.0 0.1213832598
H  H250  1  0.56220000  0.29530000  0.55130000  1.0 0.1213832598
H  H251  1  0.93780000  0.70470000  0.05130000  1.0 0.1213832598
H  H252  1  0.06220000  0.20470000  0.44870000  1.0 0.1213832598
H  H253  1  0.68780000  0.69870000  0.95470000  1.0 0.1213832598
H  H254  1  0.81220000  0.30130000  0.45470000  1.0 0.1213832598
H  H255  1  0.18780000  0.80130000  0.04530000  1.0 0.1213832598
H  H256  1  0.31220000  0.19870000  0.54530000  1.0 0.1213832598
H  H257  1  0.19870000  0.54530000  0.31220000  1.0 0.1213832598
H  H258  1  0.80130000  0.04530000  0.18780000  1.0 0.1213832598
H  H259  1  0.30130000  0.45470000  0.81220000  1.0 0.1213832598
H  H260  1  0.69870000  0.95470000  0.68780000  1.0 0.1213832598
H  H261  1  0.04530000  0.18780000  0.80130000  1.0 0.1213832598
H  H262  1  0.54530000  0.31220000  0.19870000  1.0 0.1213832598
H  H263  1  0.95470000  0.68780000  0.69870000  1.0 0.1213832598
H  H264  1  0.45470000  0.81220000  0.30130000  1.0 0.1213832598
H  H265  1  0.91960000  0.47900000  0.81270000  1.0 0.1213832598
H  H266  1  0.58040000  0.52100000  0.31270000  1.0 0.1213832598
H  H267  1  0.08040000  0.97900000  0.68730000  1.0 0.1213832598
H  H268  1  0.41960000  0.02100000  0.18730000  1.0 0.1213832598
H  H269  1  0.81270000  0.91960000  0.47900000  1.0 0.1213832598
H  H270  1  0.31270000  0.58040000  0.52100000  1.0 0.1213832598
H  H271  1  0.68730000  0.08040000  0.97900000  1.0 0.1213832598
H  H272  1  0.18730000  0.41960000  0.02100000  1.0 0.1213832598
H  H273  1  0.47900000  0.81270000  0.91960000  1.0 0.1213832598
H  H274  1  0.52100000  0.31270000  0.58040000  1.0 0.1213832598
H  H275  1  0.97900000  0.68730000  0.08040000  1.0 0.1213832598
H  H276  1  0.02100000  0.18730000  0.41960000  1.0 0.1213832598
H  H277  1  0.72900000  0.66960000  0.93730000  1.0 0.1213832598
H  H278  1  0.77100000  0.33040000  0.43730000  1.0 0.1213832598
H  H279  1  0.22900000  0.83040000  0.06270000  1.0 0.1213832598
H  H280  1  0.27100000  0.16960000  0.56270000  1.0 0.1213832598
H  H281  1  0.16960000  0.56270000  0.27100000  1.0 0.1213832598
H  H282  1  0.83040000  0.06270000  0.22900000  1.0 0.1213832598
H  H283  1  0.33040000  0.43730000  0.77100000  1.0 0.1213832598
H  H284  1  0.66960000  0.93730000  0.72900000  1.0 0.1213832598
H  H285  1  0.06270000  0.22900000  0.83040000  1.0 0.1213832598
H  H286  1  0.56270000  0.27100000  0.16960000  1.0 0.1213832598
H  H287  1  0.93730000  0.72900000  0.66960000  1.0 0.1213832598
H  H288  1  0.43730000  0.77100000  0.33040000  1.0 0.1213832598
H  H289  1  0.99550000  0.16810000  0.13550000  1.0 0.138618506
H  H290  1  0.50450000  0.83190000  0.63550000  1.0 0.138618506
H  H291  1  0.00450000  0.66810000  0.36450000  1.0 0.138618506
H  H292  1  0.49550000  0.33190000  0.86450000  1.0 0.138618506
H  H293  1  0.13550000  0.99550000  0.16810000  1.0 0.138618506
H  H294  1  0.63550000  0.50450000  0.83190000  1.0 0.138618506
H  H295  1  0.36450000  0.00450000  0.66810000  1.0 0.138618506
H  H296  1  0.86450000  0.49550000  0.33190000  1.0 0.138618506
H  H297  1  0.16810000  0.13550000  0.99550000  1.0 0.138618506
H  H298  1  0.83190000  0.63550000  0.50450000  1.0 0.138618506
H  H299  1  0.66810000  0.36450000  0.00450000  1.0 0.138618506
H  H300  1  0.33190000  0.86450000  0.49550000  1.0 0.138618506
H  H301  1  0.41810000  0.74550000  0.61450000  1.0 0.138618506
H  H302  1  0.08190000  0.25450000  0.11450000  1.0 0.138618506
H  H303  1  0.91810000  0.75450000  0.38550000  1.0 0.138618506
H  H304  1  0.58190000  0.24550000  0.88550000  1.0 0.138618506
H  H305  1  0.24550000  0.88550000  0.58190000  1.0 0.138618506
H  H306  1  0.75450000  0.38550000  0.91810000  1.0 0.138618506
H  H307  1  0.25450000  0.11450000  0.08190000  1.0 0.138618506
H  H308  1  0.74550000  0.61450000  0.41810000  1.0 0.138618506
H  H309  1  0.38550000  0.91810000  0.75450000  1.0 0.138618506
H  H310  1  0.88550000  0.58190000  0.24550000  1.0 0.138618506
H  H311  1  0.61450000  0.41810000  0.74550000  1.0 0.138618506
H  H312  1  0.11450000  0.08190000  0.25450000  1.0 0.138618506
H  H313  1  0.93240000  0.45290000  0.69020000  1.0 0.1213832598
H  H314  1  0.56760000  0.54710000  0.19020000  1.0 0.1213832598
H  H315  1  0.06760000  0.95290000  0.80980000  1.0 0.1213832598
H  H316  1  0.43240000  0.04710000  0.30980000  1.0 0.1213832598
H  H317  1  0.69020000  0.93240000  0.45290000  1.0 0.1213832598
H  H318  1  0.19020000  0.56760000  0.54710000  1.0 0.1213832598
H  H319  1  0.80980000  0.06760000  0.95290000  1.0 0.1213832598
H  H320  1  0.30980000  0.43240000  0.04710000  1.0 0.1213832598
H  H321  1  0.45290000  0.69020000  0.93240000  1.0 0.1213832598
H  H322  1  0.54710000  0.19020000  0.56760000  1.0 0.1213832598
H  H323  1  0.95290000  0.80980000  0.06760000  1.0 0.1213832598
H  H324  1  0.04710000  0.30980000  0.43240000  1.0 0.1213832598
H  H325  1  0.70290000  0.68240000  0.05980000  1.0 0.1213832598
H  H326  1  0.79710000  0.31760000  0.55980000  1.0 0.1213832598
H  H327  1  0.20290000  0.81760000  0.94020000  1.0 0.1213832598
H  H328  1  0.29710000  0.18240000  0.44020000  1.0 0.1213832598
H  H329  1  0.18240000  0.44020000  0.29710000  1.0 0.1213832598
H  H330  1  0.81760000  0.94020000  0.20290000  1.0 0.1213832598
H  H331  1  0.31760000  0.55980000  0.79710000  1.0 0.1213832598
H  H332  1  0.68240000  0.05980000  0.70290000  1.0 0.1213832598
H  H333  1  0.94020000  0.20290000  0.81760000  1.0 0.1213832598
H  H334  1  0.44020000  0.29710000  0.18240000  1.0 0.1213832598
H  H335  1  0.05980000  0.70290000  0.68240000  1.0 0.1213832598
H  H336  1  0.55980000  0.79710000  0.31760000  1.0 0.1213832598
H  H337  1  0.90420000  0.49800000  0.69210000  1.0 0.1286287475
H  H338  1  0.59580000  0.50200000  0.19210000  1.0 0.1286287475
H  H339  1  0.09580000  0.99800000  0.80790000  1.0 0.1286287475
H  H340  1  0.40420000  0.00200000  0.30790000  1.0 0.1286287475
H  H341  1  0.69210000  0.90420000  0.49800000  1.0 0.1286287475
H  H342  1  0.19210000  0.59580000  0.50200000  1.0 0.1286287475
H  H343  1  0.80790000  0.09580000  0.99800000  1.0 0.1286287475
H  H344  1  0.30790000  0.40420000  0.00200000  1.0 0.1286287475
H  H345  1  0.49800000  0.69210000  0.90420000  1.0 0.1286287475
H  H346  1  0.50200000  0.19210000  0.59580000  1.0 0.1286287475
H  H347  1  0.99800000  0.80790000  0.09580000  1.0 0.1286287475
H  H348  1  0.00200000  0.30790000  0.40420000  1.0 0.1286287475
H  H349  1  0.74800000  0.65420000  0.05790000  1.0 0.1286287475
H  H350  1  0.75200000  0.34580000  0.55790000  1.0 0.1286287475
H  H351  1  0.24800000  0.84580000  0.94210000  1.0 0.1286287475
H  H352  1  0.25200000  0.15420000  0.44210000  1.0 0.1286287475
H  H353  1  0.15420000  0.44210000  0.25200000  1.0 0.1286287475
H  H354  1  0.84580000  0.94210000  0.24800000  1.0 0.1286287475
H  H355  1  0.34580000  0.55790000  0.75200000  1.0 0.1286287475
H  H356  1  0.65420000  0.05790000  0.74800000  1.0 0.1286287475
H  H357  1  0.94210000  0.24800000  0.84580000  1.0 0.1286287475
H  H358  1  0.44210000  0.25200000  0.15420000  1.0 0.1286287475
H  H359  1  0.05790000  0.74800000  0.65420000  1.0 0.1286287475
H  H360  1  0.55790000  0.75200000  0.34580000  1.0 0.1286287475
H  H361  1  0.93350000  0.51790000  0.75190000  1.0 0.1286287475
H  H362  1  0.56650000  0.48210000  0.25190000  1.0 0.1286287475
H  H363  1  0.06650000  0.01790000  0.74810000  1.0 0.1286287475
H  H364  1  0.43350000  0.98210000  0.24810000  1.0 0.1286287475
H  H365  1  0.75190000  0.93350000  0.51790000  1.0 0.1286287475
H  H366  1  0.25190000  0.56650000  0.48210000  1.0 0.1286287475
H  H367  1  0.74810000  0.06650000  0.01790000  1.0 0.1286287475
H  H368  1  0.24810000  0.43350000  0.98210000  1.0 0.1286287475
H  H369  1  0.51790000  0.75190000  0.93350000  1.0 0.1286287475
H  H370  1  0.48210000  0.25190000  0.56650000  1.0 0.1286287475
H  H371  1  0.01790000  0.74810000  0.06650000  1.0 0.1286287475
H  H372  1  0.98210000  0.24810000  0.43350000  1.0 0.1286287475
H  H373  1  0.76790000  0.68350000  0.99810000  1.0 0.1286287475
H  H374  1  0.73210000  0.31650000  0.49810000  1.0 0.1286287475
H  H375  1  0.26790000  0.81650000  0.00190000  1.0 0.1286287475
H  H376  1  0.23210000  0.18350000  0.50190000  1.0 0.1286287475
H  H377  1  0.18350000  0.50190000  0.23210000  1.0 0.1286287475
H  H378  1  0.81650000  0.00190000  0.26790000  1.0 0.1286287475
H  H379  1  0.31650000  0.49810000  0.73210000  1.0 0.1286287475
H  H380  1  0.68350000  0.99810000  0.76790000  1.0 0.1286287475
H  H381  1  0.00190000  0.26790000  0.81650000  1.0 0.1286287475
H  H382  1  0.50190000  0.23210000  0.18350000  1.0 0.1286287475
H  H383  1  0.99810000  0.76790000  0.68350000  1.0 0.1286287475
H  H384  1  0.49810000  0.73210000  0.31650000  1.0 0.1286287475
H  H385  1  0.97080000  0.48180000  0.74060000  1.0 0.1071077492
H  H386  1  0.52920000  0.51820000  0.24060000  1.0 0.1071077492
H  H387  1  0.02920000  0.98180000  0.75940000  1.0 0.1071077492
H  H388  1  0.47080000  0.01820000  0.25940000  1.0 0.1071077492
H  H389  1  0.74060000  0.97080000  0.48180000  1.0 0.1071077492
H  H390  1  0.24060000  0.52920000  0.51820000  1.0 0.1071077492
H  H391  1  0.75940000  0.02920000  0.98180000  1.0 0.1071077492
H  H392  1  0.25940000  0.47080000  0.01820000  1.0 0.1071077492
H  H393  1  0.48180000  0.74060000  0.97080000  1.0 0.1071077492
H  H394  1  0.51820000  0.24060000  0.52920000  1.0 0.1071077492
H  H395  1  0.98180000  0.75940000  0.02920000  1.0 0.1071077492
H  H396  1  0.01820000  0.25940000  0.47080000  1.0 0.1071077492
H  H397  1  0.73180000  0.72080000  0.00940000  1.0 0.1071077492
H  H398  1  0.76820000  0.27920000  0.50940000  1.0 0.1071077492
H  H399  1  0.23180000  0.77920000  0.99060000  1.0 0.1071077492
H  H400  1  0.26820000  0.22080000  0.49060000  1.0 0.1071077492
H  H401  1  0.22080000  0.49060000  0.26820000  1.0 0.1071077492
H  H402  1  0.77920000  0.99060000  0.23180000  1.0 0.1071077492
H  H403  1  0.27920000  0.50940000  0.76820000  1.0 0.1071077492
H  H404  1  0.72080000  0.00940000  0.73180000  1.0 0.1071077492
H  H405  1  0.99060000  0.23180000  0.77920000  1.0 0.1071077492
H  H406  1  0.49060000  0.26820000  0.22080000  1.0 0.1071077492
H  H407  1  0.00940000  0.73180000  0.72080000  1.0 0.1071077492
H  H408  1  0.50940000  0.76820000  0.27920000  1.0 0.1071077492
H  H409  1  0.94990000  0.21960000  0.09690000  1.0 0.138618506
H  H410  1  0.55010000  0.78040000  0.59690000  1.0 0.138618506
H  H411  1  0.05010000  0.71960000  0.40310000  1.0 0.138618506
H  H412  1  0.44990000  0.28040000  0.90310000  1.0 0.138618506
H  H413  1  0.09690000  0.94990000  0.21960000  1.0 0.138618506
H  H414  1  0.59690000  0.55010000  0.78040000  1.0 0.138618506
H  H415  1  0.40310000  0.05010000  0.71960000  1.0 0.138618506
H  H416  1  0.90310000  0.44990000  0.28040000  1.0 0.138618506
H  H417  1  0.21960000  0.09690000  0.94990000  1.0 0.138618506
H  H418  1  0.78040000  0.59690000  0.55010000  1.0 0.138618506
H  H419  1  0.71960000  0.40310000  0.05010000  1.0 0.138618506
H  H420  1  0.28040000  0.90310000  0.44990000  1.0 0.138618506
H  H421  1  0.46960000  0.69990000  0.65310000  1.0 0.138618506
H  H422  1  0.03040000  0.30010000  0.15310000  1.0 0.138618506
H  H423  1  0.96960000  0.80010000  0.34690000  1.0 0.138618506
H  H424  1  0.53040000  0.19990000  0.84690000  1.0 0.138618506
H  H425  1  0.19990000  0.84690000  0.53040000  1.0 0.138618506
H  H426  1  0.80010000  0.34690000  0.96960000  1.0 0.138618506
H  H427  1  0.30010000  0.15310000  0.03040000  1.0 0.138618506
H  H428  1  0.69990000  0.65310000  0.46960000  1.0 0.138618506
H  H429  1  0.34690000  0.96960000  0.80010000  1.0 0.138618506
H  H430  1  0.84690000  0.53040000  0.19990000  1.0 0.138618506
H  H431  1  0.65310000  0.46960000  0.69990000  1.0 0.138618506
H  H432  1  0.15310000  0.03040000  0.30010000  1.0 0.138618506
C  C1  1  0.98280000  0.54720000  0.51800000  1.0 -0.2509523525
C  C2  1  0.51720000  0.45280000  0.01800000  1.0 -0.2509523525
C  C3  1  0.01720000  0.04720000  0.98200000  1.0 -0.2509523525
C  C4  1  0.48280000  0.95280000  0.48200000  1.0 -0.2509523525
C  C5  1  0.51800000  0.98280000  0.54720000  1.0 -0.2509523525
C  C6  1  0.01800000  0.51720000  0.45280000  1.0 -0.2509523525
C  C7  1  0.98200000  0.01720000  0.04720000  1.0 -0.2509523525
C  C8  1  0.48200000  0.48280000  0.95280000  1.0 -0.2509523525
C  C9  1  0.54720000  0.51800000  0.98280000  1.0 -0.2509523525
C  C10  1  0.45280000  0.01800000  0.51720000  1.0 -0.2509523525
C  C11  1  0.04720000  0.98200000  0.01720000  1.0 -0.2509523525
C  C12  1  0.95280000  0.48200000  0.48280000  1.0 -0.2509523525
C  C13  1  0.79720000  0.73280000  0.23200000  1.0 -0.2509523525
C  C14  1  0.70280000  0.26720000  0.73200000  1.0 -0.2509523525
C  C15  1  0.29720000  0.76720000  0.76800000  1.0 -0.2509523525
C  C16  1  0.20280000  0.23280000  0.26800000  1.0 -0.2509523525
C  C17  1  0.23280000  0.26800000  0.20280000  1.0 -0.2509523525
C  C18  1  0.76720000  0.76800000  0.29720000  1.0 -0.2509523525
C  C19  1  0.26720000  0.73200000  0.70280000  1.0 -0.2509523525
C  C20  1  0.73280000  0.23200000  0.79720000  1.0 -0.2509523525
C  C21  1  0.76800000  0.29720000  0.76720000  1.0 -0.2509523525
C  C22  1  0.26800000  0.20280000  0.23280000  1.0 -0.2509523525
C  C23  1  0.23200000  0.79720000  0.73280000  1.0 -0.2509523525
C  C24  1  0.73200000  0.70280000  0.26720000  1.0 -0.2509523525
C  C25  1  0.91530000  0.37570000  0.90660000  1.0 -0.0072545279
C  C26  1  0.58470000  0.62430000  0.40660000  1.0 -0.0072545279
C  C27  1  0.08470000  0.87570000  0.59340000  1.0 -0.0072545279
C  C28  1  0.41530000  0.12430000  0.09340000  1.0 -0.0072545279
C  C29  1  0.90660000  0.91530000  0.37570000  1.0 -0.0072545279
C  C30  1  0.40660000  0.58470000  0.62430000  1.0 -0.0072545279
C  C31  1  0.59340000  0.08470000  0.87570000  1.0 -0.0072545279
C  C32  1  0.09340000  0.41530000  0.12430000  1.0 -0.0072545279
C  C33  1  0.37570000  0.90660000  0.91530000  1.0 -0.0072545279
C  C34  1  0.62430000  0.40660000  0.58470000  1.0 -0.0072545279
C  C35  1  0.87570000  0.59340000  0.08470000  1.0 -0.0072545279
C  C36  1  0.12430000  0.09340000  0.41530000  1.0 -0.0072545279
C  C37  1  0.62570000  0.66530000  0.84340000  1.0 -0.0072545279
C  C38  1  0.87430000  0.33470000  0.34340000  1.0 -0.0072545279
C  C39  1  0.12570000  0.83470000  0.15660000  1.0 -0.0072545279
C  C40  1  0.37430000  0.16530000  0.65660000  1.0 -0.0072545279
C  C41  1  0.16530000  0.65660000  0.37430000  1.0 -0.0072545279
C  C42  1  0.83470000  0.15660000  0.12570000  1.0 -0.0072545279
C  C43  1  0.33470000  0.34340000  0.87430000  1.0 -0.0072545279
C  C44  1  0.66530000  0.84340000  0.62570000  1.0 -0.0072545279
C  C45  1  0.15660000  0.12570000  0.83470000  1.0 -0.0072545279
C  C46  1  0.65660000  0.37430000  0.16530000  1.0 -0.0072545279
C  C47  1  0.84340000  0.62570000  0.66530000  1.0 -0.0072545279
C  C48  1  0.34340000  0.87430000  0.33470000  1.0 -0.0072545279
C  C49  1  0.95180000  0.51320000  0.51650000  1.0 0.1973532966
C  C50  1  0.54820000  0.48680000  0.01650000  1.0 0.1973532966
C  C51  1  0.04820000  0.01320000  0.98350000  1.0 0.1973532966
C  C52  1  0.45180000  0.98680000  0.48350000  1.0 0.1973532966
C  C53  1  0.51650000  0.95180000  0.51320000  1.0 0.1973532966
C  C54  1  0.01650000  0.54820000  0.48680000  1.0 0.1973532966
C  C55  1  0.98350000  0.04820000  0.01320000  1.0 0.1973532966
C  C56  1  0.48350000  0.45180000  0.98680000  1.0 0.1973532966
C  C57  1  0.51320000  0.51650000  0.95180000  1.0 0.1973532966
C  C58  1  0.48680000  0.01650000  0.54820000  1.0 0.1973532966
C  C59  1  0.01320000  0.98350000  0.04820000  1.0 0.1973532966
C  C60  1  0.98680000  0.48350000  0.45180000  1.0 0.1973532966
C  C61  1  0.76320000  0.70180000  0.23350000  1.0 0.1973532966
C  C62  1  0.73680000  0.29820000  0.73350000  1.0 0.1973532966
C  C63  1  0.26320000  0.79820000  0.76650000  1.0 0.1973532966
C  C64  1  0.23680000  0.20180000  0.26650000  1.0 0.1973532966
C  C65  1  0.20180000  0.26650000  0.23680000  1.0 0.1973532966
C  C66  1  0.79820000  0.76650000  0.26320000  1.0 0.1973532966
C  C67  1  0.29820000  0.73350000  0.73680000  1.0 0.1973532966
C  C68  1  0.70180000  0.23350000  0.76320000  1.0 0.1973532966
C  C69  1  0.76650000  0.26320000  0.79820000  1.0 0.1973532966
C  C70  1  0.26650000  0.23680000  0.20180000  1.0 0.1973532966
C  C71  1  0.23350000  0.76320000  0.70180000  1.0 0.1973532966
C  C72  1  0.73350000  0.73680000  0.29820000  1.0 0.1973532966
C  C73  1  0.89860000  0.54410000  0.57210000  1.0 -0.099873151
C  C74  1  0.60140000  0.45590000  0.07210000  1.0 -0.099873151
C  C75  1  0.10140000  0.04410000  0.92790000  1.0 -0.099873151
C  C76  1  0.39860000  0.95590000  0.42790000  1.0 -0.099873151
C  C77  1  0.57210000  0.89860000  0.54410000  1.0 -0.099873151
C  C78  1  0.07210000  0.60140000  0.45590000  1.0 -0.099873151
C  C79  1  0.92790000  0.10140000  0.04410000  1.0 -0.099873151
C  C80  1  0.42790000  0.39860000  0.95590000  1.0 -0.099873151
C  C81  1  0.54410000  0.57210000  0.89860000  1.0 -0.099873151
C  C82  1  0.45590000  0.07210000  0.60140000  1.0 -0.099873151
C  C83  1  0.04410000  0.92790000  0.10140000  1.0 -0.099873151
C  C84  1  0.95590000  0.42790000  0.39860000  1.0 -0.099873151
C  C85  1  0.79410000  0.64860000  0.17790000  1.0 -0.099873151
C  C86  1  0.70590000  0.35140000  0.67790000  1.0 -0.099873151
C  C87  1  0.29410000  0.85140000  0.82210000  1.0 -0.099873151
C  C88  1  0.20590000  0.14860000  0.32210000  1.0 -0.099873151
C  C89  1  0.14860000  0.32210000  0.20590000  1.0 -0.099873151
C  C90  1  0.85140000  0.82210000  0.29410000  1.0 -0.099873151
C  C91  1  0.35140000  0.67790000  0.70590000  1.0 -0.099873151
C  C92  1  0.64860000  0.17790000  0.79410000  1.0 -0.099873151
C  C93  1  0.82210000  0.29410000  0.85140000  1.0 -0.099873151
C  C94  1  0.32210000  0.20590000  0.14860000  1.0 -0.099873151
C  C95  1  0.17790000  0.79410000  0.64860000  1.0 -0.099873151
C  C96  1  0.67790000  0.70590000  0.35140000  1.0 -0.099873151
C  C97  1  0.05520000  0.11940000  0.08000000  1.0 0.1973532966
C  C98  1  0.44480000  0.88060000  0.58000000  1.0 0.1973532966
C  C99  1  0.94480000  0.61940000  0.42000000  1.0 0.1973532966
C  C100  1  0.55520000  0.38060000  0.92000000  1.0 0.1973532966
C  C101  1  0.08000000  0.05520000  0.11940000  1.0 0.1973532966
C  C102  1  0.58000000  0.44480000  0.88060000  1.0 0.1973532966
C  C103  1  0.42000000  0.94480000  0.61940000  1.0 0.1973532966
C  C104  1  0.92000000  0.55520000  0.38060000  1.0 0.1973532966
C  C105  1  0.11940000  0.08000000  0.05520000  1.0 0.1973532966
C  C106  1  0.88060000  0.58000000  0.44480000  1.0 0.1973532966
C  C107  1  0.61940000  0.42000000  0.94480000  1.0 0.1973532966
C  C108  1  0.38060000  0.92000000  0.55520000  1.0 0.1973532966
C  C109  1  0.36940000  0.80520000  0.67000000  1.0 0.1973532966
C  C110  1  0.13060000  0.19480000  0.17000000  1.0 0.1973532966
C  C111  1  0.86940000  0.69480000  0.33000000  1.0 0.1973532966
C  C112  1  0.63060000  0.30520000  0.83000000  1.0 0.1973532966
C  C113  1  0.30520000  0.83000000  0.63060000  1.0 0.1973532966
C  C114  1  0.69480000  0.33000000  0.86940000  1.0 0.1973532966
C  C115  1  0.19480000  0.17000000  0.13060000  1.0 0.1973532966
C  C116  1  0.80520000  0.67000000  0.36940000  1.0 0.1973532966
C  C117  1  0.33000000  0.86940000  0.69480000  1.0 0.1973532966
C  C118  1  0.83000000  0.63060000  0.30520000  1.0 0.1973532966
C  C119  1  0.67000000  0.36940000  0.80520000  1.0 0.1973532966
C  C120  1  0.17000000  0.13060000  0.19480000  1.0 0.1973532966
C  C121  1  0.85980000  0.41170000  0.80020000  1.0 0.4163873028
C  C122  1  0.64020000  0.58830000  0.30020000  1.0 0.4163873028
C  C123  1  0.14020000  0.91170000  0.69980000  1.0 0.4163873028
C  C124  1  0.35980000  0.08830000  0.19980000  1.0 0.4163873028
C  C125  1  0.80020000  0.85980000  0.41170000  1.0 0.4163873028
C  C126  1  0.30020000  0.64020000  0.58830000  1.0 0.4163873028
C  C127  1  0.69980000  0.14020000  0.91170000  1.0 0.4163873028
C  C128  1  0.19980000  0.35980000  0.08830000  1.0 0.4163873028
C  C129  1  0.41170000  0.80020000  0.85980000  1.0 0.4163873028
C  C130  1  0.58830000  0.30020000  0.64020000  1.0 0.4163873028
C  C131  1  0.91170000  0.69980000  0.14020000  1.0 0.4163873028
C  C132  1  0.08830000  0.19980000  0.35980000  1.0 0.4163873028
C  C133  1  0.66170000  0.60980000  0.94980000  1.0 0.4163873028
C  C134  1  0.83830000  0.39020000  0.44980000  1.0 0.4163873028
C  C135  1  0.16170000  0.89020000  0.05020000  1.0 0.4163873028
C  C136  1  0.33830000  0.10980000  0.55020000  1.0 0.4163873028
C  C137  1  0.10980000  0.55020000  0.33830000  1.0 0.4163873028
C  C138  1  0.89020000  0.05020000  0.16170000  1.0 0.4163873028
C  C139  1  0.39020000  0.44980000  0.83830000  1.0 0.4163873028
C  C140  1  0.60980000  0.94980000  0.66170000  1.0 0.4163873028
C  C141  1  0.05020000  0.16170000  0.89020000  1.0 0.4163873028
C  C142  1  0.55020000  0.33830000  0.10980000  1.0 0.4163873028
C  C143  1  0.94980000  0.66170000  0.60980000  1.0 0.4163873028
C  C144  1  0.44980000  0.83830000  0.39020000  1.0 0.4163873028
C  C145  1  0.84480000  0.43040000  0.88010000  1.0 -0.1171067411
C  C146  1  0.65520000  0.56960000  0.38010000  1.0 -0.1171067411
C  C147  1  0.15520000  0.93040000  0.61990000  1.0 -0.1171067411
C  C148  1  0.34480000  0.06960000  0.11990000  1.0 -0.1171067411
C  C149  1  0.88010000  0.84480000  0.43040000  1.0 -0.1171067411
C  C150  1  0.38010000  0.65520000  0.56960000  1.0 -0.1171067411
C  C151  1  0.61990000  0.15520000  0.93040000  1.0 -0.1171067411
C  C152  1  0.11990000  0.34480000  0.06960000  1.0 -0.1171067411
C  C153  1  0.43040000  0.88010000  0.84480000  1.0 -0.1171067411
C  C154  1  0.56960000  0.38010000  0.65520000  1.0 -0.1171067411
C  C155  1  0.93040000  0.61990000  0.15520000  1.0 -0.1171067411
C  C156  1  0.06960000  0.11990000  0.34480000  1.0 -0.1171067411
C  C157  1  0.68040000  0.59480000  0.86990000  1.0 -0.1171067411
C  C158  1  0.81960000  0.40520000  0.36990000  1.0 -0.1171067411
C  C159  1  0.18040000  0.90520000  0.13010000  1.0 -0.1171067411
C  C160  1  0.31960000  0.09480000  0.63010000  1.0 -0.1171067411
C  C161  1  0.09480000  0.63010000  0.31960000  1.0 -0.1171067411
C  C162  1  0.90520000  0.13010000  0.18040000  1.0 -0.1171067411
C  C163  1  0.40520000  0.36990000  0.81960000  1.0 -0.1171067411
C  C164  1  0.59480000  0.86990000  0.68040000  1.0 -0.1171067411
C  C165  1  0.13010000  0.18040000  0.90520000  1.0 -0.1171067411
C  C166  1  0.63010000  0.31960000  0.09480000  1.0 -0.1171067411
C  C167  1  0.86990000  0.68040000  0.59480000  1.0 -0.1171067411
C  C168  1  0.36990000  0.81960000  0.40520000  1.0 -0.1171067411
C  C169  1  0.05010000  0.09040000  0.11650000  1.0 -0.2824661527
C  C170  1  0.44990000  0.90960000  0.61650000  1.0 -0.2824661527
C  C171  1  0.94990000  0.59040000  0.38350000  1.0 -0.2824661527
C  C172  1  0.55010000  0.40960000  0.88350000  1.0 -0.2824661527
C  C173  1  0.11650000  0.05010000  0.09040000  1.0 -0.2824661527
C  C174  1  0.61650000  0.44990000  0.90960000  1.0 -0.2824661527
C  C175  1  0.38350000  0.94990000  0.59040000  1.0 -0.2824661527
C  C176  1  0.88350000  0.55010000  0.40960000  1.0 -0.2824661527
C  C177  1  0.09040000  0.11650000  0.05010000  1.0 -0.2824661527
C  C178  1  0.90960000  0.61650000  0.44990000  1.0 -0.2824661527
C  C179  1  0.59040000  0.38350000  0.94990000  1.0 -0.2824661527
C  C180  1  0.40960000  0.88350000  0.55010000  1.0 -0.2824661527
C  C181  1  0.34040000  0.80010000  0.63350000  1.0 -0.2824661527
C  C182  1  0.15960000  0.19990000  0.13350000  1.0 -0.2824661527
C  C183  1  0.84040000  0.69990000  0.36650000  1.0 -0.2824661527
C  C184  1  0.65960000  0.30010000  0.86650000  1.0 -0.2824661527
C  C185  1  0.30010000  0.86650000  0.65960000  1.0 -0.2824661527
C  C186  1  0.69990000  0.36650000  0.84040000  1.0 -0.2824661527
C  C187  1  0.19990000  0.13350000  0.15960000  1.0 -0.2824661527
C  C188  1  0.80010000  0.63350000  0.34040000  1.0 -0.2824661527
C  C189  1  0.36650000  0.84040000  0.69990000  1.0 -0.2824661527
C  C190  1  0.86650000  0.65960000  0.30010000  1.0 -0.2824661527
C  C191  1  0.63350000  0.34040000  0.80010000  1.0 -0.2824661527
C  C192  1  0.13350000  0.15960000  0.19990000  1.0 -0.2824661527
C  C193  1  0.82330000  0.45200000  0.95820000  1.0 0.5434934553
C  C194  1  0.67670000  0.54800000  0.45820000  1.0 0.5434934553
C  C195  1  0.17670000  0.95200000  0.54180000  1.0 0.5434934553
C  C196  1  0.32330000  0.04800000  0.04180000  1.0 0.5434934553
C  C197  1  0.95820000  0.82330000  0.45200000  1.0 0.5434934553
C  C198  1  0.45820000  0.67670000  0.54800000  1.0 0.5434934553
C  C199  1  0.54180000  0.17670000  0.95200000  1.0 0.5434934553
C  C200  1  0.04180000  0.32330000  0.04800000  1.0 0.5434934553
C  C201  1  0.45200000  0.95820000  0.82330000  1.0 0.5434934553
C  C202  1  0.54800000  0.45820000  0.67670000  1.0 0.5434934553
C  C203  1  0.95200000  0.54180000  0.17670000  1.0 0.5434934553
C  C204  1  0.04800000  0.04180000  0.32330000  1.0 0.5434934553
C  C205  1  0.70200000  0.57330000  0.79180000  1.0 0.5434934553
C  C206  1  0.79800000  0.42670000  0.29180000  1.0 0.5434934553
C  C207  1  0.20200000  0.92670000  0.20820000  1.0 0.5434934553
C  C208  1  0.29800000  0.07330000  0.70820000  1.0 0.5434934553
C  C209  1  0.07330000  0.70820000  0.29800000  1.0 0.5434934553
C  C210  1  0.92670000  0.20820000  0.20200000  1.0 0.5434934553
C  C211  1  0.42670000  0.29180000  0.79800000  1.0 0.5434934553
C  C212  1  0.57330000  0.79180000  0.70200000  1.0 0.5434934553
C  C213  1  0.20820000  0.20200000  0.92670000  1.0 0.5434934553
C  C214  1  0.70820000  0.29800000  0.07330000  1.0 0.5434934553
C  C215  1  0.79180000  0.70200000  0.57330000  1.0 0.5434934553
C  C216  1  0.29180000  0.79800000  0.42670000  1.0 0.5434934553
C  C217  1  0.85150000  0.42570000  0.92360000  1.0 -0.0072545279
C  C218  1  0.64850000  0.57430000  0.42360000  1.0 -0.0072545279
C  C219  1  0.14850000  0.92570000  0.57640000  1.0 -0.0072545279
C  C220  1  0.35150000  0.07430000  0.07640000  1.0 -0.0072545279
C  C221  1  0.92360000  0.85150000  0.42570000  1.0 -0.0072545279
C  C222  1  0.42360000  0.64850000  0.57430000  1.0 -0.0072545279
C  C223  1  0.57640000  0.14850000  0.92570000  1.0 -0.0072545279
C  C224  1  0.07640000  0.35150000  0.07430000  1.0 -0.0072545279
C  C225  1  0.42570000  0.92360000  0.85150000  1.0 -0.0072545279
C  C226  1  0.57430000  0.42360000  0.64850000  1.0 -0.0072545279
C  C227  1  0.92570000  0.57640000  0.14850000  1.0 -0.0072545279
C  C228  1  0.07430000  0.07640000  0.35150000  1.0 -0.0072545279
C  C229  1  0.67570000  0.60150000  0.82640000  1.0 -0.0072545279
C  C230  1  0.82430000  0.39850000  0.32640000  1.0 -0.0072545279
C  C231  1  0.17570000  0.89850000  0.17360000  1.0 -0.0072545279
C  C232  1  0.32430000  0.10150000  0.67360000  1.0 -0.0072545279
C  C233  1  0.10150000  0.67360000  0.32430000  1.0 -0.0072545279
C  C234  1  0.89850000  0.17360000  0.17570000  1.0 -0.0072545279
C  C235  1  0.39850000  0.32640000  0.82430000  1.0 -0.0072545279
C  C236  1  0.60150000  0.82640000  0.67570000  1.0 -0.0072545279
C  C237  1  0.17360000  0.17570000  0.89850000  1.0 -0.0072545279
C  C238  1  0.67360000  0.32430000  0.10150000  1.0 -0.0072545279
C  C239  1  0.82640000  0.67570000  0.60150000  1.0 -0.0072545279
C  C240  1  0.32640000  0.82430000  0.39850000  1.0 -0.0072545279
C  C241  1  0.90530000  0.38390000  0.86290000  1.0 -0.1171067411
C  C242  1  0.59470000  0.61610000  0.36290000  1.0 -0.1171067411
C  C243  1  0.09470000  0.88390000  0.63710000  1.0 -0.1171067411
C  C244  1  0.40530000  0.11610000  0.13710000  1.0 -0.1171067411
C  C245  1  0.86290000  0.90530000  0.38390000  1.0 -0.1171067411
C  C246  1  0.36290000  0.59470000  0.61610000  1.0 -0.1171067411
C  C247  1  0.63710000  0.09470000  0.88390000  1.0 -0.1171067411
C  C248  1  0.13710000  0.40530000  0.11610000  1.0 -0.1171067411
C  C249  1  0.38390000  0.86290000  0.90530000  1.0 -0.1171067411
C  C250  1  0.61610000  0.36290000  0.59470000  1.0 -0.1171067411
C  C251  1  0.88390000  0.63710000  0.09470000  1.0 -0.1171067411
C  C252  1  0.11610000  0.13710000  0.40530000  1.0 -0.1171067411
C  C253  1  0.63390000  0.65530000  0.88710000  1.0 -0.1171067411
C  C254  1  0.86610000  0.34470000  0.38710000  1.0 -0.1171067411
C  C255  1  0.13390000  0.84470000  0.11290000  1.0 -0.1171067411
C  C256  1  0.36610000  0.15530000  0.61290000  1.0 -0.1171067411
C  C257  1  0.15530000  0.61290000  0.36610000  1.0 -0.1171067411
C  C258  1  0.84470000  0.11290000  0.13390000  1.0 -0.1171067411
C  C259  1  0.34470000  0.38710000  0.86610000  1.0 -0.1171067411
C  C260  1  0.65530000  0.88710000  0.63390000  1.0 -0.1171067411
C  C261  1  0.11290000  0.13390000  0.84470000  1.0 -0.1171067411
C  C262  1  0.61290000  0.36610000  0.15530000  1.0 -0.1171067411
C  C263  1  0.88710000  0.63390000  0.65530000  1.0 -0.1171067411
C  C264  1  0.38710000  0.86610000  0.34470000  1.0 -0.1171067411
C  C265  1  0.01980000  0.18430000  0.03550000  1.0 0.0990902181
C  C266  1  0.48020000  0.81570000  0.53550000  1.0 0.0990902181
C  C267  1  0.98020000  0.68430000  0.46450000  1.0 0.0990902181
C  C268  1  0.51980000  0.31570000  0.96450000  1.0 0.0990902181
C  C269  1  0.03550000  0.01980000  0.18430000  1.0 0.0990902181
C  C270  1  0.53550000  0.48020000  0.81570000  1.0 0.0990902181
C  C271  1  0.46450000  0.98020000  0.68430000  1.0 0.0990902181
C  C272  1  0.96450000  0.51980000  0.31570000  1.0 0.0990902181
C  C273  1  0.18430000  0.03550000  0.01980000  1.0 0.0990902181
C  C274  1  0.81570000  0.53550000  0.48020000  1.0 0.0990902181
C  C275  1  0.68430000  0.46450000  0.98020000  1.0 0.0990902181
C  C276  1  0.31570000  0.96450000  0.51980000  1.0 0.0990902181
C  C277  1  0.43430000  0.76980000  0.71450000  1.0 0.0990902181
C  C278  1  0.06570000  0.23020000  0.21450000  1.0 0.0990902181
C  C279  1  0.93430000  0.73020000  0.28550000  1.0 0.0990902181
C  C280  1  0.56570000  0.26980000  0.78550000  1.0 0.0990902181
C  C281  1  0.26980000  0.78550000  0.56570000  1.0 0.0990902181
C  C282  1  0.73020000  0.28550000  0.93430000  1.0 0.0990902181
C  C283  1  0.23020000  0.21450000  0.06570000  1.0 0.0990902181
C  C284  1  0.76980000  0.71450000  0.43430000  1.0 0.0990902181
C  C285  1  0.28550000  0.93430000  0.73020000  1.0 0.0990902181
C  C286  1  0.78550000  0.56570000  0.26980000  1.0 0.0990902181
C  C287  1  0.71450000  0.43430000  0.76980000  1.0 0.0990902181
C  C288  1  0.21450000  0.06570000  0.23020000  1.0 0.0990902181
C  C289  1  0.86630000  0.52850000  0.60070000  1.0 0.0195763431
C  C290  1  0.63370000  0.47150000  0.10070000  1.0 0.0195763431
C  C291  1  0.13370000  0.02850000  0.89930000  1.0 0.0195763431
C  C292  1  0.36630000  0.97150000  0.39930000  1.0 0.0195763431
C  C293  1  0.60070000  0.86630000  0.52850000  1.0 0.0195763431
C  C294  1  0.10070000  0.63370000  0.47150000  1.0 0.0195763431
C  C295  1  0.89930000  0.13370000  0.02850000  1.0 0.0195763431
C  C296  1  0.39930000  0.36630000  0.97150000  1.0 0.0195763431
C  C297  1  0.52850000  0.60070000  0.86630000  1.0 0.0195763431
C  C298  1  0.47150000  0.10070000  0.63370000  1.0 0.0195763431
C  C299  1  0.02850000  0.89930000  0.13370000  1.0 0.0195763431
C  C300  1  0.97150000  0.39930000  0.36630000  1.0 0.0195763431
C  C301  1  0.77850000  0.61630000  0.14930000  1.0 0.0195763431
C  C302  1  0.72150000  0.38370000  0.64930000  1.0 0.0195763431
C  C303  1  0.27850000  0.88370000  0.85070000  1.0 0.0195763431
C  C304  1  0.22150000  0.11630000  0.35070000  1.0 0.0195763431
C  C305  1  0.11630000  0.35070000  0.22150000  1.0 0.0195763431
C  C306  1  0.88370000  0.85070000  0.27850000  1.0 0.0195763431
C  C307  1  0.38370000  0.64930000  0.72150000  1.0 0.0195763431
C  C308  1  0.61630000  0.14930000  0.77850000  1.0 0.0195763431
C  C309  1  0.85070000  0.27850000  0.88370000  1.0 0.0195763431
C  C310  1  0.35070000  0.22150000  0.11630000  1.0 0.0195763431
C  C311  1  0.14930000  0.77850000  0.61630000  1.0 0.0195763431
C  C312  1  0.64930000  0.72150000  0.38370000  1.0 0.0195763431
C  C313  1  0.88920000  0.47520000  0.55910000  1.0 0.0990902181
C  C314  1  0.61080000  0.52480000  0.05910000  1.0 0.0990902181
C  C315  1  0.11080000  0.97520000  0.94090000  1.0 0.0990902181
C  C316  1  0.38920000  0.02480000  0.44090000  1.0 0.0990902181
C  C317  1  0.55910000  0.88920000  0.47520000  1.0 0.0990902181
C  C318  1  0.05910000  0.61080000  0.52480000  1.0 0.0990902181
C  C319  1  0.94090000  0.11080000  0.97520000  1.0 0.0990902181
C  C320  1  0.44090000  0.38920000  0.02480000  1.0 0.0990902181
C  C321  1  0.47520000  0.55910000  0.88920000  1.0 0.0990902181
C  C322  1  0.52480000  0.05910000  0.61080000  1.0 0.0990902181
C  C323  1  0.97520000  0.94090000  0.11080000  1.0 0.0990902181
C  C324  1  0.02480000  0.44090000  0.38920000  1.0 0.0990902181
C  C325  1  0.72520000  0.63920000  0.19090000  1.0 0.0990902181
C  C326  1  0.77480000  0.36080000  0.69090000  1.0 0.0990902181
C  C327  1  0.22520000  0.86080000  0.80910000  1.0 0.0990902181
C  C328  1  0.27480000  0.13920000  0.30910000  1.0 0.0990902181
C  C329  1  0.13920000  0.30910000  0.27480000  1.0 0.0990902181
C  C330  1  0.86080000  0.80910000  0.22520000  1.0 0.0990902181
C  C331  1  0.36080000  0.69090000  0.77480000  1.0 0.0990902181
C  C332  1  0.63920000  0.19090000  0.72520000  1.0 0.0990902181
C  C333  1  0.80910000  0.22520000  0.86080000  1.0 0.0990902181
C  C334  1  0.30910000  0.27480000  0.13920000  1.0 0.0990902181
C  C335  1  0.19090000  0.72520000  0.63920000  1.0 0.0990902181
C  C336  1  0.69090000  0.77480000  0.36080000  1.0 0.0990902181
C  C337  1  0.88780000  0.39880000  0.93980000  1.0 -0.1148058291
C  C338  1  0.61220000  0.60120000  0.43980000  1.0 -0.1148058291
C  C339  1  0.11220000  0.89880000  0.56020000  1.0 -0.1148058291
C  C340  1  0.38780000  0.10120000  0.06020000  1.0 -0.1148058291
C  C341  1  0.93980000  0.88780000  0.39880000  1.0 -0.1171067411
C  C342  1  0.43980000  0.61220000  0.60120000  1.0 -0.1148058291
C  C343  1  0.56020000  0.11220000  0.89880000  1.0 -0.1148058291
C  C344  1  0.06020000  0.38780000  0.10120000  1.0 -0.1148058291
C  C345  1  0.39880000  0.93980000  0.88780000  1.0 -0.1148058291
C  C346  1  0.60120000  0.43980000  0.61220000  1.0 -0.1148058291
C  C347  1  0.89880000  0.56020000  0.11220000  1.0 -0.1148058291
C  C348  1  0.10120000  0.06020000  0.38780000  1.0 -0.1148058291
C  C349  1  0.64880000  0.63780000  0.81020000  1.0 -0.1148058291
C  C350  1  0.85120000  0.36220000  0.31020000  1.0 -0.1148058291
C  C351  1  0.14880000  0.86220000  0.18980000  1.0 -0.1148058291
C  C352  1  0.35120000  0.13780000  0.68980000  1.0 -0.1148058291
C  C353  1  0.13780000  0.68980000  0.35120000  1.0 -0.1148058291
C  C354  1  0.86220000  0.18980000  0.14880000  1.0 -0.1148058291
C  C355  1  0.36220000  0.31020000  0.85120000  1.0 -0.1148058291
C  C356  1  0.63780000  0.81020000  0.64880000  1.0 -0.1148058291
C  C357  1  0.18980000  0.14880000  0.86220000  1.0 -0.1148058291
C  C358  1  0.68980000  0.35120000  0.13780000  1.0 -0.1148058291
C  C359  1  0.81020000  0.64880000  0.63780000  1.0 -0.1148058291
C  C360  1  0.31020000  0.85120000  0.36220000  1.0 -0.1148058291
C  C361  1  0.87390000  0.44620000  0.72750000  1.0 -0.0568251321
C  C362  1  0.62610000  0.55380000  0.22750000  1.0 -0.0568251321
C  C363  1  0.12610000  0.94620000  0.77250000  1.0 -0.0568251321
C  C364  1  0.37390000  0.05380000  0.27250000  1.0 -0.0568251321
C  C365  1  0.72750000  0.87390000  0.44620000  1.0 -0.0568251321
C  C366  1  0.22750000  0.62610000  0.55380000  1.0 -0.0568251321
C  C367  1  0.77250000  0.12610000  0.94620000  1.0 -0.0568251321
C  C368  1  0.27250000  0.37390000  0.05380000  1.0 -0.0568251321
C  C369  1  0.44620000  0.72750000  0.87390000  1.0 -0.0568251321
C  C370  1  0.55380000  0.22750000  0.62610000  1.0 -0.0568251321
C  C371  1  0.94620000  0.77250000  0.12610000  1.0 -0.0568251321
C  C372  1  0.05380000  0.27250000  0.37390000  1.0 -0.0568251321
C  C373  1  0.69620000  0.62390000  0.02250000  1.0 -0.0568251321
C  C374  1  0.80380000  0.37610000  0.52250000  1.0 -0.0568251321
C  C375  1  0.19620000  0.87610000  0.97750000  1.0 -0.0568251321
C  C376  1  0.30380000  0.12390000  0.47750000  1.0 -0.0568251321
C  C377  1  0.12390000  0.47750000  0.30380000  1.0 -0.0568251321
C  C378  1  0.87610000  0.97750000  0.19620000  1.0 -0.0568251321
C  C379  1  0.37610000  0.52250000  0.80380000  1.0 -0.0568251321
C  C380  1  0.62390000  0.02250000  0.69620000  1.0 -0.0568251321
C  C381  1  0.97750000  0.19620000  0.87610000  1.0 -0.0568251321
C  C382  1  0.47750000  0.30380000  0.12390000  1.0 -0.0568251321
C  C383  1  0.02250000  0.69620000  0.62390000  1.0 -0.0568251321
C  C384  1  0.52250000  0.80380000  0.37610000  1.0 -0.0568251321
C  C385  1  0.92530000  0.45930000  0.78720000  1.0 -0.099873151
C  C386  1  0.57470000  0.54070000  0.28720000  1.0 -0.099873151
C  C387  1  0.07470000  0.95930000  0.71280000  1.0 -0.099873151
C  C388  1  0.42530000  0.04070000  0.21280000  1.0 -0.099873151
C  C389  1  0.78720000  0.92530000  0.45930000  1.0 -0.099873151
C  C390  1  0.28720000  0.57470000  0.54070000  1.0 -0.099873151
C  C391  1  0.71280000  0.07470000  0.95930000  1.0 -0.099873151
C  C392  1  0.21280000  0.42530000  0.04070000  1.0 -0.099873151
C  C393  1  0.45930000  0.78720000  0.92530000  1.0 -0.099873151
C  C394  1  0.54070000  0.28720000  0.57470000  1.0 -0.099873151
C  C395  1  0.95930000  0.71280000  0.07470000  1.0 -0.099873151
C  C396  1  0.04070000  0.21280000  0.42530000  1.0 -0.099873151
C  C397  1  0.70930000  0.67530000  0.96280000  1.0 -0.099873151
C  C398  1  0.79070000  0.32470000  0.46280000  1.0 -0.099873151
C  C399  1  0.20930000  0.82470000  0.03720000  1.0 -0.099873151
C  C400  1  0.29070000  0.17530000  0.53720000  1.0 -0.099873151
C  C401  1  0.17530000  0.53720000  0.29070000  1.0 -0.099873151
C  C402  1  0.82470000  0.03720000  0.20930000  1.0 -0.099873151
C  C403  1  0.32470000  0.46280000  0.79070000  1.0 -0.099873151
C  C404  1  0.67530000  0.96280000  0.70930000  1.0 -0.099873151
C  C405  1  0.03720000  0.20930000  0.82470000  1.0 -0.099873151
C  C406  1  0.53720000  0.29070000  0.17530000  1.0 -0.099873151
C  C407  1  0.96280000  0.70930000  0.67530000  1.0 -0.099873151
C  C408  1  0.46280000  0.79070000  0.32470000  1.0 -0.099873151
C  C409  1  0.83030000  0.47140000  0.72490000  1.0 0.5573792787
C  C410  1  0.66970000  0.52860000  0.22490000  1.0 0.5573792787
C  C411  1  0.16970000  0.97140000  0.77510000  1.0 0.5573792787
C  C412  1  0.33030000  0.02860000  0.27510000  1.0 0.5573792787
C  C413  1  0.72490000  0.83030000  0.47140000  1.0 0.5573792787
C  C414  1  0.22490000  0.66970000  0.52860000  1.0 0.5573792787
C  C415  1  0.77510000  0.16970000  0.97140000  1.0 0.5573792787
C  C416  1  0.27510000  0.33030000  0.02860000  1.0 0.5573792787
C  C417  1  0.47140000  0.72490000  0.83030000  1.0 0.5573792787
C  C418  1  0.52860000  0.22490000  0.66970000  1.0 0.5573792787
C  C419  1  0.97140000  0.77510000  0.16970000  1.0 0.5573792787
C  C420  1  0.02860000  0.27510000  0.33030000  1.0 0.5573792787
C  C421  1  0.72140000  0.58030000  0.02510000  1.0 0.5573792787
C  C422  1  0.77860000  0.41970000  0.52510000  1.0 0.5573792787
C  C423  1  0.22140000  0.91970000  0.97490000  1.0 0.5573792787
C  C424  1  0.27860000  0.08030000  0.47490000  1.0 0.5573792787
C  C425  1  0.08030000  0.47490000  0.27860000  1.0 0.5573792787
C  C426  1  0.91970000  0.97490000  0.22140000  1.0 0.5573792787
C  C427  1  0.41970000  0.52510000  0.77860000  1.0 0.5573792787
C  C428  1  0.58030000  0.02510000  0.72140000  1.0 0.5573792787
C  C429  1  0.97490000  0.22140000  0.91970000  1.0 0.5573792787
C  C430  1  0.47490000  0.27860000  0.08030000  1.0 0.5573792787
C  C431  1  0.02510000  0.72140000  0.58030000  1.0 0.5573792787
C  C432  1  0.52510000  0.77860000  0.41970000  1.0 0.5573792787
C  C433  1  0.86970000  0.40640000  0.84890000  1.0 -0.0271021332
C  C434  1  0.63030000  0.59360000  0.34890000  1.0 -0.0271021332
C  C435  1  0.13030000  0.90640000  0.65110000  1.0 -0.0271021332
C  C436  1  0.36970000  0.09360000  0.15110000  1.0 -0.0271021332
C  C437  1  0.84890000  0.86970000  0.40640000  1.0 -0.0271021332
C  C438  1  0.34890000  0.63030000  0.59360000  1.0 -0.0271021332
C  C439  1  0.65110000  0.13030000  0.90640000  1.0 -0.0271021332
C  C440  1  0.15110000  0.36970000  0.09360000  1.0 -0.0271021332
C  C441  1  0.40640000  0.84890000  0.86970000  1.0 -0.0271021332
C  C442  1  0.59360000  0.34890000  0.63030000  1.0 -0.0271021332
C  C443  1  0.90640000  0.65110000  0.13030000  1.0 -0.0271021332
C  C444  1  0.09360000  0.15110000  0.36970000  1.0 -0.0271021332
C  C445  1  0.65640000  0.61970000  0.90110000  1.0 -0.0271021332
C  C446  1  0.84360000  0.38030000  0.40110000  1.0 -0.0271021332
C  C447  1  0.15640000  0.88030000  0.09890000  1.0 -0.0271021332
C  C448  1  0.34360000  0.11970000  0.59890000  1.0 -0.0271021332
C  C449  1  0.11970000  0.59890000  0.34360000  1.0 -0.0271021332
C  C450  1  0.88030000  0.09890000  0.15640000  1.0 -0.0271021332
C  C451  1  0.38030000  0.40110000  0.84360000  1.0 -0.0271021332
C  C452  1  0.61970000  0.90110000  0.65640000  1.0 -0.0271021332
C  C453  1  0.09890000  0.15640000  0.88030000  1.0 -0.0271021332
C  C454  1  0.59890000  0.34360000  0.11970000  1.0 -0.0271021332
C  C455  1  0.90110000  0.65640000  0.61970000  1.0 -0.0271021332
C  C456  1  0.40110000  0.84360000  0.38030000  1.0 -0.0271021332
C  C457  1  0.95530000  0.34990000  0.92670000  1.0 0.5522472467
C  C458  1  0.54470000  0.65010000  0.42670000  1.0 0.5522472467
C  C459  1  0.04470000  0.84990000  0.57330000  1.0 0.5522472467
C  C460  1  0.45530000  0.15010000  0.07330000  1.0 0.5522472467
C  C461  1  0.92670000  0.95530000  0.34990000  1.0 0.5522472467
C  C462  1  0.42670000  0.54470000  0.65010000  1.0 0.5522472467
C  C463  1  0.57330000  0.04470000  0.84990000  1.0 0.5522472467
C  C464  1  0.07330000  0.45530000  0.15010000  1.0 0.5522472467
C  C465  1  0.34990000  0.92670000  0.95530000  1.0 0.5522472467
C  C466  1  0.65010000  0.42670000  0.54470000  1.0 0.5522472467
C  C467  1  0.84990000  0.57330000  0.04470000  1.0 0.5522472467
C  C468  1  0.15010000  0.07330000  0.45530000  1.0 0.5522472467
C  C469  1  0.59990000  0.70530000  0.82330000  1.0 0.5522472467
C  C470  1  0.90010000  0.29470000  0.32330000  1.0 0.5522472467
C  C471  1  0.09990000  0.79470000  0.17670000  1.0 0.5522472467
C  C472  1  0.40010000  0.20530000  0.67670000  1.0 0.5522472467
C  C473  1  0.20530000  0.67670000  0.40010000  1.0 0.5522472467
C  C474  1  0.79470000  0.17670000  0.09990000  1.0 0.5522472467
C  C475  1  0.29470000  0.32330000  0.90010000  1.0 0.5522472467
C  C476  1  0.70530000  0.82330000  0.59990000  1.0 0.5522472467
C  C477  1  0.17670000  0.09990000  0.79470000  1.0 0.5522472467
C  C478  1  0.67670000  0.40010000  0.20530000  1.0 0.5522472467
C  C479  1  0.82330000  0.59990000  0.70530000  1.0 0.5522472467
C  C480  1  0.32330000  0.90010000  0.29470000  1.0 0.5522472467
C  C481  1  0.99760000  0.17570000  0.10510000  1.0 -0.1148058291
C  C482  1  0.50240000  0.82430000  0.60510000  1.0 -0.1148058291
C  C483  1  0.00240000  0.67570000  0.39490000  1.0 -0.1148058291
C  C484  1  0.49760000  0.32430000  0.89490000  1.0 -0.1148058291
C  C485  1  0.10510000  0.99760000  0.17570000  1.0 -0.1148058291
C  C486  1  0.60510000  0.50240000  0.82430000  1.0 -0.1148058291
C  C487  1  0.39490000  0.00240000  0.67570000  1.0 -0.1148058291
C  C488  1  0.89490000  0.49760000  0.32430000  1.0 -0.1148058291
C  C489  1  0.17570000  0.10510000  0.99760000  1.0 -0.1148058291
C  C490  1  0.82430000  0.60510000  0.50240000  1.0 -0.1148058291
C  C491  1  0.67570000  0.39490000  0.00240000  1.0 -0.1148058291
C  C492  1  0.32430000  0.89490000  0.49760000  1.0 -0.1148058291
C  C493  1  0.42570000  0.74760000  0.64490000  1.0 -0.1148058291
C  C494  1  0.07430000  0.25240000  0.14490000  1.0 -0.1148058291
C  C495  1  0.92570000  0.75240000  0.35510000  1.0 -0.1148058291
C  C496  1  0.57430000  0.24760000  0.85510000  1.0 -0.1148058291
C  C497  1  0.24760000  0.85510000  0.57430000  1.0 -0.1148058291
C  C498  1  0.75240000  0.35510000  0.92570000  1.0 -0.1148058291
C  C499  1  0.25240000  0.14490000  0.07430000  1.0 -0.1148058291
C  C500  1  0.74760000  0.64490000  0.42570000  1.0 -0.1148058291
C  C501  1  0.35510000  0.92570000  0.75240000  1.0 -0.1148058291
C  C502  1  0.85510000  0.57430000  0.24760000  1.0 -0.1148058291
C  C503  1  0.64490000  0.42570000  0.74760000  1.0 -0.1148058291
C  C504  1  0.14490000  0.07430000  0.25240000  1.0 -0.1148058291
C  C505  1  0.91420000  0.47210000  0.70950000  1.0 -0.1830775905
C  C506  1  0.58580000  0.52790000  0.20950000  1.0 -0.1830775905
C  C507  1  0.08580000  0.97210000  0.79050000  1.0 -0.1830775905
C  C508  1  0.41420000  0.02790000  0.29050000  1.0 -0.1830775905
C  C509  1  0.70950000  0.91420000  0.47210000  1.0 -0.1830775905
C  C510  1  0.20950000  0.58580000  0.52790000  1.0 -0.1830775905
C  C511  1  0.79050000  0.08580000  0.97210000  1.0 -0.1830775905
C  C512  1  0.29050000  0.41420000  0.02790000  1.0 -0.1830775905
C  C513  1  0.47210000  0.70950000  0.91420000  1.0 -0.1830775905
C  C514  1  0.52790000  0.20950000  0.58580000  1.0 -0.1830775905
C  C515  1  0.97210000  0.79050000  0.08580000  1.0 -0.1830775905
C  C516  1  0.02790000  0.29050000  0.41420000  1.0 -0.1830775905
C  C517  1  0.72210000  0.66420000  0.04050000  1.0 -0.1830775905
C  C518  1  0.77790000  0.33580000  0.54050000  1.0 -0.1830775905
C  C519  1  0.22210000  0.83580000  0.95950000  1.0 -0.1830775905
C  C520  1  0.27790000  0.16420000  0.45950000  1.0 -0.1830775905
C  C521  1  0.16420000  0.45950000  0.27790000  1.0 -0.1830775905
C  C522  1  0.83580000  0.95950000  0.22210000  1.0 -0.1830775905
C  C523  1  0.33580000  0.54050000  0.77790000  1.0 -0.1830775905
C  C524  1  0.66420000  0.04050000  0.72210000  1.0 -0.1830775905
C  C525  1  0.95950000  0.22210000  0.83580000  1.0 -0.1830775905
C  C526  1  0.45950000  0.27790000  0.16420000  1.0 -0.1830775905
C  C527  1  0.04050000  0.72210000  0.66420000  1.0 -0.1830775905
C  C528  1  0.54050000  0.77790000  0.33580000  1.0 -0.1830775905
C  C529  1  0.93880000  0.48600000  0.74640000  1.0 -0.1531095672
C  C530  1  0.56120000  0.51400000  0.24640000  1.0 -0.1531095672
C  C531  1  0.06120000  0.98600000  0.75360000  1.0 -0.1531095672
C  C532  1  0.43880000  0.01400000  0.25360000  1.0 -0.1531095672
C  C533  1  0.74640000  0.93880000  0.48600000  1.0 -0.1531095672
C  C534  1  0.24640000  0.56120000  0.51400000  1.0 -0.1531095672
C  C535  1  0.75360000  0.06120000  0.98600000  1.0 -0.1531095672
C  C536  1  0.25360000  0.43880000  0.01400000  1.0 -0.1531095672
C  C537  1  0.48600000  0.74640000  0.93880000  1.0 -0.1531095672
C  C538  1  0.51400000  0.24640000  0.56120000  1.0 -0.1531095672
C  C539  1  0.98600000  0.75360000  0.06120000  1.0 -0.1531095672
C  C540  1  0.01400000  0.25360000  0.43880000  1.0 -0.1531095672
C  C541  1  0.73600000  0.68880000  0.00360000  1.0 -0.1531095672
C  C542  1  0.76400000  0.31120000  0.50360000  1.0 -0.1531095672
C  C543  1  0.23600000  0.81120000  0.99640000  1.0 -0.1531095672
C  C544  1  0.26400000  0.18880000  0.49640000  1.0 -0.1531095672
C  C545  1  0.18880000  0.49640000  0.26400000  1.0 -0.1531095672
C  C546  1  0.81120000  0.99640000  0.23600000  1.0 -0.1531095672
C  C547  1  0.31120000  0.50360000  0.76400000  1.0 -0.1531095672
C  C548  1  0.68880000  0.00360000  0.73600000  1.0 -0.1531095672
C  C549  1  0.99640000  0.23600000  0.81120000  1.0 -0.1531095672
C  C550  1  0.49640000  0.26400000  0.18880000  1.0 -0.1531095672
C  C551  1  0.00360000  0.73600000  0.68880000  1.0 -0.1531095672
C  C552  1  0.50360000  0.76400000  0.31120000  1.0 -0.1531095672
C  C553  1  0.97500000  0.20570000  0.08410000  1.0 0.0195763431
C  C554  1  0.52500000  0.79430000  0.58410000  1.0 0.0195763431
C  C555  1  0.02500000  0.70570000  0.41590000  1.0 0.0195763431
C  C556  1  0.47500000  0.29430000  0.91590000  1.0 0.0195763431
C  C557  1  0.08410000  0.97500000  0.20570000  1.0 0.0195763431
C  C558  1  0.58410000  0.52500000  0.79430000  1.0 0.0195763431
C  C559  1  0.41590000  0.02500000  0.70570000  1.0 0.0195763431
C  C560  1  0.91590000  0.47500000  0.29430000  1.0 0.0195763431
C  C561  1  0.20570000  0.08410000  0.97500000  1.0 0.0195763431
C  C562  1  0.79430000  0.58410000  0.52500000  1.0 0.0195763431
C  C563  1  0.70570000  0.41590000  0.02500000  1.0 0.0195763431
C  C564  1  0.29430000  0.91590000  0.47500000  1.0 0.0195763431
C  C565  1  0.45570000  0.72500000  0.66590000  1.0 0.0195763431
C  C566  1  0.04430000  0.27500000  0.16590000  1.0 0.0195763431
C  C567  1  0.95570000  0.77500000  0.33410000  1.0 0.0195763431
C  C568  1  0.54430000  0.22500000  0.83410000  1.0 0.0195763431
C  C569  1  0.22500000  0.83410000  0.54430000  1.0 0.0195763431
C  C570  1  0.77500000  0.33410000  0.95570000  1.0 0.0195763431
C  C571  1  0.27500000  0.16590000  0.04430000  1.0 0.0195763431
C  C572  1  0.72500000  0.66590000  0.45570000  1.0 0.0195763431
C  C573  1  0.33410000  0.95570000  0.77500000  1.0 0.0195763431
C  C574  1  0.83410000  0.54430000  0.22500000  1.0 0.0195763431
C  C575  1  0.66590000  0.45570000  0.72500000  1.0 0.0195763431
C  C576  1  0.16590000  0.04430000  0.27500000  1.0 0.0195763431
N  N1  1  0.86040000  0.48620000  0.59160000  1.0 -0.2509523525
N  N2  1  0.63960000  0.51380000  0.09160000  1.0 -0.2509523525
N  N3  1  0.13960000  0.98620000  0.90840000  1.0 -0.2509523525
N  N4  1  0.36040000  0.01380000  0.40840000  1.0 -0.2509523525
N  N5  1  0.59160000  0.86040000  0.48620000  1.0 -0.2509523525
N  N6  1  0.09160000  0.63960000  0.51380000  1.0 -0.2509523525
N  N7  1  0.90840000  0.13960000  0.98620000  1.0 -0.2509523525
N  N8  1  0.40840000  0.36040000  0.01380000  1.0 -0.2509523525
N  N9  1  0.48620000  0.59160000  0.86040000  1.0 -0.2509523525
N  N10  1  0.51380000  0.09160000  0.63960000  1.0 -0.2509523525
N  N11  1  0.98620000  0.90840000  0.13960000  1.0 -0.2509523525
N  N12  1  0.01380000  0.40840000  0.36040000  1.0 -0.2509523525
N  N13  1  0.73620000  0.61040000  0.15840000  1.0 -0.2509523525
N  N14  1  0.76380000  0.38960000  0.65840000  1.0 -0.2509523525
N  N15  1  0.23620000  0.88960000  0.84160000  1.0 -0.2509523525
N  N16  1  0.26380000  0.11040000  0.34160000  1.0 -0.2509523525
N  N17  1  0.11040000  0.34160000  0.26380000  1.0 -0.2509523525
N  N18  1  0.88960000  0.84160000  0.23620000  1.0 -0.2509523525
N  N19  1  0.38960000  0.65840000  0.76380000  1.0 -0.2509523525
N  N20  1  0.61040000  0.15840000  0.73620000  1.0 -0.2509523525
N  N21  1  0.84160000  0.23620000  0.88960000  1.0 -0.2509523525
N  N22  1  0.34160000  0.26380000  0.11040000  1.0 -0.2509523525
N  N23  1  0.15840000  0.73620000  0.61040000  1.0 -0.2509523525
N  N24  1  0.65840000  0.76380000  0.38960000  1.0 -0.2509523525
N  N25  1  0.88580000  0.43690000  0.77380000  1.0 -0.0853567394
N  N26  1  0.61420000  0.56310000  0.27380000  1.0 -0.0853567394
N  N27  1  0.11420000  0.93690000  0.72620000  1.0 -0.0853567394
N  N28  1  0.38580000  0.06310000  0.22620000  1.0 -0.0853567394
N  N29  1  0.77380000  0.88580000  0.43690000  1.0 -0.0853567394
N  N30  1  0.27380000  0.61420000  0.56310000  1.0 -0.0853567394
N  N31  1  0.72620000  0.11420000  0.93690000  1.0 -0.0853567394
N  N32  1  0.22620000  0.38580000  0.06310000  1.0 -0.0853567394
N  N33  1  0.43690000  0.77380000  0.88580000  1.0 -0.0853567394
N  N34  1  0.56310000  0.27380000  0.61420000  1.0 -0.0853567394
N  N35  1  0.93690000  0.72620000  0.11420000  1.0 -0.0853567394
N  N36  1  0.06310000  0.22620000  0.38580000  1.0 -0.0853567394
N  N37  1  0.68690000  0.63580000  0.97620000  1.0 -0.0853567394
N  N38  1  0.81310000  0.36420000  0.47620000  1.0 -0.0853567394
N  N39  1  0.18690000  0.86420000  0.02380000  1.0 -0.0853567394
N  N40  1  0.31310000  0.13580000  0.52380000  1.0 -0.0853567394
N  N41  1  0.13580000  0.52380000  0.31310000  1.0 -0.0853567394
N  N42  1  0.86420000  0.02380000  0.18690000  1.0 -0.0853567394
N  N43  1  0.36420000  0.47620000  0.81310000  1.0 -0.0853567394
N  N44  1  0.63580000  0.97620000  0.68690000  1.0 -0.0853567394
N  N45  1  0.02380000  0.18690000  0.86420000  1.0 -0.0853567394
N  N46  1  0.52380000  0.31310000  0.13580000  1.0 -0.0853567394
N  N47  1  0.97620000  0.68690000  0.63580000  1.0 -0.0853567394
N  N48  1  0.47620000  0.81310000  0.36420000  1.0 -0.0853567394
N  N49  1  0.02610000  0.15690000  0.07300000  1.0 0.0036145987
N  N50  1  0.47390000  0.84310000  0.57300000  1.0 0.0036145987
N  N51  1  0.97390000  0.65690000  0.42700000  1.0 0.0036145987
N  N52  1  0.52610000  0.34310000  0.92700000  1.0 0.0036145987
N  N53  1  0.07300000  0.02610000  0.15690000  1.0 0.0036145987
N  N54  1  0.57300000  0.47390000  0.84310000  1.0 0.0036145987
N  N55  1  0.42700000  0.97390000  0.65690000  1.0 0.0036145987
N  N56  1  0.92700000  0.52610000  0.34310000  1.0 0.0036145987
N  N57  1  0.15690000  0.07300000  0.02610000  1.0 0.0036145987
N  N58  1  0.84310000  0.57300000  0.47390000  1.0 0.0036145987
N  N59  1  0.65690000  0.42700000  0.97390000  1.0 0.0036145987
N  N60  1  0.34310000  0.92700000  0.52610000  1.0 0.0036145987
N  N61  1  0.40690000  0.77610000  0.67700000  1.0 0.0036145987
N  N62  1  0.09310000  0.22390000  0.17700000  1.0 0.0036145987
N  N63  1  0.90690000  0.72390000  0.32300000  1.0 0.0036145987
N  N64  1  0.59310000  0.27610000  0.82300000  1.0 0.0036145987
N  N65  1  0.27610000  0.82300000  0.59310000  1.0 0.0036145987
N  N66  1  0.72390000  0.32300000  0.90690000  1.0 0.0036145987
N  N67  1  0.22390000  0.17700000  0.09310000  1.0 0.0036145987
N  N68  1  0.77610000  0.67700000  0.40690000  1.0 0.0036145987
N  N69  1  0.32300000  0.90690000  0.72390000  1.0 0.0036145987
N  N70  1  0.82300000  0.59310000  0.27610000  1.0 0.0036145987
N  N71  1  0.67700000  0.40690000  0.77610000  1.0 0.0036145987
N  N72  1  0.17700000  0.09310000  0.22390000  1.0 0.0036145987
N  N73  1  0.91760000  0.50960000  0.54820000  1.0 0.0195763431
N  N74  1  0.58240000  0.49040000  0.04820000  1.0 0.0195763431
N  N75  1  0.08240000  0.00960000  0.95180000  1.0 0.0195763431
N  N76  1  0.41760000  0.99040000  0.45180000  1.0 0.0195763431
N  N77  1  0.54820000  0.91760000  0.50960000  1.0 0.0195763431
N  N78  1  0.04820000  0.58240000  0.49040000  1.0 0.0195763431
N  N79  1  0.95180000  0.08240000  0.00960000  1.0 0.0195763431
N  N80  1  0.45180000  0.41760000  0.99040000  1.0 0.0195763431
N  N81  1  0.50960000  0.54820000  0.91760000  1.0 0.0195763431
N  N82  1  0.49040000  0.04820000  0.58240000  1.0 0.0195763431
N  N83  1  0.00960000  0.95180000  0.08240000  1.0 0.0195763431
N  N84  1  0.99040000  0.45180000  0.41760000  1.0 0.0195763431
N  N85  1  0.75960000  0.66760000  0.20180000  1.0 0.0195763431
N  N86  1  0.74040000  0.33240000  0.70180000  1.0 0.0195763431
N  N87  1  0.25960000  0.83240000  0.79820000  1.0 0.0195763431
N  N88  1  0.24040000  0.16760000  0.29820000  1.0 0.0195763431
N  N89  1  0.16760000  0.29820000  0.24040000  1.0 0.0195763431
N  N90  1  0.83240000  0.79820000  0.25960000  1.0 0.0195763431
N  N91  1  0.33240000  0.70180000  0.74040000  1.0 0.0195763431
N  N92  1  0.66760000  0.20180000  0.75960000  1.0 0.0195763431
N  N93  1  0.79820000  0.25960000  0.83240000  1.0 0.0195763431
N  N94  1  0.29820000  0.24040000  0.16760000  1.0 0.0195763431
N  N95  1  0.20180000  0.75960000  0.66760000  1.0 0.0195763431
N  N96  1  0.70180000  0.74040000  0.33240000  1.0 0.0195763431
N  N97  1  0.98870000  0.21570000  0.04390000  1.0 -0.2719339598
N  N98  1  0.51130000  0.78430000  0.54390000  1.0 -0.2719339598
N  N99  1  0.01130000  0.71570000  0.45610000  1.0 -0.2719339598
N  N100  1  0.48870000  0.28430000  0.95610000  1.0 -0.2719339598
N  N101  1  0.04390000  0.98870000  0.21570000  1.0 -0.2719339598
N  N102  1  0.54390000  0.51130000  0.78430000  1.0 -0.2719339598
N  N103  1  0.45610000  0.01130000  0.71570000  1.0 -0.2719339598
N  N104  1  0.95610000  0.48870000  0.28430000  1.0 -0.2719339598
N  N105  1  0.21570000  0.04390000  0.98870000  1.0 -0.2719339598
N  N106  1  0.78430000  0.54390000  0.51130000  1.0 -0.2719339598
N  N107  1  0.71570000  0.45610000  0.01130000  1.0 -0.2719339598
N  N108  1  0.28430000  0.95610000  0.48870000  1.0 -0.2719339598
N  N109  1  0.46570000  0.73870000  0.70610000  1.0 -0.2719339598
N  N110  1  0.03430000  0.26130000  0.20610000  1.0 -0.2719339598
N  N111  1  0.96570000  0.76130000  0.29390000  1.0 -0.2719339598
N  N112  1  0.53430000  0.23870000  0.79390000  1.0 -0.2719339598
N  N113  1  0.23870000  0.79390000  0.53430000  1.0 -0.2719339598
N  N114  1  0.76130000  0.29390000  0.96570000  1.0 -0.2719339598
N  N115  1  0.26130000  0.20610000  0.03430000  1.0 -0.2719339598
N  N116  1  0.73870000  0.70610000  0.46570000  1.0 -0.2719339598
N  N117  1  0.29390000  0.96570000  0.76130000  1.0 -0.2719339598
N  N118  1  0.79390000  0.53430000  0.23870000  1.0 -0.2719339598
N  N119  1  0.70610000  0.46570000  0.73870000  1.0 -0.2719339598
N  N120  1  0.20610000  0.03430000  0.26130000  1.0 -0.2719339598
O  O1  1  0.81270000  0.47720000  0.68690000  1.0 -0.5564610306
O  O2  1  0.68730000  0.52280000  0.18690000  1.0 -0.5564610306
O  O3  1  0.18730000  0.97720000  0.81310000  1.0 -0.5564610306
O  O4  1  0.31270000  0.02280000  0.31310000  1.0 -0.5564610306
O  O5  1  0.68690000  0.81270000  0.47720000  1.0 -0.5564610306
O  O6  1  0.18690000  0.68730000  0.52280000  1.0 -0.5564610306
O  O7  1  0.81310000  0.18730000  0.97720000  1.0 -0.5564610306
O  O8  1  0.31310000  0.31270000  0.02280000  1.0 -0.5564610306
O  O9  1  0.47720000  0.68690000  0.81270000  1.0 -0.5564610306
O  O10  1  0.52280000  0.18690000  0.68730000  1.0 -0.5564610306
O  O11  1  0.97720000  0.81310000  0.18730000  1.0 -0.5564610306
O  O12  1  0.02280000  0.31310000  0.31270000  1.0 -0.5564610306
O  O13  1  0.72720000  0.56270000  0.06310000  1.0 -0.5564610306
O  O14  1  0.77280000  0.43730000  0.56310000  1.0 -0.5564610306
O  O15  1  0.22720000  0.93730000  0.93690000  1.0 -0.5564610306
O  O16  1  0.27280000  0.06270000  0.43690000  1.0 -0.5564610306
O  O17  1  0.06270000  0.43690000  0.27280000  1.0 -0.5564610306
O  O18  1  0.93730000  0.93690000  0.22720000  1.0 -0.5564610306
O  O19  1  0.43730000  0.56310000  0.77280000  1.0 -0.5564610306
O  O20  1  0.56270000  0.06310000  0.72720000  1.0 -0.5564610306
O  O21  1  0.93690000  0.22720000  0.93730000  1.0 -0.5564610306
O  O22  1  0.43690000  0.27280000  0.06270000  1.0 -0.5564610306
O  O23  1  0.06310000  0.72720000  0.56270000  1.0 -0.5564610306
O  O24  1  0.56310000  0.77280000  0.43730000  1.0 -0.5564610306
O  O25  1  0.82800000  0.44240000  0.99890000  1.0 -0.5361606348
O  O26  1  0.67200000  0.55760000  0.49890000  1.0 -0.5361606348
O  O27  1  0.17200000  0.94240000  0.50110000  1.0 -0.5361606348
O  O28  1  0.32800000  0.05760000  0.00110000  1.0 -0.5361606348
O  O29  1  0.99890000  0.82800000  0.44240000  1.0 -0.5361606348
O  O30  1  0.49890000  0.67200000  0.55760000  1.0 -0.5361606348
O  O31  1  0.50110000  0.17200000  0.94240000  1.0 -0.5361606348
O  O32  1  0.00110000  0.32800000  0.05760000  1.0 -0.5361606348
O  O33  1  0.44240000  0.99890000  0.82800000  1.0 -0.5361606348
O  O34  1  0.55760000  0.49890000  0.67200000  1.0 -0.5361606348
O  O35  1  0.94240000  0.50110000  0.17200000  1.0 -0.5361606348
O  O36  1  0.05760000  0.00110000  0.32800000  1.0 -0.5361606348
O  O37  1  0.69240000  0.57800000  0.75110000  1.0 -0.5361606348
O  O38  1  0.80760000  0.42200000  0.25110000  1.0 -0.5361606348
O  O39  1  0.19240000  0.92200000  0.24890000  1.0 -0.5361606348
O  O40  1  0.30760000  0.07800000  0.74890000  1.0 -0.5361606348
O  O41  1  0.07800000  0.74890000  0.30760000  1.0 -0.5361606348
O  O42  1  0.92200000  0.24890000  0.19240000  1.0 -0.5361606348
O  O43  1  0.42200000  0.25110000  0.80760000  1.0 -0.5361606348
O  O44  1  0.57800000  0.75110000  0.69240000  1.0 -0.5361606348
O  O45  1  0.24890000  0.19240000  0.92200000  1.0 -0.5361606348
O  O46  1  0.74890000  0.30760000  0.07800000  1.0 -0.5361606348
O  O47  1  0.75110000  0.69240000  0.57800000  1.0 -0.5361606348
O  O48  1  0.25110000  0.80760000  0.42200000  1.0 -0.5361606348
O  O49  1  0.79740000  0.48350000  0.94270000  1.0 -0.5700441468
O  O50  1  0.70260000  0.51650000  0.44270000  1.0 -0.5700441468
O  O51  1  0.20260000  0.98350000  0.55730000  1.0 -0.5700441468
O  O52  1  0.29740000  0.01650000  0.05730000  1.0 -0.5700441468
O  O53  1  0.94270000  0.79740000  0.48350000  1.0 -0.5700441468
O  O54  1  0.44270000  0.70260000  0.51650000  1.0 -0.5700441468
O  O55  1  0.55730000  0.20260000  0.98350000  1.0 -0.5700441468
O  O56  1  0.05730000  0.29740000  0.01650000  1.0 -0.5700441468
O  O57  1  0.48350000  0.94270000  0.79740000  1.0 -0.5700441468
O  O58  1  0.51650000  0.44270000  0.70260000  1.0 -0.5700441468
O  O59  1  0.98350000  0.55730000  0.20260000  1.0 -0.5700441468
O  O60  1  0.01650000  0.05730000  0.29740000  1.0 -0.5700441468
O  O61  1  0.73350000  0.54740000  0.80730000  1.0 -0.5700441468
O  O62  1  0.76650000  0.45260000  0.30730000  1.0 -0.5700441468
O  O63  1  0.23350000  0.95260000  0.19270000  1.0 -0.5700441468
O  O64  1  0.26650000  0.04740000  0.69270000  1.0 -0.5700441468
O  O65  1  0.04740000  0.69270000  0.26650000  1.0 -0.5700441468
O  O66  1  0.95260000  0.19270000  0.23350000  1.0 -0.5700441468
O  O67  1  0.45260000  0.30730000  0.76650000  1.0 -0.5700441468
O  O68  1  0.54740000  0.80730000  0.73350000  1.0 -0.5700441468
O  O69  1  0.19270000  0.23350000  0.95260000  1.0 -0.5700441468
O  O70  1  0.69270000  0.26650000  0.04740000  1.0 -0.5700441468
O  O71  1  0.80730000  0.73350000  0.54740000  1.0 -0.5700441468
O  O72  1  0.30730000  0.76650000  0.45260000  1.0 -0.5700441468
O  O73  1  0.82660000  0.39050000  0.78560000  1.0 -0.518832067
O  O74  1  0.67340000  0.60950000  0.28560000  1.0 -0.518832067
O  O75  1  0.17340000  0.89050000  0.71440000  1.0 -0.518832067
O  O76  1  0.32660000  0.10950000  0.21440000  1.0 -0.518832067
O  O77  1  0.78560000  0.82660000  0.39050000  1.0 -0.518832067
O  O78  1  0.28560000  0.67340000  0.60950000  1.0 -0.518832067
O  O79  1  0.71440000  0.17340000  0.89050000  1.0 -0.518832067
O  O80  1  0.21440000  0.32660000  0.10950000  1.0 -0.518832067
O  O81  1  0.39050000  0.78560000  0.82660000  1.0 -0.518832067
O  O82  1  0.60950000  0.28560000  0.67340000  1.0 -0.518832067
O  O83  1  0.89050000  0.71440000  0.17340000  1.0 -0.518832067
O  O84  1  0.10950000  0.21440000  0.32660000  1.0 -0.518832067
O  O85  1  0.64050000  0.57660000  0.96440000  1.0 -0.518832067
O  O86  1  0.85950000  0.42340000  0.46440000  1.0 -0.518832067
O  O87  1  0.14050000  0.92340000  0.03560000  1.0 -0.518832067
O  O88  1  0.35950000  0.07660000  0.53560000  1.0 -0.518832067
O  O89  1  0.07660000  0.53560000  0.35950000  1.0 -0.518832067
O  O90  1  0.92340000  0.03560000  0.14050000  1.0 -0.518832067
O  O91  1  0.42340000  0.46440000  0.85950000  1.0 -0.518832067
O  O92  1  0.57660000  0.96440000  0.64050000  1.0 -0.518832067
O  O93  1  0.03560000  0.14050000  0.92340000  1.0 -0.518832067
O  O94  1  0.53560000  0.35950000  0.07660000  1.0 -0.518832067
O  O95  1  0.96440000  0.64050000  0.57660000  1.0 -0.518832067
O  O96  1  0.46440000  0.85950000  0.42340000  1.0 -0.518832067
O  O97  1  0.81550000  0.49080000  0.75980000  1.0 -0.4726416238
O  O98  1  0.68450000  0.50920000  0.25980000  1.0 -0.4726416238
O  O99  1  0.18450000  0.99080000  0.74020000  1.0 -0.4726416238
O  O100  1  0.31550000  0.00920000  0.24020000  1.0 -0.4726416238
O  O101  1  0.75980000  0.81550000  0.49080000  1.0 -0.4726416238
O  O102  1  0.25980000  0.68450000  0.50920000  1.0 -0.4726416238
O  O103  1  0.74020000  0.18450000  0.99080000  1.0 -0.4726416238
O  O104  1  0.24020000  0.31550000  0.00920000  1.0 -0.4726416238
O  O105  1  0.49080000  0.75980000  0.81550000  1.0 -0.4726416238
O  O106  1  0.50920000  0.25980000  0.68450000  1.0 -0.4726416238
O  O107  1  0.99080000  0.74020000  0.18450000  1.0 -0.4726416238
O  O108  1  0.00920000  0.24020000  0.31550000  1.0 -0.4726416238
O  O109  1  0.74080000  0.56550000  0.99020000  1.0 -0.4726416238
O  O110  1  0.75920000  0.43450000  0.49020000  1.0 -0.4726416238
O  O111  1  0.24080000  0.93450000  0.00980000  1.0 -0.4726416238
O  O112  1  0.25920000  0.06550000  0.50980000  1.0 -0.4726416238
O  O113  1  0.06550000  0.50980000  0.25920000  1.0 -0.4726416238
O  O114  1  0.93450000  0.00980000  0.24080000  1.0 -0.4726416238
O  O115  1  0.43450000  0.49020000  0.75920000  1.0 -0.4726416238
O  O116  1  0.56550000  0.99020000  0.74080000  1.0 -0.4726416238
O  O117  1  0.00980000  0.24080000  0.93450000  1.0 -0.4726416238
O  O118  1  0.50980000  0.25920000  0.06550000  1.0 -0.4726416238
O  O119  1  0.99020000  0.74080000  0.56550000  1.0 -0.4726416238
O  O120  1  0.49020000  0.75920000  0.43450000  1.0 -0.4726416238
O  O121  1  0.95380000  0.33700000  0.96360000  1.0 -0.4641304532
O  O122  1  0.54620000  0.66300000  0.46360000  1.0 -0.4641304532
O  O123  1  0.04620000  0.83700000  0.53640000  1.0 -0.4641304532
O  O124  1  0.45380000  0.16300000  0.03640000  1.0 -0.4641304532
O  O125  1  0.96360000  0.95380000  0.33700000  1.0 -0.4641304532
O  O126  1  0.46360000  0.54620000  0.66300000  1.0 -0.4641304532
O  O127  1  0.53640000  0.04620000  0.83700000  1.0 -0.4641304532
O  O128  1  0.03640000  0.45380000  0.16300000  1.0 -0.4641304532
O  O129  1  0.33700000  0.96360000  0.95380000  1.0 -0.4641304532
O  O130  1  0.66300000  0.46360000  0.54620000  1.0 -0.4641304532
O  O131  1  0.83700000  0.53640000  0.04620000  1.0 -0.4641304532
O  O132  1  0.16300000  0.03640000  0.45380000  1.0 -0.4641304532
O  O133  1  0.58700000  0.70380000  0.78640000  1.0 -0.4641304532
O  O134  1  0.91300000  0.29620000  0.28640000  1.0 -0.4641304532
O  O135  1  0.08700000  0.79620000  0.21360000  1.0 -0.4641304532
O  O136  1  0.41300000  0.20380000  0.71360000  1.0 -0.4641304532
O  O137  1  0.20380000  0.71360000  0.41300000  1.0 -0.4641304532
O  O138  1  0.79620000  0.21360000  0.08700000  1.0 -0.4641304532
O  O139  1  0.29620000  0.28640000  0.91300000  1.0 -0.4641304532
O  O140  1  0.70380000  0.78640000  0.58700000  1.0 -0.4641304532
O  O141  1  0.21360000  0.08700000  0.79620000  1.0 -0.4641304532
O  O142  1  0.71360000  0.41300000  0.20380000  1.0 -0.4641304532
O  O143  1  0.78640000  0.58700000  0.70380000  1.0 -0.4641304532
O  O144  1  0.28640000  0.91300000  0.29620000  1.0 -0.4641304532
O  O145  1  0.98380000  0.33900000  0.89680000  1.0 -0.5343772862
O  O146  1  0.51620000  0.66100000  0.39680000  1.0 -0.5343772862
O  O147  1  0.01620000  0.83900000  0.60320000  1.0 -0.5343772862
O  O148  1  0.48380000  0.16100000  0.10320000  1.0 -0.5343772862
O  O149  1  0.89680000  0.98380000  0.33900000  1.0 -0.5343772862
O  O150  1  0.39680000  0.51620000  0.66100000  1.0 -0.5343772862
O  O151  1  0.60320000  0.01620000  0.83900000  1.0 -0.5343772862
O  O152  1  0.10320000  0.48380000  0.16100000  1.0 -0.5343772862
O  O153  1  0.33900000  0.89680000  0.98380000  1.0 -0.5343772862
O  O154  1  0.66100000  0.39680000  0.51620000  1.0 -0.5343772862
O  O155  1  0.83900000  0.60320000  0.01620000  1.0 -0.5343772862
O  O156  1  0.16100000  0.10320000  0.48380000  1.0 -0.5343772862
O  O157  1  0.58900000  0.73380000  0.85320000  1.0 -0.5343772862
O  O158  1  0.91100000  0.26620000  0.35320000  1.0 -0.5343772862
O  O159  1  0.08900000  0.76620000  0.14680000  1.0 -0.5343772862
O  O160  1  0.41100000  0.23380000  0.64680000  1.0 -0.5343772862
O  O161  1  0.23380000  0.64680000  0.41100000  1.0 -0.5343772862
O  O162  1  0.76620000  0.14680000  0.08900000  1.0 -0.5343772862
O  O163  1  0.26620000  0.35320000  0.91100000  1.0 -0.5343772862
O  O164  1  0.73380000  0.85320000  0.58900000  1.0 -0.5343772862
O  O165  1  0.14680000  0.08900000  0.76620000  1.0 -0.5343772862
O  O166  1  0.64680000  0.41100000  0.23380000  1.0 -0.5343772862
O  O167  1  0.85320000  0.58900000  0.73380000  1.0 -0.5343772862
O  O168  1  0.35320000  0.91100000  0.26620000  1.0 -0.5343772862
O  O169  1  0.90340000  0.28540000  0.03360000  1.0 -0.2174405474
O  O170  1  0.59660000  0.71460000  0.53360000  1.0 -0.2174405474
O  O171  1  0.09660000  0.78540000  0.46640000  1.0 -0.2174405474
O  O172  1  0.40340000  0.21460000  0.96640000  1.0 -0.2174405474
O  O173  1  0.03360000  0.90340000  0.28540000  1.0 -0.2174405474
O  O174  1  0.53360000  0.59660000  0.71460000  1.0 -0.2174405474
O  O175  1  0.46640000  0.09660000  0.78540000  1.0 -0.2174405474
O  O176  1  0.96640000  0.40340000  0.21460000  1.0 -0.2174405474
O  O177  1  0.28540000  0.03360000  0.90340000  1.0 -0.2174405474
O  O178  1  0.71460000  0.53360000  0.59660000  1.0 -0.2174405474
O  O179  1  0.78540000  0.46640000  0.09660000  1.0 -0.2174405474
O  O180  1  0.21460000  0.96640000  0.40340000  1.0 -0.2174405474
O  O181  1  0.53540000  0.65340000  0.71640000  1.0 -0.2174405474
O  O182  1  0.96460000  0.34660000  0.21640000  1.0 -0.2174405474
O  O183  1  0.03540000  0.84660000  0.28360000  1.0 -0.2174405474
O  O184  1  0.46460000  0.15340000  0.78360000  1.0 -0.2174405474
O  O185  1  0.15340000  0.78360000  0.46460000  1.0 -0.2174405474
O  O186  1  0.84660000  0.28360000  0.03540000  1.0 -0.2144501228
O  O187  1  0.34660000  0.21640000  0.96460000  1.0 -0.2174405474
O  O188  1  0.65340000  0.71640000  0.53540000  1.0 -0.2174405474
O  O189  1  0.28360000  0.03540000  0.84660000  1.0 -0.2174405474
O  O190  1  0.78360000  0.46460000  0.15340000  1.0 -0.2174405474
O  O191  1  0.71640000  0.53540000  0.65340000  1.0 -0.2174405474
O  O192  1  0.21640000  0.96460000  0.34660000  1.0 -0.2174405474
O  O193  1  0.87490000  0.37510000  0.62500000  1.0 -0.6398241737
O  O194  1  0.62510000  0.62490000  0.12500000  1.0 -0.6398241737
O  O195  1  0.12510000  0.87510000  0.87500000  1.0 -0.6398241737
O  O196  1  0.37490000  0.12490000  0.37500000  1.0 -0.6398241737
O  O197  1  0.62500000  0.87490000  0.37510000  1.0 -0.6398241737
O  O198  1  0.12500000  0.62510000  0.62490000  1.0 -0.6398241737
O  O199  1  0.87500000  0.12510000  0.87510000  1.0 -0.6398241737
O  O200  1  0.37500000  0.37490000  0.12490000  1.0 -0.6398241737
O  O201  1  0.37510000  0.62500000  0.87490000  1.0 -0.6398241737
O  O202  1  0.62490000  0.12500000  0.62510000  1.0 -0.6398241737
O  O203  1  0.87510000  0.87500000  0.12510000  1.0 -0.6398241737
O  O204  1  0.12490000  0.37500000  0.37490000  1.0 -0.6398241737
