# DDEC6 charges by PACMAN v1.1 (https://github.com/mtap-research/PACMAN-charge/)
data_LUBMAW_ASR_pacman
_symmetry_space_group_name_H-M   'P 1'
_cell_length_a   9.94620000
_cell_length_b   23.35700000
_cell_length_c   23.60350000
_cell_angle_alpha   94.99800000
_cell_angle_beta   96.62600000
_cell_angle_gamma   90.66800000
_symmetry_Int_Tables_number   1
_chemical_formula_structural   Nd2P4H45C60(NO13)2
_chemical_formula_sum   'Nd4 P8 H90 C120 N4 O52'
_cell_volume   5424.76650675
_cell_formula_units_Z   2
loop_
 _symmetry_equiv_pos_site_id
 _symmetry_equiv_pos_as_xyz
  1  'x, y, z'
loop_
 _atom_site_type_symbol
 _atom_site_label
 _atom_site_symmetry_multiplicity
 _atom_site_fract_x
 _atom_site_fract_y
 _atom_site_fract_z
 _atom_site_occupancy
 _atom_site_charge
Nd  Nd1  1  0.21740000  0.01944000  0.00192000  1.0 2.2466433624
Nd  Nd2  1  0.78260000  0.98056000  0.99808000  1.0 2.2466433624
Nd  Nd3  1  0.73714000  0.50240000  0.47953000  1.0 1.8909891228
Nd  Nd4  1  0.26286000  0.49760000  0.52047000  1.0 1.8909891228
P  P1  1  0.94180000  0.10199000  0.92895000  1.0 1.3293172101
P  P2  1  0.05820000  0.89801000  0.07105000  1.0 1.3293172101
P  P3  1  0.99320000  0.39222000  0.48186000  1.0 1.3194574693
P  P4  1  0.00680000  0.60778000  0.51814000  1.0 1.3194574693
P  P5  1  0.48850000  0.03224000  0.91004000  1.0 1.3293172101
P  P6  1  0.51150000  0.96776000  0.08996000  1.0 1.3293172101
P  P7  1  0.57090000  0.58290000  0.58718000  1.0 1.3120593408
P  P8  1  0.42910000  0.41710000  0.41282000  1.0 1.3120593408
H  H1  1  0.21840000  0.20270000  0.53360000  1.0 0.1130845058
H  H2  1  0.78160000  0.79730000  0.46640000  1.0 0.1130845058
H  H3  1  0.10960000  0.15320000  0.53140000  1.0 0.1206479242
H  H4  1  0.89040000  0.84680000  0.46860000  1.0 0.1206479242
H  H5  1  0.29600000  0.26300000  0.63700000  1.0 0.1608815545
H  H6  1  0.70400000  0.73700000  0.36300000  1.0 0.1608815545
H  H7  1  0.27300000  0.17400000  0.77500000  1.0 0.1386464729
H  H8  1  0.72700000  0.82600000  0.22500000  1.0 0.1386464729
H  H9  1  0.20900000  0.05800000  0.74800000  1.0 0.087994946
H  H10  1  0.79100000  0.94200000  0.25200000  1.0 0.087994946
H  H11  1  0.09200000  0.05000000  0.69900000  1.0 0.1299393991
H  H12  1  0.90800000  0.95000000  0.30100000  1.0 0.1299393991
H  H13  1  0.10200000  0.09000000  0.83800000  1.0 0.1488054106
H  H14  1  0.89800000  0.91000000  0.16200000  1.0 0.1488054106
H  H15  1  0.72700000  0.13100000  0.84400000  1.0 0.1488054106
H  H16  1  0.27300000  0.86900000  0.15600000  1.0 0.1488054106
H  H17  1  0.57640000  0.14480000  0.76630000  1.0 0.1206479242
H  H18  1  0.42360000  0.85520000  0.23370000  1.0 0.1206479242
H  H19  1  0.60770000  0.11060000  0.70940000  1.0 0.1299393991
H  H20  1  0.39230000  0.88940000  0.29060000  1.0 0.1299393991
H  H21  1  0.65920000  0.25070000  0.78120000  1.0 0.1386464729
H  H22  1  0.34080000  0.74930000  0.21880000  1.0 0.1386464729
H  H23  1  0.68600000  0.33900000  0.74000000  1.0 0.1299393991
H  H24  1  0.31400000  0.66100000  0.26000000  1.0 0.1299393991
H  H25  1  0.66300000  0.33400000  0.64000000  1.0 0.1206479242
H  H26  1  0.33700000  0.66600000  0.36000000  1.0 0.1206479242
H  H27  1  0.59680000  0.27860000  0.54570000  1.0 0.1206479242
H  H28  1  0.40320000  0.72140000  0.45430000  1.0 0.1206479242
H  H29  1  0.62350000  0.21250000  0.54100000  1.0 0.1386464729
H  H30  1  0.37650000  0.78750000  0.45900000  1.0 0.1386464729
H  H31  1  0.77900000  0.32800000  0.51600000  1.0 0.1488054106
H  H32  1  0.22100000  0.67200000  0.48400000  1.0 0.1488054106
H  H33  1  0.18300000  0.29600000  0.51900000  1.0 0.0778393526
H  H34  1  0.81700000  0.70400000  0.48100000  1.0 0.0778393526
H  H35  1  0.18000000  0.01600000  0.54300000  1.0 0.0292970015
H  H36  1  0.82000000  0.98400000  0.45700000  1.0 0.0292970015
H  H37  1  0.20400000  0.06600000  0.56100000  1.0 0.069630537
H  H38  1  0.79600000  0.93400000  0.43900000  1.0 0.069630537
H  H39  1  0.49700000  0.08200000  0.57200000  1.0 0.1000777661
H  H40  1  0.50300000  0.91800000  0.42800000  1.0 0.1000777661
H  H41  1  0.42400000  0.15100000  0.57800000  1.0 0.1299393991
H  H42  1  0.57600000  0.84900000  0.42200000  1.0 0.1299393991
H  H43  1  0.17000000  0.75600000  0.57900000  1.0 0.1206479242
H  H44  1  0.83000000  0.24400000  0.42100000  1.0 0.1206479242
H  H45  1  0.14900000  0.70400000  0.60600000  1.0 0.1130845058
H  H46  1  0.85100000  0.29600000  0.39400000  1.0 0.1130845058
H  H47  1  0.21390000  0.71020000  0.71820000  1.0 0.1386464729
H  H48  1  0.78610000  0.28980000  0.28180000  1.0 0.1386464729
H  H49  1  0.20400000  0.76100000  0.81600000  1.0 0.1000777661
H  H50  1  0.79600000  0.23900000  0.18400000  1.0 0.1000777661
H  H51  1  0.18740000  0.86200000  0.81080000  1.0 0.1299393991
H  H52  1  0.81260000  0.13800000  0.18920000  1.0 0.1299393991
H  H53  1  0.15060000  0.94560000  0.69160000  1.0 0.1299393991
H  H54  1  0.84940000  0.05440000  0.30840000  1.0 0.1299393991
H  H55  1  0.10590000  0.94600000  0.75330000  1.0 0.1299393991
H  H56  1  0.89410000  0.05400000  0.24670000  1.0 0.1299393991
H  H57  1  0.26300000  0.98280000  0.83540000  1.0 0.1386464729
H  H58  1  0.73700000  0.01720000  0.16460000  1.0 0.1386464729
H  H59  1  0.63700000  0.02670000  0.81930000  1.0 0.1299393991
H  H60  1  0.36300000  0.97330000  0.18070000  1.0 0.1299393991
H  H61  1  0.75740000  0.01700000  0.73270000  1.0 0.087994946
H  H62  1  0.24260000  0.98300000  0.26730000  1.0 0.087994946
H  H63  1  0.62510000  0.98680000  0.66390000  1.0 0.1299393991
H  H64  1  0.37490000  0.01320000  0.33610000  1.0 0.1299393991
H  H65  1  0.83440000  0.90490000  0.76960000  1.0 0.1488054106
H  H66  1  0.16560000  0.09510000  0.23040000  1.0 0.1488054106
H  H67  1  0.86290000  0.82700000  0.75460000  1.0 0.1299393991
H  H68  1  0.13710000  0.17300000  0.24540000  1.0 0.1299393991
H  H69  1  0.82110000  0.77460000  0.66840000  1.0 0.1386464729
H  H70  1  0.17890000  0.22540000  0.33160000  1.0 0.1386464729
H  H71  1  0.77200000  0.78300000  0.56200000  1.0 0.0778393526
H  H72  1  0.22800000  0.21700000  0.43800000  1.0 0.0778393526
H  H73  1  0.63500000  0.82200000  0.55100000  1.0 0.1299393991
H  H74  1  0.36500000  0.17800000  0.44900000  1.0 0.1299393991
H  H75  1  0.69660000  0.68920000  0.57430000  1.0 0.1488054106
H  H76  1  0.30340000  0.31080000  0.42570000  1.0 0.1488054106
H  H77  1  0.32000000  0.63500000  0.59300000  1.0 0.1299393991
H  H78  1  0.68000000  0.36500000  0.40700000  1.0 0.1299393991
H  H79  1  0.04200000  0.89600000  0.56500000  1.0 0.1888711954
H  H80  1  0.95800000  0.10400000  0.43500000  1.0 0.1888711954
H  H81  1  0.98000000  0.87900000  0.63700000  1.0 0.1000777661
H  H82  1  0.02000000  0.12100000  0.36300000  1.0 0.1000777661
H  H83  1  0.63180000  0.97470000  0.54140000  1.0 0.1299393991
H  H84  1  0.36820000  0.02530000  0.45860000  1.0 0.1299393991
H  H85  1  0.74630000  0.98060000  0.59320000  1.0 0.1299393991
H  H86  1  0.25370000  0.01940000  0.40680000  1.0 0.1299393991
H  H87  1  0.74320000  0.92800000  0.54700000  1.0 0.1130845058
H  H88  1  0.25680000  0.07200000  0.45300000  1.0 0.1130845058
H  H89  1  0.28500000  0.05000000  0.59700000  1.0 0.0093408921
H  H90  1  0.71500000  0.95000000  0.40300000  1.0 0.0093408921
C  C1  1  0.02740000  0.23340000  0.54040000  1.0 0.0397471842
C  C2  1  0.97260000  0.76660000  0.45960000  1.0 0.0397471842
C  C3  1  0.13970000  0.19040000  0.55050000  1.0 -0.2594169101
C  C4  1  0.86030000  0.80960000  0.44950000  1.0 -0.2594169101
C  C5  1  0.17970000  0.18430000  0.61400000  1.0 0.069630537
C  C6  1  0.82030000  0.81570000  0.38600000  1.0 0.069630537
C  C7  1  0.25190000  0.22900000  0.64930000  1.0 -0.2017350281
C  C8  1  0.74810000  0.77100000  0.35070000  1.0 -0.2017350281
C  C9  1  0.28570000  0.22540000  0.70750000  1.0 0.0610646542
C  C10  1  0.71430000  0.77460000  0.29250000  1.0 0.0610646542
C  C11  1  0.24310000  0.17470000  0.73090000  1.0 -0.1703509485
C  C12  1  0.75690000  0.82530000  0.26910000  1.0 -0.1703509485
C  C13  1  0.17350000  0.13130000  0.69920000  1.0 0.0500275107
C  C14  1  0.82650000  0.86870000  0.30080000  1.0 0.0500275107
C  C15  1  0.12260000  0.08160000  0.72620000  1.0 -0.2017350281
C  C16  1  0.87740000  0.91840000  0.27380000  1.0 -0.2017350281
C  C17  1  0.00620000  0.09580000  0.76130000  1.0 0.0397471842
C  C18  1  0.99380000  0.90420000  0.23870000  1.0 0.0397471842
C  C19  1  0.02400000  0.09410000  0.82000000  1.0 -0.121070658
C  C20  1  0.97600000  0.90590000  0.18000000  1.0 -0.121070658
C  C21  1  0.92130000  0.10960000  0.85380000  1.0 -0.1703509485
C  C22  1  0.07870000  0.89040000  0.14620000  1.0 -0.1703509485
C  C23  1  0.79740000  0.12600000  0.82500000  1.0 -0.121070658
C  C24  1  0.20260000  0.87400000  0.17500000  1.0 -0.121070658
C  C25  1  0.77790000  0.12620000  0.76710000  1.0 0.0397471842
C  C26  1  0.22210000  0.87380000  0.23290000  1.0 0.0397471842
C  C27  1  0.63990000  0.14150000  0.73800000  1.0 -0.2309832593
C  C28  1  0.36010000  0.85850000  0.26200000  1.0 -0.2309832593
C  C29  1  0.64270000  0.19850000  0.70880000  1.0 0.0500275107
C  C30  1  0.35730000  0.80150000  0.29120000  1.0 0.0500275107
C  C31  1  0.65710000  0.25010000  0.74160000  1.0 -0.1411657039
C  C32  1  0.34290000  0.74990000  0.25840000  1.0 -0.1411657039
C  C33  1  0.66850000  0.30150000  0.71700000  1.0 -0.0860220438
C  C34  1  0.33150000  0.69850000  0.28300000  1.0 -0.0860220438
C  C35  1  0.66720000  0.29920000  0.65800000  1.0 -0.1313076099
C  C36  1  0.33280000  0.70080000  0.34200000  1.0 -0.1313076099
C  C37  1  0.65070000  0.24840000  0.62340000  1.0 0.0397471842
C  C38  1  0.34930000  0.75160000  0.37660000  1.0 0.0397471842
C  C39  1  0.65680000  0.24930000  0.56000000  1.0 -0.2372429391
C  C40  1  0.34320000  0.75070000  0.44000000  1.0 -0.2372429391
C  C41  1  0.79700000  0.26090000  0.54400000  1.0 0.0610646542
C  C42  1  0.20300000  0.73910000  0.45600000  1.0 0.0610646542
C  C43  1  0.82780000  0.31260000  0.52430000  1.0 -0.1593622511
C  C44  1  0.17220000  0.68740000  0.47570000  1.0 -0.1593622511
C  C45  1  0.95580000  0.32580000  0.51070000  1.0 -0.1703509485
C  C46  1  0.04420000  0.67420000  0.48930000  1.0 -0.1703509485
C  C47  1  0.05810000  0.28560000  0.52020000  1.0 -0.0975414162
C  C48  1  0.94190000  0.71440000  0.47980000  1.0 -0.0975414162
C  C49  1  0.89960000  0.22120000  0.55110000  1.0 0.1811921502
C  C50  1  0.10040000  0.77880000  0.44890000  1.0 0.1811921502
C  C51  1  0.14490000  0.13470000  0.64050000  1.0 0.1701914201
C  C52  1  0.85510000  0.86530000  0.35950000  1.0 0.1701914201
C  C53  1  0.88090000  0.11010000  0.73550000  1.0 0.1701914201
C  C54  1  0.11910000  0.88990000  0.26450000  1.0 0.1701914201
C  C55  1  0.63600000  0.19930000  0.65030000  1.0 0.1386464729
C  C56  1  0.36400000  0.80070000  0.34970000  1.0 0.1386464729
C  C57  1  0.15160000  0.04520000  0.58540000  1.0 -0.0114790613
C  C58  1  0.84840000  0.95480000  0.41460000  1.0 -0.0114790613
C  C59  1  0.48750000  0.12550000  0.59980000  1.0 -0.1538819691
C  C60  1  0.51250000  0.87450000  0.40020000  1.0 -0.1538819691
C  C61  1  0.34730000  0.72850000  0.60180000  1.0 0.0397471842
C  C62  1  0.65270000  0.27150000  0.39820000  1.0 0.0397471842
C  C63  1  0.20280000  0.74200000  0.61290000  1.0 -0.2117535492
C  C64  1  0.79720000  0.25800000  0.38710000  1.0 -0.2117535492
C  C65  1  0.19610000  0.77680000  0.67090000  1.0 0.0610646542
C  C66  1  0.80390000  0.22320000  0.32910000  1.0 0.0610646542
C  C67  1  0.20540000  0.74990000  0.71990000  1.0 -0.1593622511
C  C68  1  0.79460000  0.25010000  0.28010000  1.0 -0.1593622511
C  C69  1  0.20250000  0.78130000  0.77340000  1.0 -0.0516219811
C  C70  1  0.79750000  0.21870000  0.22660000  1.0 -0.0516219811
C  C71  1  0.19010000  0.84100000  0.77570000  1.0 -0.1411657039
C  C72  1  0.80990000  0.15900000  0.22430000  1.0 -0.1411657039
C  C73  1  0.18190000  0.86930000  0.72610000  1.0 0.0500275107
C  C74  1  0.81810000  0.13070000  0.27390000  1.0 0.0500275107
C  C75  1  0.17550000  0.93350000  0.72970000  1.0 -0.2594169101
C  C76  1  0.82450000  0.06650000  0.27030000  1.0 -0.2594169101
C  C77  1  0.31120000  0.96210000  0.75500000  1.0 0.0778393526
C  C78  1  0.68880000  0.03790000  0.24500000  1.0 0.0778393526
C  C79  1  0.33333333  0.98381000  0.81274000  1.0 -0.1411657039
C  C80  1  0.66666667  0.01619000  0.18726000  1.0 -0.1411657039
C  C81  1  0.45800000  0.00667000  0.83638000  1.0 -0.1703509485
C  C82  1  0.54200000  0.99333000  0.16362000  1.0 -0.1703509485
C  C83  1  0.56540000  0.00648000  0.80252000  1.0 -0.1067357773
C  C84  1  0.43460000  0.99352000  0.19748000  1.0 -0.1067357773
C  C85  1  0.54780000  0.98530000  0.74498000  1.0 0.0397471842
C  C86  1  0.45220000  0.01470000  0.25502000  1.0 0.0397471842
C  C87  1  0.66620000  0.98466000  0.70964000  1.0 -0.2017350281
C  C88  1  0.33380000  0.01534000  0.29036000  1.0 -0.2017350281
C  C89  1  0.71650000  0.92592000  0.69672000  1.0 0.0500275107
C  C90  1  0.28350000  0.07408000  0.30328000  1.0 0.0500275107
C  C91  1  0.79390000  0.89698000  0.73760000  1.0 -0.1411657039
C  C92  1  0.20610000  0.10302000  0.26240000  1.0 -0.1411657039
C  C93  1  0.83460000  0.84258000  0.72655000  1.0 -0.0975414162
C  C94  1  0.16540000  0.15742000  0.27345000  1.0 -0.0975414162
C  C95  1  0.79580000  0.81257000  0.67477000  1.0 -0.1538819691
C  C96  1  0.20420000  0.18743000  0.32523000  1.0 -0.1538819691
C  C97  1  0.71930000  0.83840000  0.63210000  1.0 0.0397471842
C  C98  1  0.28070000  0.16160000  0.36790000  1.0 0.0397471842
C  C99  1  0.67240000  0.80340000  0.57450000  1.0 -0.1945681294
C  C100  1  0.32760000  0.19660000  0.42550000  1.0 -0.2017350281
C  C101  1  0.57360000  0.75710000  0.58210000  1.0 0.0500275107
C  C102  1  0.42640000  0.24290000  0.41790000  1.0 0.0500275107
C  C103  1  0.60910000  0.69890000  0.58100000  1.0 -0.121070658
C  C104  1  0.39090000  0.30110000  0.41900000  1.0 -0.121070658
C  C105  1  0.52070000  0.65590000  0.58950000  1.0 -0.1782360991
C  C106  1  0.47930000  0.34410000  0.41050000  1.0 -0.1782360991
C  C107  1  0.39190000  0.67050000  0.60060000  1.0 -0.1067357773
C  C108  1  0.60810000  0.32950000  0.39940000  1.0 -0.1067357773
C  C109  1  0.43720000  0.77000000  0.59060000  1.0 0.1971711198
C  C110  1  0.56280000  0.23000000  0.40940000  1.0 0.1971711198
C  C111  1  0.18150000  0.83690000  0.67350000  1.0 0.1811921502
C  C112  1  0.81850000  0.16310000  0.32650000  1.0 0.1811921502
C  C113  1  0.41950000  0.96430000  0.72090000  1.0 0.2060715908
C  C114  1  0.58050000  0.03570000  0.27910000  1.0 0.2060715908
C  C115  1  0.68250000  0.89480000  0.64300000  1.0 0.1299393991
C  C116  1  0.31750000  0.10520000  0.35700000  1.0 0.1299393991
C  C117  1  0.03770000  0.87100000  0.59730000  1.0 -0.1313076099
C  C118  1  0.96230000  0.12900000  0.40270000  1.0 -0.1313076099
C  C119  1  0.68860000  0.95400000  0.56780000  1.0 -0.2372429391
C  C120  1  0.31140000  0.04600000  0.43220000  1.0 -0.2372429391
N  N1  1  0.95770000  0.95210000  0.89990000  1.0 0.7178840915
N  N2  1  0.04230000  0.04790000  0.10010000  1.0 0.7178840915
N  N3  1  0.73900000  0.47900000  0.55600000  1.0 0.2060715908
N  N4  1  0.26100000  0.52100000  0.44400000  1.0 0.2060715908
O  O1  1  0.07130000  0.09220000  0.60600000  1.0 -0.121070658
O  O2  1  0.92870000  0.90780000  0.39400000  1.0 -0.121070658
O  O3  1  0.85900000  0.10610000  0.67660000  1.0 -0.3565882614
O  O4  1  0.14100000  0.89390000  0.32340000  1.0 -0.3565882614
O  O5  1  0.62640000  0.14660000  0.61690000  1.0 -0.0860220438
O  O6  1  0.37360000  0.85340000  0.38310000  1.0 -0.0860220438
O  O7  1  0.86800000  0.16790000  0.56740000  1.0 -0.3424919268
O  O8  1  0.13200000  0.83210000  0.43260000  1.0 -0.3424919268
O  O9  1  0.08210000  0.08100000  0.94560000  1.0 -0.8740276416
O  O10  1  0.91790000  0.91900000  0.05440000  1.0 -0.8740276416
O  O11  1  0.82660000  0.06550000  0.94450000  1.0 -0.815297546
O  O12  1  0.17340000  0.93450000  0.05550000  1.0 -0.815297546
O  O13  1  0.92690000  0.16460000  0.95830000  1.0 -0.5699842294
O  O14  1  0.07310000  0.83540000  0.04170000  1.0 -0.5699842294
O  O15  1  0.86350000  0.42100000  0.46500000  1.0 -0.8499472757
O  O16  1  0.13650000  0.57900000  0.53500000  1.0 -0.8499472757
O  O17  1  0.09360000  0.42860000  0.52140000  1.0 -0.8306852897
O  O18  1  0.90640000  0.57140000  0.47860000  1.0 -0.8306852897
O  O19  1  0.06440000  0.37150000  0.42590000  1.0 -0.6397671422
O  O20  1  0.93560000  0.62850000  0.57410000  1.0 -0.6397671422
O  O21  1  0.17360000  0.86340000  0.62360000  1.0 -0.0591119436
O  O22  1  0.82640000  0.13660000  0.37640000  1.0 -0.0591119436
O  O23  1  0.39180000  0.94620000  0.66460000  1.0 -0.413544031
O  O24  1  0.60820000  0.05380000  0.33540000  1.0 -0.413544031
O  O25  1  0.60580000  0.92200000  0.60060000  1.0 -0.1411657039
O  O26  1  0.39420000  0.07800000  0.39940000  1.0 -0.1313076099
O  O27  1  0.40410000  0.82560000  0.58660000  1.0 -0.382937344
O  O28  1  0.59590000  0.17440000  0.41340000  1.0 -0.382937344
O  O29  1  0.35650000  0.04710000  0.93100000  1.0 -0.8306852897
O  O30  1  0.64350000  0.95290000  0.06900000  1.0 -0.8306852897
O  O31  1  0.57100000  0.98800000  0.94100000  1.0 -0.8608145138
O  O32  1  0.42900000  0.01200000  0.05900000  1.0 -0.8608145138
O  O33  1  0.57570000  0.09010000  0.91370000  1.0 -0.6342678388
O  O34  1  0.42430000  0.90990000  0.08630000  1.0 -0.6342678388
O  O35  1  0.61860000  0.56910000  0.64860000  1.0 -0.6012398621
O  O36  1  0.38140000  0.43090000  0.35140000  1.0 -0.6012398621
O  O37  1  0.45810000  0.54470000  0.56080000  1.0 -0.8897480091
O  O38  1  0.54190000  0.45530000  0.43920000  1.0 -0.8897480091
O  O39  1  0.69390000  0.57650000  0.55320000  1.0 -0.7741317173
O  O40  1  0.30610000  0.42350000  0.44680000  1.0 -0.7741317173
O  O41  1  0.00790000  0.96110000  0.95270000  1.0 -0.5791523775
O  O42  1  0.99210000  0.03890000  0.04730000  1.0 -0.5791523775
O  O43  1  0.83200000  0.94810000  0.89090000  1.0 -0.4039792439
O  O44  1  0.16800000  0.05190000  0.10910000  1.0 -0.4039792439
O  O45  1  0.02960000  0.94780000  0.86140000  1.0 -0.3327018043
O  O46  1  0.97040000  0.05220000  0.13860000  1.0 -0.3327018043
O  O47  1  0.66600000  0.44310000  0.55770000  1.0 -0.0516219811
O  O48  1  0.33400000  0.55690000  0.44230000  1.0 -0.0516219811
O  O49  1  0.87890000  0.48740000  0.57820000  1.0 -0.2199431082
O  O50  1  0.12110000  0.51260000  0.42180000  1.0 -0.2199431082
O  O51  1  0.76990000  0.44270000  0.60050000  1.0 0.1206479242
O  O52  1  0.23010000  0.55730000  0.39950000  1.0 0.1130845058
