# DDEC6 charges by PACMAN v1.1 (https://github.com/mtap-research/PACMAN-charge/)
data_LUBNAZ_FSR_pacman
_symmetry_space_group_name_H-M   'P 1'
_cell_length_a   17.20650000
_cell_length_b   17.20650000
_cell_length_c   17.20650000
_cell_angle_alpha   105.64200000
_cell_angle_beta   105.64200000
_cell_angle_gamma   117.43600000
_symmetry_Int_Tables_number   1
_chemical_formula_structural   ZnCo2H7C21NO14
_chemical_formula_sum   'Zn4 Co8 H28 C84 N4 O56'
_cell_volume   3863.93751385
_cell_formula_units_Z   4
loop_
 _symmetry_equiv_pos_site_id
 _symmetry_equiv_pos_as_xyz
  1  'x, y, z'
loop_
 _atom_site_type_symbol
 _atom_site_label
 _atom_site_symmetry_multiplicity
 _atom_site_fract_x
 _atom_site_fract_y
 _atom_site_fract_z
 _atom_site_occupancy
 _atom_site_charge
Zn  Zn1  1  0.50562000  0.68428000  0.50000000  1.0 1.0067293841
Zn  Zn2  1  0.18428000  0.00562000  0.50000000  1.0 1.002835671
Zn  Zn3  1  0.00562000  0.50562000  0.82134000  1.0 1.002835671
Zn  Zn4  1  0.68428000  0.18428000  0.17866000  1.0 1.002835671
Co  Co1  1  0.44399000  0.57681000  0.62224000  1.0 1.0873020489
Co  Co2  1  0.95457000  0.82175000  0.37776000  1.0 1.0873020489
Co  Co3  1  0.82175000  0.44399000  0.86718000  1.0 1.0873020489
Co  Co4  1  0.57681000  0.95457000  0.13282000  1.0 1.0873020489
Co  Co5  1  0.94399000  0.32175000  0.86718000  1.0 1.0873020489
Co  Co6  1  0.45457000  0.07681000  0.13282000  1.0 1.0873020489
Co  Co7  1  0.32175000  0.45457000  0.37776000  1.0 1.0873020489
Co  Co8  1  0.07681000  0.94399000  0.62224000  1.0 1.0873020489
H  H1  1  0.65440000  0.95930000  0.70190000  1.0 0.1360527558
H  H2  1  0.25740000  0.95250000  0.29810000  1.0 0.1360527558
H  H3  1  0.95250000  0.65440000  0.69510000  1.0 0.1360527558
H  H4  1  0.95930000  0.25740000  0.30490000  1.0 0.1360527558
H  H5  1  0.15440000  0.45250000  0.69510000  1.0 0.1360527558
H  H6  1  0.75740000  0.45930000  0.30490000  1.0 0.1360527558
H  H7  1  0.45250000  0.75740000  0.29810000  1.0 0.1360527558
H  H8  1  0.45930000  0.15440000  0.70190000  1.0 0.1360527558
H  H9  1  0.75150000  0.13850000  0.96120000  1.0 0.1256193064
H  H10  1  0.17730000  0.79030000  0.03880000  1.0 0.1256193064
H  H11  1  0.79030000  0.75150000  0.61300000  1.0 0.1256193064
H  H12  1  0.13850000  0.17730000  0.38700000  1.0 0.1256193064
H  H13  1  0.25150000  0.29030000  0.61300000  1.0 0.1256193064
H  H14  1  0.67730000  0.63850000  0.38700000  1.0 0.1256193064
H  H15  1  0.29030000  0.67730000  0.03880000  1.0 0.1256193064
H  H16  1  0.63850000  0.25150000  0.96120000  1.0 0.1256193064
H  H17  1  0.53930000  0.84780000  0.85210000  1.0 0.1360527558
H  H18  1  0.99570000  0.68720000  0.14790000  1.0 0.1360527558
H  H19  1  0.68720000  0.53930000  0.69150000  1.0 0.1360527558
H  H20  1  0.84780000  0.99570000  0.30850000  1.0 0.1360527558
H  H21  1  0.03930000  0.18720000  0.69150000  1.0 0.1360527558
H  H22  1  0.49570000  0.34780000  0.30850000  1.0 0.1360527558
H  H23  1  0.18720000  0.49570000  0.14790000  1.0 0.1360527558
H  H24  1  0.34780000  0.03930000  0.85210000  1.0 0.1360527558
H  H25  1  0.70430000  0.79670000  0.50000000  1.0 0.1638757784
H  H26  1  0.29670000  0.20430000  0.50000000  1.0 0.1638757784
H  H27  1  0.20430000  0.70430000  0.90760000  1.0 0.1638757784
H  H28  1  0.79670000  0.29670000  0.09240000  1.0 0.1638757784
C  C1  1  0.52813000  0.78599000  0.68532000  1.0 0.60162845
C  C2  1  0.10067000  0.84281000  0.31468000  1.0 0.60162845
C  C3  1  0.84281000  0.52813000  0.74214000  1.0 0.60162845
C  C4  1  0.78599000  0.10067000  0.25786000  1.0 0.60162845
C  C5  1  0.02813000  0.34281000  0.74214000  1.0 0.60162845
C  C6  1  0.60067000  0.28599000  0.25786000  1.0 0.60162845
C  C7  1  0.34281000  0.60067000  0.31468000  1.0 0.60162845
C  C8  1  0.28599000  0.02813000  0.68532000  1.0 0.60162845
C  C9  1  0.58870000  0.88970000  0.76740000  1.0 -0.0130214314
C  C10  1  0.12230000  0.82130000  0.23260000  1.0 -0.0130214314
C  C11  1  0.82130000  0.58870000  0.69900000  1.0 -0.0130214314
C  C12  1  0.88970000  0.12230000  0.30100000  1.0 -0.0130214314
C  C13  1  0.08870000  0.32130000  0.69900000  1.0 -0.0130214314
C  C14  1  0.62230000  0.38970000  0.30100000  1.0 -0.0130214314
C  C15  1  0.32130000  0.62230000  0.23260000  1.0 -0.0130214314
C  C16  1  0.38970000  0.08870000  0.76740000  1.0 -0.0130214314
C  C17  1  0.65230000  0.96860000  0.75690000  1.0 -0.0892851099
C  C18  1  0.21170000  0.89540000  0.24310000  1.0 -0.0892851099
C  C19  1  0.89540000  0.65230000  0.68370000  1.0 -0.0892851099
C  C20  1  0.96860000  0.21170000  0.31630000  1.0 -0.0892851099
C  C21  1  0.15230000  0.39540000  0.68370000  1.0 -0.0892851099
C  C22  1  0.71170000  0.46860000  0.31630000  1.0 -0.0892851099
C  C23  1  0.39540000  0.71170000  0.24310000  1.0 -0.0892851099
C  C24  1  0.46860000  0.15230000  0.75690000  1.0 -0.0892851099
C  C25  1  0.71180000  0.06100000  0.83100000  1.0 0.0007718416
C  C26  1  0.23000000  0.88080000  0.16900000  1.0 0.0007718416
C  C27  1  0.88080000  0.71180000  0.65080000  1.0 0.0007718416
C  C28  1  0.06100000  0.23000000  0.34920000  1.0 0.0007718416
C  C29  1  0.21180000  0.38080000  0.65080000  1.0 0.0007718416
C  C30  1  0.73000000  0.56100000  0.34920000  1.0 0.0007718416
C  C31  1  0.38080000  0.73000000  0.16900000  1.0 0.0007718416
C  C32  1  0.56100000  0.21180000  0.83100000  1.0 0.0007718416
C  C33  1  0.78480000  0.14400000  0.81500000  1.0 0.5443564255
C  C34  1  0.32900000  0.96980000  0.18500000  1.0 0.5461175639
C  C35  1  0.96980000  0.78480000  0.64080000  1.0 0.5461175639
C  C36  1  0.14400000  0.32900000  0.35920000  1.0 0.5461175639
C  C37  1  0.28480000  0.46980000  0.64080000  1.0 0.5461175639
C  C38  1  0.82900000  0.64400000  0.35920000  1.0 0.5461175639
C  C39  1  0.46980000  0.82900000  0.18500000  1.0 0.5461175639
C  C40  1  0.64400000  0.28480000  0.81500000  1.0 0.5461175639
C  C41  1  0.70870000  0.07560000  0.91210000  1.0 -0.0892851099
C  C42  1  0.16350000  0.79660000  0.08790000  1.0 -0.0892851099
C  C43  1  0.79660000  0.70870000  0.63310000  1.0 -0.0892851099
C  C44  1  0.07560000  0.16350000  0.36690000  1.0 -0.0892851099
C  C45  1  0.20870000  0.29660000  0.63310000  1.0 -0.0892851099
C  C46  1  0.66350000  0.57560000  0.36690000  1.0 -0.0892851099
C  C47  1  0.29660000  0.66350000  0.08790000  1.0 -0.0892851099
C  C48  1  0.57560000  0.20870000  0.91210000  1.0 -0.0892851099
C  C49  1  0.64150000  0.99690000  0.92280000  1.0 -0.057992494
C  C50  1  0.07410000  0.71870000  0.07720000  1.0 -0.057992494
C  C51  1  0.71870000  0.64150000  0.64460000  1.0 -0.057992494
C  C52  1  0.99690000  0.07410000  0.35540000  1.0 -0.057992494
C  C53  1  0.14150000  0.21870000  0.64460000  1.0 -0.057992494
C  C54  1  0.57410000  0.49690000  0.35540000  1.0 -0.057992494
C  C55  1  0.21870000  0.57410000  0.07720000  1.0 -0.057992494
C  C56  1  0.49690000  0.14150000  0.92280000  1.0 -0.057992494
C  C57  1  0.63890000  0.01300000  0.00910000  1.0 0.5895441372
C  C58  1  0.00390000  0.62980000  0.99090000  1.0 0.5895441372
C  C59  1  0.62980000  0.63890000  0.62590000  1.0 0.5895441372
C  C60  1  0.01300000  0.00390000  0.37410000  1.0 0.5895441372
C  C61  1  0.13890000  0.12980000  0.62590000  1.0 0.5895441372
C  C62  1  0.50390000  0.51300000  0.37410000  1.0 0.5895441372
C  C63  1  0.12980000  0.50390000  0.99090000  1.0 0.5895441372
C  C64  1  0.51300000  0.13890000  0.00910000  1.0 0.5895441372
C  C65  1  0.58260000  0.90220000  0.84760000  1.0 -0.0777248151
C  C66  1  0.05460000  0.73500000  0.15240000  1.0 -0.0777248151
C  C67  1  0.73500000  0.58260000  0.68040000  1.0 -0.0777248151
C  C68  1  0.90220000  0.05460000  0.31960000  1.0 -0.0777248151
C  C69  1  0.08260000  0.23500000  0.68040000  1.0 -0.0777248151
C  C70  1  0.55460000  0.40220000  0.31960000  1.0 -0.0777248151
C  C71  1  0.23500000  0.55460000  0.15240000  1.0 -0.0777248151
C  C72  1  0.40220000  0.08260000  0.84760000  1.0 -0.0777248151
C  C73  1  0.67990000  0.83490000  0.50000000  1.0 0.24811394
C  C74  1  0.33490000  0.17990000  0.50000000  1.0 0.24811394
C  C75  1  0.17990000  0.67990000  0.84500000  1.0 0.24811394
C  C76  1  0.83490000  0.33490000  0.15500000  1.0 0.2433839191
C  C77  1  0.83290000  0.93450000  0.50000000  1.0 0.0818507459
C  C78  1  0.43450000  0.33290000  0.50000000  1.0 0.0818507459
C  C79  1  0.33290000  0.83290000  0.89840000  1.0 0.0818507459
C  C80  1  0.93450000  0.43450000  0.10160000  1.0 0.0818507459
C  C81  1  0.68410000  0.97210000  0.50000000  1.0 0.1210352138
C  C82  1  0.47210000  0.18410000  0.50000000  1.0 0.1210352138
C  C83  1  0.18410000  0.68410000  0.71200000  1.0 0.1210352138
C  C84  1  0.97210000  0.47210000  0.28800000  1.0 0.1210352138
N  N1  1  0.73220000  0.92380000  0.50000000  1.0 0.0480907645
N  N2  1  0.42380000  0.23220000  0.50000000  1.0 0.0480907645
N  N3  1  0.23220000  0.73220000  0.80840000  1.0 0.0480907645
N  N4  1  0.92380000  0.42380000  0.19160000  1.0 0.0480907645
O  O1  1  0.50670000  0.77736000  0.60860000  1.0 -0.4529775332
O  O2  1  0.16876000  0.89810000  0.39140000  1.0 -0.4561126482
O  O3  1  0.89810000  0.50670000  0.72934000  1.0 -0.4561126482
O  O4  1  0.77736000  0.16876000  0.27066000  1.0 -0.4561126482
O  O5  1  0.00670000  0.39810000  0.72934000  1.0 -0.4561126482
O  O6  1  0.66876000  0.27736000  0.27066000  1.0 -0.4561126482
O  O7  1  0.39810000  0.66876000  0.39140000  1.0 -0.4561126482
O  O8  1  0.27736000  0.00670000  0.60860000  1.0 -0.4529775332
O  O9  1  0.49978000  0.71254000  0.70508000  1.0 -0.5594923745
O  O10  1  0.00746000  0.79470000  0.29492000  1.0 -0.5594923745
O  O11  1  0.79470000  0.49978000  0.78724000  1.0 -0.5594923745
O  O12  1  0.71254000  0.00746000  0.21276000  1.0 -0.5594923745
O  O13  1  0.99978000  0.29470000  0.78724000  1.0 -0.5594923745
O  O14  1  0.50746000  0.21254000  0.21276000  1.0 -0.5594923745
O  O15  1  0.29470000  0.50746000  0.29492000  1.0 -0.5594923745
O  O16  1  0.21254000  0.99978000  0.70508000  1.0 -0.5594923745
O  O17  1  0.57284000  0.93615000  0.01147000  1.0 -0.5404063265
O  O18  1  0.92468000  0.56137000  0.98853000  1.0 -0.5404063265
O  O19  1  0.56137000  0.57284000  0.63669000  1.0 -0.5404063265
O  O20  1  0.93615000  0.92468000  0.36331000  1.0 -0.5404063265
O  O21  1  0.07284000  0.06137000  0.63669000  1.0 -0.5404063265
O  O22  1  0.42468000  0.43615000  0.36331000  1.0 -0.5404063265
O  O23  1  0.06137000  0.42468000  0.98853000  1.0 -0.5404063265
O  O24  1  0.43615000  0.07284000  0.01147000  1.0 -0.5404063265
O  O25  1  0.69770000  0.10100000  0.07650000  1.0 -0.5899383377
O  O26  1  0.02450000  0.62120000  0.92350000  1.0 -0.5899383377
O  O27  1  0.62120000  0.69770000  0.59670000  1.0 -0.5899383377
O  O28  1  0.10100000  0.02450000  0.40330000  1.0 -0.5899383377
O  O29  1  0.19770000  0.12120000  0.59670000  1.0 -0.5899383377
O  O30  1  0.52450000  0.60100000  0.40330000  1.0 -0.5899383377
O  O31  1  0.12120000  0.52450000  0.92350000  1.0 -0.5899383377
O  O32  1  0.60100000  0.19770000  0.07650000  1.0 -0.5899383377
O  O33  1  0.77350000  0.13721000  0.74271000  1.0 -0.4274633201
O  O34  1  0.39450000  0.03079000  0.25729000  1.0 -0.4274633201
O  O35  1  0.03079000  0.77350000  0.63629000  1.0 -0.4274633201
O  O36  1  0.13721000  0.39450000  0.36371000  1.0 -0.4223764043
O  O37  1  0.27350000  0.53079000  0.63629000  1.0 -0.4274633201
O  O38  1  0.89450000  0.63721000  0.36371000  1.0 -0.4274633201
O  O39  1  0.53079000  0.89450000  0.25729000  1.0 -0.4274633201
O  O40  1  0.63721000  0.27350000  0.74271000  1.0 -0.4274633201
O  O41  1  0.86086000  0.22340000  0.89586000  1.0 -0.5753773594
O  O42  1  0.32754000  0.96500000  0.10414000  1.0 -0.5753773594
O  O43  1  0.96500000  0.86086000  0.63746000  1.0 -0.5753773594
O  O44  1  0.22340000  0.32754000  0.36254000  1.0 -0.5753773594
O  O45  1  0.36086000  0.46500000  0.63746000  1.0 -0.5753773594
O  O46  1  0.82754000  0.72340000  0.36254000  1.0 -0.5742829841
O  O47  1  0.46500000  0.82754000  0.10414000  1.0 -0.5753773594
O  O48  1  0.72340000  0.36086000  0.89586000  1.0 -0.5753773594
O  O49  1  0.39071000  0.56549000  0.50000000  1.0 -0.8669400167
O  O50  1  0.06549000  0.89071000  0.50000000  1.0 -0.8669400167
O  O51  1  0.89071000  0.39071000  0.82522000  1.0 -0.8669400167
O  O52  1  0.56549000  0.06549000  0.17478000  1.0 -0.8669400167
O  O53  1  0.60805000  0.80975000  0.50000000  1.0 -0.2955928843
O  O54  1  0.30975000  0.10805000  0.50000000  1.0 -0.2955928843
O  O55  1  0.10805000  0.60805000  0.79830000  1.0 -0.2944400709
O  O56  1  0.80975000  0.30975000  0.20170000  1.0 -0.2955928843
