# DDEC6 charges by PACMAN v1.1 (https://github.com/mtap-research/PACMAN-charge/)
data_LUCDIW_FSR_pacman
_symmetry_space_group_name_H-M   'P 1'
_cell_length_a   12.20150000
_cell_length_b   12.36780000
_cell_length_c   13.52030000
_cell_angle_alpha   102.22200000
_cell_angle_beta   98.70400000
_cell_angle_gamma   106.48000000
_symmetry_Int_Tables_number   1
_chemical_formula_structural   CeH9C29N3O8
_chemical_formula_sum   'Ce2 H18 C58 N6 O16'
_cell_volume   1862.85490252
_cell_formula_units_Z   2
loop_
 _symmetry_equiv_pos_site_id
 _symmetry_equiv_pos_as_xyz
  1  'x, y, z'
loop_
 _atom_site_type_symbol
 _atom_site_label
 _atom_site_symmetry_multiplicity
 _atom_site_fract_x
 _atom_site_fract_y
 _atom_site_fract_z
 _atom_site_occupancy
 _atom_site_charge
Ce  Ce1  1  0.67486000  0.51909000  0.54604000  1.0 1.8122141655
Ce  Ce2  1  0.32514000  0.48091000  0.45396000  1.0 1.8122141655
H  H1  1  0.96250000  0.64330000  0.88820000  1.0 0.1192465892
H  H2  1  0.03750000  0.35670000  0.11180000  1.0 0.1192465892
H  H3  1  0.79780000  0.30010000  0.79420000  1.0 0.1192465892
H  H4  1  0.20220000  0.69990000  0.20580000  1.0 0.1192465892
H  H5  1  0.10590000  0.72150000  0.05590000  1.0 0.1092486554
H  H6  1  0.89410000  0.27850000  0.94410000  1.0 0.1092486554
H  H7  1  0.41490000  0.77050000  0.45620000  1.0 0.1192465892
H  H8  1  0.58510000  0.22950000  0.54380000  1.0 0.1192465892
H  H9  1  0.73900000  0.94890000  0.62110000  1.0 0.1192465892
H  H10  1  0.26100000  0.05110000  0.37890000  1.0 0.1192465892
H  H11  1  0.28820000  0.87790000  0.39090000  1.0 0.1092486554
H  H12  1  0.71180000  0.12210000  0.60910000  1.0 0.1092486554
H  H13  1  0.63320000  0.53100000  0.86580000  1.0 0.1192465892
H  H14  1  0.36680000  0.46900000  0.13420000  1.0 0.1192465892
H  H15  1  0.28720000  0.46890000  0.79160000  1.0 0.1092486554
H  H16  1  0.71280000  0.53110000  0.20840000  1.0 0.1092486554
H  H17  1  0.72590000  0.53770000  0.04450000  1.0 0.1092486554
H  H18  1  0.27410000  0.46230000  0.95550000  1.0 0.1092486554
C  C1  1  0.81150000  0.49090000  0.72820000  1.0 0.545456558
C  C2  1  0.18850000  0.50910000  0.27180000  1.0 0.545456558
C  C3  1  0.01000000  0.55710000  0.99530000  1.0 0.0611933875
C  C4  1  0.99000000  0.44290000  0.00470000  1.0 0.0611933875
C  C5  1  0.94840000  0.56940000  0.89940000  1.0 -0.1730932784
C  C6  1  0.05160000  0.43060000  0.10060000  1.0 -0.1730932784
C  C7  1  0.87250000  0.47670000  0.82750000  1.0 0.0023034378
C  C8  1  0.12750000  0.52330000  0.17250000  1.0 0.0023034378
C  C9  1  0.85140000  0.36520000  0.84370000  1.0 -0.1173879732
C  C10  1  0.14860000  0.63480000  0.15630000  1.0 -0.1173879732
C  C11  1  0.08960000  0.64740000  0.06680000  1.0 -0.1501029213
C  C12  1  0.91040000  0.35260000  0.93320000  1.0 -0.1501029213
C  C13  1  0.59780000  0.73010000  0.54730000  1.0 0.5898650582
C  C14  1  0.40220000  0.26990000  0.45270000  1.0 0.5898650582
C  C15  1  0.45540000  0.94770000  0.47690000  1.0 0.0673962008
C  C16  1  0.54460000  0.05230000  0.52310000  1.0 0.0673962008
C  C17  1  0.47450000  0.84150000  0.48680000  1.0 -0.1757209007
C  C18  1  0.52550000  0.15850000  0.51320000  1.0 -0.1757209007
C  C19  1  0.57790000  0.84280000  0.53990000  1.0 -0.0193130753
C  C20  1  0.42210000  0.15720000  0.46010000  1.0 -0.0193130753
C  C21  1  0.66740000  0.94830000  0.58530000  1.0 -0.1139136259
C  C22  1  0.33260000  0.05170000  0.41470000  1.0 -0.1139136259
C  C23  1  0.34870000  0.94820000  0.42230000  1.0 -0.1569189136
C  C24  1  0.65130000  0.05180000  0.57770000  1.0 -0.1569189136
C  C25  1  0.47250000  0.50610000  0.70270000  1.0 0.6010531779
C  C26  1  0.52750000  0.49390000  0.29730000  1.0 0.6010531779
C  C27  1  0.55450000  0.51140000  0.98750000  1.0 0.0611933875
C  C28  1  0.44550000  0.48860000  0.01250000  1.0 0.0611933875
C  C29  1  0.56120000  0.51680000  0.88440000  1.0 -0.1730932784
C  C30  1  0.43880000  0.48320000  0.11560000  1.0 -0.1730932784
C  C31  1  0.46350000  0.50160000  0.81320000  1.0 -0.0002190233
C  C32  1  0.53650000  0.49840000  0.18680000  1.0 -0.0002190233
C  C33  1  0.35430000  0.47990000  0.84080000  1.0 -0.1275252481
C  C34  1  0.64570000  0.52010000  0.15920000  1.0 -0.1275252481
C  C35  1  0.65340000  0.52500000  0.06220000  1.0 -0.1501029213
C  C36  1  0.34660000  0.47500000  0.93780000  1.0 -0.1501029213
C  C37  1  0.04620000  0.69270000  0.40940000  1.0 -0.0107513541
C  C38  1  0.95380000  0.30730000  0.59060000  1.0 -0.0107513541
C  C39  1  0.93040000  0.71470000  0.54940000  1.0 0.0177888394
C  C40  1  0.06960000  0.28530000  0.45060000  1.0 0.0177888394
C  C41  1  0.12100000  0.86800000  0.58000000  1.0 -0.0193130753
C  C42  1  0.87900000  0.13200000  0.42000000  1.0 -0.0193130753
C  C43  1  0.68780000  0.31800000  0.34770000  1.0 0.1610959466
C  C44  1  0.31220000  0.68200000  0.65230000  1.0 0.1610959466
C  C45  1  0.71100000  0.24700000  0.16040000  1.0 -0.0299677732
C  C46  1  0.28900000  0.75300000  0.83960000  1.0 -0.0299677732
C  C47  1  0.87300000  0.39700000  0.29600000  1.0 -0.0737506416
C  C48  1  0.12700000  0.60300000  0.70400000  1.0 -0.0760151227
C  C49  1  0.87000000  0.70100000  0.46240000  1.0 0.1328193988
C  C50  1  0.13000000  0.29900000  0.53760000  1.0 0.1328193988
C  C51  1  0.95700000  0.79200000  0.32200000  1.0 -0.0559942932
C  C52  1  0.04300000  0.20800000  0.67800000  1.0 -0.0559942932
C  C53  1  0.79390000  0.36500000  0.37930000  1.0 0.1610959466
C  C54  1  0.20610000  0.63500000  0.62070000  1.0 0.1610959466
C  C55  1  0.62720000  0.21600000  0.24100000  1.0 0.0177888394
C  C56  1  0.37280000  0.78400000  0.75900000  1.0 0.0146036423
C  C57  1  0.83000000  0.27800000  0.20000000  1.0 -0.0107513541
C  C58  1  0.17000000  0.72200000  0.80000000  1.0 -0.0107513541
N  N1  1  0.02170000  0.76020000  0.50830000  1.0 0.1328193988
N  N2  1  0.97830000  0.23980000  0.49170000  1.0 0.1328193988
N  N3  1  0.75530000  0.29960000  0.27930000  1.0 0.1192465892
N  N4  1  0.24470000  0.70040000  0.72070000  1.0 0.1192465892
N  N5  1  0.95900000  0.74000000  0.41620000  1.0 0.0881366539
N  N6  1  0.04100000  0.26000000  0.58380000  1.0 0.0881366539
O  O1  1  0.83410000  0.59130000  0.71250000  1.0 -0.574978203
O  O2  1  0.16590000  0.40870000  0.28750000  1.0 -0.5752333705
O  O3  1  0.73780000  0.40120000  0.66450000  1.0 -0.5909156208
O  O4  1  0.26220000  0.59880000  0.33550000  1.0 -0.5909156208
O  O5  1  0.69810000  0.73390000  0.58570000  1.0 -0.5286758248
O  O6  1  0.30190000  0.26610000  0.41430000  1.0 -0.5286758248
O  O7  1  0.51530000  0.63630000  0.51420000  1.0 -0.6494974796
O  O8  1  0.48470000  0.36370000  0.48580000  1.0 -0.6494974796
O  O9  1  0.57380000  0.53690000  0.68780000  1.0 -0.6027051513
O  O10  1  0.42620000  0.46310000  0.31220000  1.0 -0.6027051513
O  O11  1  0.37810000  0.47930000  0.63870000  1.0 -0.6443897192
O  O12  1  0.62190000  0.52070000  0.36130000  1.0 -0.6443897192
O  O13  1  0.86240000  0.62090000  0.50060000  1.0 -0.2506138687
O  O14  1  0.13760000  0.37910000  0.49940000  1.0 -0.2506138687
O  O15  1  0.73000000  0.36130000  0.43760000  1.0 -0.2021466126
O  O16  1  0.27000000  0.63870000  0.56240000  1.0 -0.2021466126
