# DDEC6 charges by PACMAN v1.1 (https://github.com/mtap-research/PACMAN-charge/)
data_LUCDES_FSR_pacman
_symmetry_space_group_name_H-M   'P 1'
_cell_length_a   12.13230000
_cell_length_b   12.36760000
_cell_length_c   13.37570000
_cell_angle_alpha   101.74800000
_cell_angle_beta   99.02500000
_cell_angle_gamma   105.98400000
_symmetry_Int_Tables_number   1
_chemical_formula_structural   TbH9C29N3O8
_chemical_formula_sum   'Tb2 H18 C58 N6 O16'
_cell_volume   1840.00455526
_cell_formula_units_Z   2
loop_
 _symmetry_equiv_pos_site_id
 _symmetry_equiv_pos_as_xyz
  1  'x, y, z'
loop_
 _atom_site_type_symbol
 _atom_site_label
 _atom_site_symmetry_multiplicity
 _atom_site_fract_x
 _atom_site_fract_y
 _atom_site_fract_z
 _atom_site_occupancy
 _atom_site_charge
Tb  Tb1  1  0.67354000  0.51879000  0.54568000  1.0 1.9672574034
Tb  Tb2  1  0.32646000  0.48121000  0.45432000  1.0 1.9672574034
H  H1  1  0.95550000  0.64360000  0.89090000  1.0 0.1253026655
H  H2  1  0.04450000  0.35640000  0.10910000  1.0 0.1253026655
H  H3  1  0.80270000  0.30100000  0.78770000  1.0 0.122909621
H  H4  1  0.19730000  0.69900000  0.21230000  1.0 0.122909621
H  H5  1  0.10690000  0.72760000  0.06090000  1.0 0.1110772474
H  H6  1  0.89310000  0.27240000  0.93910000  1.0 0.1110772474
H  H7  1  0.40450000  0.77150000  0.46030000  1.0 0.122909621
H  H8  1  0.59550000  0.22850000  0.53970000  1.0 0.122909621
H  H9  1  0.74160000  0.93890000  0.61550000  1.0 0.122909621
H  H10  1  0.25840000  0.06110000  0.38450000  1.0 0.122909621
H  H11  1  0.28300000  0.88650000  0.39220000  1.0 0.1110772474
H  H12  1  0.71700000  0.11350000  0.60780000  1.0 0.1110772474
H  H13  1  0.63480000  0.52990000  0.86570000  1.0 0.122909621
H  H14  1  0.36520000  0.47010000  0.13430000  1.0 0.122909621
H  H15  1  0.28590000  0.46290000  0.78410000  1.0 0.1110772474
H  H16  1  0.71410000  0.53710000  0.21590000  1.0 0.1110772474
H  H17  1  0.72860000  0.54610000  0.05040000  1.0 0.1110772474
H  H18  1  0.27140000  0.45390000  0.94960000  1.0 0.1110772474
C  C1  1  0.80850000  0.49200000  0.72210000  1.0 0.5472337236
C  C2  1  0.19150000  0.50800000  0.27790000  1.0 0.5472337236
C  C3  1  0.01050000  0.55670000  0.99300000  1.0 0.0622823914
C  C4  1  0.98950000  0.44330000  0.00700000  1.0 0.0622823914
C  C5  1  0.94620000  0.56940000  0.90030000  1.0 -0.1784044275
C  C6  1  0.05380000  0.43060000  0.09970000  1.0 -0.1784044275
C  C7  1  0.87130000  0.47520000  0.82470000  1.0 0.0108735185
C  C8  1  0.12870000  0.52480000  0.17530000  1.0 0.0108735185
C  C9  1  0.85360000  0.36490000  0.84000000  1.0 -0.1020644115
C  C10  1  0.14640000  0.63510000  0.16000000  1.0 -0.1020644115
C  C11  1  0.09130000  0.65290000  0.07060000  1.0 -0.1599952201
C  C12  1  0.90870000  0.34710000  0.92940000  1.0 -0.1599952201
C  C13  1  0.59070000  0.72170000  0.54380000  1.0 0.6193428268
C  C14  1  0.40930000  0.27830000  0.45620000  1.0 0.6193428268
C  C15  1  0.45100000  0.94810000  0.47890000  1.0 0.0676613549
C  C16  1  0.54900000  0.05190000  0.52110000  1.0 0.0676613549
C  C17  1  0.46700000  0.84040000  0.48790000  1.0 -0.1865058163
C  C18  1  0.53300000  0.15960000  0.51210000  1.0 -0.1865058163
C  C19  1  0.57390000  0.83740000  0.53710000  1.0 -0.0075306131
C  C20  1  0.42610000  0.16260000  0.46290000  1.0 -0.0075306131
C  C21  1  0.66960000  0.94150000  0.58190000  1.0 -0.1149706165
C  C22  1  0.33040000  0.05850000  0.41810000  1.0 -0.1149706165
C  C23  1  0.34480000  0.95480000  0.42450000  1.0 -0.1527942488
C  C24  1  0.65520000  0.04520000  0.57550000  1.0 -0.1527942488
C  C25  1  0.47490000  0.50410000  0.69860000  1.0 0.6321615806
C  C26  1  0.52510000  0.49590000  0.30140000  1.0 0.6321615806
C  C27  1  0.55570000  0.51340000  0.98700000  1.0 0.0676613549
C  C28  1  0.44430000  0.48660000  0.01300000  1.0 0.0676613549
C  C29  1  0.56200000  0.51640000  0.88340000  1.0 -0.1599952201
C  C30  1  0.43800000  0.48360000  0.11660000  1.0 -0.1599952201
C  C31  1  0.46520000  0.50030000  0.80850000  1.0 -0.0075306131
C  C32  1  0.53480000  0.49970000  0.19150000  1.0 -0.0075306131
C  C33  1  0.35330000  0.47530000  0.83470000  1.0 -0.1213386389
C  C34  1  0.64670000  0.52470000  0.16530000  1.0 -0.1213386389
C  C35  1  0.65490000  0.53040000  0.06640000  1.0 -0.1599952201
C  C36  1  0.34510000  0.46960000  0.93360000  1.0 -0.1599952201
C  C37  1  0.04200000  0.68810000  0.40830000  1.0 -0.0396486627
C  C38  1  0.95800000  0.31190000  0.59170000  1.0 -0.0396486627
C  C39  1  0.92750000  0.70900000  0.54740000  1.0 0.0478449712
C  C40  1  0.07250000  0.29100000  0.45260000  1.0 0.0478449712
C  C41  1  0.08340000  0.87910000  0.54800000  1.0 -0.0712564061
C  C42  1  0.91660000  0.12090000  0.45200000  1.0 -0.0712564061
C  C43  1  0.69420000  0.32190000  0.34680000  1.0 0.2082501283
C  C44  1  0.30580000  0.67810000  0.65320000  1.0 0.2082501283
C  C45  1  0.73980000  0.26000000  0.15840000  1.0 -0.0179345492
C  C46  1  0.26020000  0.74000000  0.84160000  1.0 -0.0179345492
C  C47  1  0.87570000  0.38600000  0.29700000  1.0 -0.0511716077
C  C48  1  0.12430000  0.61400000  0.70300000  1.0 -0.0511716077
C  C49  1  0.87070000  0.70050000  0.46370000  1.0 0.2189611425
C  C50  1  0.12930000  0.29950000  0.53630000  1.0 0.2189611425
C  C51  1  0.96300000  0.80400000  0.33710000  1.0 -0.0751517615
C  C52  1  0.03700000  0.19600000  0.66290000  1.0 -0.0751517615
C  C53  1  0.78330000  0.36800000  0.37200000  1.0 0.2477504691
C  C54  1  0.21670000  0.63200000  0.62800000  1.0 0.2477504691
C  C55  1  0.63540000  0.23850000  0.20600000  1.0 -0.0335290203
C  C56  1  0.36460000  0.76150000  0.79400000  1.0 -0.0335290203
C  C57  1  0.84610000  0.28640000  0.21370000  1.0 -0.0751517615
C  C58  1  0.15390000  0.71360000  0.78630000  1.0 -0.0751517615
N  N1  1  0.01650000  0.75300000  0.50380000  1.0 0.1380259326
N  N2  1  0.98350000  0.24700000  0.49620000  1.0 0.1380259326
N  N3  1  0.75530000  0.29990000  0.27400000  1.0 0.1110772474
N  N4  1  0.24470000  0.70010000  0.72600000  1.0 0.1110772474
N  N5  1  0.95710000  0.73030000  0.41270000  1.0 0.0781352116
N  N6  1  0.04290000  0.26970000  0.58730000  1.0 0.0781352116
O  O1  1  0.82830000  0.59130000  0.70860000  1.0 -0.5779297123
O  O2  1  0.17170000  0.40870000  0.29140000  1.0 -0.5779297123
O  O3  1  0.73730000  0.40450000  0.65870000  1.0 -0.5879657934
O  O4  1  0.26270000  0.59550000  0.34130000  1.0 -0.5879657934
O  O5  1  0.69160000  0.72140000  0.57860000  1.0 -0.5879657934
O  O6  1  0.30840000  0.27860000  0.42140000  1.0 -0.5879657934
O  O7  1  0.50290000  0.63070000  0.51090000  1.0 -0.715684689
O  O8  1  0.49710000  0.36930000  0.48910000  1.0 -0.715684689
O  O9  1  0.57680000  0.53690000  0.68270000  1.0 -0.6476675043
O  O10  1  0.42320000  0.46310000  0.31730000  1.0 -0.6476675043
O  O11  1  0.38020000  0.47480000  0.63140000  1.0 -0.6856189737
O  O12  1  0.61980000  0.52520000  0.36860000  1.0 -0.6856189737
O  O13  1  0.85530000  0.61500000  0.49960000  1.0 -0.3046674798
O  O14  1  0.14470000  0.38500000  0.50040000  1.0 -0.3053778479
O  O15  1  0.72850000  0.36640000  0.44100000  1.0 -0.2629454503
O  O16  1  0.27150000  0.63360000  0.55900000  1.0 -0.2629454503
