# DDEC6 charges by PACMAN v1.1 (https://github.com/mtap-research/PACMAN-charge/)
data_LUCDAO_FSR_pacman
_symmetry_space_group_name_H-M   'P 1'
_cell_length_a   12.11700000
_cell_length_b   12.33500000
_cell_length_c   13.41200000
_cell_angle_alpha   101.56900000
_cell_angle_beta   99.03600000
_cell_angle_gamma   106.28600000
_symmetry_Int_Tables_number   1
_chemical_formula_structural   EuH9C29N3O8
_chemical_formula_sum   'Eu2 H18 C58 N6 O16'
_cell_volume   1835.94089823
_cell_formula_units_Z   2
loop_
 _symmetry_equiv_pos_site_id
 _symmetry_equiv_pos_as_xyz
  1  'x, y, z'
loop_
 _atom_site_type_symbol
 _atom_site_label
 _atom_site_symmetry_multiplicity
 _atom_site_fract_x
 _atom_site_fract_y
 _atom_site_fract_z
 _atom_site_occupancy
 _atom_site_charge
Eu  Eu1  1  0.67360000  0.51882000  0.54578000  1.0 1.9563279718
Eu  Eu2  1  0.32640000  0.48118000  0.45422000  1.0 1.9529953569
H  H1  1  0.95670000  0.64450000  0.88920000  1.0 0.1209405332
H  H2  1  0.04330000  0.35550000  0.11080000  1.0 0.1209405332
H  H3  1  0.80170000  0.30140000  0.79240000  1.0 0.1209405332
H  H4  1  0.19830000  0.69860000  0.20760000  1.0 0.1209405332
H  H5  1  0.10230000  0.72280000  0.05730000  1.0 0.1108808674
H  H6  1  0.89770000  0.27720000  0.94270000  1.0 0.1108808674
H  H7  1  0.40710000  0.77090000  0.45700000  1.0 0.1209405332
H  H8  1  0.59290000  0.22910000  0.54300000  1.0 0.1209405332
H  H9  1  0.73950000  0.94280000  0.62110000  1.0 0.1209405332
H  H10  1  0.26050000  0.05720000  0.37890000  1.0 0.1209405332
H  H11  1  0.28090000  0.88360000  0.39740000  1.0 0.1108808674
H  H12  1  0.71910000  0.11640000  0.60260000  1.0 0.1108808674
H  H13  1  0.63630000  0.53430000  0.86640000  1.0 0.1209405332
H  H14  1  0.36370000  0.46570000  0.13360000  1.0 0.1209405332
H  H15  1  0.28700000  0.47160000  0.78830000  1.0 0.1041327014
H  H16  1  0.71300000  0.52840000  0.21170000  1.0 0.1041327014
H  H17  1  0.72800000  0.54170000  0.04870000  1.0 0.1108808674
H  H18  1  0.27200000  0.45830000  0.95130000  1.0 0.1108808674
C  C1  1  0.80920000  0.49060000  0.72430000  1.0 0.5511899561
C  C2  1  0.19080000  0.50940000  0.27570000  1.0 0.5511899561
C  C3  1  0.01030000  0.55680000  0.99340000  1.0 0.0611606136
C  C4  1  0.98970000  0.44320000  0.00660000  1.0 0.0611606136
C  C5  1  0.94640000  0.57000000  0.89880000  1.0 -0.1706725538
C  C6  1  0.05360000  0.43000000  0.10120000  1.0 -0.1706725538
C  C7  1  0.87360000  0.47850000  0.82570000  1.0 0.0116561519
C  C8  1  0.12640000  0.52150000  0.17430000  1.0 0.0116561519
C  C9  1  0.85430000  0.36630000  0.84270000  1.0 -0.1112021033
C  C10  1  0.14570000  0.63370000  0.15730000  1.0 -0.1112021033
C  C11  1  0.08770000  0.64820000  0.06740000  1.0 -0.1487257101
C  C12  1  0.91230000  0.35180000  0.93260000  1.0 -0.1487257101
C  C13  1  0.59150000  0.72270000  0.54400000  1.0 0.6150104374
C  C14  1  0.40850000  0.27730000  0.45600000  1.0 0.6150104374
C  C15  1  0.45470000  0.94870000  0.47820000  1.0 0.0611606136
C  C16  1  0.54530000  0.05130000  0.52180000  1.0 0.0611606136
C  C17  1  0.46910000  0.84040000  0.48670000  1.0 -0.1823128343
C  C18  1  0.53090000  0.15960000  0.51330000  1.0 -0.1823128343
C  C19  1  0.57450000  0.83900000  0.53880000  1.0 -0.0102148393
C  C20  1  0.42550000  0.16100000  0.46120000  1.0 -0.0102148393
C  C21  1  0.66840000  0.94440000  0.58430000  1.0 -0.1112021033
C  C22  1  0.33160000  0.05560000  0.41570000  1.0 -0.1112021033
C  C23  1  0.34420000  0.95230000  0.42530000  1.0 -0.1487257101
C  C24  1  0.65580000  0.04770000  0.57470000  1.0 -0.1487257101
C  C25  1  0.47490000  0.50410000  0.69930000  1.0 0.6274447411
C  C26  1  0.52510000  0.49590000  0.30070000  1.0 0.6274447411
C  C27  1  0.55610000  0.51320000  0.98750000  1.0 0.0670321281
C  C28  1  0.44390000  0.48680000  0.01250000  1.0 0.0670321281
C  C29  1  0.56340000  0.51830000  0.88430000  1.0 -0.1706725538
C  C30  1  0.43660000  0.48170000  0.11570000  1.0 -0.1706725538
C  C31  1  0.46290000  0.49960000  0.81040000  1.0 0.0030318487
C  C32  1  0.53710000  0.50040000  0.18960000  1.0 0.0030318487
C  C33  1  0.35400000  0.47990000  0.83760000  1.0 -0.1262739629
C  C34  1  0.64600000  0.52010000  0.16240000  1.0 -0.1211338483
C  C35  1  0.65430000  0.52710000  0.06510000  1.0 -0.1565845415
C  C36  1  0.34570000  0.47290000  0.93490000  1.0 -0.1565845415
C  C37  1  0.04680000  0.68840000  0.40690000  1.0 -0.0588602146
C  C38  1  0.95320000  0.31160000  0.59310000  1.0 -0.0588602146
C  C39  1  0.92580000  0.71010000  0.54670000  1.0 0.0670321281
C  C40  1  0.07420000  0.28990000  0.45330000  1.0 0.0756940067
C  C41  1  0.09850000  0.86690000  0.56670000  1.0 -0.0588602146
C  C42  1  0.90150000  0.13310000  0.43330000  1.0 -0.0588602146
C  C43  1  0.69030000  0.32210000  0.34950000  1.0 0.1818109422
C  C44  1  0.30970000  0.67790000  0.65050000  1.0 0.1818109422
C  C45  1  0.71360000  0.26350000  0.16330000  1.0 -0.0271206677
C  C46  1  0.28640000  0.73650000  0.83670000  1.0 -0.0271206677
C  C47  1  0.87790000  0.38770000  0.29790000  1.0 -0.0512097284
C  C48  1  0.12210000  0.61230000  0.70210000  1.0 -0.0512097284
C  C49  1  0.86930000  0.69960000  0.46440000  1.0 0.2095115527
C  C50  1  0.13070000  0.30040000  0.53560000  1.0 0.2095115527
C  C51  1  0.97100000  0.80330000  0.33820000  1.0 -0.1211338483
C  C52  1  0.02900000  0.19670000  0.66180000  1.0 -0.0968451828
C  C53  1  0.78990000  0.37060000  0.37900000  1.0 0.2023570955
C  C54  1  0.21010000  0.62940000  0.62100000  1.0 0.2023570955
C  C55  1  0.62990000  0.22240000  0.24360000  1.0 0.0116561519
C  C56  1  0.37010000  0.77760000  0.75640000  1.0 0.0116561519
C  C57  1  0.83070000  0.28900000  0.20290000  1.0 -0.0512097284
C  C58  1  0.16930000  0.71100000  0.79710000  1.0 -0.0512097284
N  N1  1  0.01640000  0.74950000  0.50230000  1.0 0.1482708424
N  N2  1  0.98360000  0.25050000  0.49770000  1.0 0.1482708424
N  N3  1  0.75620000  0.30150000  0.28060000  1.0 0.1108808674
N  N4  1  0.24380000  0.69850000  0.71940000  1.0 0.1108808674
N  N5  1  0.96200000  0.73740000  0.42140000  1.0 0.1041327014
N  N6  1  0.03800000  0.26260000  0.57860000  1.0 0.1041327014
O  O1  1  0.83070000  0.59140000  0.70860000  1.0 -0.6049619347
O  O2  1  0.16930000  0.40860000  0.29140000  1.0 -0.6049619347
O  O3  1  0.73710000  0.40300000  0.66120000  1.0 -0.592533055
O  O4  1  0.26290000  0.59700000  0.33880000  1.0 -0.592533055
O  O5  1  0.69480000  0.72450000  0.58100000  1.0 -0.6113497049
O  O6  1  0.30520000  0.27550000  0.41900000  1.0 -0.6113497049
O  O7  1  0.50730000  0.63140000  0.51280000  1.0 -0.7001400173
O  O8  1  0.49270000  0.36860000  0.48720000  1.0 -0.7001400173
O  O9  1  0.57640000  0.53730000  0.68530000  1.0 -0.6338766247
O  O10  1  0.42360000  0.46270000  0.31470000  1.0 -0.6338766247
O  O11  1  0.37890000  0.47550000  0.63320000  1.0 -0.7001400173
O  O12  1  0.62110000  0.52450000  0.36680000  1.0 -0.7001400173
O  O13  1  0.85740000  0.61610000  0.50000000  1.0 -0.2754147381
O  O14  1  0.14260000  0.38390000  0.50000000  1.0 -0.2754147381
O  O15  1  0.72820000  0.36520000  0.44080000  1.0 -0.2251263291
O  O16  1  0.27180000  0.63480000  0.55920000  1.0 -0.2251263291
