# DDEC6 charges by PACMAN v1.1 (https://github.com/mtap-research/PACMAN-charge/)
data_LUDCUK_ASR_pacman
_symmetry_space_group_name_H-M   'P 1'
_cell_length_a   18.45900000
_cell_length_b   18.45900000
_cell_length_c   6.74890000
_cell_angle_alpha   90.00000000
_cell_angle_beta   90.00000000
_cell_angle_gamma   120.00000000
_symmetry_Int_Tables_number   1
_chemical_formula_structural   CuH8C11O6
_chemical_formula_sum   'Cu6 H48 C66 O36'
_cell_volume   1991.49841207
_cell_formula_units_Z   6
loop_
 _symmetry_equiv_pos_site_id
 _symmetry_equiv_pos_as_xyz
  1  'x, y, z'
loop_
 _atom_site_type_symbol
 _atom_site_label
 _atom_site_symmetry_multiplicity
 _atom_site_fract_x
 _atom_site_fract_y
 _atom_site_fract_z
 _atom_site_occupancy
 _atom_site_charge
Cu  Cu1  1  0.52401000  0.47599000  0.34250000  1.0 0.8238836766
Cu  Cu2  1  0.52401000  0.04802000  0.34250000  1.0 0.8238836766
Cu  Cu3  1  0.95198000  0.47599000  0.34250000  1.0 0.8238836766
Cu  Cu4  1  0.04802000  0.52401000  0.65750000  1.0 0.8238836766
Cu  Cu5  1  0.47599000  0.95198000  0.65750000  1.0 0.8238836766
Cu  Cu6  1  0.47599000  0.52401000  0.65750000  1.0 0.8238836766
H  H1  1  0.36320000  0.29200000  0.98430000  1.0 0.1249575407
H  H2  1  0.70800000  0.07120000  0.98430000  1.0 0.1249575407
H  H3  1  0.92880000  0.63680000  0.98430000  1.0 0.1249575407
H  H4  1  0.07120000  0.70800000  0.01570000  1.0 0.1249575407
H  H5  1  0.63680000  0.92880000  0.01570000  1.0 0.1249575407
H  H6  1  0.29200000  0.36320000  0.01570000  1.0 0.1249575407
H  H7  1  0.63680000  0.70800000  0.01570000  1.0 0.1249575407
H  H8  1  0.29200000  0.92880000  0.01570000  1.0 0.1249575407
H  H9  1  0.07120000  0.36320000  0.01570000  1.0 0.1249575407
H  H10  1  0.92880000  0.29200000  0.98430000  1.0 0.1249575407
H  H11  1  0.36320000  0.07120000  0.98430000  1.0 0.1249575407
H  H12  1  0.70800000  0.63680000  0.98430000  1.0 0.1249575407
H  H13  1  0.46510000  0.23255000  0.52840000  1.0 0.128072688
H  H14  1  0.76745000  0.23255000  0.52840000  1.0 0.128072688
H  H15  1  0.76745000  0.53490000  0.52840000  1.0 0.128072688
H  H16  1  0.23255000  0.76745000  0.47160000  1.0 0.128072688
H  H17  1  0.53490000  0.76745000  0.47160000  1.0 0.128072688
H  H18  1  0.23255000  0.46510000  0.47160000  1.0 0.128072688
H  H19  1  0.22970000  0.22970000  0.50000000  1.0 0.0894711853
H  H20  1  0.77030000  0.00000000  0.50000000  1.0 0.0894711853
H  H21  1  0.00000000  0.77030000  0.50000000  1.0 0.0894711853
H  H22  1  0.77030000  0.77030000  0.50000000  1.0 0.0894711853
H  H23  1  0.22970000  0.00000000  0.50000000  1.0 0.0894711853
H  H24  1  0.00000000  0.22970000  0.50000000  1.0 0.0894711853
H  H25  1  0.25430000  0.17220000  0.55360000  1.0 0.0805813211
H  H26  1  0.82780000  0.08210000  0.55360000  1.0 0.0805813211
H  H27  1  0.91790000  0.74570000  0.55360000  1.0 0.0805813211
H  H28  1  0.08210000  0.82780000  0.44640000  1.0 0.0805813211
H  H29  1  0.74570000  0.91790000  0.44640000  1.0 0.0805813211
H  H30  1  0.17220000  0.25430000  0.44640000  1.0 0.0805813211
H  H31  1  0.74570000  0.82780000  0.44640000  1.0 0.0805813211
H  H32  1  0.17220000  0.91790000  0.44640000  1.0 0.0805813211
H  H33  1  0.08210000  0.25430000  0.44640000  1.0 0.0805813211
H  H34  1  0.91790000  0.17220000  0.55360000  1.0 0.0805813211
H  H35  1  0.25430000  0.08210000  0.55360000  1.0 0.0805813211
H  H36  1  0.82780000  0.74570000  0.55360000  1.0 0.0805813211
H  H37  1  0.17630000  0.13710000  0.40540000  1.0 0.0805813211
H  H38  1  0.86290000  0.03920000  0.40540000  1.0 0.0805813211
H  H39  1  0.96080000  0.82370000  0.40540000  1.0 0.0805813211
H  H40  1  0.03920000  0.86290000  0.59460000  1.0 0.0805813211
H  H41  1  0.82370000  0.96080000  0.59460000  1.0 0.0805813211
H  H42  1  0.13710000  0.17630000  0.59460000  1.0 0.0805813211
H  H43  1  0.82370000  0.86290000  0.59460000  1.0 0.0805813211
H  H44  1  0.13710000  0.96080000  0.59460000  1.0 0.0805813211
H  H45  1  0.03920000  0.17630000  0.59460000  1.0 0.0805813211
H  H46  1  0.96080000  0.13710000  0.40540000  1.0 0.0805813211
H  H47  1  0.17630000  0.03920000  0.40540000  1.0 0.0805813211
H  H48  1  0.86290000  0.82370000  0.40540000  1.0 0.0805813211
C  C1  1  0.30680000  0.15340000  0.20000000  1.0 0.4829286874
C  C2  1  0.84660000  0.15340000  0.20000000  1.0 0.4829286874
C  C3  1  0.84660000  0.69320000  0.20000000  1.0 0.4829286874
C  C4  1  0.15340000  0.84660000  0.80000000  1.0 0.4829286874
C  C5  1  0.69320000  0.84660000  0.80000000  1.0 0.4829286874
C  C6  1  0.15340000  0.30680000  0.80000000  1.0 0.4829286874
C  C7  1  0.35530000  0.17765000  0.01290000  1.0 -0.0624432604
C  C8  1  0.82235000  0.17765000  0.01290000  1.0 -0.0624432604
C  C9  1  0.82235000  0.64470000  0.01290000  1.0 -0.0624432604
C  C10  1  0.17765000  0.82235000  0.98710000  1.0 -0.0624432604
C  C11  1  0.64470000  0.82235000  0.98710000  1.0 -0.0624432604
C  C12  1  0.17765000  0.35530000  0.98710000  1.0 -0.0624432604
C  C13  1  0.37840000  0.25500000  0.92440000  1.0 -0.1161154721
C  C14  1  0.74500000  0.12340000  0.92440000  1.0 -0.1161154721
C  C15  1  0.87660000  0.62160000  0.92440000  1.0 -0.1161154721
C  C16  1  0.12340000  0.74500000  0.07560000  1.0 -0.1161154721
C  C17  1  0.62160000  0.87660000  0.07560000  1.0 -0.1161154721
C  C18  1  0.25500000  0.37840000  0.07560000  1.0 -0.1161154721
C  C19  1  0.62160000  0.74500000  0.07560000  1.0 -0.1161154721
C  C20  1  0.25500000  0.87660000  0.07560000  1.0 -0.1161154721
C  C21  1  0.12340000  0.37840000  0.07560000  1.0 -0.1161154721
C  C22  1  0.87660000  0.25500000  0.92440000  1.0 -0.1161154721
C  C23  1  0.37840000  0.12340000  0.92440000  1.0 -0.1161154721
C  C24  1  0.74500000  0.62160000  0.92440000  1.0 -0.1161154721
C  C25  1  0.42230000  0.27640000  0.74800000  1.0 -0.0202326362
C  C26  1  0.72360000  0.14590000  0.74800000  1.0 -0.0202326362
C  C27  1  0.85410000  0.57770000  0.74800000  1.0 -0.0202326362
C  C28  1  0.14590000  0.72360000  0.25200000  1.0 -0.0202326362
C  C29  1  0.57770000  0.85410000  0.25200000  1.0 -0.0202326362
C  C30  1  0.27640000  0.42230000  0.25200000  1.0 -0.0202326362
C  C31  1  0.57770000  0.72360000  0.25200000  1.0 -0.0202326362
C  C32  1  0.27640000  0.85410000  0.25200000  1.0 -0.0202326362
C  C33  1  0.14590000  0.42230000  0.25200000  1.0 -0.0202326362
C  C34  1  0.85410000  0.27640000  0.74800000  1.0 -0.0202326362
C  C35  1  0.42230000  0.14590000  0.74800000  1.0 -0.0202326362
C  C36  1  0.72360000  0.57770000  0.74800000  1.0 -0.0202326362
C  C37  1  0.44010000  0.22005000  0.65600000  1.0 -0.1161154721
C  C38  1  0.77995000  0.22005000  0.65600000  1.0 -0.1161154721
C  C39  1  0.77995000  0.55990000  0.65600000  1.0 -0.1161154721
C  C40  1  0.22005000  0.77995000  0.34400000  1.0 -0.1161154721
C  C41  1  0.55990000  0.77995000  0.34400000  1.0 -0.1161154721
C  C42  1  0.22005000  0.44010000  0.34400000  1.0 -0.1161154721
C  C43  1  0.44930000  0.35940000  0.65400000  1.0 0.5539060474
C  C44  1  0.64060000  0.08990000  0.65400000  1.0 0.5539060474
C  C45  1  0.91010000  0.55070000  0.65400000  1.0 0.5539060474
C  C46  1  0.08990000  0.64060000  0.34600000  1.0 0.5539060474
C  C47  1  0.55070000  0.91010000  0.34600000  1.0 0.5539060474
C  C48  1  0.35940000  0.44930000  0.34600000  1.0 0.5539060474
C  C49  1  0.55070000  0.64060000  0.34600000  1.0 0.5539060474
C  C50  1  0.35940000  0.91010000  0.34600000  1.0 0.5539060474
C  C51  1  0.08990000  0.44930000  0.34600000  1.0 0.5539060474
C  C52  1  0.91010000  0.35940000  0.65400000  1.0 0.5539060474
C  C53  1  0.44930000  0.08990000  0.65400000  1.0 0.5539060474
C  C54  1  0.64060000  0.55070000  0.65400000  1.0 0.5539060474
C  C55  1  0.23200000  0.18580000  0.43800000  1.0 -0.1544526105
C  C56  1  0.81420000  0.04620000  0.43800000  1.0 -0.1544526105
C  C57  1  0.95380000  0.76800000  0.43800000  1.0 -0.1544526105
C  C58  1  0.04620000  0.81420000  0.56200000  1.0 -0.1544526105
C  C59  1  0.76800000  0.95380000  0.56200000  1.0 -0.1544526105
C  C60  1  0.18580000  0.23200000  0.56200000  1.0 -0.1544526105
C  C61  1  0.76800000  0.81420000  0.56200000  1.0 -0.1544526105
C  C62  1  0.18580000  0.95380000  0.56200000  1.0 -0.1544526105
C  C63  1  0.04620000  0.23200000  0.56200000  1.0 -0.1544526105
C  C64  1  0.95380000  0.18580000  0.43800000  1.0 -0.1544526105
C  C65  1  0.23200000  0.04620000  0.43800000  1.0 -0.1544526105
C  C66  1  0.81420000  0.76800000  0.43800000  1.0 -0.1544526105
O  O1  1  0.28690000  0.20290000  0.27280000  1.0 -0.2197383602
O  O2  1  0.79710000  0.08400000  0.27280000  1.0 -0.2197383602
O  O3  1  0.91600000  0.71310000  0.27280000  1.0 -0.2197383602
O  O4  1  0.08400000  0.79710000  0.72720000  1.0 -0.2197383602
O  O5  1  0.71310000  0.91600000  0.72720000  1.0 -0.2197383602
O  O6  1  0.20290000  0.28690000  0.72720000  1.0 -0.2197383602
O  O7  1  0.71310000  0.79710000  0.72720000  1.0 -0.2197383602
O  O8  1  0.20290000  0.91600000  0.72720000  1.0 -0.2197383602
O  O9  1  0.08400000  0.28690000  0.72720000  1.0 -0.2197383602
O  O10  1  0.91600000  0.20290000  0.27280000  1.0 -0.2197383602
O  O11  1  0.28690000  0.08400000  0.27280000  1.0 -0.2197383602
O  O12  1  0.79710000  0.71310000  0.27280000  1.0 -0.2197383602
O  O13  1  0.48000000  0.37170000  0.48440000  1.0 -0.5063014959
O  O14  1  0.62830000  0.10830000  0.48440000  1.0 -0.5063014959
O  O15  1  0.89170000  0.52000000  0.48440000  1.0 -0.5063014959
O  O16  1  0.10830000  0.62830000  0.51560000  1.0 -0.5063014959
O  O17  1  0.52000000  0.89170000  0.51560000  1.0 -0.5063014959
O  O18  1  0.37170000  0.48000000  0.51560000  1.0 -0.5063014959
O  O19  1  0.52000000  0.62830000  0.51560000  1.0 -0.5063014959
O  O20  1  0.37170000  0.89170000  0.51560000  1.0 -0.5063014959
O  O21  1  0.10830000  0.48000000  0.51560000  1.0 -0.5063014959
O  O22  1  0.89170000  0.37170000  0.48440000  1.0 -0.5063014959
O  O23  1  0.48000000  0.10830000  0.48440000  1.0 -0.5063014959
O  O24  1  0.62830000  0.52000000  0.48440000  1.0 -0.5063014959
O  O25  1  0.44090000  0.41140000  0.75460000  1.0 -0.4960844079
O  O26  1  0.58860000  0.02950000  0.75460000  1.0 -0.4960844079
O  O27  1  0.97050000  0.55910000  0.75460000  1.0 -0.4960844079
O  O28  1  0.02950000  0.58860000  0.24540000  1.0 -0.4960844079
O  O29  1  0.55910000  0.97050000  0.24540000  1.0 -0.4960844079
O  O30  1  0.41140000  0.44090000  0.24540000  1.0 -0.4960844079
O  O31  1  0.55910000  0.58860000  0.24540000  1.0 -0.4960844079
O  O32  1  0.41140000  0.97050000  0.24540000  1.0 -0.4960844079
O  O33  1  0.02950000  0.44090000  0.24540000  1.0 -0.4960844079
O  O34  1  0.97050000  0.41140000  0.75460000  1.0 -0.4960844079
O  O35  1  0.44090000  0.02950000  0.75460000  1.0 -0.4960844079
O  O36  1  0.58860000  0.55910000  0.75460000  1.0 -0.4960844079
