# DDEC6 charges by PACMAN v1.1 (https://github.com/mtap-research/PACMAN-charge/)
data_LUDLAZ_ASR_pacman
_symmetry_space_group_name_H-M   'P 1'
_cell_length_a   17.99100000
_cell_length_b   17.99100000
_cell_length_c   6.53710000
_cell_angle_alpha   90.00000000
_cell_angle_beta   90.00000000
_cell_angle_gamma   120.00000000
_symmetry_Int_Tables_number   1
_chemical_formula_structural   CuH9C11O6
_chemical_formula_sum   'Cu6 H54 C66 O36'
_cell_volume   1832.42567123
_cell_formula_units_Z   6
loop_
 _symmetry_equiv_pos_site_id
 _symmetry_equiv_pos_as_xyz
  1  'x, y, z'
loop_
 _atom_site_type_symbol
 _atom_site_label
 _atom_site_symmetry_multiplicity
 _atom_site_fract_x
 _atom_site_fract_y
 _atom_site_fract_z
 _atom_site_occupancy
 _atom_site_charge
Cu  Cu1  1  0.47388000  0.52612000  0.15520000  1.0 0.815982513
Cu  Cu2  1  0.47388000  0.94776000  0.15520000  1.0 0.815982513
Cu  Cu3  1  0.05224000  0.52612000  0.15520000  1.0 0.815982513
Cu  Cu4  1  0.94776000  0.47388000  0.84480000  1.0 0.815982513
Cu  Cu5  1  0.52612000  0.05224000  0.84480000  1.0 0.815982513
Cu  Cu6  1  0.52612000  0.47388000  0.84480000  1.0 0.815982513
H  H1  1  0.36990000  0.29800000  0.53400000  1.0 0.1280192458
H  H2  1  0.70200000  0.07190000  0.53400000  1.0 0.1280192458
H  H3  1  0.92810000  0.63010000  0.53400000  1.0 0.1280192458
H  H4  1  0.07190000  0.70200000  0.46600000  1.0 0.1280192458
H  H5  1  0.63010000  0.92810000  0.46600000  1.0 0.1280192458
H  H6  1  0.29800000  0.36990000  0.46600000  1.0 0.1280192458
H  H7  1  0.63010000  0.70200000  0.46600000  1.0 0.1280192458
H  H8  1  0.29800000  0.92810000  0.46600000  1.0 0.1280192458
H  H9  1  0.07190000  0.36990000  0.46600000  1.0 0.1280192458
H  H10  1  0.92810000  0.29800000  0.53400000  1.0 0.1280192458
H  H11  1  0.36990000  0.07190000  0.53400000  1.0 0.1280192458
H  H12  1  0.70200000  0.63010000  0.53400000  1.0 0.1280192458
H  H13  1  0.45610000  0.22805000  0.04440000  1.0 0.1379054411
H  H14  1  0.77195000  0.22805000  0.04440000  1.0 0.1379054411
H  H15  1  0.77195000  0.54390000  0.04440000  1.0 0.1379054411
H  H16  1  0.22805000  0.77195000  0.95560000  1.0 0.1379054411
H  H17  1  0.54390000  0.77195000  0.95560000  1.0 0.1379054411
H  H18  1  0.22805000  0.45610000  0.95560000  1.0 0.1379054411
H  H19  1  0.24200000  0.00140000  0.06540000  1.0 0.1129003315
H  H20  1  0.99860000  0.24060000  0.06540000  1.0 0.1129003315
H  H21  1  0.75940000  0.75800000  0.06540000  1.0 0.1129003315
H  H22  1  0.24060000  0.99860000  0.93460000  1.0 0.1129003315
H  H23  1  0.75800000  0.75940000  0.93460000  1.0 0.1129003315
H  H24  1  0.00140000  0.24200000  0.93460000  1.0 0.1129003315
H  H25  1  0.75800000  0.99860000  0.93460000  1.0 0.1129003315
H  H26  1  0.00140000  0.75940000  0.93460000  1.0 0.1129003315
H  H27  1  0.24060000  0.24200000  0.93460000  1.0 0.1129003315
H  H28  1  0.75940000  0.00140000  0.06540000  1.0 0.1129003315
H  H29  1  0.24200000  0.24060000  0.06540000  1.0 0.1129003315
H  H30  1  0.99860000  0.75800000  0.06540000  1.0 0.1129003315
H  H31  1  0.28790000  0.09600000  0.13920000  1.0 0.0929174609
H  H32  1  0.90400000  0.19190000  0.13920000  1.0 0.0929174609
H  H33  1  0.80810000  0.71210000  0.13920000  1.0 0.0929174609
H  H34  1  0.19190000  0.90400000  0.86080000  1.0 0.0929174609
H  H35  1  0.71210000  0.80810000  0.86080000  1.0 0.0929174609
H  H36  1  0.09600000  0.28790000  0.86080000  1.0 0.0929174609
H  H37  1  0.71210000  0.90400000  0.86080000  1.0 0.0929174609
H  H38  1  0.09600000  0.80810000  0.86080000  1.0 0.0929174609
H  H39  1  0.19190000  0.28790000  0.86080000  1.0 0.0929174609
H  H40  1  0.80810000  0.09600000  0.13920000  1.0 0.0929174609
H  H41  1  0.28790000  0.19190000  0.13920000  1.0 0.0929174609
H  H42  1  0.90400000  0.71210000  0.13920000  1.0 0.0929174609
H  H43  1  0.19880000  0.05660000  0.03430000  1.0 0.0746857747
H  H44  1  0.94340000  0.14220000  0.03430000  1.0 0.0746857747
H  H45  1  0.85780000  0.80120000  0.03430000  1.0 0.0746857747
H  H46  1  0.14220000  0.94340000  0.96570000  1.0 0.0750806852
H  H47  1  0.80120000  0.85780000  0.96570000  1.0 0.0746857747
H  H48  1  0.05660000  0.19880000  0.96570000  1.0 0.0746857747
H  H49  1  0.80120000  0.94340000  0.96570000  1.0 0.0746857747
H  H50  1  0.05660000  0.85780000  0.96570000  1.0 0.0746857747
H  H51  1  0.14220000  0.19880000  0.96570000  1.0 0.0746857747
H  H52  1  0.85780000  0.05660000  0.03430000  1.0 0.0746857747
H  H53  1  0.19880000  0.14220000  0.03430000  1.0 0.0746857747
H  H54  1  0.94340000  0.80120000  0.03430000  1.0 0.0746857747
C  C1  1  0.44620000  0.35750000  0.17200000  1.0 0.5481565122
C  C2  1  0.64250000  0.08870000  0.17200000  1.0 0.5481565122
C  C3  1  0.91130000  0.55380000  0.17200000  1.0 0.5481565122
C  C4  1  0.08870000  0.64250000  0.82800000  1.0 0.5481565122
C  C5  1  0.55380000  0.91130000  0.82800000  1.0 0.5481565122
C  C6  1  0.35750000  0.44620000  0.82800000  1.0 0.5481565122
C  C7  1  0.55380000  0.64250000  0.82800000  1.0 0.5481565122
C  C8  1  0.35750000  0.91130000  0.82800000  1.0 0.5481565122
C  C9  1  0.08870000  0.44620000  0.82800000  1.0 0.5481565122
C  C10  1  0.91130000  0.35750000  0.17200000  1.0 0.5481565122
C  C11  1  0.44620000  0.08870000  0.17200000  1.0 0.5481565122
C  C12  1  0.64250000  0.55380000  0.17200000  1.0 0.5481565122
C  C13  1  0.41980000  0.27540000  0.27300000  1.0 -0.0339568134
C  C14  1  0.72460000  0.14440000  0.27300000  1.0 -0.0339568134
C  C15  1  0.85560000  0.58020000  0.27300000  1.0 -0.0339568134
C  C16  1  0.14440000  0.72460000  0.72700000  1.0 -0.0339568134
C  C17  1  0.58020000  0.85560000  0.72700000  1.0 -0.0339568134
C  C18  1  0.27540000  0.41980000  0.72700000  1.0 -0.0339568134
C  C19  1  0.58020000  0.72460000  0.72700000  1.0 -0.0339568134
C  C20  1  0.27540000  0.85560000  0.72700000  1.0 -0.0339568134
C  C21  1  0.14440000  0.41980000  0.72700000  1.0 -0.0339568134
C  C22  1  0.85560000  0.27540000  0.27300000  1.0 -0.0339568134
C  C23  1  0.41980000  0.14440000  0.27300000  1.0 -0.0339568134
C  C24  1  0.72460000  0.58020000  0.27300000  1.0 -0.0339568134
C  C25  1  0.38040000  0.25660000  0.46600000  1.0 -0.0941692256
C  C26  1  0.74340000  0.12380000  0.46600000  1.0 -0.0941692256
C  C27  1  0.87620000  0.61960000  0.46600000  1.0 -0.0941692256
C  C28  1  0.12380000  0.74340000  0.53400000  1.0 -0.0941692256
C  C29  1  0.61960000  0.87620000  0.53400000  1.0 -0.0941692256
C  C30  1  0.25660000  0.38040000  0.53400000  1.0 -0.0941692256
C  C31  1  0.61960000  0.74340000  0.53400000  1.0 -0.0941692256
C  C32  1  0.25660000  0.87620000  0.53400000  1.0 -0.0941692256
C  C33  1  0.12380000  0.38040000  0.53400000  1.0 -0.0941692256
C  C34  1  0.87620000  0.25660000  0.46600000  1.0 -0.0941692256
C  C35  1  0.38040000  0.12380000  0.46600000  1.0 -0.0941692256
C  C36  1  0.74340000  0.61960000  0.46600000  1.0 -0.0941692256
C  C37  1  0.43410000  0.21705000  0.18000000  1.0 -0.1058106374
C  C38  1  0.78295000  0.21705000  0.18000000  1.0 -0.1058106374
C  C39  1  0.78295000  0.56590000  0.18000000  1.0 -0.1058106374
C  C40  1  0.21705000  0.78295000  0.82000000  1.0 -0.1058106374
C  C41  1  0.56590000  0.78295000  0.82000000  1.0 -0.1058106374
C  C42  1  0.21705000  0.43410000  0.82000000  1.0 -0.1058106374
C  C43  1  0.35660000  0.17830000  0.55600000  1.0 -0.0339568134
C  C44  1  0.82170000  0.17830000  0.55600000  1.0 -0.0339568134
C  C45  1  0.82170000  0.64340000  0.55600000  1.0 -0.0339568134
C  C46  1  0.17830000  0.82170000  0.44400000  1.0 -0.0339568134
C  C47  1  0.64340000  0.82170000  0.44400000  1.0 -0.0339568134
C  C48  1  0.17830000  0.35660000  0.44400000  1.0 -0.0339568134
C  C49  1  0.31410000  0.15705000  0.76200000  1.0 0.3654850348
C  C50  1  0.84295000  0.15705000  0.76200000  1.0 0.363435696
C  C51  1  0.84295000  0.68590000  0.76200000  1.0 0.363435696
C  C52  1  0.15705000  0.84295000  0.23800000  1.0 0.363435696
C  C53  1  0.68590000  0.84295000  0.23800000  1.0 0.363435696
C  C54  1  0.15705000  0.31410000  0.23800000  1.0 0.363435696
C  C55  1  0.25180000  0.05740000  0.03800000  1.0 -0.2141976045
C  C56  1  0.94260000  0.19440000  0.03800000  1.0 -0.2141976045
C  C57  1  0.80560000  0.74820000  0.03800000  1.0 -0.2141976045
C  C58  1  0.19440000  0.94260000  0.96200000  1.0 -0.2152337656
C  C59  1  0.74820000  0.80560000  0.96200000  1.0 -0.2141976045
C  C60  1  0.05740000  0.25180000  0.96200000  1.0 -0.2141976045
C  C61  1  0.74820000  0.94260000  0.96200000  1.0 -0.2141976045
C  C62  1  0.05740000  0.80560000  0.96200000  1.0 -0.2141976045
C  C63  1  0.19440000  0.25180000  0.96200000  1.0 -0.2141976045
C  C64  1  0.80560000  0.05740000  0.03800000  1.0 -0.2141976045
C  C65  1  0.25180000  0.19440000  0.03800000  1.0 -0.2141976045
C  C66  1  0.94260000  0.74820000  0.03800000  1.0 -0.2152337656
O  O1  1  0.43420000  0.41050000  0.26200000  1.0 -0.4775137306
O  O2  1  0.58950000  0.02370000  0.26200000  1.0 -0.4775137306
O  O3  1  0.97630000  0.56580000  0.26200000  1.0 -0.4775137306
O  O4  1  0.02370000  0.58950000  0.73800000  1.0 -0.4775137306
O  O5  1  0.56580000  0.97630000  0.73800000  1.0 -0.4775137306
O  O6  1  0.41050000  0.43420000  0.73800000  1.0 -0.4775137306
O  O7  1  0.56580000  0.58950000  0.73800000  1.0 -0.4775137306
O  O8  1  0.41050000  0.97630000  0.73800000  1.0 -0.4775137306
O  O9  1  0.02370000  0.43420000  0.73800000  1.0 -0.4775137306
O  O10  1  0.97630000  0.41050000  0.26200000  1.0 -0.4775137306
O  O11  1  0.43420000  0.02370000  0.26200000  1.0 -0.4775137306
O  O12  1  0.58950000  0.56580000  0.26200000  1.0 -0.4775137306
O  O13  1  0.52070000  0.63100000  0.00200000  1.0 -0.4968147726
O  O14  1  0.36900000  0.88970000  0.00200000  1.0 -0.4968147726
O  O15  1  0.11030000  0.47930000  0.00200000  1.0 -0.4968147726
O  O16  1  0.88970000  0.36900000  0.99800000  1.0 -0.4968147726
O  O17  1  0.47930000  0.11030000  0.99800000  1.0 -0.4968147726
O  O18  1  0.63100000  0.52070000  0.99800000  1.0 -0.4968147726
O  O19  1  0.47930000  0.36900000  0.99800000  1.0 -0.4968147726
O  O20  1  0.63100000  0.11030000  0.99800000  1.0 -0.4968147726
O  O21  1  0.88970000  0.52070000  0.99800000  1.0 -0.4968147726
O  O22  1  0.11030000  0.63100000  0.00200000  1.0 -0.4968147726
O  O23  1  0.52070000  0.88970000  0.00200000  1.0 -0.4968147726
O  O24  1  0.36900000  0.47930000  0.00200000  1.0 -0.4968147726
O  O25  1  0.29340000  0.08570000  0.83800000  1.0 -0.228836272
O  O26  1  0.91430000  0.20770000  0.83800000  1.0 -0.228836272
O  O27  1  0.79230000  0.70660000  0.83800000  1.0 -0.228836272
O  O28  1  0.20770000  0.91430000  0.16200000  1.0 -0.228836272
O  O29  1  0.70660000  0.79230000  0.16200000  1.0 -0.228836272
O  O30  1  0.08570000  0.29340000  0.16200000  1.0 -0.228836272
O  O31  1  0.70660000  0.91430000  0.16200000  1.0 -0.228836272
O  O32  1  0.08570000  0.79230000  0.16200000  1.0 -0.228836272
O  O33  1  0.20770000  0.29340000  0.16200000  1.0 -0.228836272
O  O34  1  0.79230000  0.08570000  0.83800000  1.0 -0.228836272
O  O35  1  0.29340000  0.20770000  0.83800000  1.0 -0.228836272
O  O36  1  0.91430000  0.70660000  0.83800000  1.0 -0.228836272
