# DDEC6 charges by PACMAN v1.1 (https://github.com/mtap-research/PACMAN-charge/)
data_LUFNAC03_FSR_pacman
_symmetry_space_group_name_H-M   'P 1'
_cell_length_a   11.88450000
_cell_length_b   11.88450000
_cell_length_c   16.35700000
_cell_angle_alpha   73.45420000
_cell_angle_beta   106.54600000
_cell_angle_gamma   101.51100000
_symmetry_Int_Tables_number   1
_chemical_formula_structural   MnH10C14N2O5
_chemical_formula_sum   'Mn4 H40 C56 N8 O20'
_cell_volume   2105.20412251
_cell_formula_units_Z   4
loop_
 _symmetry_equiv_pos_site_id
 _symmetry_equiv_pos_as_xyz
  1  'x, y, z'
loop_
 _atom_site_type_symbol
 _atom_site_label
 _atom_site_symmetry_multiplicity
 _atom_site_fract_x
 _atom_site_fract_y
 _atom_site_fract_z
 _atom_site_occupancy
 _atom_site_charge
Mn  Mn1  1  0.61562000  0.16748000  0.45322000  1.0 0.9717403884
Mn  Mn2  1  0.16748000  0.61562000  0.04678000  1.0 0.9717403884
Mn  Mn3  1  0.38438000  0.83252000  0.54678000  1.0 0.9717403884
Mn  Mn4  1  0.83252000  0.38438000  0.95322000  1.0 0.9717403884
H  H1  1  0.45400000  0.83440000  0.96360000  1.0 0.2727901871
H  H2  1  0.83440000  0.45400000  0.53640000  1.0 0.2727901871
H  H3  1  0.54600000  0.16560000  0.03640000  1.0 0.2727901871
H  H4  1  0.16560000  0.54600000  0.46360000  1.0 0.2727901871
H  H5  1  0.66110000  0.18810000  0.72520000  1.0 0.117240307
H  H6  1  0.18810000  0.66110000  0.77480000  1.0 0.117240307
H  H7  1  0.33890000  0.81190000  0.27480000  1.0 0.117240307
H  H8  1  0.81190000  0.33890000  0.22520000  1.0 0.117240307
H  H9  1  0.48810000  0.85710000  0.75520000  1.0 0.129490384
H  H10  1  0.85710000  0.48810000  0.74480000  1.0 0.129490384
H  H11  1  0.51190000  0.14290000  0.24480000  1.0 0.129490384
H  H12  1  0.14290000  0.51190000  0.25520000  1.0 0.129490384
H  H13  1  0.57440000  0.01900000  0.95320000  1.0 0.129490384
H  H14  1  0.01900000  0.57440000  0.54680000  1.0 0.129490384
H  H15  1  0.42560000  0.98100000  0.04680000  1.0 0.129490384
H  H16  1  0.98100000  0.42560000  0.45320000  1.0 0.129490384
H  H17  1  0.36020000  0.67280000  0.92080000  1.0 0.1378691989
H  H18  1  0.67280000  0.36020000  0.57920000  1.0 0.1378691989
H  H19  1  0.63980000  0.32720000  0.07920000  1.0 0.1378691989
H  H20  1  0.32720000  0.63980000  0.42080000  1.0 0.1378691989
H  H21  1  0.37880000  0.73460000  0.82650000  1.0 0.129490384
H  H22  1  0.73460000  0.37880000  0.67350000  1.0 0.129490384
H  H23  1  0.62120000  0.26540000  0.17350000  1.0 0.129490384
H  H24  1  0.26540000  0.62120000  0.32650000  1.0 0.129490384
H  H25  1  0.63470000  0.70730000  0.99790000  1.0 0.1378691989
H  H26  1  0.70730000  0.63470000  0.50210000  1.0 0.1378691989
H  H27  1  0.36530000  0.29270000  0.00210000  1.0 0.1378691989
H  H28  1  0.29270000  0.36530000  0.49790000  1.0 0.1378691989
H  H29  1  0.42320000  0.53940000  0.81990000  1.0 0.1496686983
H  H30  1  0.53940000  0.42320000  0.68010000  1.0 0.1496686983
H  H31  1  0.57680000  0.46060000  0.18010000  1.0 0.1496686983
H  H32  1  0.46060000  0.57680000  0.31990000  1.0 0.1496686983
H  H33  1  0.56410000  0.42110000  0.84910000  1.0 0.1083224128
H  H34  1  0.42110000  0.56410000  0.65090000  1.0 0.1083224128
H  H35  1  0.43590000  0.57890000  0.15090000  1.0 0.1083224128
H  H36  1  0.57890000  0.43590000  0.34910000  1.0 0.1083224128
H  H37  1  0.77370000  0.58610000  0.01810000  1.0 0.117240307
H  H38  1  0.58610000  0.77370000  0.48190000  1.0 0.117240307
H  H39  1  0.22630000  0.41390000  0.98190000  1.0 0.117240307
H  H40  1  0.41390000  0.22630000  0.51810000  1.0 0.117240307
C  C1  1  0.51900000  0.92240000  0.86360000  1.0 0.2225096608
C  C2  1  0.92240000  0.51900000  0.63640000  1.0 0.2225096608
C  C3  1  0.48100000  0.07760000  0.13640000  1.0 0.2225096608
C  C4  1  0.07760000  0.48100000  0.36360000  1.0 0.2225096608
C  C5  1  0.57380000  0.02360000  0.72600000  1.0 -0.0096518688
C  C6  1  0.02360000  0.57380000  0.77400000  1.0 -0.0096518688
C  C7  1  0.42620000  0.97640000  0.27400000  1.0 -0.0096518688
C  C8  1  0.97640000  0.42620000  0.22600000  1.0 -0.0096518688
C  C9  1  0.62670000  0.12130000  0.75970000  1.0 -0.1327068237
C  C10  1  0.12130000  0.62670000  0.74030000  1.0 -0.1327068237
C  C11  1  0.37330000  0.87870000  0.24030000  1.0 -0.1327068237
C  C12  1  0.87870000  0.37330000  0.25970000  1.0 -0.1327068237
C  C13  1  0.62780000  0.11860000  0.84590000  1.0 -0.0096518688
C  C14  1  0.11860000  0.62780000  0.65410000  1.0 -0.0096518688
C  C15  1  0.37220000  0.88140000  0.15410000  1.0 -0.0096518688
C  C16  1  0.88140000  0.37220000  0.34590000  1.0 -0.0096518688
C  C17  1  0.69060000  0.22160000  0.88370000  1.0 0.5311410065
C  C18  1  0.22160000  0.69060000  0.61630000  1.0 0.5311410065
C  C19  1  0.30940000  0.77840000  0.11630000  1.0 0.5311410065
C  C20  1  0.77840000  0.30940000  0.38370000  1.0 0.5311410065
C  C21  1  0.51250000  0.64010000  0.90350000  1.0 0.1496686983
C  C22  1  0.64010000  0.51250000  0.59650000  1.0 0.1496686983
C  C23  1  0.48750000  0.35990000  0.09650000  1.0 0.1496686983
C  C24  1  0.35990000  0.48750000  0.40350000  1.0 0.1496686983
C  C25  1  0.52140000  0.92320000  0.77750000  1.0 -0.1904076998
C  C26  1  0.92320000  0.52140000  0.72250000  1.0 -0.1904076998
C  C27  1  0.47860000  0.07680000  0.22250000  1.0 -0.1904076998
C  C28  1  0.07680000  0.47860000  0.27750000  1.0 -0.1904076998
C  C29  1  0.57310000  0.02470000  0.63280000  1.0 0.5762273903
C  C30  1  0.02470000  0.57310000  0.86720000  1.0 0.5762273903
C  C31  1  0.42690000  0.97530000  0.36720000  1.0 0.5762273903
C  C32  1  0.97530000  0.42690000  0.13280000  1.0 0.5762273903
C  C33  1  0.57370000  0.01970000  0.89600000  1.0 -0.2137721742
C  C34  1  0.01970000  0.57370000  0.60400000  1.0 -0.2137721742
C  C35  1  0.42630000  0.98030000  0.10400000  1.0 -0.2137721742
C  C36  1  0.98030000  0.42630000  0.39600000  1.0 -0.2137721742
C  C37  1  0.41860000  0.71700000  0.88850000  1.0 -0.1391778802
C  C38  1  0.71700000  0.41860000  0.61150000  1.0 -0.1391778802
C  C39  1  0.58140000  0.28300000  0.11150000  1.0 -0.1391778802
C  C40  1  0.28300000  0.58140000  0.38850000  1.0 -0.1391778802
C  C41  1  0.61920000  0.65140000  0.96500000  1.0 -0.1966196661
C  C42  1  0.65140000  0.61920000  0.53500000  1.0 -0.1966196661
C  C43  1  0.38080000  0.34860000  0.03500000  1.0 -0.1966196661
C  C44  1  0.34860000  0.38080000  0.46500000  1.0 -0.1966196661
C  C45  1  0.49440000  0.55180000  0.86060000  1.0 -0.2137721742
C  C46  1  0.55180000  0.49440000  0.63940000  1.0 -0.2137721742
C  C47  1  0.50560000  0.44820000  0.13940000  1.0 -0.2137721742
C  C48  1  0.44820000  0.50560000  0.36060000  1.0 -0.2137721742
C  C49  1  0.58060000  0.48200000  0.87760000  1.0 0.0683546542
C  C50  1  0.48200000  0.58060000  0.62240000  1.0 0.0683546542
C  C51  1  0.41940000  0.51800000  0.12240000  1.0 0.0683546542
C  C52  1  0.51800000  0.41940000  0.37760000  1.0 0.0683546542
C  C53  1  0.70250000  0.57750000  0.97660000  1.0 0.0876891549
C  C54  1  0.57750000  0.70250000  0.52340000  1.0 0.0876891549
C  C55  1  0.29750000  0.42250000  0.02340000  1.0 0.0876891549
C  C56  1  0.42250000  0.29750000  0.47660000  1.0 0.0876891549
N  N1  1  0.68710000  0.49510000  0.93230000  1.0 -0.2499115532
N  N2  1  0.49510000  0.68710000  0.56770000  1.0 -0.2499115532
N  N3  1  0.31290000  0.50490000  0.06770000  1.0 -0.2499115532
N  N4  1  0.50490000  0.31290000  0.43230000  1.0 -0.2499115532
N  N5  1  0.46290000  0.82790000  0.91490000  1.0 -0.2900576656
N  N6  1  0.82790000  0.46290000  0.58510000  1.0 -0.2900576656
N  N7  1  0.53710000  0.17210000  0.08510000  1.0 -0.2900576656
N  N8  1  0.17210000  0.53710000  0.41490000  1.0 -0.2900576656
O  O1  1  0.73740000  0.31220000  0.83580000  1.0 -0.5405560896
O  O2  1  0.31220000  0.73740000  0.66420000  1.0 -0.5405560896
O  O3  1  0.26260000  0.68780000  0.16420000  1.0 -0.5405560896
O  O4  1  0.68780000  0.26260000  0.33580000  1.0 -0.5405560896
O  O5  1  0.53540000  0.93040000  0.60790000  1.0 -0.5405560896
O  O6  1  0.93040000  0.53540000  0.89210000  1.0 -0.5405560896
O  O7  1  0.46460000  0.06960000  0.39210000  1.0 -0.5405560896
O  O8  1  0.06960000  0.46460000  0.10790000  1.0 -0.5405560896
O  O9  1  0.69770000  0.21570000  0.96360000  1.0 -0.5556325977
O  O10  1  0.21570000  0.69770000  0.53640000  1.0 -0.5556325977
O  O11  1  0.30230000  0.78430000  0.03640000  1.0 -0.5556325977
O  O12  1  0.78430000  0.30230000  0.46360000  1.0 -0.5556325977
O  O13  1  0.61400000  0.11980000  0.58780000  1.0 -0.5405560896
O  O14  1  0.11980000  0.61400000  0.91220000  1.0 -0.5405560896
O  O15  1  0.38600000  0.88020000  0.41220000  1.0 -0.5405560896
O  O16  1  0.88020000  0.38600000  0.08780000  1.0 -0.5405560896
O  O17  1  0.72760000  0.03160000  0.47280000  1.0 -0.2137721742
O  O18  1  0.03160000  0.72760000  0.02720000  1.0 -0.2137721742
O  O19  1  0.27240000  0.96840000  0.52720000  1.0 -0.2137721742
O  O20  1  0.96840000  0.27240000  0.97280000  1.0 -0.2137721742
