# DDEC6 charges by PACMAN v1.1 (https://github.com/mtap-research/PACMAN-charge/)
data_LUFQUZ_ASR_pacman
_symmetry_space_group_name_H-M   'P 1'
_cell_length_a   6.77990000
_cell_length_b   6.91090000
_cell_length_c   7.11390000
_cell_angle_alpha   90.00000000
_cell_angle_beta   90.00000000
_cell_angle_gamma   90.00000000
_symmetry_Int_Tables_number   1
_chemical_formula_structural   FeNiH4(C4N3)2
_chemical_formula_sum   'Fe1 Ni1 H4 C8 N6'
_cell_volume   333.32328489
_cell_formula_units_Z   1
loop_
 _symmetry_equiv_pos_site_id
 _symmetry_equiv_pos_as_xyz
  1  'x, y, z'
loop_
 _atom_site_type_symbol
 _atom_site_label
 _atom_site_symmetry_multiplicity
 _atom_site_fract_x
 _atom_site_fract_y
 _atom_site_fract_z
 _atom_site_occupancy
 _atom_site_charge
Fe  Fe1  1  0.00000000  0.00000000  0.00000000  1.0 0.5843874261
Ni  Ni1  1  0.00000000  0.50000000  0.50000000  1.0 0.0855123669
H  H1  1  0.67080000  0.71570000  0.00000000  1.0 0.1306921884
H  H2  1  0.67080000  0.28430000  0.00000000  1.0 0.1306921884
H  H3  1  0.32920000  0.28430000  0.00000000  1.0 0.1306921884
H  H4  1  0.32920000  0.71570000  0.00000000  1.0 0.1306921884
C  C1  1  0.00000000  0.68890000  0.68750000  1.0 0.0476252109
C  C2  1  0.00000000  0.31110000  0.31250000  1.0 0.0476252109
C  C3  1  0.00000000  0.31110000  0.68750000  1.0 0.0476252109
C  C4  1  0.00000000  0.68890000  0.31250000  1.0 0.0476252109
C  C5  1  0.60280000  0.83590000  0.00000000  1.0 0.0213273473
C  C6  1  0.60280000  0.16410000  0.00000000  1.0 0.0213273473
C  C7  1  0.39720000  0.16410000  0.00000000  1.0 0.0213273473
C  C8  1  0.39720000  0.83590000  0.00000000  1.0 0.0213273473
N  N1  1  0.00000000  0.80270000  0.80520000  1.0 -0.3191749707
N  N2  1  0.00000000  0.19730000  0.19480000  1.0 -0.3191749707
N  N3  1  0.00000000  0.19730000  0.80520000  1.0 -0.3191749707
N  N4  1  0.00000000  0.80270000  0.19480000  1.0 -0.3191749707
N  N5  1  0.70710000  0.00000000  0.00000000  1.0 -0.0958894483
N  N6  1  0.29290000  0.00000000  0.00000000  1.0 -0.0958894483
