# DDEC6 charges by PACMAN v1.1 (https://github.com/mtap-research/PACMAN-charge/)
data_LUFQUZ01_ASR_pacman
_symmetry_space_group_name_H-M   'P 1'
_cell_length_a   6.72500000
_cell_length_b   7.01000000
_cell_length_c   7.02800000
_cell_angle_alpha   90.00000000
_cell_angle_beta   90.00000000
_cell_angle_gamma   90.00000000
_symmetry_Int_Tables_number   1
_chemical_formula_structural   FeNiH4(C4N3)2
_chemical_formula_sum   'Fe1 Ni1 H4 C8 N6'
_cell_volume   331.31573300
_cell_formula_units_Z   1
loop_
 _symmetry_equiv_pos_site_id
 _symmetry_equiv_pos_as_xyz
  1  'x, y, z'
loop_
 _atom_site_type_symbol
 _atom_site_label
 _atom_site_symmetry_multiplicity
 _atom_site_fract_x
 _atom_site_fract_y
 _atom_site_fract_z
 _atom_site_occupancy
 _atom_site_charge
Fe  Fe1  1  0.00000000  0.00000000  0.00000000  1.0 0.5839562098
Ni  Ni1  1  0.00000000  0.50000000  0.50000000  1.0 0.0887364576
H  H1  1  0.32890000  0.71820000  0.00000000  1.0 0.1326279918
H  H2  1  0.32890000  0.28180000  0.00000000  1.0 0.1326279918
H  H3  1  0.67110000  0.28180000  0.00000000  1.0 0.1326279918
H  H4  1  0.67110000  0.71820000  0.00000000  1.0 0.1326279918
C  C1  1  0.00000000  0.68960000  0.31350000  1.0 0.0399375751
C  C2  1  0.00000000  0.31040000  0.68650000  1.0 0.0399375751
C  C3  1  0.00000000  0.31040000  0.31350000  1.0 0.0399375751
C  C4  1  0.00000000  0.68960000  0.68650000  1.0 0.0399375751
C  C5  1  0.39780000  0.83640000  0.00000000  1.0 0.0190886462
C  C6  1  0.39780000  0.16360000  0.00000000  1.0 0.0190886462
C  C7  1  0.60220000  0.16360000  0.00000000  1.0 0.0190886462
C  C8  1  0.60220000  0.83640000  0.00000000  1.0 0.0190886462
N  N1  1  0.00000000  0.80310000  0.19510000  1.0 -0.315099912
N  N2  1  0.00000000  0.19690000  0.80490000  1.0 -0.315099912
N  N3  1  0.00000000  0.19690000  0.19510000  1.0 -0.315099912
N  N4  1  0.00000000  0.80310000  0.80490000  1.0 -0.315099912
N  N5  1  0.29310000  0.00000000  0.00000000  1.0 -0.089454936
N  N6  1  0.70690000  0.00000000  0.00000000  1.0 -0.089454936
