# DDEC6 charges by PACMAN v1.1 (https://github.com/mtap-research/PACMAN-charge/)
data_LUGFIF_FSR_pacman
_symmetry_space_group_name_H-M   'P 1'
_cell_length_a   10.49750000
_cell_length_b   10.49750000
_cell_length_c   33.11600000
_cell_angle_alpha   87.36210000
_cell_angle_beta   92.63790000
_cell_angle_gamma   106.63500000
_symmetry_Int_Tables_number   1
_chemical_formula_structural   CoSn3H27C15N7
_chemical_formula_sum   'Co4 Sn12 H108 C60 N28'
_cell_volume   3490.80687386
_cell_formula_units_Z   4
loop_
 _symmetry_equiv_pos_site_id
 _symmetry_equiv_pos_as_xyz
  1  'x, y, z'
loop_
 _atom_site_type_symbol
 _atom_site_label
 _atom_site_symmetry_multiplicity
 _atom_site_fract_x
 _atom_site_fract_y
 _atom_site_fract_z
 _atom_site_occupancy
 _atom_site_charge
Co  Co1  1  0.69127000  0.38485000  0.64333000  1.0 0.0147830097
Co  Co2  1  0.38485000  0.69127000  0.85667000  1.0 0.0161449211
Co  Co3  1  0.30873000  0.61515000  0.35667000  1.0 0.0147830097
Co  Co4  1  0.61515000  0.30873000  0.14333000  1.0 0.0161449211
Sn  Sn1  1  0.69574000  0.88534000  0.64753000  1.0 1.1901128646
Sn  Sn2  1  0.25932000  0.38012000  0.55812000  1.0 1.1901128646
Sn  Sn3  1  0.14427000  0.48883000  0.72588000  1.0 1.1901128646
Sn  Sn4  1  0.88534000  0.69574000  0.85247000  1.0 1.1901128646
Sn  Sn5  1  0.38012000  0.25932000  0.94188000  1.0 1.1901128646
Sn  Sn6  1  0.48883000  0.14427000  0.77412000  1.0 1.1901128646
Sn  Sn7  1  0.30426000  0.11466000  0.35247000  1.0 1.1901128646
Sn  Sn8  1  0.74068000  0.61988000  0.44188000  1.0 1.1901128646
Sn  Sn9  1  0.85573000  0.51117000  0.27412000  1.0 1.1901128646
Sn  Sn10  1  0.11466000  0.30426000  0.14753000  1.0 1.1901128646
Sn  Sn11  1  0.61988000  0.74068000  0.05812000  1.0 1.1901128646
Sn  Sn12  1  0.51117000  0.85573000  0.22588000  1.0 1.1957745364
H  H1  1  0.52360000  0.79160000  0.70230000  1.0 0.1989835884
H  H2  1  0.78760000  0.89720000  0.57570000  1.0 0.1804066843
H  H3  1  0.33930000  0.63410000  0.54550000  1.0 0.1908914593
H  H4  1  0.04770000  0.29490000  0.59870000  1.0 0.1908914593
H  H5  1  0.40310000  0.60090000  0.58620000  1.0 0.1804066843
H  H6  1  0.30800000  0.54180000  0.66840000  1.0 0.1908914593
H  H7  1  0.35770000  0.45050000  0.70000000  1.0 0.2079095653
H  H8  1  0.64170000  0.90290000  0.57040000  1.0 0.1989835884
H  H9  1  0.24040000  0.38760000  0.66910000  1.0 0.1989835884
H  H10  1  0.44760000  0.76540000  0.66050000  1.0 0.1908914593
H  H11  1  0.25620000  0.60840000  0.58470000  1.0 0.1908914593
H  H12  1  0.67140000  0.76720000  0.58020000  1.0 0.1908914593
H  H13  1  0.05280000  0.17960000  0.57090000  1.0 0.1804066843
H  H14  1  0.48360000  0.90820000  0.67840000  1.0 0.1908914593
H  H15  1  0.14410000  0.20950000  0.61020000  1.0 0.1908914593
H  H16  1  0.88920000  0.06580000  0.68190000  1.0 0.1989835884
H  H17  1  0.86690000  0.93590000  0.70830000  1.0 0.1908914593
H  H18  1  0.94740000  0.95400000  0.66930000  1.0 0.1908914593
H  H19  1  0.15430000  0.72810000  0.74560000  1.0 0.1908914593
H  H20  1  0.00650000  0.65170000  0.73660000  1.0 0.1908914593
H  H21  1  0.09940000  0.71200000  0.70120000  1.0 0.1989835884
H  H22  1  0.11680000  0.32740000  0.78870000  1.0 0.1908914593
H  H23  1  0.05160000  0.24280000  0.75210000  1.0 0.1908914593
H  H24  1  0.97490000  0.32630000  0.77300000  1.0 0.1908914593
H  H25  1  0.31190000  0.31530000  0.48780000  1.0 0.1804066843
H  H26  1  0.35690000  0.22330000  0.51990000  1.0 0.1804066843
H  H27  1  0.44580000  0.36740000  0.51180000  1.0 0.1908914593
H  H28  1  0.79160000  0.52360000  0.79770000  1.0 0.1989835884
H  H29  1  0.89720000  0.78760000  0.92430000  1.0 0.1804066843
H  H30  1  0.63410000  0.33930000  0.95450000  1.0 0.1908914593
H  H31  1  0.29490000  0.04770000  0.90130000  1.0 0.1908914593
H  H32  1  0.60090000  0.40310000  0.91380000  1.0 0.1804066843
H  H33  1  0.54180000  0.30800000  0.83160000  1.0 0.1908914593
H  H34  1  0.45050000  0.35770000  0.80000000  1.0 0.2079095653
H  H35  1  0.90290000  0.64170000  0.92960000  1.0 0.1989835884
H  H36  1  0.38760000  0.24040000  0.83090000  1.0 0.1989835884
H  H37  1  0.76540000  0.44760000  0.83950000  1.0 0.1908914593
H  H38  1  0.60840000  0.25620000  0.91530000  1.0 0.1908914593
H  H39  1  0.76720000  0.67140000  0.91980000  1.0 0.1908914593
H  H40  1  0.17960000  0.05280000  0.92910000  1.0 0.1804066843
H  H41  1  0.90820000  0.48360000  0.82160000  1.0 0.1908914593
H  H42  1  0.20950000  0.14410000  0.88980000  1.0 0.1908914593
H  H43  1  0.06580000  0.88920000  0.81810000  1.0 0.1989835884
H  H44  1  0.93590000  0.86690000  0.79170000  1.0 0.1908914593
H  H45  1  0.95400000  0.94740000  0.83070000  1.0 0.1908914593
H  H46  1  0.72810000  0.15430000  0.75440000  1.0 0.1908914593
H  H47  1  0.65170000  0.00650000  0.76340000  1.0 0.1908914593
H  H48  1  0.71200000  0.09940000  0.79880000  1.0 0.1989835884
H  H49  1  0.32740000  0.11680000  0.71130000  1.0 0.1908914593
H  H50  1  0.24280000  0.05160000  0.74790000  1.0 0.1908914593
H  H51  1  0.32630000  0.97490000  0.72700000  1.0 0.1908914593
H  H52  1  0.31530000  0.31190000  0.01220000  1.0 0.1804066843
H  H53  1  0.22330000  0.35690000  0.98010000  1.0 0.1804066843
H  H54  1  0.36740000  0.44580000  0.98820000  1.0 0.1908914593
H  H55  1  0.47640000  0.20840000  0.29770000  1.0 0.1989835884
H  H56  1  0.21240000  0.10280000  0.42430000  1.0 0.1804066843
H  H57  1  0.66070000  0.36590000  0.45450000  1.0 0.1908914593
H  H58  1  0.95230000  0.70510000  0.40130000  1.0 0.1908914593
H  H59  1  0.59690000  0.39910000  0.41380000  1.0 0.1804066843
H  H60  1  0.69200000  0.45820000  0.33160000  1.0 0.1908914593
H  H61  1  0.64230000  0.54950000  0.30000000  1.0 0.2079095653
H  H62  1  0.35830000  0.09710000  0.42960000  1.0 0.1908914593
H  H63  1  0.75960000  0.61240000  0.33090000  1.0 0.1989835884
H  H64  1  0.55240000  0.23460000  0.33950000  1.0 0.1908914593
H  H65  1  0.74380000  0.39160000  0.41530000  1.0 0.1908914593
H  H66  1  0.32860000  0.23280000  0.41980000  1.0 0.1908914593
H  H67  1  0.94720000  0.82040000  0.42910000  1.0 0.1804066843
H  H68  1  0.51640000  0.09180000  0.32160000  1.0 0.1908914593
H  H69  1  0.85590000  0.79050000  0.38980000  1.0 0.1908914593
H  H70  1  0.11080000  0.93420000  0.31810000  1.0 0.1989835884
H  H71  1  0.13310000  0.06410000  0.29170000  1.0 0.1908914593
H  H72  1  0.05260000  0.04600000  0.33070000  1.0 0.1908914593
H  H73  1  0.84570000  0.27190000  0.25440000  1.0 0.1908914593
H  H74  1  0.99350000  0.34830000  0.26340000  1.0 0.1908914593
H  H75  1  0.90060000  0.28800000  0.29880000  1.0 0.1989835884
H  H76  1  0.88320000  0.67260000  0.21130000  1.0 0.1908914593
H  H77  1  0.94840000  0.75720000  0.24790000  1.0 0.1908914593
H  H78  1  0.02510000  0.67370000  0.22700000  1.0 0.1908914593
H  H79  1  0.68810000  0.68470000  0.51220000  1.0 0.1804066843
H  H80  1  0.64310000  0.77670000  0.48010000  1.0 0.1804066843
H  H81  1  0.55420000  0.63260000  0.48820000  1.0 0.1908914593
H  H82  1  0.20840000  0.47640000  0.20230000  1.0 0.1989835884
H  H83  1  0.10280000  0.21240000  0.07570000  1.0 0.1804066843
H  H84  1  0.36590000  0.66070000  0.04550000  1.0 0.1908914593
H  H85  1  0.70510000  0.95230000  0.09870000  1.0 0.1908914593
H  H86  1  0.39910000  0.59690000  0.08620000  1.0 0.1804066843
H  H87  1  0.45820000  0.69200000  0.16840000  1.0 0.1908914593
H  H88  1  0.54950000  0.64230000  0.20000000  1.0 0.2079095653
H  H89  1  0.09710000  0.35830000  0.07040000  1.0 0.1908914593
H  H90  1  0.61240000  0.75960000  0.16910000  1.0 0.1989835884
H  H91  1  0.23460000  0.55240000  0.16050000  1.0 0.1908914593
H  H92  1  0.39160000  0.74380000  0.08470000  1.0 0.1908914593
H  H93  1  0.23280000  0.32860000  0.08020000  1.0 0.1908914593
H  H94  1  0.82040000  0.94720000  0.07090000  1.0 0.1804066843
H  H95  1  0.09180000  0.51640000  0.17840000  1.0 0.1908914593
H  H96  1  0.79050000  0.85590000  0.11020000  1.0 0.1908914593
H  H97  1  0.93420000  0.11080000  0.18190000  1.0 0.1989835884
H  H98  1  0.06410000  0.13310000  0.20830000  1.0 0.1908914593
H  H99  1  0.04600000  0.05260000  0.16930000  1.0 0.1908914593
H  H100  1  0.27190000  0.84570000  0.24560000  1.0 0.1908914593
H  H101  1  0.34830000  0.99350000  0.23660000  1.0 0.1908914593
H  H102  1  0.28800000  0.90060000  0.20120000  1.0 0.1989835884
H  H103  1  0.67260000  0.88320000  0.28870000  1.0 0.1908914593
H  H104  1  0.75720000  0.94840000  0.25210000  1.0 0.1908914593
H  H105  1  0.67370000  0.02510000  0.27300000  1.0 0.1908914593
H  H106  1  0.68470000  0.68810000  0.98780000  1.0 0.1804066843
H  H107  1  0.77670000  0.64310000  0.01990000  1.0 0.1804066843
H  H108  1  0.63260000  0.55420000  0.01180000  1.0 0.1908914593
C  C1  1  0.70810000  0.56510000  0.65189000  1.0 0.1076542186
C  C2  1  0.67840000  0.20620000  0.63600000  1.0 0.1007108739
C  C3  1  0.51970000  0.35910000  0.61992000  1.0 0.1250472626
C  C4  1  0.32240000  0.58400000  0.57050000  1.0 -0.7398638572
C  C5  1  0.35670000  0.31230000  0.51320000  1.0 -0.7398638572
C  C6  1  0.10420000  0.24720000  0.58810000  1.0 -0.7341410109
C  C7  1  0.75870000  0.43110000  0.59083000  1.0 0.0256210834
C  C8  1  0.86390000  0.40730000  0.66576000  1.0 0.1212189564
C  C9  1  0.33990000  0.61890000  0.80520000  1.0 0.1007108739
C  C10  1  0.06010000  0.32330000  0.76530000  1.0 -0.7858729699
C  C11  1  0.28180000  0.46280000  0.68510000  1.0 -0.7718691716
C  C12  1  0.87470000  0.97230000  0.68150000  1.0 -0.7718691716
C  C13  1  0.51210000  0.82950000  0.67620000  1.0 -0.7718691716
C  C14  1  0.69930000  0.86050000  0.58470000  1.0 -0.7481886535
C  C15  1  0.09460000  0.67040000  0.72740000  1.0 -0.7835423836
C  C16  1  0.56510000  0.70810000  0.84811000  1.0 0.1076542186
C  C17  1  0.20620000  0.67840000  0.86400000  1.0 0.1007108739
C  C18  1  0.35910000  0.51970000  0.88008000  1.0 0.1212189564
C  C19  1  0.58400000  0.32240000  0.92950000  1.0 -0.7481886535
C  C20  1  0.31230000  0.35670000  0.98680000  1.0 -0.7398638572
C  C21  1  0.24720000  0.10420000  0.91190000  1.0 -0.7341410109
C  C22  1  0.43110000  0.75870000  0.90917000  1.0 0.0256210834
C  C23  1  0.40730000  0.86390000  0.83424000  1.0 0.1212189564
C  C24  1  0.61890000  0.33990000  0.69480000  1.0 0.1076542186
C  C25  1  0.32330000  0.06010000  0.73470000  1.0 -0.7858729699
C  C26  1  0.46280000  0.28180000  0.81490000  1.0 -0.7718691716
C  C27  1  0.97230000  0.87470000  0.81850000  1.0 -0.7718691716
C  C28  1  0.82950000  0.51210000  0.82380000  1.0 -0.7718691716
C  C29  1  0.86050000  0.69930000  0.91530000  1.0 -0.7481886535
C  C30  1  0.67040000  0.09460000  0.77260000  1.0 -0.7835423836
C  C31  1  0.29190000  0.43490000  0.34811000  1.0 0.1076542186
C  C32  1  0.32160000  0.79380000  0.36400000  1.0 0.1007108739
C  C33  1  0.48030000  0.64090000  0.38008000  1.0 0.1212189564
C  C34  1  0.67760000  0.41600000  0.42950000  1.0 -0.7481886535
C  C35  1  0.64330000  0.68770000  0.48680000  1.0 -0.7398638572
C  C36  1  0.89580000  0.75280000  0.41190000  1.0 -0.7398638572
C  C37  1  0.24130000  0.56890000  0.40917000  1.0 0.0256210834
C  C38  1  0.13610000  0.59270000  0.33424000  1.0 0.1212189564
C  C39  1  0.66010000  0.38110000  0.19480000  1.0 0.1076542186
C  C40  1  0.93990000  0.67670000  0.23470000  1.0 -0.7858729699
C  C41  1  0.71820000  0.53720000  0.31490000  1.0 -0.7718691716
C  C42  1  0.12530000  0.02770000  0.31850000  1.0 -0.7718691716
C  C43  1  0.48790000  0.17050000  0.32380000  1.0 -0.7718691716
C  C44  1  0.30070000  0.13950000  0.41530000  1.0 -0.7481886535
C  C45  1  0.90540000  0.32960000  0.27260000  1.0 -0.7835423836
C  C46  1  0.43490000  0.29190000  0.15189000  1.0 0.1076542186
C  C47  1  0.79380000  0.32160000  0.13600000  1.0 0.1007108739
C  C48  1  0.64090000  0.48030000  0.11992000  1.0 0.1212189564
C  C49  1  0.41600000  0.67760000  0.07050000  1.0 -0.7398638572
C  C50  1  0.68770000  0.64330000  0.01320000  1.0 -0.7398638572
C  C51  1  0.75280000  0.89580000  0.08810000  1.0 -0.7341410109
C  C52  1  0.56890000  0.24130000  0.09083000  1.0 0.0256210834
C  C53  1  0.59270000  0.13610000  0.16576000  1.0 0.1212189564
C  C54  1  0.38110000  0.66010000  0.30520000  1.0 0.1076542186
C  C55  1  0.67670000  0.93990000  0.26530000  1.0 -0.7858729699
C  C56  1  0.53720000  0.71820000  0.18510000  1.0 -0.7718691716
C  C57  1  0.02770000  0.12530000  0.18150000  1.0 -0.7718691716
C  C58  1  0.17050000  0.48790000  0.17620000  1.0 -0.7718691716
C  C59  1  0.13950000  0.30070000  0.08470000  1.0 -0.7481886535
C  C60  1  0.32960000  0.90540000  0.22740000  1.0 -0.7835423836
N  N1  1  0.71750000  0.67410000  0.65740000  1.0 -0.3690486614
N  N2  1  0.67180000  0.09520000  0.63260000  1.0 -0.3690486614
N  N3  1  0.41570000  0.34450000  0.60512000  1.0 -0.3856680283
N  N4  1  0.10860000  0.42460000  0.51309000  1.0 -0.3371209988
N  N5  1  0.79580000  0.45880000  0.55942000  1.0 -0.288858209
N  N6  1  0.96710000  0.41830000  0.68020000  1.0 -0.3690486614
N  N7  1  0.30780000  0.57260000  0.77500000  1.0 -0.3576799372
N  N8  1  0.67410000  0.71750000  0.84260000  1.0 -0.3690486614
N  N9  1  0.09520000  0.67180000  0.86740000  1.0 -0.3690486614
N  N10  1  0.34450000  0.41570000  0.89488000  1.0 -0.3834709315
N  N11  1  0.42460000  0.10860000  0.98691000  1.0 -0.3333150932
N  N12  1  0.45880000  0.79580000  0.94058000  1.0 -0.288858209
N  N13  1  0.41830000  0.96710000  0.81980000  1.0 -0.3690486614
N  N14  1  0.57260000  0.30780000  0.72500000  1.0 -0.3576799372
N  N15  1  0.28250000  0.32590000  0.34260000  1.0 -0.3690486614
N  N16  1  0.32820000  0.90480000  0.36740000  1.0 -0.3690486614
N  N17  1  0.58430000  0.65550000  0.39488000  1.0 -0.3834709315
N  N18  1  0.89140000  0.57540000  0.48691000  1.0 -0.3333150932
N  N19  1  0.20420000  0.54120000  0.44058000  1.0 -0.288858209
N  N20  1  0.03290000  0.58170000  0.31980000  1.0 -0.3690486614
N  N21  1  0.69220000  0.42740000  0.22500000  1.0 -0.3576799372
N  N22  1  0.32590000  0.28250000  0.15740000  1.0 -0.3690486614
N  N23  1  0.90480000  0.32820000  0.13260000  1.0 -0.3690486614
N  N24  1  0.65550000  0.58430000  0.10512000  1.0 -0.3834709315
N  N25  1  0.57540000  0.89140000  0.01309000  1.0 -0.3371209988
N  N26  1  0.54120000  0.20420000  0.05942000  1.0 -0.288858209
N  N27  1  0.58170000  0.03290000  0.18020000  1.0 -0.3690486614
N  N28  1  0.42740000  0.69220000  0.27500000  1.0 -0.3576799372
