# DDEC6 charges by PACMAN v1.1 (https://github.com/mtap-research/PACMAN-charge/)
data_LUHVUH_ASR_pacman
_symmetry_space_group_name_H-M   'P 1'
_cell_length_a   19.30420000
_cell_length_b   19.30420000
_cell_length_c   19.30420000
_cell_angle_alpha   90.00000000
_cell_angle_beta   90.00000000
_cell_angle_gamma   90.00000000
_symmetry_Int_Tables_number   1
_chemical_formula_structural   Y3H112(C69O20)2
_chemical_formula_sum   'Y6 H224 C276 O80'
_cell_volume   7193.75139543
_cell_formula_units_Z   2
loop_
 _symmetry_equiv_pos_site_id
 _symmetry_equiv_pos_as_xyz
  1  'x, y, z'
loop_
 _atom_site_type_symbol
 _atom_site_label
 _atom_site_symmetry_multiplicity
 _atom_site_fract_x
 _atom_site_fract_y
 _atom_site_fract_z
 _atom_site_occupancy
 _atom_site_charge
Y  Y1  1  0.50000000  0.35835000  0.50000000  1.0 1.8513309826
Y  Y2  1  0.50000000  0.64165000  0.50000000  1.0 1.8513309826
Y  Y3  1  0.50000000  0.50000000  0.35835000  1.0 1.8513309826
Y  Y4  1  0.50000000  0.50000000  0.64165000  1.0 1.8513309826
Y  Y5  1  0.35835000  0.50000000  0.50000000  1.0 1.8513309826
Y  Y6  1  0.64165000  0.50000000  0.50000000  1.0 1.8513309826
H  H1  1  0.59360000  0.40640000  0.59360000  1.0 0.3909280767
H  H2  1  0.40640000  0.59360000  0.59360000  1.0 0.3909280767
H  H3  1  0.40640000  0.40640000  0.40640000  1.0 0.3909280767
H  H4  1  0.59360000  0.59360000  0.40640000  1.0 0.3909280767
H  H5  1  0.40640000  0.59360000  0.40640000  1.0 0.3909280767
H  H6  1  0.59360000  0.40640000  0.40640000  1.0 0.3909280767
H  H7  1  0.40640000  0.40640000  0.59360000  1.0 0.3909280767
H  H8  1  0.59360000  0.59360000  0.59360000  1.0 0.3909280767
H  H9  1  0.46810000  0.34310000  0.19640000  1.0 0.0779979696
H  H10  1  0.53190000  0.65690000  0.19640000  1.0 0.0779979696
H  H11  1  0.53190000  0.34310000  0.80360000  1.0 0.0779979696
H  H12  1  0.46810000  0.65690000  0.80360000  1.0 0.0779979696
H  H13  1  0.19640000  0.46810000  0.34310000  1.0 0.0779979696
H  H14  1  0.19640000  0.53190000  0.65690000  1.0 0.0779979696
H  H15  1  0.80360000  0.53190000  0.34310000  1.0 0.0779979696
H  H16  1  0.80360000  0.46810000  0.65690000  1.0 0.0779979696
H  H17  1  0.34310000  0.19640000  0.46810000  1.0 0.0779979696
H  H18  1  0.65690000  0.19640000  0.53190000  1.0 0.0779979696
H  H19  1  0.34310000  0.80360000  0.53190000  1.0 0.0779979696
H  H20  1  0.65690000  0.80360000  0.46810000  1.0 0.0779979696
H  H21  1  0.34310000  0.46810000  0.80360000  1.0 0.0779979696
H  H22  1  0.65690000  0.53190000  0.80360000  1.0 0.0779979696
H  H23  1  0.34310000  0.53190000  0.19640000  1.0 0.0779979696
H  H24  1  0.65690000  0.46810000  0.19640000  1.0 0.0779979696
H  H25  1  0.46810000  0.19640000  0.65690000  1.0 0.0779979696
H  H26  1  0.53190000  0.19640000  0.34310000  1.0 0.0779979696
H  H27  1  0.53190000  0.80360000  0.65690000  1.0 0.0779979696
H  H28  1  0.46810000  0.80360000  0.34310000  1.0 0.0779979696
H  H29  1  0.19640000  0.34310000  0.53190000  1.0 0.0779979696
H  H30  1  0.19640000  0.65690000  0.46810000  1.0 0.0779979696
H  H31  1  0.80360000  0.34310000  0.46810000  1.0 0.0779979696
H  H32  1  0.80360000  0.65690000  0.53190000  1.0 0.0779979696
H  H33  1  0.53190000  0.65690000  0.80360000  1.0 0.0779979696
H  H34  1  0.46810000  0.34310000  0.80360000  1.0 0.0779979696
H  H35  1  0.46810000  0.65690000  0.19640000  1.0 0.0779979696
H  H36  1  0.53190000  0.34310000  0.19640000  1.0 0.0779979696
H  H37  1  0.80360000  0.53190000  0.65690000  1.0 0.0779979696
H  H38  1  0.80360000  0.46810000  0.34310000  1.0 0.0779979696
H  H39  1  0.19640000  0.46810000  0.65690000  1.0 0.0779979696
H  H40  1  0.19640000  0.53190000  0.34310000  1.0 0.0779979696
H  H41  1  0.65690000  0.80360000  0.53190000  1.0 0.0779979696
H  H42  1  0.34310000  0.80360000  0.46810000  1.0 0.0779979696
H  H43  1  0.65690000  0.19640000  0.46810000  1.0 0.0779979696
H  H44  1  0.34310000  0.19640000  0.53190000  1.0 0.0779979696
H  H45  1  0.65690000  0.53190000  0.19640000  1.0 0.0779979696
H  H46  1  0.34310000  0.46810000  0.19640000  1.0 0.0779979696
H  H47  1  0.65690000  0.46810000  0.80360000  1.0 0.0779979696
H  H48  1  0.34310000  0.53190000  0.80360000  1.0 0.0779979696
H  H49  1  0.53190000  0.80360000  0.34310000  1.0 0.0779979696
H  H50  1  0.46810000  0.80360000  0.65690000  1.0 0.0779979696
H  H51  1  0.46810000  0.19640000  0.34310000  1.0 0.0779979696
H  H52  1  0.53190000  0.19640000  0.65690000  1.0 0.0779979696
H  H53  1  0.80360000  0.65690000  0.46810000  1.0 0.0779979696
H  H54  1  0.80360000  0.34310000  0.53190000  1.0 0.0779979696
H  H55  1  0.19640000  0.65690000  0.53190000  1.0 0.0779979696
H  H56  1  0.19640000  0.34310000  0.46810000  1.0 0.0779979696
H  H57  1  0.45060000  0.25840000  0.11530000  1.0 0.1058614795
H  H58  1  0.54940000  0.74160000  0.11530000  1.0 0.1058614795
H  H59  1  0.54940000  0.25840000  0.88470000  1.0 0.1058614795
H  H60  1  0.45060000  0.74160000  0.88470000  1.0 0.1058614795
H  H61  1  0.11530000  0.45060000  0.25840000  1.0 0.1058614795
H  H62  1  0.11530000  0.54940000  0.74160000  1.0 0.1058614795
H  H63  1  0.88470000  0.54940000  0.25840000  1.0 0.1058614795
H  H64  1  0.88470000  0.45060000  0.74160000  1.0 0.1058614795
H  H65  1  0.25840000  0.11530000  0.45060000  1.0 0.1058614795
H  H66  1  0.74160000  0.11530000  0.54940000  1.0 0.1058614795
H  H67  1  0.25840000  0.88470000  0.54940000  1.0 0.1058614795
H  H68  1  0.74160000  0.88470000  0.45060000  1.0 0.1058614795
H  H69  1  0.25840000  0.45060000  0.88470000  1.0 0.1058614795
H  H70  1  0.74160000  0.54940000  0.88470000  1.0 0.1058614795
H  H71  1  0.25840000  0.54940000  0.11530000  1.0 0.1058614795
H  H72  1  0.74160000  0.45060000  0.11530000  1.0 0.1058614795
H  H73  1  0.45060000  0.11530000  0.74160000  1.0 0.1058614795
H  H74  1  0.54940000  0.11530000  0.25840000  1.0 0.1058614795
H  H75  1  0.54940000  0.88470000  0.74160000  1.0 0.1058614795
H  H76  1  0.45060000  0.88470000  0.25840000  1.0 0.1058614795
H  H77  1  0.11530000  0.25840000  0.54940000  1.0 0.1058614795
H  H78  1  0.11530000  0.74160000  0.45060000  1.0 0.1058614795
H  H79  1  0.88470000  0.25840000  0.45060000  1.0 0.1058614795
H  H80  1  0.88470000  0.74160000  0.54940000  1.0 0.1058614795
H  H81  1  0.54940000  0.74160000  0.88470000  1.0 0.1058614795
H  H82  1  0.45060000  0.25840000  0.88470000  1.0 0.1058614795
H  H83  1  0.45060000  0.74160000  0.11530000  1.0 0.1058614795
H  H84  1  0.54940000  0.25840000  0.11530000  1.0 0.1058614795
H  H85  1  0.88470000  0.54940000  0.74160000  1.0 0.1058614795
H  H86  1  0.88470000  0.45060000  0.25840000  1.0 0.1058614795
H  H87  1  0.11530000  0.45060000  0.74160000  1.0 0.1058614795
H  H88  1  0.11530000  0.54940000  0.25840000  1.0 0.1058614795
H  H89  1  0.74160000  0.88470000  0.54940000  1.0 0.1058614795
H  H90  1  0.25840000  0.88470000  0.45060000  1.0 0.1058614795
H  H91  1  0.74160000  0.11530000  0.45060000  1.0 0.1058614795
H  H92  1  0.25840000  0.11530000  0.54940000  1.0 0.1058614795
H  H93  1  0.74160000  0.54940000  0.11530000  1.0 0.1058614795
H  H94  1  0.25840000  0.45060000  0.11530000  1.0 0.1058614795
H  H95  1  0.74160000  0.45060000  0.88470000  1.0 0.1058614795
H  H96  1  0.25840000  0.54940000  0.88470000  1.0 0.1058614795
H  H97  1  0.54940000  0.88470000  0.25840000  1.0 0.1058614795
H  H98  1  0.45060000  0.88470000  0.74160000  1.0 0.1058614795
H  H99  1  0.45060000  0.11530000  0.25840000  1.0 0.1058614795
H  H100  1  0.54940000  0.11530000  0.74160000  1.0 0.1058614795
H  H101  1  0.88470000  0.74160000  0.45060000  1.0 0.1058614795
H  H102  1  0.88470000  0.25840000  0.54940000  1.0 0.1058614795
H  H103  1  0.11530000  0.74160000  0.54940000  1.0 0.1058614795
H  H104  1  0.11530000  0.25840000  0.45060000  1.0 0.1058614795
H  H105  1  0.37020000  0.07060000  0.16000000  1.0 0.0909663467
H  H106  1  0.62980000  0.92940000  0.16000000  1.0 0.0909663467
H  H107  1  0.62980000  0.07060000  0.84000000  1.0 0.0909663467
H  H108  1  0.37020000  0.92940000  0.84000000  1.0 0.0909663467
H  H109  1  0.16000000  0.37020000  0.07060000  1.0 0.0909663467
H  H110  1  0.16000000  0.62980000  0.92940000  1.0 0.0909663467
H  H111  1  0.84000000  0.62980000  0.07060000  1.0 0.0909663467
H  H112  1  0.84000000  0.37020000  0.92940000  1.0 0.0909663467
H  H113  1  0.07060000  0.16000000  0.37020000  1.0 0.0909663467
H  H114  1  0.92940000  0.16000000  0.62980000  1.0 0.0909663467
H  H115  1  0.07060000  0.84000000  0.62980000  1.0 0.0909663467
H  H116  1  0.92940000  0.84000000  0.37020000  1.0 0.0909663467
H  H117  1  0.07060000  0.37020000  0.84000000  1.0 0.0909663467
H  H118  1  0.92940000  0.62980000  0.84000000  1.0 0.0909663467
H  H119  1  0.07060000  0.62980000  0.16000000  1.0 0.0909663467
H  H120  1  0.92940000  0.37020000  0.16000000  1.0 0.0909663467
H  H121  1  0.37020000  0.16000000  0.92940000  1.0 0.0909663467
H  H122  1  0.62980000  0.16000000  0.07060000  1.0 0.0909663467
H  H123  1  0.62980000  0.84000000  0.92940000  1.0 0.0909663467
H  H124  1  0.37020000  0.84000000  0.07060000  1.0 0.0909663467
H  H125  1  0.16000000  0.07060000  0.62980000  1.0 0.0909663467
H  H126  1  0.16000000  0.92940000  0.37020000  1.0 0.0909663467
H  H127  1  0.84000000  0.07060000  0.37020000  1.0 0.0909663467
H  H128  1  0.84000000  0.92940000  0.62980000  1.0 0.0909663467
H  H129  1  0.62980000  0.92940000  0.84000000  1.0 0.0909663467
H  H130  1  0.37020000  0.07060000  0.84000000  1.0 0.0909663467
H  H131  1  0.37020000  0.92940000  0.16000000  1.0 0.0909663467
H  H132  1  0.62980000  0.07060000  0.16000000  1.0 0.0909663467
H  H133  1  0.84000000  0.62980000  0.92940000  1.0 0.0909663467
H  H134  1  0.84000000  0.37020000  0.07060000  1.0 0.0909663467
H  H135  1  0.16000000  0.37020000  0.92940000  1.0 0.0909663467
H  H136  1  0.16000000  0.62980000  0.07060000  1.0 0.0909663467
H  H137  1  0.92940000  0.84000000  0.62980000  1.0 0.0909663467
H  H138  1  0.07060000  0.84000000  0.37020000  1.0 0.0909663467
H  H139  1  0.92940000  0.16000000  0.37020000  1.0 0.0909663467
H  H140  1  0.07060000  0.16000000  0.62980000  1.0 0.0909663467
H  H141  1  0.92940000  0.62980000  0.16000000  1.0 0.0909663467
H  H142  1  0.07060000  0.37020000  0.16000000  1.0 0.0909663467
H  H143  1  0.92940000  0.37020000  0.84000000  1.0 0.0909663467
H  H144  1  0.07060000  0.62980000  0.84000000  1.0 0.0909663467
H  H145  1  0.62980000  0.84000000  0.07060000  1.0 0.0909663467
H  H146  1  0.37020000  0.84000000  0.92940000  1.0 0.0909663467
H  H147  1  0.37020000  0.16000000  0.07060000  1.0 0.0909663467
H  H148  1  0.62980000  0.16000000  0.92940000  1.0 0.0909663467
H  H149  1  0.84000000  0.92940000  0.37020000  1.0 0.0909663467
H  H150  1  0.84000000  0.07060000  0.62980000  1.0 0.0909663467
H  H151  1  0.16000000  0.92940000  0.62980000  1.0 0.0909663467
H  H152  1  0.16000000  0.07060000  0.37020000  1.0 0.0909663467
H  H153  1  0.45080000  0.05640000  0.15490000  1.0 0.1194593832
H  H154  1  0.54920000  0.94360000  0.15490000  1.0 0.1194593832
H  H155  1  0.54920000  0.05640000  0.84510000  1.0 0.1194593832
H  H156  1  0.45080000  0.94360000  0.84510000  1.0 0.1194593832
H  H157  1  0.15490000  0.45080000  0.05640000  1.0 0.1194593832
H  H158  1  0.15490000  0.54920000  0.94360000  1.0 0.1194593832
H  H159  1  0.84510000  0.54920000  0.05640000  1.0 0.1194593832
H  H160  1  0.84510000  0.45080000  0.94360000  1.0 0.1194593832
H  H161  1  0.05640000  0.15490000  0.45080000  1.0 0.1194593832
H  H162  1  0.94360000  0.15490000  0.54920000  1.0 0.1194593832
H  H163  1  0.05640000  0.84510000  0.54920000  1.0 0.1194593832
H  H164  1  0.94360000  0.84510000  0.45080000  1.0 0.1194593832
H  H165  1  0.05640000  0.45080000  0.84510000  1.0 0.1194593832
H  H166  1  0.94360000  0.54920000  0.84510000  1.0 0.1194593832
H  H167  1  0.05640000  0.54920000  0.15490000  1.0 0.1194593832
H  H168  1  0.94360000  0.45080000  0.15490000  1.0 0.1194593832
H  H169  1  0.45080000  0.15490000  0.94360000  1.0 0.1194593832
H  H170  1  0.54920000  0.15490000  0.05640000  1.0 0.1194593832
H  H171  1  0.54920000  0.84510000  0.94360000  1.0 0.1194593832
H  H172  1  0.45080000  0.84510000  0.05640000  1.0 0.1194593832
H  H173  1  0.15490000  0.05640000  0.54920000  1.0 0.1194593832
H  H174  1  0.15490000  0.94360000  0.45080000  1.0 0.1194593832
H  H175  1  0.84510000  0.05640000  0.45080000  1.0 0.1194593832
H  H176  1  0.84510000  0.94360000  0.54920000  1.0 0.1194593832
H  H177  1  0.54920000  0.94360000  0.84510000  1.0 0.1194593832
H  H178  1  0.45080000  0.05640000  0.84510000  1.0 0.1194593832
H  H179  1  0.45080000  0.94360000  0.15490000  1.0 0.1194593832
H  H180  1  0.54920000  0.05640000  0.15490000  1.0 0.1194593832
H  H181  1  0.84510000  0.54920000  0.94360000  1.0 0.1194593832
H  H182  1  0.84510000  0.45080000  0.05640000  1.0 0.1194593832
H  H183  1  0.15490000  0.45080000  0.94360000  1.0 0.1194593832
H  H184  1  0.15490000  0.54920000  0.05640000  1.0 0.1194593832
H  H185  1  0.94360000  0.84510000  0.54920000  1.0 0.1194593832
H  H186  1  0.05640000  0.84510000  0.45080000  1.0 0.1194593832
H  H187  1  0.94360000  0.15490000  0.45080000  1.0 0.1194593832
H  H188  1  0.05640000  0.15490000  0.54920000  1.0 0.1194593832
H  H189  1  0.94360000  0.54920000  0.15490000  1.0 0.1194593832
H  H190  1  0.05640000  0.45080000  0.15490000  1.0 0.1194593832
H  H191  1  0.94360000  0.45080000  0.84510000  1.0 0.1194593832
H  H192  1  0.05640000  0.54920000  0.84510000  1.0 0.1194593832
H  H193  1  0.54920000  0.84510000  0.05640000  1.0 0.1194593832
H  H194  1  0.45080000  0.84510000  0.94360000  1.0 0.1194593832
H  H195  1  0.45080000  0.15490000  0.05640000  1.0 0.1194593832
H  H196  1  0.54920000  0.15490000  0.94360000  1.0 0.1194593832
H  H197  1  0.84510000  0.94360000  0.45080000  1.0 0.1194593832
H  H198  1  0.84510000  0.05640000  0.54920000  1.0 0.1194593832
H  H199  1  0.15490000  0.94360000  0.54920000  1.0 0.1194593832
H  H200  1  0.15490000  0.05640000  0.45080000  1.0 0.1194593832
H  H201  1  0.41075000  0.11595000  0.00000000  1.0 0.061217703
H  H202  1  0.58925000  0.88405000  0.00000000  1.0 0.061217703
H  H203  1  0.58925000  0.11595000  0.00000000  1.0 0.061217703
H  H204  1  0.41075000  0.88405000  0.00000000  1.0 0.061217703
H  H205  1  0.00000000  0.41075000  0.11595000  1.0 0.061217703
H  H206  1  0.00000000  0.58925000  0.88405000  1.0 0.061217703
H  H207  1  0.00000000  0.58925000  0.11595000  1.0 0.061217703
H  H208  1  0.00000000  0.41075000  0.88405000  1.0 0.061217703
H  H209  1  0.11595000  0.00000000  0.41075000  1.0 0.061217703
H  H210  1  0.88405000  0.00000000  0.58925000  1.0 0.061217703
H  H211  1  0.11595000  0.00000000  0.58925000  1.0 0.061217703
H  H212  1  0.88405000  0.00000000  0.41075000  1.0 0.061217703
H  H213  1  0.11595000  0.41075000  0.00000000  1.0 0.061217703
H  H214  1  0.88405000  0.58925000  0.00000000  1.0 0.061217703
H  H215  1  0.11595000  0.58925000  0.00000000  1.0 0.061217703
H  H216  1  0.88405000  0.41075000  0.00000000  1.0 0.061217703
H  H217  1  0.41075000  0.00000000  0.88405000  1.0 0.061217703
H  H218  1  0.58925000  0.00000000  0.11595000  1.0 0.061217703
H  H219  1  0.58925000  0.00000000  0.88405000  1.0 0.061217703
H  H220  1  0.41075000  0.00000000  0.11595000  1.0 0.061217703
H  H221  1  0.00000000  0.11595000  0.58925000  1.0 0.061217703
H  H222  1  0.00000000  0.88405000  0.41075000  1.0 0.061217703
H  H223  1  0.00000000  0.11595000  0.41075000  1.0 0.061217703
H  H224  1  0.00000000  0.88405000  0.58925000  1.0 0.061217703
C  C1  1  0.50000000  0.33080000  0.33080000  1.0 0.470415162
C  C2  1  0.50000000  0.66920000  0.33080000  1.0 0.470415162
C  C3  1  0.50000000  0.33080000  0.66920000  1.0 0.470415162
C  C4  1  0.50000000  0.66920000  0.66920000  1.0 0.470415162
C  C5  1  0.33080000  0.50000000  0.33080000  1.0 0.470415162
C  C6  1  0.33080000  0.50000000  0.66920000  1.0 0.470415162
C  C7  1  0.66920000  0.50000000  0.33080000  1.0 0.470415162
C  C8  1  0.66920000  0.50000000  0.66920000  1.0 0.470415162
C  C9  1  0.33080000  0.33080000  0.50000000  1.0 0.470415162
C  C10  1  0.66920000  0.33080000  0.50000000  1.0 0.470415162
C  C11  1  0.33080000  0.66920000  0.50000000  1.0 0.470415162
C  C12  1  0.66920000  0.66920000  0.50000000  1.0 0.470415162
C  C13  1  0.46460000  0.29730000  0.21080000  1.0 -0.0448644359
C  C14  1  0.53540000  0.70270000  0.21080000  1.0 -0.0448644359
C  C15  1  0.53540000  0.29730000  0.78920000  1.0 -0.0448644359
C  C16  1  0.46460000  0.70270000  0.78920000  1.0 -0.0448644359
C  C17  1  0.21080000  0.46460000  0.29730000  1.0 -0.0448644359
C  C18  1  0.21080000  0.53540000  0.70270000  1.0 -0.0448644359
C  C19  1  0.78920000  0.53540000  0.29730000  1.0 -0.0448644359
C  C20  1  0.78920000  0.46460000  0.70270000  1.0 -0.0448644359
C  C21  1  0.29730000  0.21080000  0.46460000  1.0 -0.0448644359
C  C22  1  0.70270000  0.21080000  0.53540000  1.0 -0.0448644359
C  C23  1  0.29730000  0.78920000  0.53540000  1.0 -0.0448644359
C  C24  1  0.70270000  0.78920000  0.46460000  1.0 -0.0448644359
C  C25  1  0.29730000  0.46460000  0.78920000  1.0 -0.0448644359
C  C26  1  0.70270000  0.53540000  0.78920000  1.0 -0.0448644359
C  C27  1  0.29730000  0.53540000  0.21080000  1.0 -0.0448644359
C  C28  1  0.70270000  0.46460000  0.21080000  1.0 -0.0448644359
C  C29  1  0.46460000  0.21080000  0.70270000  1.0 -0.0448644359
C  C30  1  0.53540000  0.21080000  0.29730000  1.0 -0.0448644359
C  C31  1  0.53540000  0.78920000  0.70270000  1.0 -0.0448644359
C  C32  1  0.46460000  0.78920000  0.29730000  1.0 -0.0448644359
C  C33  1  0.21080000  0.29730000  0.53540000  1.0 -0.0448644359
C  C34  1  0.21080000  0.70270000  0.46460000  1.0 -0.0448644359
C  C35  1  0.78920000  0.29730000  0.46460000  1.0 -0.0448644359
C  C36  1  0.78920000  0.70270000  0.53540000  1.0 -0.0448644359
C  C37  1  0.53540000  0.70270000  0.78920000  1.0 -0.0448644359
C  C38  1  0.46460000  0.29730000  0.78920000  1.0 -0.0448644359
C  C39  1  0.46460000  0.70270000  0.21080000  1.0 -0.0448644359
C  C40  1  0.53540000  0.29730000  0.21080000  1.0 -0.0448644359
C  C41  1  0.78920000  0.53540000  0.70270000  1.0 -0.0448644359
C  C42  1  0.78920000  0.46460000  0.29730000  1.0 -0.0448644359
C  C43  1  0.21080000  0.46460000  0.70270000  1.0 -0.0448644359
C  C44  1  0.21080000  0.53540000  0.29730000  1.0 -0.0448644359
C  C45  1  0.70270000  0.78920000  0.53540000  1.0 -0.0448644359
C  C46  1  0.29730000  0.78920000  0.46460000  1.0 -0.0448644359
C  C47  1  0.70270000  0.21080000  0.46460000  1.0 -0.0448644359
C  C48  1  0.29730000  0.21080000  0.53540000  1.0 -0.0448644359
C  C49  1  0.70270000  0.53540000  0.21080000  1.0 -0.0448644359
C  C50  1  0.29730000  0.46460000  0.21080000  1.0 -0.0448644359
C  C51  1  0.70270000  0.46460000  0.78920000  1.0 -0.0448644359
C  C52  1  0.29730000  0.53540000  0.78920000  1.0 -0.0448644359
C  C53  1  0.53540000  0.78920000  0.29730000  1.0 -0.0448644359
C  C54  1  0.46460000  0.78920000  0.70270000  1.0 -0.0448644359
C  C55  1  0.46460000  0.21080000  0.29730000  1.0 -0.0448644359
C  C56  1  0.53540000  0.21080000  0.70270000  1.0 -0.0448644359
C  C57  1  0.78920000  0.70270000  0.46460000  1.0 -0.0448644359
C  C58  1  0.78920000  0.29730000  0.53540000  1.0 -0.0448644359
C  C59  1  0.21080000  0.70270000  0.53540000  1.0 -0.0448644359
C  C60  1  0.21080000  0.29730000  0.46460000  1.0 -0.0448644359
C  C61  1  0.45290000  0.24640000  0.16190000  1.0 -0.2559883988
C  C62  1  0.54710000  0.75360000  0.16190000  1.0 -0.2559883988
C  C63  1  0.54710000  0.24640000  0.83810000  1.0 -0.2559883988
C  C64  1  0.45290000  0.75360000  0.83810000  1.0 -0.2559883988
C  C65  1  0.16190000  0.45290000  0.24640000  1.0 -0.2559883988
C  C66  1  0.16190000  0.54710000  0.75360000  1.0 -0.2559883988
C  C67  1  0.83810000  0.54710000  0.24640000  1.0 -0.2559883988
C  C68  1  0.83810000  0.45290000  0.75360000  1.0 -0.2559883988
C  C69  1  0.24640000  0.16190000  0.45290000  1.0 -0.2559883988
C  C70  1  0.75360000  0.16190000  0.54710000  1.0 -0.2559883988
C  C71  1  0.24640000  0.83810000  0.54710000  1.0 -0.2559883988
C  C72  1  0.75360000  0.83810000  0.45290000  1.0 -0.2559883988
C  C73  1  0.24640000  0.45290000  0.83810000  1.0 -0.2559883988
C  C74  1  0.75360000  0.54710000  0.83810000  1.0 -0.2559883988
C  C75  1  0.24640000  0.54710000  0.16190000  1.0 -0.2559883988
C  C76  1  0.75360000  0.45290000  0.16190000  1.0 -0.2559883988
C  C77  1  0.45290000  0.16190000  0.75360000  1.0 -0.2559883988
C  C78  1  0.54710000  0.16190000  0.24640000  1.0 -0.2559883988
C  C79  1  0.54710000  0.83810000  0.75360000  1.0 -0.2559883988
C  C80  1  0.45290000  0.83810000  0.24640000  1.0 -0.2559883988
C  C81  1  0.16190000  0.24640000  0.54710000  1.0 -0.2559883988
C  C82  1  0.16190000  0.75360000  0.45290000  1.0 -0.2559883988
C  C83  1  0.83810000  0.24640000  0.45290000  1.0 -0.2559883988
C  C84  1  0.83810000  0.75360000  0.54710000  1.0 -0.2559883988
C  C85  1  0.54710000  0.75360000  0.83810000  1.0 -0.2559883988
C  C86  1  0.45290000  0.24640000  0.83810000  1.0 -0.2559883988
C  C87  1  0.45290000  0.75360000  0.16190000  1.0 -0.2559883988
C  C88  1  0.54710000  0.24640000  0.16190000  1.0 -0.2559883988
C  C89  1  0.83810000  0.54710000  0.75360000  1.0 -0.2559883988
C  C90  1  0.83810000  0.45290000  0.24640000  1.0 -0.2559883988
C  C91  1  0.16190000  0.45290000  0.75360000  1.0 -0.2559883988
C  C92  1  0.16190000  0.54710000  0.24640000  1.0 -0.2559883988
C  C93  1  0.75360000  0.83810000  0.54710000  1.0 -0.2559883988
C  C94  1  0.24640000  0.83810000  0.45290000  1.0 -0.2559883988
C  C95  1  0.75360000  0.16190000  0.45290000  1.0 -0.2559883988
C  C96  1  0.24640000  0.16190000  0.54710000  1.0 -0.2559883988
C  C97  1  0.75360000  0.54710000  0.16190000  1.0 -0.2559883988
C  C98  1  0.24640000  0.45290000  0.16190000  1.0 -0.2559883988
C  C99  1  0.75360000  0.45290000  0.83810000  1.0 -0.2559883988
C  C100  1  0.24640000  0.54710000  0.83810000  1.0 -0.2559883988
C  C101  1  0.54710000  0.83810000  0.24640000  1.0 -0.2559883988
C  C102  1  0.45290000  0.83810000  0.75360000  1.0 -0.2559883988
C  C103  1  0.45290000  0.16190000  0.24640000  1.0 -0.2559883988
C  C104  1  0.54710000  0.16190000  0.75360000  1.0 -0.2559883988
C  C105  1  0.83810000  0.75360000  0.45290000  1.0 -0.2559883988
C  C106  1  0.83810000  0.24640000  0.54710000  1.0 -0.2559883988
C  C107  1  0.16190000  0.75360000  0.54710000  1.0 -0.2559883988
C  C108  1  0.16190000  0.24640000  0.45290000  1.0 -0.2559883988
C  C109  1  0.41100000  0.07580000  0.13120000  1.0 0.0043975325
C  C110  1  0.58900000  0.92420000  0.13120000  1.0 0.0043975325
C  C111  1  0.58900000  0.07580000  0.86880000  1.0 0.0043975325
C  C112  1  0.41100000  0.92420000  0.86880000  1.0 0.0043975325
C  C113  1  0.13120000  0.41100000  0.07580000  1.0 0.0043975325
C  C114  1  0.13120000  0.58900000  0.92420000  1.0 0.0043975325
C  C115  1  0.86880000  0.58900000  0.07580000  1.0 0.0043975325
C  C116  1  0.86880000  0.41100000  0.92420000  1.0 0.0043975325
C  C117  1  0.07580000  0.13120000  0.41100000  1.0 0.0043975325
C  C118  1  0.92420000  0.13120000  0.58900000  1.0 0.0043975325
C  C119  1  0.07580000  0.86880000  0.58900000  1.0 0.0043975325
C  C120  1  0.92420000  0.86880000  0.41100000  1.0 0.0043975325
C  C121  1  0.07580000  0.41100000  0.86880000  1.0 0.0043975325
C  C122  1  0.92420000  0.58900000  0.86880000  1.0 0.0043975325
C  C123  1  0.07580000  0.58900000  0.13120000  1.0 0.0043975325
C  C124  1  0.92420000  0.41100000  0.13120000  1.0 0.0043975325
C  C125  1  0.41100000  0.13120000  0.92420000  1.0 0.0043975325
C  C126  1  0.58900000  0.13120000  0.07580000  1.0 0.0043975325
C  C127  1  0.58900000  0.86880000  0.92420000  1.0 0.0043975325
C  C128  1  0.41100000  0.86880000  0.07580000  1.0 0.0043975325
C  C129  1  0.13120000  0.07580000  0.58900000  1.0 0.0043975325
C  C130  1  0.13120000  0.92420000  0.41100000  1.0 0.0043975325
C  C131  1  0.86880000  0.07580000  0.41100000  1.0 0.0043975325
C  C132  1  0.86880000  0.92420000  0.58900000  1.0 0.0043975325
C  C133  1  0.58900000  0.92420000  0.86880000  1.0 0.0043975325
C  C134  1  0.41100000  0.07580000  0.86880000  1.0 0.0043975325
C  C135  1  0.41100000  0.92420000  0.13120000  1.0 0.0043975325
C  C136  1  0.58900000  0.07580000  0.13120000  1.0 0.0043975325
C  C137  1  0.86880000  0.58900000  0.92420000  1.0 0.0043975325
C  C138  1  0.86880000  0.41100000  0.07580000  1.0 0.0043975325
C  C139  1  0.13120000  0.41100000  0.92420000  1.0 0.0043975325
C  C140  1  0.13120000  0.58900000  0.07580000  1.0 0.0043975325
C  C141  1  0.92420000  0.86880000  0.58900000  1.0 0.0043975325
C  C142  1  0.07580000  0.86880000  0.41100000  1.0 0.0043975325
C  C143  1  0.92420000  0.13120000  0.41100000  1.0 0.0043975325
C  C144  1  0.07580000  0.13120000  0.58900000  1.0 0.0043975325
C  C145  1  0.92420000  0.58900000  0.13120000  1.0 0.0043975325
C  C146  1  0.07580000  0.41100000  0.13120000  1.0 0.0043975325
C  C147  1  0.92420000  0.41100000  0.86880000  1.0 0.0043975325
C  C148  1  0.07580000  0.58900000  0.86880000  1.0 0.0043975325
C  C149  1  0.58900000  0.86880000  0.07580000  1.0 0.0043975325
C  C150  1  0.41100000  0.86880000  0.92420000  1.0 0.0043975325
C  C151  1  0.41100000  0.13120000  0.07580000  1.0 0.0043975325
C  C152  1  0.58900000  0.13120000  0.92420000  1.0 0.0043975325
C  C153  1  0.86880000  0.92420000  0.41100000  1.0 0.0043975325
C  C154  1  0.86880000  0.07580000  0.58900000  1.0 0.0043975325
C  C155  1  0.13120000  0.92420000  0.58900000  1.0 0.0043975325
C  C156  1  0.13120000  0.07580000  0.41100000  1.0 0.0043975325
C  C157  1  0.41070000  0.03610000  0.06420000  1.0 -0.0593360284
C  C158  1  0.58930000  0.96390000  0.06420000  1.0 -0.0593360284
C  C159  1  0.58930000  0.03610000  0.93580000  1.0 -0.0593360284
C  C160  1  0.41070000  0.96390000  0.93580000  1.0 -0.0593360284
C  C161  1  0.06420000  0.41070000  0.03610000  1.0 -0.0593360284
C  C162  1  0.06420000  0.58930000  0.96390000  1.0 -0.0593360284
C  C163  1  0.93580000  0.58930000  0.03610000  1.0 -0.0593360284
C  C164  1  0.93580000  0.41070000  0.96390000  1.0 -0.0593360284
C  C165  1  0.03610000  0.06420000  0.41070000  1.0 -0.0593360284
C  C166  1  0.96390000  0.06420000  0.58930000  1.0 -0.0593360284
C  C167  1  0.03610000  0.93580000  0.58930000  1.0 -0.0593360284
C  C168  1  0.96390000  0.93580000  0.41070000  1.0 -0.0593360284
C  C169  1  0.03610000  0.41070000  0.93580000  1.0 -0.0593360284
C  C170  1  0.96390000  0.58930000  0.93580000  1.0 -0.0593360284
C  C171  1  0.03610000  0.58930000  0.06420000  1.0 -0.0593360284
C  C172  1  0.96390000  0.41070000  0.06420000  1.0 -0.0593360284
C  C173  1  0.41070000  0.06420000  0.96390000  1.0 -0.0593360284
C  C174  1  0.58930000  0.06420000  0.03610000  1.0 -0.0593360284
C  C175  1  0.58930000  0.93580000  0.96390000  1.0 -0.0593360284
C  C176  1  0.41070000  0.93580000  0.03610000  1.0 -0.0593360284
C  C177  1  0.06420000  0.03610000  0.58930000  1.0 -0.0593360284
C  C178  1  0.06420000  0.96390000  0.41070000  1.0 -0.0593360284
C  C179  1  0.93580000  0.03610000  0.41070000  1.0 -0.0593360284
C  C180  1  0.93580000  0.96390000  0.58930000  1.0 -0.0593360284
C  C181  1  0.58930000  0.96390000  0.93580000  1.0 -0.0593360284
C  C182  1  0.41070000  0.03610000  0.93580000  1.0 -0.0593360284
C  C183  1  0.41070000  0.96390000  0.06420000  1.0 -0.0593360284
C  C184  1  0.58930000  0.03610000  0.06420000  1.0 -0.0593360284
C  C185  1  0.93580000  0.58930000  0.96390000  1.0 -0.0593360284
C  C186  1  0.93580000  0.41070000  0.03610000  1.0 -0.0593360284
C  C187  1  0.06420000  0.41070000  0.96390000  1.0 -0.0593360284
C  C188  1  0.06420000  0.58930000  0.03610000  1.0 -0.0593360284
C  C189  1  0.96390000  0.93580000  0.58930000  1.0 -0.0593360284
C  C190  1  0.03610000  0.93580000  0.41070000  1.0 -0.0593360284
C  C191  1  0.96390000  0.06420000  0.41070000  1.0 -0.0593360284
C  C192  1  0.03610000  0.06420000  0.58930000  1.0 -0.0593360284
C  C193  1  0.96390000  0.58930000  0.06420000  1.0 -0.0593360284
C  C194  1  0.03610000  0.41070000  0.06420000  1.0 -0.0593360284
C  C195  1  0.96390000  0.41070000  0.93580000  1.0 -0.0593360284
C  C196  1  0.03610000  0.58930000  0.93580000  1.0 -0.0593360284
C  C197  1  0.58930000  0.93580000  0.03610000  1.0 -0.0593360284
C  C198  1  0.41070000  0.93580000  0.96390000  1.0 -0.0593360284
C  C199  1  0.41070000  0.06420000  0.03610000  1.0 -0.0593360284
C  C200  1  0.58930000  0.06420000  0.96390000  1.0 -0.0593360284
C  C201  1  0.93580000  0.96390000  0.41070000  1.0 -0.0593360284
C  C202  1  0.93580000  0.03610000  0.58930000  1.0 -0.0593360284
C  C203  1  0.06420000  0.96390000  0.58930000  1.0 -0.0593360284
C  C204  1  0.06420000  0.03610000  0.41070000  1.0 -0.0593360284
C  C205  1  0.47250000  0.27810000  0.27810000  1.0 0.0168979635
C  C206  1  0.52750000  0.72190000  0.27810000  1.0 0.0168979635
C  C207  1  0.52750000  0.27810000  0.72190000  1.0 0.0168979635
C  C208  1  0.47250000  0.72190000  0.72190000  1.0 0.0168979635
C  C209  1  0.27810000  0.47250000  0.27810000  1.0 0.0168979635
C  C210  1  0.27810000  0.52750000  0.72190000  1.0 0.0168979635
C  C211  1  0.72190000  0.52750000  0.27810000  1.0 0.0168979635
C  C212  1  0.72190000  0.47250000  0.72190000  1.0 0.0168979635
C  C213  1  0.27810000  0.27810000  0.47250000  1.0 0.0168979635
C  C214  1  0.72190000  0.27810000  0.52750000  1.0 0.0168979635
C  C215  1  0.27810000  0.72190000  0.52750000  1.0 0.0168979635
C  C216  1  0.72190000  0.72190000  0.47250000  1.0 0.0168979635
C  C217  1  0.27810000  0.47250000  0.72190000  1.0 0.0168979635
C  C218  1  0.72190000  0.52750000  0.72190000  1.0 0.0168979635
C  C219  1  0.27810000  0.52750000  0.27810000  1.0 0.0168979635
C  C220  1  0.72190000  0.47250000  0.27810000  1.0 0.0168979635
C  C221  1  0.47250000  0.27810000  0.72190000  1.0 0.0168979635
C  C222  1  0.52750000  0.27810000  0.27810000  1.0 0.0168979635
C  C223  1  0.52750000  0.72190000  0.72190000  1.0 0.0168979635
C  C224  1  0.47250000  0.72190000  0.27810000  1.0 0.0168979635
C  C225  1  0.27810000  0.27810000  0.52750000  1.0 0.0168979635
C  C226  1  0.27810000  0.72190000  0.47250000  1.0 0.0168979635
C  C227  1  0.72190000  0.27810000  0.47250000  1.0 0.0168979635
C  C228  1  0.72190000  0.72190000  0.52750000  1.0 0.0168979635
C  C229  1  0.44700000  0.17990000  0.17990000  1.0 0.1369784128
C  C230  1  0.55300000  0.82010000  0.17990000  1.0 0.1369784128
C  C231  1  0.55300000  0.17990000  0.82010000  1.0 0.1369784128
C  C232  1  0.44700000  0.82010000  0.82010000  1.0 0.1369784128
C  C233  1  0.17990000  0.44700000  0.17990000  1.0 0.1369784128
C  C234  1  0.17990000  0.55300000  0.82010000  1.0 0.1369784128
C  C235  1  0.82010000  0.55300000  0.17990000  1.0 0.1369784128
C  C236  1  0.82010000  0.44700000  0.82010000  1.0 0.1369784128
C  C237  1  0.17990000  0.17990000  0.44700000  1.0 0.1369784128
C  C238  1  0.82010000  0.17990000  0.55300000  1.0 0.1369784128
C  C239  1  0.17990000  0.82010000  0.55300000  1.0 0.1369784128
C  C240  1  0.82010000  0.82010000  0.44700000  1.0 0.1369784128
C  C241  1  0.17990000  0.44700000  0.82010000  1.0 0.1369784128
C  C242  1  0.82010000  0.55300000  0.82010000  1.0 0.1369784128
C  C243  1  0.17990000  0.55300000  0.17990000  1.0 0.1369784128
C  C244  1  0.82010000  0.44700000  0.17990000  1.0 0.1369784128
C  C245  1  0.44700000  0.17990000  0.82010000  1.0 0.1369784128
C  C246  1  0.55300000  0.17990000  0.17990000  1.0 0.1369784128
C  C247  1  0.55300000  0.82010000  0.82010000  1.0 0.1369784128
C  C248  1  0.44700000  0.82010000  0.17990000  1.0 0.1369784128
C  C249  1  0.17990000  0.17990000  0.55300000  1.0 0.1369784128
C  C250  1  0.17990000  0.82010000  0.44700000  1.0 0.1369784128
C  C251  1  0.82010000  0.17990000  0.44700000  1.0 0.1369784128
C  C252  1  0.82010000  0.82010000  0.55300000  1.0 0.1369784128
C  C253  1  0.41080000  0.06800000  0.00000000  1.0 -0.0751108657
C  C254  1  0.58920000  0.93200000  0.00000000  1.0 -0.0751108657
C  C255  1  0.58920000  0.06800000  0.00000000  1.0 -0.0746569539
C  C256  1  0.41080000  0.93200000  0.00000000  1.0 -0.0751108657
C  C257  1  0.00000000  0.41080000  0.06800000  1.0 -0.0751108657
C  C258  1  0.00000000  0.58920000  0.93200000  1.0 -0.0751108657
C  C259  1  0.00000000  0.58920000  0.06800000  1.0 -0.0751108657
C  C260  1  0.00000000  0.41080000  0.93200000  1.0 -0.0751108657
C  C261  1  0.06800000  0.00000000  0.41080000  1.0 -0.0751108657
C  C262  1  0.93200000  0.00000000  0.58920000  1.0 -0.0746569539
C  C263  1  0.06800000  0.00000000  0.58920000  1.0 -0.0751108657
C  C264  1  0.93200000  0.00000000  0.41080000  1.0 -0.0746569539
C  C265  1  0.06800000  0.41080000  0.00000000  1.0 -0.0751108657
C  C266  1  0.93200000  0.58920000  0.00000000  1.0 -0.0751108657
C  C267  1  0.06800000  0.58920000  0.00000000  1.0 -0.0751108657
C  C268  1  0.93200000  0.41080000  0.00000000  1.0 -0.0751108657
C  C269  1  0.41080000  0.00000000  0.93200000  1.0 -0.0751108657
C  C270  1  0.58920000  0.00000000  0.06800000  1.0 -0.0751108657
C  C271  1  0.58920000  0.00000000  0.93200000  1.0 -0.0751108657
C  C272  1  0.41080000  0.00000000  0.06800000  1.0 -0.0751108657
C  C273  1  0.00000000  0.06800000  0.58920000  1.0 -0.0751108657
C  C274  1  0.00000000  0.93200000  0.41080000  1.0 -0.0751108657
C  C275  1  0.00000000  0.06800000  0.41080000  1.0 -0.0751108657
C  C276  1  0.00000000  0.93200000  0.58920000  1.0 -0.0751108657
O  O1  1  0.56430000  0.43570000  0.56430000  1.0 -1.0069041978
O  O2  1  0.43570000  0.56430000  0.56430000  1.0 -1.0069041978
O  O3  1  0.43570000  0.43570000  0.43570000  1.0 -1.0069041978
O  O4  1  0.56430000  0.56430000  0.43570000  1.0 -1.0069041978
O  O5  1  0.43570000  0.56430000  0.43570000  1.0 -1.0069041978
O  O6  1  0.56430000  0.43570000  0.43570000  1.0 -1.0069041978
O  O7  1  0.43570000  0.43570000  0.56430000  1.0 -1.0069041978
O  O8  1  0.56430000  0.56430000  0.56430000  1.0 -1.0069041978
O  O9  1  0.50000000  0.30850000  0.39220000  1.0 -0.5910705457
O  O10  1  0.50000000  0.69150000  0.39220000  1.0 -0.5910705457
O  O11  1  0.50000000  0.30850000  0.60780000  1.0 -0.5910705457
O  O12  1  0.50000000  0.69150000  0.60780000  1.0 -0.5910705457
O  O13  1  0.39220000  0.50000000  0.30850000  1.0 -0.5910705457
O  O14  1  0.39220000  0.50000000  0.69150000  1.0 -0.5910705457
O  O15  1  0.60780000  0.50000000  0.30850000  1.0 -0.5910705457
O  O16  1  0.60780000  0.50000000  0.69150000  1.0 -0.5910705457
O  O17  1  0.30850000  0.39220000  0.50000000  1.0 -0.5910705457
O  O18  1  0.69150000  0.39220000  0.50000000  1.0 -0.5910705457
O  O19  1  0.30850000  0.60780000  0.50000000  1.0 -0.5910705457
O  O20  1  0.69150000  0.60780000  0.50000000  1.0 -0.5910705457
O  O21  1  0.30850000  0.50000000  0.60780000  1.0 -0.5910705457
O  O22  1  0.69150000  0.50000000  0.60780000  1.0 -0.5910705457
O  O23  1  0.30850000  0.50000000  0.39220000  1.0 -0.5910705457
O  O24  1  0.69150000  0.50000000  0.39220000  1.0 -0.5910705457
O  O25  1  0.50000000  0.39220000  0.69150000  1.0 -0.5910705457
O  O26  1  0.50000000  0.39220000  0.30850000  1.0 -0.5910705457
O  O27  1  0.50000000  0.60780000  0.69150000  1.0 -0.5910705457
O  O28  1  0.50000000  0.60780000  0.30850000  1.0 -0.5910705457
O  O29  1  0.39220000  0.30850000  0.50000000  1.0 -0.5910705457
O  O30  1  0.39220000  0.69150000  0.50000000  1.0 -0.5910705457
O  O31  1  0.60780000  0.30850000  0.50000000  1.0 -0.5910705457
O  O32  1  0.60780000  0.69150000  0.50000000  1.0 -0.5910705457
O  O33  1  0.43240000  0.14450000  0.11750000  1.0 -0.0593360284
O  O34  1  0.56760000  0.85550000  0.11750000  1.0 -0.0593360284
O  O35  1  0.56760000  0.14450000  0.88250000  1.0 -0.0593360284
O  O36  1  0.43240000  0.85550000  0.88250000  1.0 -0.0593360284
O  O37  1  0.11750000  0.43240000  0.14450000  1.0 -0.0593360284
O  O38  1  0.11750000  0.56760000  0.85550000  1.0 -0.0593360284
O  O39  1  0.88250000  0.56760000  0.14450000  1.0 -0.0593360284
O  O40  1  0.88250000  0.43240000  0.85550000  1.0 -0.0593360284
O  O41  1  0.14450000  0.11750000  0.43240000  1.0 -0.0593360284
O  O42  1  0.85550000  0.11750000  0.56760000  1.0 -0.0593360284
O  O43  1  0.14450000  0.88250000  0.56760000  1.0 -0.0593360284
O  O44  1  0.85550000  0.88250000  0.43240000  1.0 -0.0593360284
O  O45  1  0.14450000  0.43240000  0.88250000  1.0 -0.0593360284
O  O46  1  0.85550000  0.56760000  0.88250000  1.0 -0.0593360284
O  O47  1  0.14450000  0.56760000  0.11750000  1.0 -0.0593360284
O  O48  1  0.85550000  0.43240000  0.11750000  1.0 -0.0593360284
O  O49  1  0.43240000  0.11750000  0.85550000  1.0 -0.0593360284
O  O50  1  0.56760000  0.11750000  0.14450000  1.0 -0.0593360284
O  O51  1  0.56760000  0.88250000  0.85550000  1.0 -0.0593360284
O  O52  1  0.43240000  0.88250000  0.14450000  1.0 -0.0593360284
O  O53  1  0.11750000  0.14450000  0.56760000  1.0 -0.0593360284
O  O54  1  0.11750000  0.85550000  0.43240000  1.0 -0.0593360284
O  O55  1  0.88250000  0.14450000  0.43240000  1.0 -0.0593360284
O  O56  1  0.88250000  0.85550000  0.56760000  1.0 -0.0593360284
O  O57  1  0.56760000  0.85550000  0.88250000  1.0 -0.0593360284
O  O58  1  0.43240000  0.14450000  0.88250000  1.0 -0.0593360284
O  O59  1  0.43240000  0.85550000  0.11750000  1.0 -0.0593360284
O  O60  1  0.56760000  0.14450000  0.11750000  1.0 -0.0593360284
O  O61  1  0.88250000  0.56760000  0.85550000  1.0 -0.0593360284
O  O62  1  0.88250000  0.43240000  0.14450000  1.0 -0.0593360284
O  O63  1  0.11750000  0.43240000  0.85550000  1.0 -0.0593360284
O  O64  1  0.11750000  0.56760000  0.14450000  1.0 -0.0593360284
O  O65  1  0.85550000  0.88250000  0.56760000  1.0 -0.0593360284
O  O66  1  0.14450000  0.88250000  0.43240000  1.0 -0.0593360284
O  O67  1  0.85550000  0.11750000  0.43240000  1.0 -0.0593360284
O  O68  1  0.14450000  0.11750000  0.56760000  1.0 -0.0593360284
O  O69  1  0.85550000  0.56760000  0.11750000  1.0 -0.0593360284
O  O70  1  0.14450000  0.43240000  0.11750000  1.0 -0.0593360284
O  O71  1  0.85550000  0.43240000  0.88250000  1.0 -0.0593360284
O  O72  1  0.14450000  0.56760000  0.88250000  1.0 -0.0593360284
O  O73  1  0.56760000  0.88250000  0.14450000  1.0 -0.0593360284
O  O74  1  0.43240000  0.88250000  0.85550000  1.0 -0.0593360284
O  O75  1  0.43240000  0.11750000  0.14450000  1.0 -0.0593360284
O  O76  1  0.56760000  0.11750000  0.85550000  1.0 -0.0593360284
O  O77  1  0.88250000  0.85550000  0.43240000  1.0 -0.0593360284
O  O78  1  0.88250000  0.14450000  0.56760000  1.0 -0.0593360284
O  O79  1  0.11750000  0.85550000  0.56760000  1.0 -0.0593360284
O  O80  1  0.11750000  0.14450000  0.43240000  1.0 -0.0593360284
