# DDEC6 charges by PACMAN v1.1 (https://github.com/mtap-research/PACMAN-charge/)
data_LUJJOQ_ASR_pacman
_symmetry_space_group_name_H-M   'P 1'
_cell_length_a   33.14360000
_cell_length_b   12.18660000
_cell_length_c   18.71130000
_cell_angle_alpha   90.00000000
_cell_angle_beta   90.00000000
_cell_angle_gamma   90.00000000
_symmetry_Int_Tables_number   1
_chemical_formula_structural   CoH30C58S2N6(OF13)2
_chemical_formula_sum   'Co4 H120 C232 S8 N24 O8 F104'
_cell_volume   7557.63993880
_cell_formula_units_Z   4
loop_
 _symmetry_equiv_pos_site_id
 _symmetry_equiv_pos_as_xyz
  1  'x, y, z'
loop_
 _atom_site_type_symbol
 _atom_site_label
 _atom_site_symmetry_multiplicity
 _atom_site_fract_x
 _atom_site_fract_y
 _atom_site_fract_z
 _atom_site_occupancy
 _atom_site_charge
Co  Co1  1  0.82912000  0.25000000  0.25000000  1.0 0.582661723
Co  Co2  1  0.17088000  0.75000000  0.75000000  1.0 0.582661723
Co  Co3  1  0.67088000  0.75000000  0.25000000  1.0 0.582661723
Co  Co4  1  0.32912000  0.25000000  0.75000000  1.0 0.582661723
H  H1  1  0.81221000  0.26935000  0.09076000  1.0 0.0956003293
H  H2  1  0.18779000  0.73065000  0.90924000  1.0 0.0956003293
H  H3  1  0.68779000  0.73065000  0.09076000  1.0 0.0956003293
H  H4  1  0.31221000  0.26935000  0.90924000  1.0 0.0956003293
H  H5  1  0.68779000  0.76935000  0.40924000  1.0 0.0956003293
H  H6  1  0.31221000  0.23065000  0.59076000  1.0 0.0956003293
H  H7  1  0.81221000  0.23065000  0.40924000  1.0 0.0956003293
H  H8  1  0.18779000  0.76935000  0.59076000  1.0 0.0956003293
H  H9  1  0.75593000  0.33062000  0.01101000  1.0 0.1214491787
H  H10  1  0.24407000  0.66938000  0.98899000  1.0 0.1214491787
H  H11  1  0.74407000  0.66938000  0.01101000  1.0 0.1214491787
H  H12  1  0.25593000  0.33062000  0.98899000  1.0 0.1214491787
H  H13  1  0.74407000  0.83062000  0.48899000  1.0 0.1214491787
H  H14  1  0.25593000  0.16938000  0.51101000  1.0 0.1214491787
H  H15  1  0.75593000  0.16938000  0.48899000  1.0 0.1214491787
H  H16  1  0.24407000  0.83062000  0.51101000  1.0 0.1214491787
H  H17  1  0.69009000  0.42451000  0.20278000  1.0 0.1214491787
H  H18  1  0.30991000  0.57549000  0.79722000  1.0 0.1214491787
H  H19  1  0.80991000  0.57549000  0.20278000  1.0 0.1214491787
H  H20  1  0.19009000  0.42451000  0.79722000  1.0 0.1214491787
H  H21  1  0.80991000  0.92451000  0.29722000  1.0 0.1214491787
H  H22  1  0.19009000  0.07549000  0.70278000  1.0 0.1214491787
H  H23  1  0.69009000  0.07549000  0.29722000  1.0 0.1214491787
H  H24  1  0.30991000  0.92451000  0.70278000  1.0 0.1214491787
H  H25  1  0.74931000  0.36928000  0.27310000  1.0 0.089268384
H  H26  1  0.25069000  0.63072000  0.72690000  1.0 0.089268384
H  H27  1  0.75069000  0.63072000  0.27310000  1.0 0.089268384
H  H28  1  0.24931000  0.36928000  0.72690000  1.0 0.089268384
H  H29  1  0.75069000  0.86928000  0.22690000  1.0 0.089268384
H  H30  1  0.24931000  0.13072000  0.77310000  1.0 0.089268384
H  H31  1  0.74931000  0.13072000  0.22690000  1.0 0.089268384
H  H32  1  0.25069000  0.86928000  0.77310000  1.0 0.089268384
H  H33  1  0.66449000  0.65611000  0.95157000  1.0 0.1121563858
H  H34  1  0.33551000  0.34389000  0.04843000  1.0 0.1121563858
H  H35  1  0.83551000  0.34389000  0.95157000  1.0 0.1121563858
H  H36  1  0.16449000  0.65611000  0.04843000  1.0 0.1121563858
H  H37  1  0.83551000  0.15611000  0.54843000  1.0 0.1121563858
H  H38  1  0.16449000  0.84389000  0.45157000  1.0 0.1121563858
H  H39  1  0.66449000  0.84389000  0.54843000  1.0 0.1121563858
H  H40  1  0.33551000  0.15611000  0.45157000  1.0 0.1121563858
H  H41  1  0.61047000  0.74882000  0.88152000  1.0 0.1121563858
H  H42  1  0.38953000  0.25118000  0.11848000  1.0 0.1214491787
H  H43  1  0.88953000  0.25118000  0.88152000  1.0 0.1121563858
H  H44  1  0.11047000  0.74882000  0.11848000  1.0 0.1121563858
H  H45  1  0.88953000  0.24882000  0.61848000  1.0 0.1121563858
H  H46  1  0.11047000  0.75118000  0.38152000  1.0 0.1214491787
H  H47  1  0.61047000  0.75118000  0.61848000  1.0 0.1121563858
H  H48  1  0.38953000  0.24882000  0.38152000  1.0 0.1121563858
H  H49  1  0.54287000  0.66107000  0.86780000  1.0 0.1214491787
H  H50  1  0.45713000  0.33893000  0.13220000  1.0 0.1214491787
H  H51  1  0.95713000  0.33893000  0.86780000  1.0 0.1214491787
H  H52  1  0.04287000  0.66107000  0.13220000  1.0 0.1214491787
H  H53  1  0.95713000  0.16107000  0.63220000  1.0 0.1214491787
H  H54  1  0.04287000  0.83893000  0.36780000  1.0 0.1214491787
H  H55  1  0.54287000  0.83893000  0.63220000  1.0 0.1214491787
H  H56  1  0.45713000  0.16107000  0.36780000  1.0 0.1214491787
H  H57  1  0.92978000  0.54986000  0.16725000  1.0 0.1214491787
H  H58  1  0.07022000  0.45014000  0.83275000  1.0 0.1214491787
H  H59  1  0.57022000  0.45014000  0.16725000  1.0 0.1214491787
H  H60  1  0.42978000  0.54986000  0.83275000  1.0 0.1214491787
H  H61  1  0.57022000  0.04986000  0.33275000  1.0 0.1214491787
H  H62  1  0.42978000  0.95014000  0.66725000  1.0 0.1214491787
H  H63  1  0.92978000  0.95014000  0.33275000  1.0 0.1214491787
H  H64  1  0.07022000  0.04986000  0.66725000  1.0 0.1214491787
H  H65  1  0.86693000  0.47550000  0.22087000  1.0 0.089268384
H  H66  1  0.13307000  0.52450000  0.77913000  1.0 0.089268384
H  H67  1  0.63307000  0.52450000  0.22087000  1.0 0.089268384
H  H68  1  0.36693000  0.47550000  0.77913000  1.0 0.089268384
H  H69  1  0.63307000  0.97550000  0.27913000  1.0 0.089268384
H  H70  1  0.36693000  0.02450000  0.72087000  1.0 0.089268384
H  H71  1  0.86693000  0.02450000  0.27913000  1.0 0.089268384
H  H72  1  0.13307000  0.97550000  0.72087000  1.0 0.089268384
H  H73  1  0.88973000  0.16259000  0.14031000  1.0 0.089268384
H  H74  1  0.11027000  0.83741000  0.85969000  1.0 0.089268384
H  H75  1  0.61027000  0.83741000  0.14031000  1.0 0.089268384
H  H76  1  0.38973000  0.16259000  0.85969000  1.0 0.089268384
H  H77  1  0.61027000  0.66259000  0.35969000  1.0 0.089268384
H  H78  1  0.38973000  0.33741000  0.64031000  1.0 0.089268384
H  H79  1  0.88973000  0.33741000  0.35969000  1.0 0.089268384
H  H80  1  0.11027000  0.66259000  0.64031000  1.0 0.089268384
H  H81  1  0.95385000  0.22353000  0.08363000  1.0 0.1214491787
H  H82  1  0.04615000  0.77647000  0.91637000  1.0 0.1214491787
H  H83  1  0.54615000  0.77647000  0.08363000  1.0 0.1214491787
H  H84  1  0.45385000  0.22353000  0.91637000  1.0 0.1214491787
H  H85  1  0.54615000  0.72353000  0.41637000  1.0 0.1214491787
H  H86  1  0.45385000  0.27647000  0.58363000  1.0 0.1214491787
H  H87  1  0.95385000  0.27647000  0.41637000  1.0 0.1214491787
H  H88  1  0.04615000  0.72353000  0.58363000  1.0 0.1214491787
H  H89  1  0.61621000  0.27860000  0.95567000  1.0 0.074040155
H  H90  1  0.38379000  0.72140000  0.04433000  1.0 0.074040155
H  H91  1  0.88379000  0.72140000  0.95567000  1.0 0.074040155
H  H92  1  0.11621000  0.27860000  0.04433000  1.0 0.074040155
H  H93  1  0.88379000  0.77860000  0.54433000  1.0 0.074040155
H  H94  1  0.11621000  0.22140000  0.45567000  1.0 0.074040155
H  H95  1  0.61621000  0.22140000  0.54433000  1.0 0.074040155
H  H96  1  0.38379000  0.77860000  0.45567000  1.0 0.074040155
H  H97  1  0.56272000  0.26338000  0.93975000  1.0 0.074040155
H  H98  1  0.43728000  0.73662000  0.06025000  1.0 0.074040155
H  H99  1  0.93728000  0.73662000  0.93975000  1.0 0.0789598802
H  H100  1  0.06272000  0.26338000  0.06025000  1.0 0.074040155
H  H101  1  0.93728000  0.76338000  0.56025000  1.0 0.074040155
H  H102  1  0.06272000  0.23662000  0.43975000  1.0 0.074040155
H  H103  1  0.56272000  0.23662000  0.56025000  1.0 0.074040155
H  H104  1  0.43728000  0.76338000  0.43975000  1.0 0.074040155
H  H105  1  0.59517000  0.11034000  0.01341000  1.0 0.1366698145
H  H106  1  0.40483000  0.88966000  0.98659000  1.0 0.1366698145
H  H107  1  0.90483000  0.88966000  0.01341000  1.0 0.1366698145
H  H108  1  0.09517000  0.11034000  0.98659000  1.0 0.1366698145
H  H109  1  0.90483000  0.61034000  0.48659000  1.0 0.1366698145
H  H110  1  0.09517000  0.38966000  0.51341000  1.0 0.1366698145
H  H111  1  0.59517000  0.38966000  0.48659000  1.0 0.1366698145
H  H112  1  0.40483000  0.61034000  0.51341000  1.0 0.1366698145
H  H113  1  0.60898000  0.20780000  0.07986000  1.0 0.1366698145
H  H114  1  0.39102000  0.79220000  0.92014000  1.0 0.1366698145
H  H115  1  0.89102000  0.79220000  0.07986000  1.0 0.1366698145
H  H116  1  0.10898000  0.20780000  0.92014000  1.0 0.1366698145
H  H117  1  0.89102000  0.70780000  0.42014000  1.0 0.1366698145
H  H118  1  0.10898000  0.29220000  0.57986000  1.0 0.1366698145
H  H119  1  0.60898000  0.29220000  0.42014000  1.0 0.1366698145
H  H120  1  0.39102000  0.70780000  0.57986000  1.0 0.1366698145
C  C1  1  0.82095000  0.03957000  0.16386000  1.0 0.2460947409
C  C2  1  0.17905000  0.96043000  0.83614000  1.0 0.2460947409
C  C3  1  0.67905000  0.96043000  0.16386000  1.0 0.2460947409
C  C4  1  0.32095000  0.03957000  0.83614000  1.0 0.2460947409
C  C5  1  0.67905000  0.53957000  0.33614000  1.0 0.2460947409
C  C6  1  0.32095000  0.46043000  0.66386000  1.0 0.2460947409
C  C7  1  0.82095000  0.46043000  0.33614000  1.0 0.2460947409
C  C8  1  0.17905000  0.53957000  0.66386000  1.0 0.2460947409
C  C9  1  0.78471000  0.30528000  0.11316000  1.0 0.089268384
C  C10  1  0.21529000  0.69472000  0.88684000  1.0 0.089268384
C  C11  1  0.71529000  0.69472000  0.11316000  1.0 0.089268384
C  C12  1  0.28471000  0.30528000  0.88684000  1.0 0.089268384
C  C13  1  0.71529000  0.80528000  0.38684000  1.0 0.089268384
C  C14  1  0.28471000  0.19472000  0.61316000  1.0 0.089268384
C  C15  1  0.78471000  0.19472000  0.38684000  1.0 0.089268384
C  C16  1  0.21529000  0.80528000  0.61316000  1.0 0.089268384
C  C17  1  0.75293000  0.33798000  0.06915000  1.0 -0.1696001891
C  C18  1  0.24707000  0.66202000  0.93085000  1.0 -0.1696001891
C  C19  1  0.74707000  0.66202000  0.06915000  1.0 -0.1696001891
C  C20  1  0.25293000  0.33798000  0.93085000  1.0 -0.1696001891
C  C21  1  0.74707000  0.83798000  0.43085000  1.0 -0.1696001891
C  C22  1  0.25293000  0.16202000  0.56915000  1.0 -0.1696001891
C  C23  1  0.75293000  0.16202000  0.43085000  1.0 -0.1696001891
C  C24  1  0.24707000  0.83798000  0.56915000  1.0 -0.1696001891
C  C25  1  0.71755000  0.38291000  0.09967000  1.0 0.1640393212
C  C26  1  0.28245000  0.61709000  0.90033000  1.0 0.1640393212
C  C27  1  0.78245000  0.61709000  0.09967000  1.0 0.1640393212
C  C28  1  0.21755000  0.38291000  0.90033000  1.0 0.1640393212
C  C29  1  0.78245000  0.88291000  0.40033000  1.0 0.1640393212
C  C30  1  0.21755000  0.11709000  0.59967000  1.0 0.1640393212
C  C31  1  0.71755000  0.11709000  0.40033000  1.0 0.1640393212
C  C32  1  0.28245000  0.88291000  0.59967000  1.0 0.1640393212
C  C33  1  0.71632000  0.39059000  0.17495000  1.0 -0.1586360429
C  C34  1  0.28368000  0.60941000  0.82505000  1.0 -0.1586360429
C  C35  1  0.78368000  0.60941000  0.17495000  1.0 -0.1586360429
C  C36  1  0.21632000  0.39059000  0.82505000  1.0 -0.1586360429
C  C37  1  0.78368000  0.89059000  0.32505000  1.0 -0.1586360429
C  C38  1  0.21632000  0.10941000  0.67495000  1.0 -0.1586360429
C  C39  1  0.71632000  0.10941000  0.32505000  1.0 -0.1586360429
C  C40  1  0.28368000  0.89059000  0.67495000  1.0 -0.1586360429
C  C41  1  0.74979000  0.35916000  0.21494000  1.0 0.0789598802
C  C42  1  0.25021000  0.64084000  0.78506000  1.0 0.0789598802
C  C43  1  0.75021000  0.64084000  0.21494000  1.0 0.0789598802
C  C44  1  0.24979000  0.35916000  0.78506000  1.0 0.0789598802
C  C45  1  0.75021000  0.85916000  0.28506000  1.0 0.0789598802
C  C46  1  0.24979000  0.14084000  0.71494000  1.0 0.0789598802
C  C47  1  0.74979000  0.14084000  0.28506000  1.0 0.0789598802
C  C48  1  0.25021000  0.85916000  0.71494000  1.0 0.0789598802
C  C49  1  0.68512000  0.42372000  0.05729000  1.0 -0.102630953
C  C50  1  0.31488000  0.57628000  0.94271000  1.0 -0.102630953
C  C51  1  0.81488000  0.57628000  0.05729000  1.0 -0.102630953
C  C52  1  0.18512000  0.42372000  0.94271000  1.0 -0.102630953
C  C53  1  0.81488000  0.92372000  0.44271000  1.0 -0.102630953
C  C54  1  0.18512000  0.07628000  0.55729000  1.0 -0.102630953
C  C55  1  0.68512000  0.07628000  0.44271000  1.0 -0.102630953
C  C56  1  0.31488000  0.92372000  0.55729000  1.0 -0.102630953
C  C57  1  0.65728000  0.46552000  0.02386000  1.0 -0.0621250999
C  C58  1  0.34272000  0.53448000  0.97614000  1.0 -0.0621250999
C  C59  1  0.84272000  0.53448000  0.02386000  1.0 -0.0621250999
C  C60  1  0.15728000  0.46552000  0.97614000  1.0 -0.0621250999
C  C61  1  0.84272000  0.96552000  0.47614000  1.0 -0.0621250999
C  C62  1  0.15728000  0.03448000  0.52386000  1.0 -0.0621250999
C  C63  1  0.65728000  0.03448000  0.47614000  1.0 -0.065045707
C  C64  1  0.34272000  0.96552000  0.52386000  1.0 -0.065045707
C  C65  1  0.62653000  0.51913000  0.98323000  1.0 0.0285751093
C  C66  1  0.37347000  0.48087000  0.01677000  1.0 0.0285751093
C  C67  1  0.87347000  0.48087000  0.98323000  1.0 0.0285751093
C  C68  1  0.12653000  0.51913000  0.01677000  1.0 0.0285751093
C  C69  1  0.87347000  0.01913000  0.51677000  1.0 0.0285751093
C  C70  1  0.12653000  0.98087000  0.48323000  1.0 0.0285751093
C  C71  1  0.62653000  0.98087000  0.51677000  1.0 0.0285751093
C  C72  1  0.37347000  0.01913000  0.48323000  1.0 0.0285751093
C  C73  1  0.63442000  0.61940000  0.94785000  1.0 -0.091144671
C  C74  1  0.36558000  0.38060000  0.05215000  1.0 -0.091144671
C  C75  1  0.86558000  0.38060000  0.94785000  1.0 -0.091144671
C  C76  1  0.13442000  0.61940000  0.05215000  1.0 -0.091144671
C  C77  1  0.86558000  0.11940000  0.55215000  1.0 -0.091144671
C  C78  1  0.13442000  0.88060000  0.44785000  1.0 -0.091144671
C  C79  1  0.63442000  0.88060000  0.55215000  1.0 -0.102630953
C  C80  1  0.36558000  0.11940000  0.44785000  1.0 -0.091144671
C  C81  1  0.60408000  0.67089000  0.90827000  1.0 -0.091144671
C  C82  1  0.39592000  0.32911000  0.09173000  1.0 -0.091144671
C  C83  1  0.89592000  0.32911000  0.90827000  1.0 -0.091144671
C  C84  1  0.10408000  0.67089000  0.09173000  1.0 -0.091144671
C  C85  1  0.89592000  0.17089000  0.59173000  1.0 -0.091144671
C  C86  1  0.10408000  0.82911000  0.40827000  1.0 -0.091144671
C  C87  1  0.60408000  0.82911000  0.59173000  1.0 -0.091144671
C  C88  1  0.39592000  0.17089000  0.40827000  1.0 -0.091144671
C  C89  1  0.56613000  0.62256000  0.90065000  1.0 -0.0621250999
C  C90  1  0.43387000  0.37744000  0.09935000  1.0 -0.0621250999
C  C91  1  0.93387000  0.37744000  0.90065000  1.0 -0.0621250999
C  C92  1  0.06613000  0.62256000  0.09935000  1.0 -0.0621250999
C  C93  1  0.93387000  0.12256000  0.59935000  1.0 -0.0621250999
C  C94  1  0.06613000  0.87744000  0.40065000  1.0 -0.0621250999
C  C95  1  0.56613000  0.87744000  0.59935000  1.0 -0.065045707
C  C96  1  0.43387000  0.12256000  0.40065000  1.0 -0.0621250999
C  C97  1  0.55707000  0.52121000  0.93402000  1.0 0.0285751093
C  C98  1  0.44293000  0.47879000  0.06598000  1.0 0.0285751093
C  C99  1  0.94293000  0.47879000  0.93402000  1.0 0.0285751093
C  C100  1  0.05707000  0.52121000  0.06598000  1.0 0.0285751093
C  C101  1  0.94293000  0.02121000  0.56598000  1.0 0.0285751093
C  C102  1  0.05707000  0.97879000  0.43402000  1.0 0.0285751093
C  C103  1  0.55707000  0.97879000  0.56598000  1.0 0.0285751093
C  C104  1  0.44293000  0.02121000  0.43402000  1.0 0.0285751093
C  C105  1  0.58743000  0.47257000  0.97705000  1.0 0.1948525309
C  C106  1  0.41257000  0.52743000  0.02295000  1.0 0.1952817887
C  C107  1  0.91257000  0.52743000  0.97705000  1.0 0.1948525309
C  C108  1  0.08743000  0.47257000  0.02295000  1.0 0.1952817887
C  C109  1  0.91257000  0.97257000  0.52295000  1.0 0.1952817887
C  C110  1  0.08743000  0.02743000  0.47705000  1.0 0.1948525309
C  C111  1  0.58743000  0.02743000  0.52295000  1.0 0.1948525309
C  C112  1  0.41257000  0.97257000  0.47705000  1.0 0.1952817887
C  C113  1  0.51907000  0.46993000  0.92146000  1.0 -0.0621250999
C  C114  1  0.48093000  0.53007000  0.07854000  1.0 -0.0621250999
C  C115  1  0.98093000  0.53007000  0.92146000  1.0 -0.0621250999
C  C116  1  0.01907000  0.46993000  0.07854000  1.0 -0.0621250999
C  C117  1  0.98093000  0.96993000  0.57854000  1.0 -0.0621250999
C  C118  1  0.01907000  0.03007000  0.42146000  1.0 -0.0621250999
C  C119  1  0.51907000  0.03007000  0.57854000  1.0 -0.0621250999
C  C120  1  0.48093000  0.96993000  0.42146000  1.0 -0.0621250999
C  C121  1  0.98652000  0.43169000  0.09741000  1.0 -0.0809670575
C  C122  1  0.01348000  0.56831000  0.90259000  1.0 -0.0809670575
C  C123  1  0.51348000  0.56831000  0.09741000  1.0 -0.0809670575
C  C124  1  0.48652000  0.43169000  0.90259000  1.0 -0.0809670575
C  C125  1  0.51348000  0.93169000  0.40259000  1.0 -0.0809670575
C  C126  1  0.48652000  0.06831000  0.59741000  1.0 -0.0809670575
C  C127  1  0.98652000  0.06831000  0.40259000  1.0 -0.0809670575
C  C128  1  0.01348000  0.93169000  0.59741000  1.0 -0.0809670575
C  C129  1  0.94893000  0.39220000  0.12320000  1.0 0.1540394648
C  C130  1  0.05107000  0.60780000  0.87680000  1.0 0.1540394648
C  C131  1  0.55107000  0.60780000  0.12320000  1.0 0.1540394648
C  C132  1  0.44893000  0.39220000  0.87680000  1.0 0.1540394648
C  C133  1  0.55107000  0.89220000  0.37680000  1.0 0.1540394648
C  C134  1  0.44893000  0.10780000  0.62320000  1.0 0.1540394648
C  C135  1  0.94893000  0.10780000  0.37680000  1.0 0.1540394648
C  C136  1  0.05107000  0.89220000  0.62320000  1.0 0.1540394648
C  C137  1  0.92249000  0.46272000  0.16127000  1.0 -0.1696001891
C  C138  1  0.07751000  0.53728000  0.83873000  1.0 -0.1696001891
C  C139  1  0.57751000  0.53728000  0.16127000  1.0 -0.1696001891
C  C140  1  0.42249000  0.46272000  0.83873000  1.0 -0.1696001891
C  C141  1  0.57751000  0.96272000  0.33873000  1.0 -0.1696001891
C  C142  1  0.42249000  0.03728000  0.66127000  1.0 -0.1696001891
C  C143  1  0.92249000  0.03728000  0.33873000  1.0 -0.1696001891
C  C144  1  0.07751000  0.96272000  0.66127000  1.0 -0.1696001891
C  C145  1  0.88691000  0.42195000  0.19015000  1.0 0.074040155
C  C146  1  0.11309000  0.57805000  0.80985000  1.0 0.074040155
C  C147  1  0.61309000  0.57805000  0.19015000  1.0 0.074040155
C  C148  1  0.38691000  0.42195000  0.80985000  1.0 0.074040155
C  C149  1  0.61309000  0.92195000  0.30985000  1.0 0.074040155
C  C150  1  0.38691000  0.07805000  0.69015000  1.0 0.074040155
C  C151  1  0.88691000  0.07805000  0.30985000  1.0 0.074040155
C  C152  1  0.11309000  0.92195000  0.69015000  1.0 0.074040155
C  C153  1  0.89991000  0.24768000  0.14561000  1.0 0.0789598802
C  C154  1  0.10009000  0.75232000  0.85439000  1.0 0.0789598802
C  C155  1  0.60009000  0.75232000  0.14561000  1.0 0.0789598802
C  C156  1  0.39991000  0.24768000  0.85439000  1.0 0.0789598802
C  C157  1  0.60009000  0.74768000  0.35439000  1.0 0.0789598802
C  C158  1  0.39991000  0.25232000  0.64561000  1.0 0.0789598802
C  C159  1  0.89991000  0.25232000  0.35439000  1.0 0.0789598802
C  C160  1  0.10009000  0.74768000  0.64561000  1.0 0.0789598802
C  C161  1  0.93591000  0.28216000  0.11455000  1.0 -0.1696001891
C  C162  1  0.06409000  0.71784000  0.88545000  1.0 -0.1696001891
C  C163  1  0.56409000  0.71784000  0.11455000  1.0 -0.1696001891
C  C164  1  0.43591000  0.28216000  0.88545000  1.0 -0.1696001891
C  C165  1  0.56409000  0.78216000  0.38545000  1.0 -0.1696001891
C  C166  1  0.43591000  0.21784000  0.61455000  1.0 -0.1696001891
C  C167  1  0.93591000  0.21784000  0.38545000  1.0 -0.1696001891
C  C168  1  0.06409000  0.78216000  0.61455000  1.0 -0.1696001891
C  C169  1  0.58600000  0.27718000  0.98143000  1.0 0.0789598802
C  C170  1  0.41400000  0.72282000  0.01857000  1.0 0.0789598802
C  C171  1  0.91400000  0.72282000  0.98143000  1.0 0.0789598802
C  C172  1  0.08600000  0.27718000  0.01857000  1.0 0.0789598802
C  C173  1  0.91400000  0.77718000  0.51857000  1.0 0.0789598802
C  C174  1  0.08600000  0.22282000  0.48143000  1.0 0.0789598802
C  C175  1  0.58600000  0.22282000  0.51857000  1.0 0.0789598802
C  C176  1  0.41400000  0.77718000  0.48143000  1.0 0.0789598802
C  C177  1  0.58627000  0.18899000  0.03832000  1.0 -0.3202612475
C  C178  1  0.41373000  0.81101000  0.96168000  1.0 -0.3202612475
C  C179  1  0.91373000  0.81101000  0.03832000  1.0 -0.3202612475
C  C180  1  0.08627000  0.18899000  0.96168000  1.0 -0.3202612475
C  C181  1  0.91373000  0.68899000  0.46168000  1.0 -0.3202612475
C  C182  1  0.08627000  0.31101000  0.53832000  1.0 -0.3202612475
C  C183  1  0.58627000  0.31101000  0.46168000  1.0 -0.3202612475
C  C184  1  0.41373000  0.68899000  0.53832000  1.0 -0.3202612475
C  C185  1  0.54617000  0.17024000  0.07559000  1.0 0.4238245524
C  C186  1  0.45383000  0.82976000  0.92441000  1.0 0.4238245524
C  C187  1  0.95383000  0.82976000  0.07559000  1.0 0.4238245524
C  C188  1  0.04617000  0.17024000  0.92441000  1.0 0.4238245524
C  C189  1  0.95383000  0.67024000  0.42441000  1.0 0.4238245524
C  C190  1  0.04617000  0.32976000  0.57559000  1.0 0.4238245524
C  C191  1  0.54617000  0.32976000  0.42441000  1.0 0.4238245524
C  C192  1  0.45383000  0.67024000  0.57559000  1.0 0.4238245524
C  C193  1  0.54717000  0.05804000  0.11563000  1.0 0.257173106
C  C194  1  0.45283000  0.94196000  0.88437000  1.0 0.257173106
C  C195  1  0.95283000  0.94196000  0.11563000  1.0 0.257173106
C  C196  1  0.04717000  0.05804000  0.88437000  1.0 0.257173106
C  C197  1  0.95283000  0.55804000  0.38437000  1.0 0.257173106
C  C198  1  0.04717000  0.44196000  0.61563000  1.0 0.257173106
C  C199  1  0.54717000  0.44196000  0.38437000  1.0 0.257173106
C  C200  1  0.45283000  0.55804000  0.61563000  1.0 0.257173106
C  C201  1  0.51312000  0.02716000  0.17031000  1.0 0.2801406439
C  C202  1  0.48688000  0.97284000  0.82969000  1.0 0.2801406439
C  C203  1  0.98688000  0.97284000  0.17031000  1.0 0.2801406439
C  C204  1  0.01312000  0.02716000  0.82969000  1.0 0.2801406439
C  C205  1  0.98688000  0.52716000  0.32969000  1.0 0.2801406439
C  C206  1  0.01312000  0.47284000  0.67031000  1.0 0.2801406439
C  C207  1  0.51312000  0.47284000  0.32969000  1.0 0.2801406439
C  C208  1  0.48688000  0.52716000  0.67031000  1.0 0.2801406439
C  C209  1  0.46843000  0.03134000  0.14486000  1.0 0.2801406439
C  C210  1  0.53157000  0.96866000  0.85514000  1.0 0.2801406439
C  C211  1  0.03157000  0.96866000  0.14486000  1.0 0.2801406439
C  C212  1  0.96843000  0.03134000  0.85514000  1.0 0.2801406439
C  C213  1  0.03157000  0.53134000  0.35514000  1.0 0.2801406439
C  C214  1  0.96843000  0.46866000  0.64486000  1.0 0.2801406439
C  C215  1  0.46843000  0.46866000  0.35514000  1.0 0.2801406439
C  C216  1  0.53157000  0.53134000  0.64486000  1.0 0.2801406439
C  C217  1  0.43915000  0.96548000  0.19460000  1.0 0.2143993303
C  C218  1  0.56085000  0.03452000  0.80540000  1.0 0.2143993303
C  C219  1  0.06085000  0.03452000  0.19460000  1.0 0.2143993303
C  C220  1  0.93915000  0.96548000  0.80540000  1.0 0.2143993303
C  C221  1  0.06085000  0.46548000  0.30540000  1.0 0.2143993303
C  C222  1  0.93915000  0.53452000  0.69460000  1.0 0.2143993303
C  C223  1  0.43915000  0.53452000  0.30540000  1.0 0.2143993303
C  C224  1  0.56085000  0.46548000  0.69460000  1.0 0.2143993303
C  C225  1  0.39410000  0.00315000  0.18753000  1.0 0.582661723
C  C226  1  0.60590000  0.99685000  0.81247000  1.0 0.582661723
C  C227  1  0.10590000  0.99685000  0.18753000  1.0 0.582661723
C  C228  1  0.89410000  0.00315000  0.81247000  1.0 0.582661723
C  C229  1  0.10590000  0.50315000  0.31247000  1.0 0.582661723
C  C230  1  0.89410000  0.49685000  0.68753000  1.0 0.582661723
C  C231  1  0.39410000  0.49685000  0.31247000  1.0 0.582661723
C  C232  1  0.60590000  0.50315000  0.68753000  1.0 0.582661723
S  S1  1  0.81310000  0.92522000  0.12270000  1.0 -0.3396607564
S  S2  1  0.18690000  0.07478000  0.87730000  1.0 -0.3396607564
S  S3  1  0.68690000  0.07478000  0.12270000  1.0 -0.3396607564
S  S4  1  0.31310000  0.92522000  0.87730000  1.0 -0.3396607564
S  S5  1  0.68690000  0.42522000  0.37730000  1.0 -0.3396607564
S  S6  1  0.31310000  0.57478000  0.62270000  1.0 -0.3396607564
S  S7  1  0.81310000  0.57478000  0.37730000  1.0 -0.3396607564
S  S8  1  0.18690000  0.42522000  0.62270000  1.0 -0.3396607564
N  N1  1  0.82793000  0.12351000  0.19482000  1.0 -0.4726372511
N  N2  1  0.17207000  0.87649000  0.80518000  1.0 -0.4726372511
N  N3  1  0.67207000  0.87649000  0.19482000  1.0 -0.4726372511
N  N4  1  0.32793000  0.12351000  0.80518000  1.0 -0.4726372511
N  N5  1  0.67207000  0.62351000  0.30518000  1.0 -0.4726372511
N  N6  1  0.32793000  0.37649000  0.69482000  1.0 -0.4726372511
N  N7  1  0.82793000  0.37649000  0.30518000  1.0 -0.4726372511
N  N8  1  0.17207000  0.62351000  0.69482000  1.0 -0.4726372511
N  N9  1  0.78396000  0.31650000  0.18551000  1.0 -0.1971806709
N  N10  1  0.21604000  0.68350000  0.81449000  1.0 -0.1971806709
N  N11  1  0.71604000  0.68350000  0.18551000  1.0 -0.1971806709
N  N12  1  0.28396000  0.31650000  0.81449000  1.0 -0.1971806709
N  N13  1  0.71604000  0.81650000  0.31449000  1.0 -0.1971806709
N  N14  1  0.28396000  0.18350000  0.68551000  1.0 -0.1971806709
N  N15  1  0.78396000  0.18350000  0.31449000  1.0 -0.1971806709
N  N16  1  0.21604000  0.81650000  0.68551000  1.0 -0.1971806709
N  N17  1  0.87504000  0.31500000  0.18409000  1.0 -0.2072207556
N  N18  1  0.12496000  0.68500000  0.81591000  1.0 -0.2072207556
N  N19  1  0.62496000  0.68500000  0.18409000  1.0 -0.2072207556
N  N20  1  0.37504000  0.31500000  0.81591000  1.0 -0.2072207556
N  N21  1  0.62496000  0.81500000  0.31591000  1.0 -0.2072207556
N  N22  1  0.37504000  0.18500000  0.68409000  1.0 -0.2072207556
N  N23  1  0.87504000  0.18500000  0.31591000  1.0 -0.2072207556
N  N24  1  0.12496000  0.81500000  0.68409000  1.0 -0.2072207556
O  O1  1  0.57853000  0.38057000  0.01692000  1.0 -0.1901045061
O  O2  1  0.42147000  0.61943000  0.98308000  1.0 -0.1901045061
O  O3  1  0.92147000  0.61943000  0.01692000  1.0 -0.1901045061
O  O4  1  0.07853000  0.38057000  0.98308000  1.0 -0.1901045061
O  O5  1  0.92147000  0.88057000  0.48308000  1.0 -0.1901045061
O  O6  1  0.07853000  0.11943000  0.51692000  1.0 -0.1901045061
O  O7  1  0.57853000  0.11943000  0.48308000  1.0 -0.1901045061
O  O8  1  0.42147000  0.88057000  0.51692000  1.0 -0.1901045061
F  F1  1  0.53681000  0.25117000  0.12575000  1.0 -0.1826385696
F  F2  1  0.46319000  0.74883000  0.87425000  1.0 -0.1901045061
F  F3  1  0.96319000  0.74883000  0.12575000  1.0 -0.1826385696
F  F4  1  0.03681000  0.25117000  0.87425000  1.0 -0.1826385696
F  F5  1  0.96319000  0.75117000  0.37425000  1.0 -0.1901045061
F  F6  1  0.03681000  0.24883000  0.62575000  1.0 -0.1826385696
F  F7  1  0.53681000  0.24883000  0.37425000  1.0 -0.1826385696
F  F8  1  0.46319000  0.75117000  0.62575000  1.0 -0.1901045061
F  F9  1  0.51434000  0.16816000  0.02670000  1.0 -0.1826385696
F  F10  1  0.48566000  0.83184000  0.97330000  1.0 -0.1826385696
F  F11  1  0.98566000  0.83184000  0.02670000  1.0 -0.1826385696
F  F12  1  0.01434000  0.16816000  0.97330000  1.0 -0.1826385696
F  F13  1  0.98566000  0.66816000  0.47330000  1.0 -0.1826385696
F  F14  1  0.01434000  0.33184000  0.52670000  1.0 -0.1826385696
F  F15  1  0.51434000  0.33184000  0.47330000  1.0 -0.1826385696
F  F16  1  0.48566000  0.66816000  0.52670000  1.0 -0.1826385696
F  F17  1  0.54914000  0.97572000  0.06470000  1.0 -0.1696001891
F  F18  1  0.45086000  0.02428000  0.93530000  1.0 -0.1696001891
F  F19  1  0.95086000  0.02428000  0.06470000  1.0 -0.1696001891
F  F20  1  0.04914000  0.97572000  0.93530000  1.0 -0.1696001891
F  F21  1  0.95086000  0.47572000  0.43530000  1.0 -0.1696001891
F  F22  1  0.04914000  0.52428000  0.56470000  1.0 -0.1696001891
F  F23  1  0.54914000  0.52428000  0.43530000  1.0 -0.1696001891
F  F24  1  0.45086000  0.47572000  0.56470000  1.0 -0.1696001891
F  F25  1  0.58257000  0.05464000  0.15494000  1.0 -0.1586360429
F  F26  1  0.41743000  0.94536000  0.84506000  1.0 -0.1586360429
F  F27  1  0.91743000  0.94536000  0.15494000  1.0 -0.1586360429
F  F28  1  0.08257000  0.05464000  0.84506000  1.0 -0.1586360429
F  F29  1  0.91743000  0.55464000  0.34506000  1.0 -0.1586360429
F  F30  1  0.08257000  0.44536000  0.65494000  1.0 -0.1586360429
F  F31  1  0.58257000  0.44536000  0.34506000  1.0 -0.1586360429
F  F32  1  0.41743000  0.55464000  0.65494000  1.0 -0.1586360429
F  F33  1  0.52136000  0.92079000  0.19142000  1.0 -0.1526886998
F  F34  1  0.47864000  0.07921000  0.80858000  1.0 -0.1526886998
F  F35  1  0.97864000  0.07921000  0.19142000  1.0 -0.1526886998
F  F36  1  0.02136000  0.92079000  0.80858000  1.0 -0.1526886998
F  F37  1  0.97864000  0.42079000  0.30858000  1.0 -0.1526886998
F  F38  1  0.02136000  0.57921000  0.69142000  1.0 -0.1526886998
F  F39  1  0.52136000  0.57921000  0.30858000  1.0 -0.1526886998
F  F40  1  0.47864000  0.42079000  0.69142000  1.0 -0.1526886998
F  F41  1  0.51564000  0.09613000  0.22834000  1.0 -0.1526886998
F  F42  1  0.48436000  0.90387000  0.77166000  1.0 -0.1526886998
F  F43  1  0.98436000  0.90387000  0.22834000  1.0 -0.1526886998
F  F44  1  0.01564000  0.09613000  0.77166000  1.0 -0.1526886998
F  F45  1  0.98436000  0.59613000  0.27166000  1.0 -0.1526886998
F  F46  1  0.01564000  0.40387000  0.72834000  1.0 -0.1526886998
F  F47  1  0.51564000  0.40387000  0.27166000  1.0 -0.1526886998
F  F48  1  0.48436000  0.59613000  0.72834000  1.0 -0.1526886998
F  F49  1  0.45688000  0.14002000  0.14373000  1.0 -0.1696001891
F  F50  1  0.54312000  0.85998000  0.85627000  1.0 -0.1696001891
F  F51  1  0.04312000  0.85998000  0.14373000  1.0 -0.1696001891
F  F52  1  0.95688000  0.14002000  0.85627000  1.0 -0.1696001891
F  F53  1  0.04312000  0.64002000  0.35627000  1.0 -0.1696001891
F  F54  1  0.95688000  0.35998000  0.64373000  1.0 -0.1696001891
F  F55  1  0.45688000  0.35998000  0.35627000  1.0 -0.1696001891
F  F56  1  0.54312000  0.64002000  0.64373000  1.0 -0.1696001891
F  F57  1  0.46476000  0.98781000  0.07751000  1.0 -0.1526886998
F  F58  1  0.53524000  0.01219000  0.92249000  1.0 -0.1526886998
F  F59  1  0.03524000  0.01219000  0.07751000  1.0 -0.1526886998
F  F60  1  0.96476000  0.98781000  0.92249000  1.0 -0.1526886998
F  F61  1  0.03524000  0.48781000  0.42249000  1.0 -0.1526886998
F  F62  1  0.96476000  0.51219000  0.57751000  1.0 -0.1526886998
F  F63  1  0.46476000  0.51219000  0.42249000  1.0 -0.1526886998
F  F64  1  0.53524000  0.48781000  0.57751000  1.0 -0.1526886998
F  F65  1  0.44175000  0.85623000  0.17622000  1.0 -0.1526886998
F  F66  1  0.55825000  0.14377000  0.82378000  1.0 -0.1526886998
F  F67  1  0.05825000  0.14377000  0.17622000  1.0 -0.1526886998
F  F68  1  0.94175000  0.85623000  0.82378000  1.0 -0.1526886998
F  F69  1  0.05825000  0.35623000  0.32378000  1.0 -0.1526886998
F  F70  1  0.94175000  0.64377000  0.67622000  1.0 -0.1526886998
F  F71  1  0.44175000  0.64377000  0.32378000  1.0 -0.1526886998
F  F72  1  0.55825000  0.35623000  0.67622000  1.0 -0.1526886998
F  F73  1  0.44981000  0.97836000  0.26485000  1.0 -0.1442181934
F  F74  1  0.55019000  0.02164000  0.73515000  1.0 -0.1442181934
F  F75  1  0.05019000  0.02164000  0.26485000  1.0 -0.1442181934
F  F76  1  0.94981000  0.97836000  0.73515000  1.0 -0.1442181934
F  F77  1  0.05019000  0.47836000  0.23515000  1.0 -0.1442181934
F  F78  1  0.94981000  0.52164000  0.76485000  1.0 -0.1442181934
F  F79  1  0.44981000  0.52164000  0.23515000  1.0 -0.1442181934
F  F80  1  0.55019000  0.47836000  0.76485000  1.0 -0.1442181934
F  F81  1  0.38973000  0.10664000  0.21408000  1.0 -0.1971806709
F  F82  1  0.61027000  0.89336000  0.78592000  1.0 -0.1971806709
F  F83  1  0.11027000  0.89336000  0.21408000  1.0 -0.1971806709
F  F84  1  0.88973000  0.10664000  0.78592000  1.0 -0.1971806709
F  F85  1  0.11027000  0.60664000  0.28592000  1.0 -0.1971806709
F  F86  1  0.88973000  0.39336000  0.71408000  1.0 -0.1971806709
F  F87  1  0.38973000  0.39336000  0.28592000  1.0 -0.1971806709
F  F88  1  0.61027000  0.60664000  0.71408000  1.0 -0.1971806709
F  F89  1  0.37020000  0.93359000  0.22535000  1.0 -0.1901045061
F  F90  1  0.62980000  0.06641000  0.77465000  1.0 -0.1901045061
F  F91  1  0.12980000  0.06641000  0.22535000  1.0 -0.1901045061
F  F92  1  0.87020000  0.93359000  0.77465000  1.0 -0.1901045061
F  F93  1  0.12980000  0.43359000  0.27465000  1.0 -0.1901045061
F  F94  1  0.87020000  0.56641000  0.72535000  1.0 -0.1901045061
F  F95  1  0.37020000  0.56641000  0.27465000  1.0 -0.1971806709
F  F96  1  0.62980000  0.43359000  0.72535000  1.0 -0.1901045061
F  F97  1  0.38216000  0.00247000  0.11748000  1.0 -0.2072207556
F  F98  1  0.61784000  0.99753000  0.88252000  1.0 -0.2072207556
F  F99  1  0.11784000  0.99753000  0.11748000  1.0 -0.2072207556
F  F100  1  0.88216000  0.00247000  0.88252000  1.0 -0.2072207556
F  F101  1  0.11784000  0.50247000  0.38252000  1.0 -0.2072207556
F  F102  1  0.88216000  0.49753000  0.61748000  1.0 -0.2072207556
F  F103  1  0.38216000  0.49753000  0.38252000  1.0 -0.2072207556
F  F104  1  0.61784000  0.50247000  0.61748000  1.0 -0.2072207556
