# DDEC6 charges by PACMAN v1.1 (https://github.com/mtap-research/PACMAN-charge/)
data_LUJRIU_ASR_pacman
_symmetry_space_group_name_H-M   'P 1'
_cell_length_a   27.47550000
_cell_length_b   27.47550000
_cell_length_c   27.47550000
_cell_angle_alpha   60.00000000
_cell_angle_beta   60.00000000
_cell_angle_gamma   60.00000000
_symmetry_Int_Tables_number   1
_chemical_formula_structural   Zr3H24C102(O2F3)16
_chemical_formula_sum   'Zr12 H96 C408 O128 F192'
_cell_volume   14666.34225747
_cell_formula_units_Z   4
loop_
 _symmetry_equiv_pos_site_id
 _symmetry_equiv_pos_as_xyz
  1  'x, y, z'
loop_
 _atom_site_type_symbol
 _atom_site_label
 _atom_site_symmetry_multiplicity
 _atom_site_fract_x
 _atom_site_fract_y
 _atom_site_fract_z
 _atom_site_occupancy
 _atom_site_charge
Zr  Zr1  1  0.18644000  0.31356000  0.31356000  1.0 1.7735168942
Zr  Zr2  1  0.31356000  0.18644000  0.18644000  1.0 1.7735168942
Zr  Zr3  1  0.18644000  0.31356000  0.18644000  1.0 1.7735168942
Zr  Zr4  1  0.31356000  0.18644000  0.31356000  1.0 1.7735168942
Zr  Zr5  1  0.31356000  0.31356000  0.18644000  1.0 1.7735168942
Zr  Zr6  1  0.18644000  0.18644000  0.31356000  1.0 1.7735168942
Zr  Zr7  1  0.06356000  0.06356000  0.93644000  1.0 1.7735168942
Zr  Zr8  1  0.93644000  0.93644000  0.06356000  1.0 1.7735168942
Zr  Zr9  1  0.06356000  0.93644000  0.06356000  1.0 1.7735168942
Zr  Zr10  1  0.93644000  0.06356000  0.93644000  1.0 1.7735168942
Zr  Zr11  1  0.93644000  0.06356000  0.06356000  1.0 1.7735168942
Zr  Zr12  1  0.06356000  0.93644000  0.93644000  1.0 1.7735168942
H  H1  1  0.18139000  0.46657000  0.32965000  1.0 0.1463873088
H  H2  1  0.18444000  0.55090000  0.33062000  1.0 0.1321783251
H  H3  1  0.32965000  0.02239000  0.18139000  1.0 0.1463873088
H  H4  1  0.33062000  0.93404000  0.18444000  1.0 0.1321783251
H  H5  1  0.02239000  0.32965000  0.46657000  1.0 0.1463873088
H  H6  1  0.93404000  0.33062000  0.55090000  1.0 0.1321783251
H  H7  1  0.46657000  0.18139000  0.02239000  1.0 0.1463873088
H  H8  1  0.55090000  0.18444000  0.93404000  1.0 0.1321783251
H  H9  1  0.02239000  0.46657000  0.18139000  1.0 0.1463873088
H  H10  1  0.93404000  0.55090000  0.18444000  1.0 0.1321783251
H  H11  1  0.46657000  0.02239000  0.32965000  1.0 0.1463873088
H  H12  1  0.55090000  0.93404000  0.33062000  1.0 0.1321783251
H  H13  1  0.18139000  0.32965000  0.02239000  1.0 0.1463873088
H  H14  1  0.18444000  0.33062000  0.93404000  1.0 0.1321783251
H  H15  1  0.32965000  0.18139000  0.46657000  1.0 0.1463873088
H  H16  1  0.33062000  0.18444000  0.55090000  1.0 0.1321783251
H  H17  1  0.32965000  0.46657000  0.02239000  1.0 0.1463873088
H  H18  1  0.33062000  0.55090000  0.93404000  1.0 0.1321783251
H  H19  1  0.18139000  0.02239000  0.46657000  1.0 0.1463873088
H  H20  1  0.18444000  0.93404000  0.55090000  1.0 0.1321783251
H  H21  1  0.46657000  0.32965000  0.18139000  1.0 0.1463873088
H  H22  1  0.55090000  0.33062000  0.18444000  1.0 0.1321783251
H  H23  1  0.02239000  0.18139000  0.32965000  1.0 0.1463873088
H  H24  1  0.93404000  0.18444000  0.33062000  1.0 0.1321783251
H  H25  1  0.18139000  0.02239000  0.32965000  1.0 0.1463873088
H  H26  1  0.18444000  0.93404000  0.33062000  1.0 0.1321783251
H  H27  1  0.32965000  0.46657000  0.18139000  1.0 0.1463873088
H  H28  1  0.33062000  0.55090000  0.18444000  1.0 0.1321783251
H  H29  1  0.02239000  0.18139000  0.46657000  1.0 0.1463873088
H  H30  1  0.93404000  0.18444000  0.55090000  1.0 0.1321783251
H  H31  1  0.46657000  0.32965000  0.02239000  1.0 0.1463873088
H  H32  1  0.55090000  0.33062000  0.93404000  1.0 0.1321783251
H  H33  1  0.02239000  0.32965000  0.18139000  1.0 0.1463873088
H  H34  1  0.93404000  0.33062000  0.18444000  1.0 0.1321783251
H  H35  1  0.46657000  0.18139000  0.32965000  1.0 0.1463873088
H  H36  1  0.55090000  0.18444000  0.33062000  1.0 0.1321783251
H  H37  1  0.18139000  0.46657000  0.02239000  1.0 0.1463873088
H  H38  1  0.18444000  0.55090000  0.93404000  1.0 0.1321783251
H  H39  1  0.32965000  0.02239000  0.46657000  1.0 0.1463873088
H  H40  1  0.33062000  0.93404000  0.55090000  1.0 0.1321783251
H  H41  1  0.32965000  0.18139000  0.02239000  1.0 0.1463873088
H  H42  1  0.33062000  0.18444000  0.93404000  1.0 0.1321783251
H  H43  1  0.18139000  0.32965000  0.46657000  1.0 0.1463873088
H  H44  1  0.18444000  0.33062000  0.55090000  1.0 0.1321783251
H  H45  1  0.46657000  0.02239000  0.18139000  1.0 0.1463873088
H  H46  1  0.55090000  0.93404000  0.18444000  1.0 0.1321783251
H  H47  1  0.02239000  0.46657000  0.32965000  1.0 0.1463873088
H  H48  1  0.93404000  0.55090000  0.33062000  1.0 0.1321783251
H  H49  1  0.06861000  0.22761000  0.92035000  1.0 0.1463873088
H  H50  1  0.06556000  0.31596000  0.91938000  1.0 0.1321783251
H  H51  1  0.92035000  0.78343000  0.06861000  1.0 0.1463873088
H  H52  1  0.91938000  0.69910000  0.06556000  1.0 0.1321783251
H  H53  1  0.22761000  0.06861000  0.78343000  1.0 0.1463873088
H  H54  1  0.31596000  0.06556000  0.69910000  1.0 0.1321783251
H  H55  1  0.78343000  0.92035000  0.22761000  1.0 0.1463873088
H  H56  1  0.69910000  0.91938000  0.31596000  1.0 0.1321783251
H  H57  1  0.22761000  0.92035000  0.06861000  1.0 0.1463873088
H  H58  1  0.31596000  0.91938000  0.06556000  1.0 0.1321783251
H  H59  1  0.78343000  0.06861000  0.92035000  1.0 0.1463873088
H  H60  1  0.69910000  0.06556000  0.91938000  1.0 0.1321783251
H  H61  1  0.06861000  0.78343000  0.22761000  1.0 0.1463873088
H  H62  1  0.06556000  0.69910000  0.31596000  1.0 0.1321783251
H  H63  1  0.92035000  0.22761000  0.78343000  1.0 0.1463873088
H  H64  1  0.91938000  0.31596000  0.69910000  1.0 0.1321783251
H  H65  1  0.92035000  0.06861000  0.22761000  1.0 0.1463873088
H  H66  1  0.91938000  0.06556000  0.31596000  1.0 0.1321783251
H  H67  1  0.06861000  0.92035000  0.78343000  1.0 0.1463873088
H  H68  1  0.06556000  0.91938000  0.69910000  1.0 0.1321783251
H  H69  1  0.78343000  0.22761000  0.06861000  1.0 0.1463873088
H  H70  1  0.69910000  0.31596000  0.06556000  1.0 0.1321783251
H  H71  1  0.22761000  0.78343000  0.92035000  1.0 0.1463873088
H  H72  1  0.31596000  0.69910000  0.91938000  1.0 0.1321783251
H  H73  1  0.06861000  0.78343000  0.92035000  1.0 0.1463873088
H  H74  1  0.06556000  0.69910000  0.91938000  1.0 0.1321783251
H  H75  1  0.92035000  0.22761000  0.06861000  1.0 0.1463873088
H  H76  1  0.91938000  0.31596000  0.06556000  1.0 0.1321783251
H  H77  1  0.22761000  0.92035000  0.78343000  1.0 0.1463873088
H  H78  1  0.31596000  0.91938000  0.69910000  1.0 0.1321783251
H  H79  1  0.78343000  0.06861000  0.22761000  1.0 0.1463873088
H  H80  1  0.69910000  0.06556000  0.31596000  1.0 0.1321783251
H  H81  1  0.22761000  0.78343000  0.06861000  1.0 0.1463873088
H  H82  1  0.31596000  0.69910000  0.06556000  1.0 0.1321783251
H  H83  1  0.78343000  0.22761000  0.92035000  1.0 0.1463873088
H  H84  1  0.69910000  0.31596000  0.91938000  1.0 0.1321783251
H  H85  1  0.06861000  0.92035000  0.22761000  1.0 0.1463873088
H  H86  1  0.06556000  0.91938000  0.31596000  1.0 0.1321783251
H  H87  1  0.92035000  0.06861000  0.78343000  1.0 0.1463873088
H  H88  1  0.91938000  0.06556000  0.69910000  1.0 0.1321783251
H  H89  1  0.92035000  0.78343000  0.22761000  1.0 0.1463873088
H  H90  1  0.91938000  0.69910000  0.31596000  1.0 0.1321783251
H  H91  1  0.06861000  0.22761000  0.78343000  1.0 0.1463873088
H  H92  1  0.06556000  0.31596000  0.69910000  1.0 0.1321783251
H  H93  1  0.78343000  0.92035000  0.06861000  1.0 0.1463873088
H  H94  1  0.69910000  0.91938000  0.06556000  1.0 0.1321783251
H  H95  1  0.22761000  0.06861000  0.92035000  1.0 0.1463873088
H  H96  1  0.31596000  0.06556000  0.91938000  1.0 0.1321783251
C  C1  1  0.21094000  0.48446000  0.29966000  1.0 -0.098738779
C  C2  1  0.21310000  0.53430000  0.29990000  1.0 -0.1210655493
C  C3  1  0.25000000  0.66440000  0.21560000  1.0 0.1018655703
C  C4  1  0.25050000  0.71490000  0.21510000  1.0 0.063512258
C  C5  1  0.26700000  0.65920000  0.30500000  1.0 0.063512258
C  C6  1  0.26600000  0.61040000  0.30360000  1.0 0.0834326993
C  C7  1  0.29966000  0.00494000  0.21094000  1.0 -0.098738779
C  C8  1  0.29990000  0.95270000  0.21310000  1.0 -0.1210655493
C  C9  1  0.21560000  0.87000000  0.25000000  1.0 0.1018655703
C  C10  1  0.21510000  0.81950000  0.25050000  1.0 0.063512258
C  C11  1  0.30500000  0.76880000  0.26700000  1.0 0.063512258
C  C12  1  0.30360000  0.82000000  0.26600000  1.0 0.0834326993
C  C13  1  0.00494000  0.29966000  0.48446000  1.0 -0.098738779
C  C14  1  0.95270000  0.29990000  0.53430000  1.0 -0.1210655493
C  C15  1  0.87000000  0.21560000  0.66440000  1.0 0.1018655703
C  C16  1  0.81950000  0.21510000  0.71490000  1.0 0.063512258
C  C17  1  0.76880000  0.30500000  0.65920000  1.0 0.063512258
C  C18  1  0.82000000  0.30360000  0.61040000  1.0 0.0834326993
C  C19  1  0.48446000  0.21094000  0.00494000  1.0 -0.098738779
C  C20  1  0.53430000  0.21310000  0.95270000  1.0 -0.1210655493
C  C21  1  0.66440000  0.25000000  0.87000000  1.0 0.1018655703
C  C22  1  0.71490000  0.25050000  0.81950000  1.0 0.063512258
C  C23  1  0.65920000  0.26700000  0.76880000  1.0 0.063512258
C  C24  1  0.61040000  0.26600000  0.82000000  1.0 0.0834326993
C  C25  1  0.00494000  0.48446000  0.21094000  1.0 -0.098738779
C  C26  1  0.95270000  0.53430000  0.21310000  1.0 -0.1210655493
C  C27  1  0.87000000  0.66440000  0.25000000  1.0 0.1018655703
C  C28  1  0.81950000  0.71490000  0.25050000  1.0 0.063512258
C  C29  1  0.76880000  0.65920000  0.26700000  1.0 0.063512258
C  C30  1  0.82000000  0.61040000  0.26600000  1.0 0.0834326993
C  C31  1  0.48446000  0.00494000  0.29966000  1.0 -0.098738779
C  C32  1  0.53430000  0.95270000  0.29990000  1.0 -0.1210655493
C  C33  1  0.66440000  0.87000000  0.21560000  1.0 0.1018655703
C  C34  1  0.71490000  0.81950000  0.21510000  1.0 0.063512258
C  C35  1  0.65920000  0.76880000  0.30500000  1.0 0.063512258
C  C36  1  0.61040000  0.82000000  0.30360000  1.0 0.0834326993
C  C37  1  0.21094000  0.29966000  0.00494000  1.0 -0.098738779
C  C38  1  0.21310000  0.29990000  0.95270000  1.0 -0.1210655493
C  C39  1  0.25000000  0.21560000  0.87000000  1.0 0.1018655703
C  C40  1  0.25050000  0.21510000  0.81950000  1.0 0.063512258
C  C41  1  0.26700000  0.30500000  0.76880000  1.0 0.063512258
C  C42  1  0.26600000  0.30360000  0.82000000  1.0 0.0834326993
C  C43  1  0.29966000  0.21094000  0.48446000  1.0 -0.098738779
C  C44  1  0.29990000  0.21310000  0.53430000  1.0 -0.1210655493
C  C45  1  0.21560000  0.25000000  0.66440000  1.0 0.1018655703
C  C46  1  0.21510000  0.25050000  0.71490000  1.0 0.063512258
C  C47  1  0.30500000  0.26700000  0.65920000  1.0 0.063512258
C  C48  1  0.30360000  0.26600000  0.61040000  1.0 0.0834326993
C  C49  1  0.29966000  0.48446000  0.00494000  1.0 -0.098738779
C  C50  1  0.29990000  0.53430000  0.95270000  1.0 -0.1210655493
C  C51  1  0.21560000  0.66440000  0.87000000  1.0 0.1018655703
C  C52  1  0.21510000  0.71490000  0.81950000  1.0 0.063512258
C  C53  1  0.30500000  0.65920000  0.76880000  1.0 0.063512258
C  C54  1  0.30360000  0.61040000  0.82000000  1.0 0.0834326993
C  C55  1  0.21094000  0.00494000  0.48446000  1.0 -0.098738779
C  C56  1  0.21310000  0.95270000  0.53430000  1.0 -0.1210655493
C  C57  1  0.25000000  0.87000000  0.66440000  1.0 0.1018655703
C  C58  1  0.25050000  0.81950000  0.71490000  1.0 0.063512258
C  C59  1  0.26700000  0.76880000  0.65920000  1.0 0.063512258
C  C60  1  0.26600000  0.82000000  0.61040000  1.0 0.0834326993
C  C61  1  0.48446000  0.29966000  0.21094000  1.0 -0.098738779
C  C62  1  0.53430000  0.29990000  0.21310000  1.0 -0.1210655493
C  C63  1  0.66440000  0.21560000  0.25000000  1.0 0.1018655703
C  C64  1  0.71490000  0.21510000  0.25050000  1.0 0.063512258
C  C65  1  0.65920000  0.30500000  0.26700000  1.0 0.063512258
C  C66  1  0.61040000  0.30360000  0.26600000  1.0 0.0834326993
C  C67  1  0.00494000  0.21094000  0.29966000  1.0 -0.098738779
C  C68  1  0.95270000  0.21310000  0.29990000  1.0 -0.1210655493
C  C69  1  0.87000000  0.25000000  0.21560000  1.0 0.1018655703
C  C70  1  0.81950000  0.25050000  0.21510000  1.0 0.063512258
C  C71  1  0.76880000  0.26700000  0.30500000  1.0 0.063512258
C  C72  1  0.82000000  0.26600000  0.30360000  1.0 0.0834326993
C  C73  1  0.21094000  0.00494000  0.29966000  1.0 -0.098738779
C  C74  1  0.21310000  0.95270000  0.29990000  1.0 -0.1210655493
C  C75  1  0.25000000  0.87000000  0.21560000  1.0 0.1018655703
C  C76  1  0.25050000  0.81950000  0.21510000  1.0 0.063512258
C  C77  1  0.26700000  0.76880000  0.30500000  1.0 0.063512258
C  C78  1  0.26600000  0.82000000  0.30360000  1.0 0.0834326993
C  C79  1  0.29966000  0.48446000  0.21094000  1.0 -0.098738779
C  C80  1  0.29990000  0.53430000  0.21310000  1.0 -0.1210655493
C  C81  1  0.21560000  0.66440000  0.25000000  1.0 0.1018655703
C  C82  1  0.21510000  0.71490000  0.25050000  1.0 0.063512258
C  C83  1  0.30500000  0.65920000  0.26700000  1.0 0.063512258
C  C84  1  0.30360000  0.61040000  0.26600000  1.0 0.0834326993
C  C85  1  0.00494000  0.21094000  0.48446000  1.0 -0.098738779
C  C86  1  0.95270000  0.21310000  0.53430000  1.0 -0.1210655493
C  C87  1  0.87000000  0.25000000  0.66440000  1.0 0.1018655703
C  C88  1  0.81950000  0.25050000  0.71490000  1.0 0.063512258
C  C89  1  0.76880000  0.26700000  0.65920000  1.0 0.063512258
C  C90  1  0.82000000  0.26600000  0.61040000  1.0 0.0834326993
C  C91  1  0.48446000  0.29966000  0.00494000  1.0 -0.098738779
C  C92  1  0.53430000  0.29990000  0.95270000  1.0 -0.1210655493
C  C93  1  0.66440000  0.21560000  0.87000000  1.0 0.1018655703
C  C94  1  0.71490000  0.21510000  0.81950000  1.0 0.063512258
C  C95  1  0.65920000  0.30500000  0.76880000  1.0 0.063512258
C  C96  1  0.61040000  0.30360000  0.82000000  1.0 0.0834326993
C  C97  1  0.00494000  0.29966000  0.21094000  1.0 -0.098738779
C  C98  1  0.95270000  0.29990000  0.21310000  1.0 -0.1210655493
C  C99  1  0.87000000  0.21560000  0.25000000  1.0 0.1018655703
C  C100  1  0.81950000  0.21510000  0.25050000  1.0 0.063512258
C  C101  1  0.76880000  0.30500000  0.26700000  1.0 0.063512258
C  C102  1  0.82000000  0.30360000  0.26600000  1.0 0.0834326993
C  C103  1  0.48446000  0.21094000  0.29966000  1.0 -0.098738779
C  C104  1  0.53430000  0.21310000  0.29990000  1.0 -0.1210655493
C  C105  1  0.66440000  0.25000000  0.21560000  1.0 0.1018655703
C  C106  1  0.71490000  0.25050000  0.21510000  1.0 0.063512258
C  C107  1  0.65920000  0.26700000  0.30500000  1.0 0.063512258
C  C108  1  0.61040000  0.26600000  0.30360000  1.0 0.0834326993
C  C109  1  0.21094000  0.48446000  0.00494000  1.0 -0.098738779
C  C110  1  0.21310000  0.53430000  0.95270000  1.0 -0.1210655493
C  C111  1  0.25000000  0.66440000  0.87000000  1.0 0.1018655703
C  C112  1  0.25050000  0.71490000  0.81950000  1.0 0.063512258
C  C113  1  0.26700000  0.65920000  0.76880000  1.0 0.063512258
C  C114  1  0.26600000  0.61040000  0.82000000  1.0 0.0834326993
C  C115  1  0.29966000  0.00494000  0.48446000  1.0 -0.098738779
C  C116  1  0.29990000  0.95270000  0.53430000  1.0 -0.1210655493
C  C117  1  0.21560000  0.87000000  0.66440000  1.0 0.1018655703
C  C118  1  0.21510000  0.81950000  0.71490000  1.0 0.063512258
C  C119  1  0.30500000  0.76880000  0.65920000  1.0 0.063512258
C  C120  1  0.30360000  0.82000000  0.61040000  1.0 0.0834326993
C  C121  1  0.29966000  0.21094000  0.00494000  1.0 -0.098738779
C  C122  1  0.29990000  0.21310000  0.95270000  1.0 -0.1210655493
C  C123  1  0.21560000  0.25000000  0.87000000  1.0 0.1018655703
C  C124  1  0.21510000  0.25050000  0.81950000  1.0 0.063512258
C  C125  1  0.30500000  0.26700000  0.76880000  1.0 0.063512258
C  C126  1  0.30360000  0.26600000  0.82000000  1.0 0.0834326993
C  C127  1  0.21094000  0.29966000  0.48446000  1.0 -0.098738779
C  C128  1  0.21310000  0.29990000  0.53430000  1.0 -0.1210655493
C  C129  1  0.25000000  0.21560000  0.66440000  1.0 0.1018655703
C  C130  1  0.25050000  0.21510000  0.71490000  1.0 0.063512258
C  C131  1  0.26700000  0.30500000  0.65920000  1.0 0.063512258
C  C132  1  0.26600000  0.30360000  0.61040000  1.0 0.0834326993
C  C133  1  0.48446000  0.00494000  0.21094000  1.0 -0.098738779
C  C134  1  0.53430000  0.95270000  0.21310000  1.0 -0.1210655493
C  C135  1  0.66440000  0.87000000  0.25000000  1.0 0.1018655703
C  C136  1  0.71490000  0.81950000  0.25050000  1.0 0.063512258
C  C137  1  0.65920000  0.76880000  0.26700000  1.0 0.063512258
C  C138  1  0.61040000  0.82000000  0.26600000  1.0 0.0834326993
C  C139  1  0.00494000  0.48446000  0.29966000  1.0 -0.098738779
C  C140  1  0.95270000  0.53430000  0.29990000  1.0 -0.1210655493
C  C141  1  0.87000000  0.66440000  0.21560000  1.0 0.1018655703
C  C142  1  0.81950000  0.71490000  0.21510000  1.0 0.063512258
C  C143  1  0.76880000  0.65920000  0.30500000  1.0 0.063512258
C  C144  1  0.82000000  0.61040000  0.30360000  1.0 0.0834326993
C  C145  1  0.25256000  0.40932000  0.25256000  1.0 0.4808513332
C  C146  1  0.25380000  0.46274000  0.25380000  1.0 -0.0093320259
C  C147  1  0.25614000  0.55922000  0.25614000  1.0 0.0469702874
C  C148  1  0.25738000  0.61320000  0.25738000  1.0 -0.0679918189
C  C149  1  0.25950000  0.71290000  0.25950000  1.0 -0.1093192297
C  C150  1  0.25256000  0.08556000  0.25256000  1.0 0.4808513332
C  C151  1  0.25380000  0.02966000  0.25380000  1.0 -0.0093320259
C  C152  1  0.25614000  0.92850000  0.25614000  1.0 0.0469702874
C  C153  1  0.25738000  0.87204000  0.25738000  1.0 -0.0679918189
C  C154  1  0.25950000  0.76810000  0.25950000  1.0 -0.1093192297
C  C155  1  0.08556000  0.25256000  0.40932000  1.0 0.4808513332
C  C156  1  0.02966000  0.25380000  0.46274000  1.0 -0.0093320259
C  C157  1  0.92850000  0.25614000  0.55922000  1.0 0.0469702874
C  C158  1  0.87204000  0.25738000  0.61320000  1.0 -0.0679918189
C  C159  1  0.76810000  0.25950000  0.71290000  1.0 -0.1093192297
C  C160  1  0.40932000  0.25256000  0.08556000  1.0 0.4808513332
C  C161  1  0.46274000  0.25380000  0.02966000  1.0 -0.0093320259
C  C162  1  0.55922000  0.25614000  0.92850000  1.0 0.0469702874
C  C163  1  0.61320000  0.25738000  0.87204000  1.0 -0.0679918189
C  C164  1  0.71290000  0.25950000  0.76810000  1.0 -0.1093192297
C  C165  1  0.08556000  0.40932000  0.25256000  1.0 0.4808513332
C  C166  1  0.02966000  0.46274000  0.25380000  1.0 -0.0093320259
C  C167  1  0.92850000  0.55922000  0.25614000  1.0 0.0469702874
C  C168  1  0.87204000  0.61320000  0.25738000  1.0 -0.0679918189
C  C169  1  0.76810000  0.71290000  0.25950000  1.0 -0.1093192297
C  C170  1  0.40932000  0.08556000  0.25256000  1.0 0.4808513332
C  C171  1  0.46274000  0.02966000  0.25380000  1.0 -0.0093320259
C  C172  1  0.55922000  0.92850000  0.25614000  1.0 0.0469702874
C  C173  1  0.61320000  0.87204000  0.25738000  1.0 -0.0679918189
C  C174  1  0.71290000  0.76810000  0.25950000  1.0 -0.1093192297
C  C175  1  0.25256000  0.25256000  0.08556000  1.0 0.4808513332
C  C176  1  0.25380000  0.25380000  0.02966000  1.0 -0.0093320259
C  C177  1  0.25614000  0.25614000  0.92850000  1.0 0.0469702874
C  C178  1  0.25738000  0.25738000  0.87204000  1.0 -0.0679918189
C  C179  1  0.25950000  0.25950000  0.76810000  1.0 -0.1093192297
C  C180  1  0.25256000  0.25256000  0.40932000  1.0 0.4808513332
C  C181  1  0.25380000  0.25380000  0.46274000  1.0 -0.0093320259
C  C182  1  0.25614000  0.25614000  0.55922000  1.0 0.0469702874
C  C183  1  0.25738000  0.25738000  0.61320000  1.0 -0.0679918189
C  C184  1  0.25950000  0.25950000  0.71290000  1.0 -0.1093192297
C  C185  1  0.25256000  0.40932000  0.08556000  1.0 0.4808513332
C  C186  1  0.25380000  0.46274000  0.02966000  1.0 -0.0093320259
C  C187  1  0.25614000  0.55922000  0.92850000  1.0 0.0469702874
C  C188  1  0.25738000  0.61320000  0.87204000  1.0 -0.0679918189
C  C189  1  0.25950000  0.71290000  0.76810000  1.0 -0.1093192297
C  C190  1  0.25256000  0.08556000  0.40932000  1.0 0.4808513332
C  C191  1  0.25380000  0.02966000  0.46274000  1.0 -0.0093320259
C  C192  1  0.25614000  0.92850000  0.55922000  1.0 0.0469702874
C  C193  1  0.25738000  0.87204000  0.61320000  1.0 -0.0679918189
C  C194  1  0.25950000  0.76810000  0.71290000  1.0 -0.1093192297
C  C195  1  0.40932000  0.25256000  0.25256000  1.0 0.4808513332
C  C196  1  0.46274000  0.25380000  0.25380000  1.0 -0.0093320259
C  C197  1  0.55922000  0.25614000  0.25614000  1.0 0.0469702874
C  C198  1  0.61320000  0.25738000  0.25738000  1.0 -0.0679918189
C  C199  1  0.71290000  0.25950000  0.25950000  1.0 -0.1093192297
C  C200  1  0.08556000  0.25256000  0.25256000  1.0 0.4808513332
C  C201  1  0.02966000  0.25380000  0.25380000  1.0 -0.0093320259
C  C202  1  0.92850000  0.25614000  0.25614000  1.0 0.0469702874
C  C203  1  0.87204000  0.25738000  0.25738000  1.0 -0.0679918189
C  C204  1  0.76810000  0.25950000  0.25950000  1.0 -0.1093192297
C  C205  1  0.03906000  0.24506000  0.95034000  1.0 -0.098738779
C  C206  1  0.03690000  0.29730000  0.95010000  1.0 -0.1210655493
C  C207  1  0.00000000  0.38000000  0.03440000  1.0 0.1018655703
C  C208  1  0.99950000  0.43050000  0.03490000  1.0 0.063512258
C  C209  1  0.98300000  0.48120000  0.94500000  1.0 0.063512258
C  C210  1  0.98400000  0.43000000  0.94640000  1.0 0.0834326993
C  C211  1  0.95034000  0.76554000  0.03906000  1.0 -0.098738779
C  C212  1  0.95010000  0.71570000  0.03690000  1.0 -0.1210655493
C  C213  1  0.03440000  0.58560000  0.00000000  1.0 0.1018655703
C  C214  1  0.03490000  0.53510000  0.99950000  1.0 0.063512258
C  C215  1  0.94500000  0.59080000  0.98300000  1.0 0.0654697278
C  C216  1  0.94640000  0.63960000  0.98400000  1.0 0.0834326993
C  C217  1  0.24506000  0.03906000  0.76554000  1.0 -0.098738779
C  C218  1  0.29730000  0.03690000  0.71570000  1.0 -0.1210655493
C  C219  1  0.38000000  0.00000000  0.58560000  1.0 0.1018655703
C  C220  1  0.43050000  0.99950000  0.53510000  1.0 0.063512258
C  C221  1  0.48120000  0.98300000  0.59080000  1.0 0.063512258
C  C222  1  0.43000000  0.98400000  0.63960000  1.0 0.0834326993
C  C223  1  0.76554000  0.95034000  0.24506000  1.0 -0.098738779
C  C224  1  0.71570000  0.95010000  0.29730000  1.0 -0.1210655493
C  C225  1  0.58560000  0.03440000  0.38000000  1.0 0.1018655703
C  C226  1  0.53510000  0.03490000  0.43050000  1.0 0.063512258
C  C227  1  0.59080000  0.94500000  0.48120000  1.0 0.063512258
C  C228  1  0.63960000  0.94640000  0.43000000  1.0 0.0834326993
C  C229  1  0.24506000  0.95034000  0.03906000  1.0 -0.098738779
C  C230  1  0.29730000  0.95010000  0.03690000  1.0 -0.1210655493
C  C231  1  0.38000000  0.03440000  0.00000000  1.0 0.1018655703
C  C232  1  0.43050000  0.03490000  0.99950000  1.0 0.063512258
C  C233  1  0.48120000  0.94500000  0.98300000  1.0 0.063512258
C  C234  1  0.43000000  0.94640000  0.98400000  1.0 0.0834326993
C  C235  1  0.76554000  0.03906000  0.95034000  1.0 -0.098738779
C  C236  1  0.71570000  0.03690000  0.95010000  1.0 -0.1210655493
C  C237  1  0.58560000  0.00000000  0.03440000  1.0 0.1018655703
C  C238  1  0.53510000  0.99950000  0.03490000  1.0 0.063512258
C  C239  1  0.59080000  0.98300000  0.94500000  1.0 0.063512258
C  C240  1  0.63960000  0.98400000  0.94640000  1.0 0.0834326993
C  C241  1  0.03906000  0.76554000  0.24506000  1.0 -0.098738779
C  C242  1  0.03690000  0.71570000  0.29730000  1.0 -0.1210655493
C  C243  1  0.00000000  0.58560000  0.38000000  1.0 0.1018655703
C  C244  1  0.99950000  0.53510000  0.43050000  1.0 0.063512258
C  C245  1  0.98300000  0.59080000  0.48120000  1.0 0.063512258
C  C246  1  0.98400000  0.63960000  0.43000000  1.0 0.0834326993
C  C247  1  0.95034000  0.24506000  0.76554000  1.0 -0.098738779
C  C248  1  0.95010000  0.29730000  0.71570000  1.0 -0.1210655493
C  C249  1  0.03440000  0.38000000  0.58560000  1.0 0.1018655703
C  C250  1  0.03490000  0.43050000  0.53510000  1.0 0.063512258
C  C251  1  0.94500000  0.48120000  0.59080000  1.0 0.063512258
C  C252  1  0.94640000  0.43000000  0.63960000  1.0 0.0834326993
C  C253  1  0.95034000  0.03906000  0.24506000  1.0 -0.098738779
C  C254  1  0.95010000  0.03690000  0.29730000  1.0 -0.1210655493
C  C255  1  0.03440000  0.00000000  0.38000000  1.0 0.1018655703
C  C256  1  0.03490000  0.99950000  0.43050000  1.0 0.063512258
C  C257  1  0.94500000  0.98300000  0.48120000  1.0 0.0654697278
C  C258  1  0.94640000  0.98400000  0.43000000  1.0 0.0834326993
C  C259  1  0.03906000  0.95034000  0.76554000  1.0 -0.098738779
C  C260  1  0.03690000  0.95010000  0.71570000  1.0 -0.1210655493
C  C261  1  0.00000000  0.03440000  0.58560000  1.0 0.1018655703
C  C262  1  0.99950000  0.03490000  0.53510000  1.0 0.063512258
C  C263  1  0.98300000  0.94500000  0.59080000  1.0 0.063512258
C  C264  1  0.98400000  0.94640000  0.63960000  1.0 0.0834326993
C  C265  1  0.76554000  0.24506000  0.03906000  1.0 -0.098738779
C  C266  1  0.71570000  0.29730000  0.03690000  1.0 -0.1210655493
C  C267  1  0.58560000  0.38000000  0.00000000  1.0 0.1018655703
C  C268  1  0.53510000  0.43050000  0.99950000  1.0 0.063512258
C  C269  1  0.59080000  0.48120000  0.98300000  1.0 0.063512258
C  C270  1  0.63960000  0.43000000  0.98400000  1.0 0.0834326993
C  C271  1  0.24506000  0.76554000  0.95034000  1.0 -0.098738779
C  C272  1  0.29730000  0.71570000  0.95010000  1.0 -0.1210655493
C  C273  1  0.38000000  0.58560000  0.03440000  1.0 0.1018655703
C  C274  1  0.43050000  0.53510000  0.03490000  1.0 0.063512258
C  C275  1  0.48120000  0.59080000  0.94500000  1.0 0.063512258
C  C276  1  0.43000000  0.63960000  0.94640000  1.0 0.0834326993
C  C277  1  0.03906000  0.76554000  0.95034000  1.0 -0.098738779
C  C278  1  0.03690000  0.71570000  0.95010000  1.0 -0.1210655493
C  C279  1  0.00000000  0.58560000  0.03440000  1.0 0.1018655703
C  C280  1  0.99950000  0.53510000  0.03490000  1.0 0.063512258
C  C281  1  0.98300000  0.59080000  0.94500000  1.0 0.063512258
C  C282  1  0.98400000  0.63960000  0.94640000  1.0 0.0834326993
C  C283  1  0.95034000  0.24506000  0.03906000  1.0 -0.098738779
C  C284  1  0.95010000  0.29730000  0.03690000  1.0 -0.1210655493
C  C285  1  0.03440000  0.38000000  0.00000000  1.0 0.1018655703
C  C286  1  0.03490000  0.43050000  0.99950000  1.0 0.063512258
C  C287  1  0.94500000  0.48120000  0.98300000  1.0 0.063512258
C  C288  1  0.94640000  0.43000000  0.98400000  1.0 0.0834326993
C  C289  1  0.24506000  0.95034000  0.76554000  1.0 -0.098738779
C  C290  1  0.29730000  0.95010000  0.71570000  1.0 -0.1210655493
C  C291  1  0.38000000  0.03440000  0.58560000  1.0 0.1018655703
C  C292  1  0.43050000  0.03490000  0.53510000  1.0 0.063512258
C  C293  1  0.48120000  0.94500000  0.59080000  1.0 0.063512258
C  C294  1  0.43000000  0.94640000  0.63960000  1.0 0.0834326993
C  C295  1  0.76554000  0.03906000  0.24506000  1.0 -0.098738779
C  C296  1  0.71570000  0.03690000  0.29730000  1.0 -0.1210655493
C  C297  1  0.58560000  0.00000000  0.38000000  1.0 0.1018655703
C  C298  1  0.53510000  0.99950000  0.43050000  1.0 0.063512258
C  C299  1  0.59080000  0.98300000  0.48120000  1.0 0.063512258
C  C300  1  0.63960000  0.98400000  0.43000000  1.0 0.0834326993
C  C301  1  0.24506000  0.76554000  0.03906000  1.0 -0.098738779
C  C302  1  0.29730000  0.71570000  0.03690000  1.0 -0.1210655493
C  C303  1  0.38000000  0.58560000  0.00000000  1.0 0.1018655703
C  C304  1  0.43050000  0.53510000  0.99950000  1.0 0.063512258
C  C305  1  0.48120000  0.59080000  0.98300000  1.0 0.063512258
C  C306  1  0.43000000  0.63960000  0.98400000  1.0 0.0834326993
C  C307  1  0.76554000  0.24506000  0.95034000  1.0 -0.098738779
C  C308  1  0.71570000  0.29730000  0.95010000  1.0 -0.1210655493
C  C309  1  0.58560000  0.38000000  0.03440000  1.0 0.1018655703
C  C310  1  0.53510000  0.43050000  0.03490000  1.0 0.063512258
C  C311  1  0.59080000  0.48120000  0.94500000  1.0 0.063512258
C  C312  1  0.63960000  0.43000000  0.94640000  1.0 0.0834326993
C  C313  1  0.03906000  0.95034000  0.24506000  1.0 -0.098738779
C  C314  1  0.03690000  0.95010000  0.29730000  1.0 -0.1210655493
C  C315  1  0.00000000  0.03440000  0.38000000  1.0 0.1018655703
C  C316  1  0.99950000  0.03490000  0.43050000  1.0 0.063512258
C  C317  1  0.98300000  0.94500000  0.48120000  1.0 0.063512258
C  C318  1  0.98400000  0.94640000  0.43000000  1.0 0.0834326993
C  C319  1  0.95034000  0.03906000  0.76554000  1.0 -0.098738779
C  C320  1  0.95010000  0.03690000  0.71570000  1.0 -0.1210655493
C  C321  1  0.03440000  0.00000000  0.58560000  1.0 0.1018655703
C  C322  1  0.03490000  0.99950000  0.53510000  1.0 0.063512258
C  C323  1  0.94500000  0.98300000  0.59080000  1.0 0.063512258
C  C324  1  0.94640000  0.98400000  0.63960000  1.0 0.0834326993
C  C325  1  0.95034000  0.76554000  0.24506000  1.0 -0.098738779
C  C326  1  0.95010000  0.71570000  0.29730000  1.0 -0.1210655493
C  C327  1  0.03440000  0.58560000  0.38000000  1.0 0.1018655703
C  C328  1  0.03490000  0.53510000  0.43050000  1.0 0.063512258
C  C329  1  0.94500000  0.59080000  0.48120000  1.0 0.063512258
C  C330  1  0.94640000  0.63960000  0.43000000  1.0 0.0834326993
C  C331  1  0.03906000  0.24506000  0.76554000  1.0 -0.098738779
C  C332  1  0.03690000  0.29730000  0.71570000  1.0 -0.1210655493
C  C333  1  0.00000000  0.38000000  0.58560000  1.0 0.1018655703
C  C334  1  0.99950000  0.43050000  0.53510000  1.0 0.063512258
C  C335  1  0.98300000  0.48120000  0.59080000  1.0 0.063512258
C  C336  1  0.98400000  0.43000000  0.63960000  1.0 0.0834326993
C  C337  1  0.76554000  0.95034000  0.03906000  1.0 -0.098738779
C  C338  1  0.71570000  0.95010000  0.03690000  1.0 -0.1210655493
C  C339  1  0.58560000  0.03440000  0.00000000  1.0 0.1018655703
C  C340  1  0.53510000  0.03490000  0.99950000  1.0 0.063512258
C  C341  1  0.59080000  0.94500000  0.98300000  1.0 0.063512258
C  C342  1  0.63960000  0.94640000  0.98400000  1.0 0.0834326993
C  C343  1  0.24506000  0.03906000  0.95034000  1.0 -0.098738779
C  C344  1  0.29730000  0.03690000  0.95010000  1.0 -0.1210655493
C  C345  1  0.38000000  0.00000000  0.03440000  1.0 0.1018655703
C  C346  1  0.43050000  0.99950000  0.03490000  1.0 0.063512258
C  C347  1  0.48120000  0.98300000  0.94500000  1.0 0.063512258
C  C348  1  0.43000000  0.98400000  0.94640000  1.0 0.0834326993
C  C349  1  0.99744000  0.16444000  0.99744000  1.0 0.4808513332
C  C350  1  0.99620000  0.22034000  0.99620000  1.0 -0.0093320259
C  C351  1  0.99386000  0.32150000  0.99386000  1.0 0.0469702874
C  C352  1  0.99262000  0.37796000  0.99262000  1.0 -0.0679918189
C  C353  1  0.99050000  0.48190000  0.99050000  1.0 -0.1093192297
C  C354  1  0.99744000  0.84068000  0.99744000  1.0 0.4808513332
C  C355  1  0.99620000  0.78726000  0.99620000  1.0 -0.0093320259
C  C356  1  0.99386000  0.69078000  0.99386000  1.0 0.0469702874
C  C357  1  0.99262000  0.63680000  0.99262000  1.0 -0.0679918189
C  C358  1  0.99050000  0.53710000  0.99050000  1.0 -0.1093192297
C  C359  1  0.16444000  0.99744000  0.84068000  1.0 0.4808513332
C  C360  1  0.22034000  0.99620000  0.78726000  1.0 -0.0093320259
C  C361  1  0.32150000  0.99386000  0.69078000  1.0 0.0469702874
C  C362  1  0.37796000  0.99262000  0.63680000  1.0 -0.0679918189
C  C363  1  0.48190000  0.99050000  0.53710000  1.0 -0.1093192297
C  C364  1  0.84068000  0.99744000  0.16444000  1.0 0.4808513332
C  C365  1  0.78726000  0.99620000  0.22034000  1.0 -0.0093320259
C  C366  1  0.69078000  0.99386000  0.32150000  1.0 0.0469702874
C  C367  1  0.63680000  0.99262000  0.37796000  1.0 -0.0679918189
C  C368  1  0.53710000  0.99050000  0.48190000  1.0 -0.1093192297
C  C369  1  0.16444000  0.99744000  0.99744000  1.0 0.4808513332
C  C370  1  0.22034000  0.99620000  0.99620000  1.0 -0.0093320259
C  C371  1  0.32150000  0.99386000  0.99386000  1.0 0.0469702874
C  C372  1  0.37796000  0.99262000  0.99262000  1.0 -0.0679918189
C  C373  1  0.48190000  0.99050000  0.99050000  1.0 -0.1093192297
C  C374  1  0.84068000  0.99744000  0.99744000  1.0 0.4808513332
C  C375  1  0.78726000  0.99620000  0.99620000  1.0 -0.0093320259
C  C376  1  0.69078000  0.99386000  0.99386000  1.0 0.0469702874
C  C377  1  0.63680000  0.99262000  0.99262000  1.0 -0.0679918189
C  C378  1  0.53710000  0.99050000  0.99050000  1.0 -0.1093192297
C  C379  1  0.99744000  0.84068000  0.16444000  1.0 0.4808513332
C  C380  1  0.99620000  0.78726000  0.22034000  1.0 -0.0093320259
C  C381  1  0.99386000  0.69078000  0.32150000  1.0 0.0469702874
C  C382  1  0.99262000  0.63680000  0.37796000  1.0 -0.0679918189
C  C383  1  0.99050000  0.53710000  0.48190000  1.0 -0.1093192297
C  C384  1  0.99744000  0.16444000  0.84068000  1.0 0.4808513332
C  C385  1  0.99620000  0.22034000  0.78726000  1.0 -0.0093320259
C  C386  1  0.99386000  0.32150000  0.69078000  1.0 0.0469702874
C  C387  1  0.99262000  0.37796000  0.63680000  1.0 -0.0679918189
C  C388  1  0.99050000  0.48190000  0.53710000  1.0 -0.1093192297
C  C389  1  0.99744000  0.99744000  0.16444000  1.0 0.4808513332
C  C390  1  0.99620000  0.99620000  0.22034000  1.0 -0.0093320259
C  C391  1  0.99386000  0.99386000  0.32150000  1.0 0.0469702874
C  C392  1  0.99262000  0.99262000  0.37796000  1.0 -0.0679918189
C  C393  1  0.99050000  0.99050000  0.48190000  1.0 -0.1093192297
C  C394  1  0.99744000  0.99744000  0.84068000  1.0 0.4808513332
C  C395  1  0.99620000  0.99620000  0.78726000  1.0 -0.0093320259
C  C396  1  0.99386000  0.99386000  0.69078000  1.0 0.0469702874
C  C397  1  0.99262000  0.99262000  0.63680000  1.0 -0.0679918189
C  C398  1  0.99050000  0.99050000  0.53710000  1.0 -0.1093192297
C  C399  1  0.84068000  0.16444000  0.99744000  1.0 0.4808513332
C  C400  1  0.78726000  0.22034000  0.99620000  1.0 -0.0093320259
C  C401  1  0.69078000  0.32150000  0.99386000  1.0 0.0469702874
C  C402  1  0.63680000  0.37796000  0.99262000  1.0 -0.0679918189
C  C403  1  0.53710000  0.48190000  0.99050000  1.0 -0.1093192297
C  C404  1  0.16444000  0.84068000  0.99744000  1.0 0.4808513332
C  C405  1  0.22034000  0.78726000  0.99620000  1.0 -0.0093320259
C  C406  1  0.32150000  0.69078000  0.99386000  1.0 0.0469702874
C  C407  1  0.37796000  0.63680000  0.99262000  1.0 -0.0679918189
C  C408  1  0.48190000  0.53710000  0.99050000  1.0 -0.1093192297
O  O1  1  0.21122000  0.38906000  0.29178000  1.0 -0.1888876219
O  O2  1  0.19210000  0.39390000  0.30850000  1.0 -0.2089854185
O  O3  1  0.29178000  0.10794000  0.21122000  1.0 -0.1888876219
O  O4  1  0.30850000  0.10550000  0.19210000  1.0 -0.2089854185
O  O5  1  0.10794000  0.29178000  0.38906000  1.0 -0.1888876219
O  O6  1  0.10550000  0.30850000  0.39390000  1.0 -0.2089854185
O  O7  1  0.38906000  0.21122000  0.10794000  1.0 -0.1888876219
O  O8  1  0.39390000  0.19210000  0.10550000  1.0 -0.2089854185
O  O9  1  0.10794000  0.38906000  0.21122000  1.0 -0.1888876219
O  O10  1  0.10550000  0.39390000  0.19210000  1.0 -0.2089854185
O  O11  1  0.38906000  0.10794000  0.29178000  1.0 -0.1888876219
O  O12  1  0.39390000  0.10550000  0.30850000  1.0 -0.2089854185
O  O13  1  0.21122000  0.29178000  0.10794000  1.0 -0.1888876219
O  O14  1  0.19210000  0.30850000  0.10550000  1.0 -0.2089854185
O  O15  1  0.29178000  0.21122000  0.38906000  1.0 -0.1888876219
O  O16  1  0.30850000  0.19210000  0.39390000  1.0 -0.2089854185
O  O17  1  0.29178000  0.38906000  0.10794000  1.0 -0.1888876219
O  O18  1  0.30850000  0.39390000  0.10550000  1.0 -0.2089854185
O  O19  1  0.21122000  0.10794000  0.38906000  1.0 -0.1888876219
O  O20  1  0.19210000  0.10550000  0.39390000  1.0 -0.2089854185
O  O21  1  0.38906000  0.29178000  0.21122000  1.0 -0.1888876219
O  O22  1  0.39390000  0.30850000  0.19210000  1.0 -0.2089854185
O  O23  1  0.10794000  0.21122000  0.29178000  1.0 -0.1888876219
O  O24  1  0.10550000  0.19210000  0.30850000  1.0 -0.2089854185
O  O25  1  0.21122000  0.10794000  0.29178000  1.0 -0.1888876219
O  O26  1  0.19210000  0.10550000  0.30850000  1.0 -0.2089854185
O  O27  1  0.29178000  0.38906000  0.21122000  1.0 -0.1888876219
O  O28  1  0.30850000  0.39390000  0.19210000  1.0 -0.2089854185
O  O29  1  0.10794000  0.21122000  0.38906000  1.0 -0.1888876219
O  O30  1  0.10550000  0.19210000  0.39390000  1.0 -0.2089854185
O  O31  1  0.38906000  0.29178000  0.10794000  1.0 -0.1888876219
O  O32  1  0.39390000  0.30850000  0.10550000  1.0 -0.2089854185
O  O33  1  0.10794000  0.29178000  0.21122000  1.0 -0.1888876219
O  O34  1  0.10550000  0.30850000  0.19210000  1.0 -0.2089854185
O  O35  1  0.38906000  0.21122000  0.29178000  1.0 -0.1888876219
O  O36  1  0.39390000  0.19210000  0.30850000  1.0 -0.2089854185
O  O37  1  0.21122000  0.38906000  0.10794000  1.0 -0.1888876219
O  O38  1  0.19210000  0.39390000  0.10550000  1.0 -0.2089854185
O  O39  1  0.29178000  0.10794000  0.38906000  1.0 -0.1888876219
O  O40  1  0.30850000  0.10550000  0.39390000  1.0 -0.2089854185
O  O41  1  0.29178000  0.21122000  0.10794000  1.0 -0.1888876219
O  O42  1  0.30850000  0.19210000  0.10550000  1.0 -0.2089854185
O  O43  1  0.21122000  0.29178000  0.38906000  1.0 -0.1888876219
O  O44  1  0.19210000  0.30850000  0.39390000  1.0 -0.2089854185
O  O45  1  0.38906000  0.10794000  0.21122000  1.0 -0.1888876219
O  O46  1  0.39390000  0.10550000  0.19210000  1.0 -0.2089854185
O  O47  1  0.10794000  0.38906000  0.29178000  1.0 -0.1888876219
O  O48  1  0.10550000  0.39390000  0.30850000  1.0 -0.2089854185
O  O49  1  0.21306000  0.21306000  0.36082000  1.0 -0.3317002887
O  O50  1  0.22340000  0.22340000  0.32980000  1.0 -0.3317002887
O  O51  1  0.36082000  0.21306000  0.21306000  1.0 -0.3317002887
O  O52  1  0.32980000  0.22340000  0.22340000  1.0 -0.3317002887
O  O53  1  0.21306000  0.36082000  0.21306000  1.0 -0.3317002887
O  O54  1  0.22340000  0.32980000  0.22340000  1.0 -0.3317002887
O  O55  1  0.21306000  0.21306000  0.21306000  1.0 -0.3317002887
O  O56  1  0.22340000  0.22340000  0.22340000  1.0 -0.3317002887
O  O57  1  0.27690000  0.27690000  0.27690000  1.0 -0.4288087963
O  O58  1  0.28380000  0.28380000  0.28380000  1.0 -0.5254386357
O  O59  1  0.27690000  0.16930000  0.27690000  1.0 -0.4288087963
O  O60  1  0.28380000  0.14860000  0.28380000  1.0 -0.5254386357
O  O61  1  0.16930000  0.27690000  0.27690000  1.0 -0.4288087963
O  O62  1  0.14860000  0.28380000  0.28380000  1.0 -0.5254386357
O  O63  1  0.27690000  0.27690000  0.16930000  1.0 -0.4288087963
O  O64  1  0.28380000  0.28380000  0.14860000  1.0 -0.5254386357
O  O65  1  0.03878000  0.14206000  0.95822000  1.0 -0.1888876219
O  O66  1  0.05790000  0.14450000  0.94150000  1.0 -0.2039090983
O  O67  1  0.95822000  0.86094000  0.03878000  1.0 -0.1888876219
O  O68  1  0.94150000  0.85610000  0.05790000  1.0 -0.2089854185
O  O69  1  0.14206000  0.03878000  0.86094000  1.0 -0.1888876219
O  O70  1  0.14450000  0.05790000  0.85610000  1.0 -0.2089854185
O  O71  1  0.86094000  0.95822000  0.14206000  1.0 -0.1888876219
O  O72  1  0.85610000  0.94150000  0.14450000  1.0 -0.2089854185
O  O73  1  0.14206000  0.95822000  0.03878000  1.0 -0.1888876219
O  O74  1  0.14450000  0.94150000  0.05790000  1.0 -0.2089854185
O  O75  1  0.86094000  0.03878000  0.95822000  1.0 -0.1888876219
O  O76  1  0.85610000  0.05790000  0.94150000  1.0 -0.2089854185
O  O77  1  0.03878000  0.86094000  0.14206000  1.0 -0.1888876219
O  O78  1  0.05790000  0.85610000  0.14450000  1.0 -0.2089854185
O  O79  1  0.95822000  0.14206000  0.86094000  1.0 -0.1888876219
O  O80  1  0.94150000  0.14450000  0.85610000  1.0 -0.2089854185
O  O81  1  0.95822000  0.03878000  0.14206000  1.0 -0.1888876219
O  O82  1  0.94150000  0.05790000  0.14450000  1.0 -0.2089854185
O  O83  1  0.03878000  0.95822000  0.86094000  1.0 -0.1888876219
O  O84  1  0.05790000  0.94150000  0.85610000  1.0 -0.2089854185
O  O85  1  0.86094000  0.14206000  0.03878000  1.0 -0.1888876219
O  O86  1  0.85610000  0.14450000  0.05790000  1.0 -0.2089854185
O  O87  1  0.14206000  0.86094000  0.95822000  1.0 -0.1888876219
O  O88  1  0.14450000  0.85610000  0.94150000  1.0 -0.2089854185
O  O89  1  0.03878000  0.86094000  0.95822000  1.0 -0.1888876219
O  O90  1  0.05790000  0.85610000  0.94150000  1.0 -0.2089854185
O  O91  1  0.95822000  0.14206000  0.03878000  1.0 -0.1888876219
O  O92  1  0.94150000  0.14450000  0.05790000  1.0 -0.2089854185
O  O93  1  0.14206000  0.95822000  0.86094000  1.0 -0.1888876219
O  O94  1  0.14450000  0.94150000  0.85610000  1.0 -0.2089854185
O  O95  1  0.86094000  0.03878000  0.14206000  1.0 -0.1888876219
O  O96  1  0.85610000  0.05790000  0.14450000  1.0 -0.2089854185
O  O97  1  0.14206000  0.86094000  0.03878000  1.0 -0.1888876219
O  O98  1  0.14450000  0.85610000  0.05790000  1.0 -0.2089854185
O  O99  1  0.86094000  0.14206000  0.95822000  1.0 -0.1888876219
O  O100  1  0.85610000  0.14450000  0.94150000  1.0 -0.2039090983
O  O101  1  0.03878000  0.95822000  0.14206000  1.0 -0.1888876219
O  O102  1  0.05790000  0.94150000  0.14450000  1.0 -0.2089854185
O  O103  1  0.95822000  0.03878000  0.86094000  1.0 -0.1888876219
O  O104  1  0.94150000  0.05790000  0.85610000  1.0 -0.2089854185
O  O105  1  0.95822000  0.86094000  0.14206000  1.0 -0.1888876219
O  O106  1  0.94150000  0.85610000  0.14450000  1.0 -0.2089854185
O  O107  1  0.03878000  0.14206000  0.86094000  1.0 -0.1888876219
O  O108  1  0.05790000  0.14450000  0.85610000  1.0 -0.2089854185
O  O109  1  0.86094000  0.95822000  0.03878000  1.0 -0.1888876219
O  O110  1  0.85610000  0.94150000  0.05790000  1.0 -0.2089854185
O  O111  1  0.14206000  0.03878000  0.95822000  1.0 -0.1888876219
O  O112  1  0.14450000  0.05790000  0.94150000  1.0 -0.2089854185
O  O113  1  0.03694000  0.03694000  0.88918000  1.0 -0.3317002887
O  O114  1  0.02660000  0.02660000  0.92020000  1.0 -0.3317002887
O  O115  1  0.88918000  0.03694000  0.03694000  1.0 -0.3317002887
O  O116  1  0.92020000  0.02660000  0.02660000  1.0 -0.3317002887
O  O117  1  0.03694000  0.03694000  0.03694000  1.0 -0.3317002887
O  O118  1  0.02660000  0.02660000  0.02660000  1.0 -0.3317002887
O  O119  1  0.03694000  0.88918000  0.03694000  1.0 -0.3317002887
O  O120  1  0.02660000  0.92020000  0.02660000  1.0 -0.3317002887
O  O121  1  0.97310000  0.08070000  0.97310000  1.0 -0.4288087963
O  O122  1  0.96620000  0.10140000  0.96620000  1.0 -0.5254386357
O  O123  1  0.97310000  0.97310000  0.97310000  1.0 -0.4288087963
O  O124  1  0.96620000  0.96620000  0.96620000  1.0 -0.5247150353
O  O125  1  0.08070000  0.97310000  0.97310000  1.0 -0.4288087963
O  O126  1  0.10140000  0.96620000  0.96620000  1.0 -0.5247150353
O  O127  1  0.97310000  0.97310000  0.08070000  1.0 -0.4288087963
O  O128  1  0.96620000  0.96620000  0.10140000  1.0 -0.5254386357
F  F1  1  0.24080000  0.66840000  0.16940000  1.0 -0.0876255837
F  F2  1  0.24200000  0.76640000  0.16820000  1.0 -0.0679918189
F  F3  1  0.27560000  0.65440000  0.35260000  1.0 -0.0631337499
F  F4  1  0.27440000  0.56020000  0.35240000  1.0 -0.098738779
F  F5  1  0.16940000  0.92140000  0.24080000  1.0 -0.0876255837
F  F6  1  0.16820000  0.82340000  0.24200000  1.0 -0.0679918189
F  F7  1  0.35260000  0.71740000  0.27560000  1.0 -0.0631337499
F  F8  1  0.35240000  0.81300000  0.27440000  1.0 -0.098738779
F  F9  1  0.92140000  0.16940000  0.66840000  1.0 -0.0876255837
F  F10  1  0.82340000  0.16820000  0.76640000  1.0 -0.0679918189
F  F11  1  0.71740000  0.35260000  0.65440000  1.0 -0.0631337499
F  F12  1  0.81300000  0.35240000  0.56020000  1.0 -0.098738779
F  F13  1  0.66840000  0.24080000  0.92140000  1.0 -0.0876255837
F  F14  1  0.76640000  0.24200000  0.82340000  1.0 -0.0679918189
F  F15  1  0.65440000  0.27560000  0.71740000  1.0 -0.0679918189
F  F16  1  0.56020000  0.27440000  0.81300000  1.0 -0.098738779
F  F17  1  0.92140000  0.66840000  0.24080000  1.0 -0.0876255837
F  F18  1  0.82340000  0.76640000  0.24200000  1.0 -0.0679918189
F  F19  1  0.71740000  0.65440000  0.27560000  1.0 -0.0631337499
F  F20  1  0.81300000  0.56020000  0.27440000  1.0 -0.098738779
F  F21  1  0.66840000  0.92140000  0.16940000  1.0 -0.0876255837
F  F22  1  0.76640000  0.82340000  0.16820000  1.0 -0.0679918189
F  F23  1  0.65440000  0.71740000  0.35260000  1.0 -0.0631337499
F  F24  1  0.56020000  0.81300000  0.35240000  1.0 -0.098738779
F  F25  1  0.24080000  0.16940000  0.92140000  1.0 -0.0876255837
F  F26  1  0.24200000  0.16820000  0.82340000  1.0 -0.0679918189
F  F27  1  0.27560000  0.35260000  0.71740000  1.0 -0.0631337499
F  F28  1  0.27440000  0.35240000  0.81300000  1.0 -0.098738779
F  F29  1  0.16940000  0.24080000  0.66840000  1.0 -0.0876255837
F  F30  1  0.16820000  0.24200000  0.76640000  1.0 -0.0679918189
F  F31  1  0.35260000  0.27560000  0.65440000  1.0 -0.0679918189
F  F32  1  0.35240000  0.27440000  0.56020000  1.0 -0.098738779
F  F33  1  0.16940000  0.66840000  0.92140000  1.0 -0.0876255837
F  F34  1  0.16820000  0.76640000  0.82340000  1.0 -0.0679918189
F  F35  1  0.35260000  0.65440000  0.71740000  1.0 -0.0679918189
F  F36  1  0.35240000  0.56020000  0.81300000  1.0 -0.098738779
F  F37  1  0.24080000  0.92140000  0.66840000  1.0 -0.0876255837
F  F38  1  0.24200000  0.82340000  0.76640000  1.0 -0.0679918189
F  F39  1  0.27560000  0.71740000  0.65440000  1.0 -0.0631337499
F  F40  1  0.27440000  0.81300000  0.56020000  1.0 -0.098738779
F  F41  1  0.66840000  0.16940000  0.24080000  1.0 -0.0876255837
F  F42  1  0.76640000  0.16820000  0.24200000  1.0 -0.0679918189
F  F43  1  0.65440000  0.35260000  0.27560000  1.0 -0.0631337499
F  F44  1  0.56020000  0.35240000  0.27440000  1.0 -0.098738779
F  F45  1  0.92140000  0.24080000  0.16940000  1.0 -0.0876255837
F  F46  1  0.82340000  0.24200000  0.16820000  1.0 -0.0679918189
F  F47  1  0.71740000  0.27560000  0.35260000  1.0 -0.0631337499
F  F48  1  0.81300000  0.27440000  0.35240000  1.0 -0.098738779
F  F49  1  0.24080000  0.92140000  0.16940000  1.0 -0.0876255837
F  F50  1  0.24200000  0.82340000  0.16820000  1.0 -0.0679918189
F  F51  1  0.27560000  0.71740000  0.35260000  1.0 -0.0631337499
F  F52  1  0.27440000  0.81300000  0.35240000  1.0 -0.098738779
F  F53  1  0.16940000  0.66840000  0.24080000  1.0 -0.0876255837
F  F54  1  0.16820000  0.76640000  0.24200000  1.0 -0.0679918189
F  F55  1  0.35260000  0.65440000  0.27560000  1.0 -0.0631337499
F  F56  1  0.35240000  0.56020000  0.27440000  1.0 -0.098738779
F  F57  1  0.92140000  0.24080000  0.66840000  1.0 -0.0876255837
F  F58  1  0.82340000  0.24200000  0.76640000  1.0 -0.0679918189
F  F59  1  0.71740000  0.27560000  0.65440000  1.0 -0.0631337499
F  F60  1  0.81300000  0.27440000  0.56020000  1.0 -0.098738779
F  F61  1  0.66840000  0.16940000  0.92140000  1.0 -0.0876255837
F  F62  1  0.76640000  0.16820000  0.82340000  1.0 -0.0679918189
F  F63  1  0.65440000  0.35260000  0.71740000  1.0 -0.0631337499
F  F64  1  0.56020000  0.35240000  0.81300000  1.0 -0.098738779
F  F65  1  0.92140000  0.16940000  0.24080000  1.0 -0.0876255837
F  F66  1  0.82340000  0.16820000  0.24200000  1.0 -0.0679918189
F  F67  1  0.71740000  0.35260000  0.27560000  1.0 -0.0631337499
F  F68  1  0.81300000  0.35240000  0.27440000  1.0 -0.098738779
F  F69  1  0.66840000  0.24080000  0.16940000  1.0 -0.0876255837
F  F70  1  0.76640000  0.24200000  0.16820000  1.0 -0.0679918189
F  F71  1  0.65440000  0.27560000  0.35260000  1.0 -0.0631337499
F  F72  1  0.56020000  0.27440000  0.35240000  1.0 -0.098738779
F  F73  1  0.24080000  0.66840000  0.92140000  1.0 -0.0876255837
F  F74  1  0.24200000  0.76640000  0.82340000  1.0 -0.0679918189
F  F75  1  0.27560000  0.65440000  0.71740000  1.0 -0.0631337499
F  F76  1  0.27440000  0.56020000  0.81300000  1.0 -0.098738779
F  F77  1  0.16940000  0.92140000  0.66840000  1.0 -0.0876255837
F  F78  1  0.16820000  0.82340000  0.76640000  1.0 -0.0679918189
F  F79  1  0.35260000  0.71740000  0.65440000  1.0 -0.0631337499
F  F80  1  0.35240000  0.81300000  0.56020000  1.0 -0.098738779
F  F81  1  0.16940000  0.24080000  0.92140000  1.0 -0.0876255837
F  F82  1  0.16820000  0.24200000  0.82340000  1.0 -0.0679918189
F  F83  1  0.35260000  0.27560000  0.71740000  1.0 -0.0679918189
F  F84  1  0.35240000  0.27440000  0.81300000  1.0 -0.098738779
F  F85  1  0.24080000  0.16940000  0.66840000  1.0 -0.0876255837
F  F86  1  0.24200000  0.16820000  0.76640000  1.0 -0.0679918189
F  F87  1  0.27560000  0.35260000  0.65440000  1.0 -0.0631337499
F  F88  1  0.27440000  0.35240000  0.56020000  1.0 -0.098738779
F  F89  1  0.66840000  0.92140000  0.24080000  1.0 -0.0876255837
F  F90  1  0.76640000  0.82340000  0.24200000  1.0 -0.0679918189
F  F91  1  0.65440000  0.71740000  0.27560000  1.0 -0.0631337499
F  F92  1  0.56020000  0.81300000  0.27440000  1.0 -0.098738779
F  F93  1  0.92140000  0.66840000  0.16940000  1.0 -0.0876255837
F  F94  1  0.82340000  0.76640000  0.16820000  1.0 -0.0679918189
F  F95  1  0.71740000  0.65440000  0.35260000  1.0 -0.0631337499
F  F96  1  0.81300000  0.56020000  0.35240000  1.0 -0.098738779
F  F97  1  0.00920000  0.32860000  0.08060000  1.0 -0.0876255837
F  F98  1  0.00800000  0.42660000  0.08180000  1.0 -0.0679918189
F  F99  1  0.97440000  0.53260000  0.89740000  1.0 -0.0631337499
F  F100  1  0.97560000  0.43700000  0.89760000  1.0 -0.098738779
F  F101  1  0.08060000  0.58160000  0.00920000  1.0 -0.0876255837
F  F102  1  0.08180000  0.48360000  0.00800000  1.0 -0.0679918189
F  F103  1  0.89740000  0.59560000  0.97440000  1.0 -0.0631337499
F  F104  1  0.89760000  0.68980000  0.97560000  1.0 -0.098738779
F  F105  1  0.32860000  0.00920000  0.58160000  1.0 -0.0876255837
F  F106  1  0.42660000  0.00800000  0.48360000  1.0 -0.0679918189
F  F107  1  0.53260000  0.97440000  0.59560000  1.0 -0.0631337499
F  F108  1  0.43700000  0.97560000  0.68980000  1.0 -0.098738779
F  F109  1  0.58160000  0.08060000  0.32860000  1.0 -0.0876255837
F  F110  1  0.48360000  0.08180000  0.42660000  1.0 -0.0679918189
F  F111  1  0.59560000  0.89740000  0.53260000  1.0 -0.0631337499
F  F112  1  0.68980000  0.89760000  0.43700000  1.0 -0.098738779
F  F113  1  0.32860000  0.08060000  0.00920000  1.0 -0.0876255837
F  F114  1  0.42660000  0.08180000  0.00800000  1.0 -0.0679918189
F  F115  1  0.53260000  0.89740000  0.97440000  1.0 -0.0631337499
F  F116  1  0.43700000  0.89760000  0.97560000  1.0 -0.098738779
F  F117  1  0.58160000  0.00920000  0.08060000  1.0 -0.0876255837
F  F118  1  0.48360000  0.00800000  0.08180000  1.0 -0.0679918189
F  F119  1  0.59560000  0.97440000  0.89740000  1.0 -0.0631337499
F  F120  1  0.68980000  0.97560000  0.89760000  1.0 -0.098738779
F  F121  1  0.00920000  0.58160000  0.32860000  1.0 -0.0876255837
F  F122  1  0.00800000  0.48360000  0.42660000  1.0 -0.0679918189
F  F123  1  0.97440000  0.59560000  0.53260000  1.0 -0.0631337499
F  F124  1  0.97560000  0.68980000  0.43700000  1.0 -0.098738779
F  F125  1  0.08060000  0.32860000  0.58160000  1.0 -0.0876255837
F  F126  1  0.08180000  0.42660000  0.48360000  1.0 -0.0679918189
F  F127  1  0.89740000  0.53260000  0.59560000  1.0 -0.0631337499
F  F128  1  0.89760000  0.43700000  0.68980000  1.0 -0.098738779
F  F129  1  0.08060000  0.00920000  0.32860000  1.0 -0.0876255837
F  F130  1  0.08180000  0.00800000  0.42660000  1.0 -0.0679918189
F  F131  1  0.89740000  0.97440000  0.53260000  1.0 -0.0631337499
F  F132  1  0.89760000  0.97560000  0.43700000  1.0 -0.098738779
F  F133  1  0.00920000  0.08060000  0.58160000  1.0 -0.0876255837
F  F134  1  0.00800000  0.08180000  0.48360000  1.0 -0.0679918189
F  F135  1  0.97440000  0.89740000  0.59560000  1.0 -0.0631337499
F  F136  1  0.97560000  0.89760000  0.68980000  1.0 -0.098738779
F  F137  1  0.58160000  0.32860000  0.00920000  1.0 -0.0876255837
F  F138  1  0.48360000  0.42660000  0.00800000  1.0 -0.0679918189
F  F139  1  0.59560000  0.53260000  0.97440000  1.0 -0.0631337499
F  F140  1  0.68980000  0.43700000  0.97560000  1.0 -0.098738779
F  F141  1  0.32860000  0.58160000  0.08060000  1.0 -0.0876255837
F  F142  1  0.42660000  0.48360000  0.08180000  1.0 -0.0679918189
F  F143  1  0.53260000  0.59560000  0.89740000  1.0 -0.0631337499
F  F144  1  0.43700000  0.68980000  0.89760000  1.0 -0.098738779
F  F145  1  0.00920000  0.58160000  0.08060000  1.0 -0.0876255837
F  F146  1  0.00800000  0.48360000  0.08180000  1.0 -0.0679918189
F  F147  1  0.97440000  0.59560000  0.89740000  1.0 -0.0631337499
F  F148  1  0.97560000  0.68980000  0.89760000  1.0 -0.098738779
F  F149  1  0.08060000  0.32860000  0.00920000  1.0 -0.0876255837
F  F150  1  0.08180000  0.42660000  0.00800000  1.0 -0.0679918189
F  F151  1  0.89740000  0.53260000  0.97440000  1.0 -0.0631337499
F  F152  1  0.89760000  0.43700000  0.97560000  1.0 -0.098738779
F  F153  1  0.32860000  0.08060000  0.58160000  1.0 -0.0876255837
F  F154  1  0.42660000  0.08180000  0.48360000  1.0 -0.0679918189
F  F155  1  0.53260000  0.89740000  0.59560000  1.0 -0.0631337499
F  F156  1  0.43700000  0.89760000  0.68980000  1.0 -0.098738779
F  F157  1  0.58160000  0.00920000  0.32860000  1.0 -0.0876255837
F  F158  1  0.48360000  0.00800000  0.42660000  1.0 -0.0679918189
F  F159  1  0.59560000  0.97440000  0.53260000  1.0 -0.0631337499
F  F160  1  0.68980000  0.97560000  0.43700000  1.0 -0.098738779
F  F161  1  0.32860000  0.58160000  0.00920000  1.0 -0.0876255837
F  F162  1  0.42660000  0.48360000  0.00800000  1.0 -0.0679918189
F  F163  1  0.53260000  0.59560000  0.97440000  1.0 -0.0631337499
F  F164  1  0.43700000  0.68980000  0.97560000  1.0 -0.098738779
F  F165  1  0.58160000  0.32860000  0.08060000  1.0 -0.0876255837
F  F166  1  0.48360000  0.42660000  0.08180000  1.0 -0.0679918189
F  F167  1  0.59560000  0.53260000  0.89740000  1.0 -0.0631337499
F  F168  1  0.68980000  0.43700000  0.89760000  1.0 -0.098738779
F  F169  1  0.00920000  0.08060000  0.32860000  1.0 -0.0876255837
F  F170  1  0.00800000  0.08180000  0.42660000  1.0 -0.0679918189
F  F171  1  0.97440000  0.89740000  0.53260000  1.0 -0.0631337499
F  F172  1  0.97560000  0.89760000  0.43700000  1.0 -0.098738779
F  F173  1  0.08060000  0.00920000  0.58160000  1.0 -0.0876255837
F  F174  1  0.08180000  0.00800000  0.48360000  1.0 -0.0679918189
F  F175  1  0.89740000  0.97440000  0.59560000  1.0 -0.0631337499
F  F176  1  0.89760000  0.97560000  0.68980000  1.0 -0.098738779
F  F177  1  0.08060000  0.58160000  0.32860000  1.0 -0.0876255837
F  F178  1  0.08180000  0.48360000  0.42660000  1.0 -0.0679918189
F  F179  1  0.89740000  0.59560000  0.53260000  1.0 -0.0631337499
F  F180  1  0.89760000  0.68980000  0.43700000  1.0 -0.098738779
F  F181  1  0.00920000  0.32860000  0.58160000  1.0 -0.0876255837
F  F182  1  0.00800000  0.42660000  0.48360000  1.0 -0.0679918189
F  F183  1  0.97440000  0.53260000  0.59560000  1.0 -0.0631337499
F  F184  1  0.97560000  0.43700000  0.68980000  1.0 -0.098738779
F  F185  1  0.58160000  0.08060000  0.00920000  1.0 -0.0876255837
F  F186  1  0.48360000  0.08180000  0.00800000  1.0 -0.0679918189
F  F187  1  0.59560000  0.89740000  0.97440000  1.0 -0.0631337499
F  F188  1  0.68980000  0.89760000  0.97560000  1.0 -0.098738779
F  F189  1  0.32860000  0.00920000  0.08060000  1.0 -0.0876255837
F  F190  1  0.42660000  0.00800000  0.08180000  1.0 -0.0679918189
F  F191  1  0.53260000  0.97440000  0.89740000  1.0 -0.0631337499
F  F192  1  0.43700000  0.97560000  0.89760000  1.0 -0.098738779
