# DDEC6 charges by PACMAN v1.1 (https://github.com/mtap-research/PACMAN-charge/)
data_LUJSOA_ion_pacman
_symmetry_space_group_name_H-M   'P 1'
_cell_length_a   6.80104000
_cell_length_b   13.84590000
_cell_length_c   23.59330000
_cell_angle_alpha   90.00000000
_cell_angle_beta   95.19520000
_cell_angle_gamma   90.00000000
_symmetry_Int_Tables_number   1
_chemical_formula_structural   Ca3C6N2ClO17
_chemical_formula_sum   'Ca12 C24 N8 Cl4 O68'
_cell_volume   2212.57218400
_cell_formula_units_Z   4
loop_
 _symmetry_equiv_pos_site_id
 _symmetry_equiv_pos_as_xyz
  1  'x, y, z'
loop_
 _atom_site_type_symbol
 _atom_site_label
 _atom_site_symmetry_multiplicity
 _atom_site_fract_x
 _atom_site_fract_y
 _atom_site_fract_z
 _atom_site_occupancy
 _atom_site_charge
Ca  Ca1  1  0.26328000  0.02235000  0.54179000  1.0 1.3360340362
Ca  Ca2  1  0.73672000  0.52235000  0.95821000  1.0 1.3360340362
Ca  Ca3  1  0.73672000  0.97765000  0.45821000  1.0 1.3360340362
Ca  Ca4  1  0.26328000  0.47765000  0.04179000  1.0 1.3360340362
Ca  Ca5  1  0.29943000  0.94045000  0.75113000  1.0 1.3166075711
Ca  Ca6  1  0.70057000  0.44045000  0.74887000  1.0 1.3166075711
Ca  Ca7  1  0.70057000  0.05955000  0.24887000  1.0 1.3166075711
Ca  Ca8  1  0.29943000  0.55955000  0.25113000  1.0 1.3166075711
Ca  Ca9  1  0.17883000  0.50442000  0.67259000  1.0 1.3260036772
Ca  Ca10  1  0.82117000  0.00442000  0.82741000  1.0 1.3260036772
Ca  Ca11  1  0.82117000  0.49558000  0.32741000  1.0 1.3260036772
Ca  Ca12  1  0.17883000  0.99558000  0.17259000  1.0 1.3260036772
C  C1  1  0.76673000  0.05452000  0.57597000  1.0 0.7037331228
C  C2  1  0.23327000  0.55452000  0.92403000  1.0 0.7037331228
C  C3  1  0.23327000  0.94548000  0.42403000  1.0 0.7037331228
C  C4  1  0.76673000  0.44548000  0.07597000  1.0 0.7037331228
C  C5  1  0.78488000  0.10987000  0.63100000  1.0 -0.1557622413
C  C6  1  0.21512000  0.60987000  0.86900000  1.0 -0.1541085178
C  C7  1  0.21512000  0.89013000  0.36900000  1.0 -0.1541085178
C  C8  1  0.78488000  0.39013000  0.13100000  1.0 -0.1557622413
C  C9  1  0.33426000  0.04126000  0.86296000  1.0 0.7148672705
C  C10  1  0.66574000  0.54126000  0.63704000  1.0 0.7148672705
C  C11  1  0.66574000  0.95874000  0.13704000  1.0 0.7148672705
C  C12  1  0.33426000  0.45874000  0.36296000  1.0 0.7148672705
C  C13  1  0.36326000  0.10926000  0.91245000  1.0 -0.2196256211
C  C14  1  0.63674000  0.60926000  0.58755000  1.0 -0.2196256211
C  C15  1  0.63674000  0.89074000  0.08755000  1.0 -0.2196256211
C  C16  1  0.36326000  0.39074000  0.41245000  1.0 -0.2196256211
C  C17  1  0.78169000  0.90335000  0.71868000  1.0 0.66995678
C  C18  1  0.21831000  0.40335000  0.78132000  1.0 0.66995678
C  C19  1  0.21831000  0.09665000  0.28132000  1.0 0.66995678
C  C20  1  0.78169000  0.59665000  0.21868000  1.0 0.66995678
C  C21  1  0.76162000  0.83941000  0.66707000  1.0 -0.1907957504
C  C22  1  0.23838000  0.33941000  0.83293000  1.0 -0.1907957504
C  C23  1  0.23838000  0.16059000  0.33293000  1.0 -0.1907957504
C  C24  1  0.76162000  0.66059000  0.16707000  1.0 -0.1907957504
N  N1  1  0.29520000  0.09037000  0.66269000  1.0 0.726153708
N  N2  1  0.70480000  0.59037000  0.83731000  1.0 0.726153708
N  N3  1  0.70480000  0.90963000  0.33731000  1.0 0.726153708
N  N4  1  0.29520000  0.40963000  0.16269000  1.0 0.726153708
N  N5  1  0.22939000  0.71182000  0.68139000  1.0 0.7610445684
N  N6  1  0.77061000  0.21182000  0.81861000  1.0 0.7610445684
N  N7  1  0.77061000  0.28818000  0.31861000  1.0 0.7610445684
N  N8  1  0.22939000  0.78818000  0.18139000  1.0 0.7610445684
Cl  Cl1  1  0.12270000  0.82666000  0.98427000  1.0 0.2747258907
Cl  Cl2  1  0.87730000  0.32666000  0.51573000  1.0 0.2781867152
Cl  Cl3  1  0.87730000  0.17334000  0.01573000  1.0 0.2781867152
Cl  Cl4  1  0.12270000  0.67334000  0.48427000  1.0 0.2747258907
O  O1  1  0.60114000  0.03358000  0.55263000  1.0 -0.6960932846
O  O2  1  0.39886000  0.53358000  0.94737000  1.0 -0.6960932846
O  O3  1  0.39886000  0.96642000  0.44737000  1.0 -0.6960932846
O  O4  1  0.60114000  0.46642000  0.05263000  1.0 -0.6960932846
O  O5  1  0.91542000  0.03799000  0.55054000  1.0 -0.6515197689
O  O6  1  0.08458000  0.53799000  0.94946000  1.0 -0.6515197689
O  O7  1  0.08458000  0.96201000  0.44946000  1.0 -0.6515197689
O  O8  1  0.91542000  0.46201000  0.05054000  1.0 -0.6515197689
O  O9  1  0.28990000  0.99971000  0.64842000  1.0 -0.5250707502
O  O10  1  0.71010000  0.49971000  0.85158000  1.0 -0.5243721242
O  O11  1  0.71010000  0.00029000  0.35158000  1.0 -0.5243721242
O  O12  1  0.28990000  0.50029000  0.14842000  1.0 -0.5250707502
O  O13  1  0.30350000  0.11492000  0.71603000  1.0 -0.4441359575
O  O14  1  0.69650000  0.61492000  0.78397000  1.0 -0.4441359575
O  O15  1  0.69650000  0.88508000  0.28397000  1.0 -0.4441359575
O  O16  1  0.30350000  0.38508000  0.21603000  1.0 -0.4441359575
O  O17  1  0.27640000  0.15631000  0.62338000  1.0 -0.3674093718
O  O18  1  0.72360000  0.65631000  0.87662000  1.0 -0.3674093718
O  O19  1  0.72360000  0.84369000  0.37662000  1.0 -0.3674093718
O  O20  1  0.27640000  0.34369000  0.12338000  1.0 -0.3674093718
O  O21  1  0.26400000  0.19114000  0.49955000  1.0 -0.17105556
O  O22  1  0.73600000  0.69114000  0.00045000  1.0 -0.17105556
O  O23  1  0.73600000  0.80886000  0.50045000  1.0 -0.17105556
O  O24  1  0.26400000  0.30886000  0.99955000  1.0 -0.17105556
O  O25  1  0.25250000  0.85100000  0.56041000  1.0 -0.0463486138
O  O26  1  0.74750000  0.35100000  0.93959000  1.0 -0.0439635525
O  O27  1  0.74750000  0.14900000  0.43959000  1.0 -0.0463486138
O  O28  1  0.25250000  0.64900000  0.06041000  1.0 -0.0463486138
O  O29  1  0.17742000  0.66829000  0.63360000  1.0 -0.4655179019
O  O30  1  0.82258000  0.16829000  0.86640000  1.0 -0.4655179019
O  O31  1  0.82258000  0.33171000  0.36640000  1.0 -0.4655179019
O  O32  1  0.17742000  0.83171000  0.13360000  1.0 -0.4655179019
O  O33  1  0.26240000  0.80403000  0.68169000  1.0 -0.4256659756
O  O34  1  0.73760000  0.30403000  0.81831000  1.0 -0.4256659756
O  O35  1  0.73760000  0.19597000  0.31831000  1.0 -0.4256659756
O  O36  1  0.26240000  0.69597000  0.18169000  1.0 -0.4256659756
O  O37  1  0.22510000  0.66603000  0.72929000  1.0 -0.4592787857
O  O38  1  0.77490000  0.16603000  0.77071000  1.0 -0.4592787857
O  O39  1  0.77490000  0.33397000  0.27071000  1.0 -0.4592787857
O  O40  1  0.22510000  0.83397000  0.22929000  1.0 -0.4592787857
O  O41  1  0.47745000  0.01835000  0.83618000  1.0 -0.6697960655
O  O42  1  0.52255000  0.51835000  0.66382000  1.0 -0.6697960655
O  O43  1  0.52255000  0.98165000  0.16382000  1.0 -0.6697960655
O  O44  1  0.47745000  0.48165000  0.33618000  1.0 -0.6697960655
O  O45  1  0.16392000  0.02322000  0.84179000  1.0 -0.6697960655
O  O46  1  0.83608000  0.52322000  0.65821000  1.0 -0.6697960655
O  O47  1  0.83608000  0.97678000  0.15821000  1.0 -0.6697960655
O  O48  1  0.16392000  0.47678000  0.34179000  1.0 -0.6697960655
O  O49  1  0.63153000  0.93162000  0.74011000  1.0 -0.6226805533
O  O50  1  0.36847000  0.43162000  0.75989000  1.0 -0.6226805533
O  O51  1  0.36847000  0.06838000  0.25989000  1.0 -0.6226805533
O  O52  1  0.63153000  0.56838000  0.24011000  1.0 -0.6226805533
O  O53  1  0.94719000  0.93285000  0.73803000  1.0 -0.6380980844
O  O54  1  0.05281000  0.43285000  0.76197000  1.0 -0.6380980844
O  O55  1  0.05281000  0.06715000  0.26197000  1.0 -0.6380980844
O  O56  1  0.94719000  0.56715000  0.23803000  1.0 -0.6380980844
O  O57  1  0.34530000  0.80920000  0.81762000  1.0 0.0340239321
O  O58  1  0.65470000  0.30920000  0.68238000  1.0 0.0371113112
O  O59  1  0.65470000  0.19080000  0.18238000  1.0 0.0371113112
O  O60  1  0.34530000  0.69080000  0.31762000  1.0 0.0340239321
O  O61  1  0.13470000  0.34010000  0.65300000  1.0 -0.2196256211
O  O62  1  0.86530000  0.84010000  0.84700000  1.0 -0.2196256211
O  O63  1  0.86530000  0.65990000  0.34700000  1.0 -0.2196256211
O  O64  1  0.13470000  0.15990000  0.15300000  1.0 -0.2196256211
O  O65  1  0.16420000  0.48662000  0.56404000  1.0 -0.2299211259
O  O66  1  0.83580000  0.98662000  0.93596000  1.0 -0.2299211259
O  O67  1  0.83580000  0.51338000  0.43596000  1.0 -0.2299211259
O  O68  1  0.16420000  0.01338000  0.06404000  1.0 -0.2299211259
