# DDEC6 charges by PACMAN v1.1 (https://github.com/mtap-research/PACMAN-charge/)
data_LULPOA_ASR_pacman
_symmetry_space_group_name_H-M   'P 1'
_cell_length_a   11.34250000
_cell_length_b   11.34250000
_cell_length_c   15.05700000
_cell_angle_alpha   72.33690000
_cell_angle_beta   107.66300000
_cell_angle_gamma   92.48620000
_symmetry_Int_Tables_number   1
_chemical_formula_structural   Zn2H21C35N6(Cl2O5)2
_chemical_formula_sum   'Zn4 H42 C70 N12 Cl8 O20'
_cell_volume   1756.25095312
_cell_formula_units_Z   2
loop_
 _symmetry_equiv_pos_site_id
 _symmetry_equiv_pos_as_xyz
  1  'x, y, z'
loop_
 _atom_site_type_symbol
 _atom_site_label
 _atom_site_symmetry_multiplicity
 _atom_site_fract_x
 _atom_site_fract_y
 _atom_site_fract_z
 _atom_site_occupancy
 _atom_site_charge
Zn  Zn1  1  0.55793000  0.09741000  0.38956000  1.0 0.7970114383
Zn  Zn2  1  0.09741000  0.55793000  0.11044000  1.0 0.7970114383
Zn  Zn3  1  0.44207000  0.90259000  0.61044000  1.0 0.7970114383
Zn  Zn4  1  0.90259000  0.44207000  0.88956000  1.0 0.7970114383
H  H1  1  0.73530000  0.30210000  0.40250000  1.0 0.1209033856
H  H2  1  0.74560000  0.50740000  0.39900000  1.0 0.1209033856
H  H3  1  0.37920000  0.51300000  0.37040000  1.0 0.1209033856
H  H4  1  0.37750000  0.30990000  0.36730000  1.0 0.1098422423
H  H5  1  0.38870000  0.91810000  0.30210000  1.0 0.1098422423
H  H6  1  0.38280000  0.71480000  0.29980000  1.0 0.1209033856
H  H7  1  0.74450000  0.66570000  0.46340000  1.0 0.1298986856
H  H8  1  0.73830000  0.86930000  0.46200000  1.0 0.1209033856
H  H9  1  0.07910000  0.90810000  0.39590000  1.0 0.0978086438
H  H10  1  0.11880000  0.86440000  0.36530000  1.0 0.0911629047
H  H11  1  0.30210000  0.73530000  0.09750000  1.0 0.1209033856
H  H12  1  0.50740000  0.74560000  0.10100000  1.0 0.1209033856
H  H13  1  0.51300000  0.37920000  0.12960000  1.0 0.1209033856
H  H14  1  0.30990000  0.37750000  0.13270000  1.0 0.1098422423
H  H15  1  0.91810000  0.38870000  0.19790000  1.0 0.1098422423
H  H16  1  0.71480000  0.38280000  0.20020000  1.0 0.1209033856
H  H17  1  0.66570000  0.74450000  0.03660000  1.0 0.1298986856
H  H18  1  0.86930000  0.73830000  0.03800000  1.0 0.1209033856
H  H19  1  0.90810000  0.07910000  0.10410000  1.0 0.0978086438
H  H20  1  0.86440000  0.11880000  0.13470000  1.0 0.0911629047
H  H21  1  0.26470000  0.69790000  0.59750000  1.0 0.1209033856
H  H22  1  0.25440000  0.49260000  0.60100000  1.0 0.1209033856
H  H23  1  0.62080000  0.48700000  0.62960000  1.0 0.1209033856
H  H24  1  0.62250000  0.69010000  0.63270000  1.0 0.1098422423
H  H25  1  0.61130000  0.08190000  0.69790000  1.0 0.1098422423
H  H26  1  0.61720000  0.28520000  0.70020000  1.0 0.1209033856
H  H27  1  0.25550000  0.33430000  0.53660000  1.0 0.1298986856
H  H28  1  0.26170000  0.13070000  0.53800000  1.0 0.1209033856
H  H29  1  0.92090000  0.09190000  0.60410000  1.0 0.0978086438
H  H30  1  0.88120000  0.13560000  0.63470000  1.0 0.0911629047
H  H31  1  0.69790000  0.26470000  0.90250000  1.0 0.1209033856
H  H32  1  0.49260000  0.25440000  0.89900000  1.0 0.1209033856
H  H33  1  0.48700000  0.62080000  0.87040000  1.0 0.1209033856
H  H34  1  0.69010000  0.62250000  0.86730000  1.0 0.1098422423
H  H35  1  0.08190000  0.61130000  0.80210000  1.0 0.1098422423
H  H36  1  0.28520000  0.61720000  0.79980000  1.0 0.1209033856
H  H37  1  0.33430000  0.25550000  0.96340000  1.0 0.1298986856
H  H38  1  0.13070000  0.26170000  0.96200000  1.0 0.1209033856
H  H39  1  0.09190000  0.92090000  0.89590000  1.0 0.0978086438
H  H40  1  0.13560000  0.88120000  0.86530000  1.0 0.0911629047
H  H41  1  0.21420000  0.21420000  0.25000000  1.0 0.1209033856
H  H42  1  0.78580000  0.78580000  0.75000000  1.0 0.1209033856
C  C1  1  0.29580000  0.01980000  0.40770000  1.0 0.546185318
C  C2  1  0.17670000  0.04290000  0.32560000  1.0 0.0118965996
C  C3  1  0.07730000  0.96530000  0.33450000  1.0 -0.033217391
C  C4  1  0.66160000  0.34640000  0.39420000  1.0 0.0911629047
C  C5  1  0.66900000  0.46860000  0.39320000  1.0 -0.1873562005
C  C6  1  0.56230000  0.53410000  0.38360000  1.0 0.1098422423
C  C7  1  0.45340000  0.47220000  0.37550000  1.0 -0.1873562005
C  C8  1  0.45340000  0.35020000  0.37470000  1.0 0.0978086438
C  C9  1  0.46150000  0.86530000  0.33610000  1.0 0.0832405719
C  C10  1  0.45730000  0.74430000  0.33380000  1.0 -0.1747244265
C  C11  1  0.56390000  0.66590000  0.38200000  1.0 0.1098422423
C  C12  1  0.66960000  0.71540000  0.43010000  1.0 -0.2210509595
C  C13  1  0.66510000  0.83730000  0.42900000  1.0 0.0344854924
C  C14  1  0.85170000  0.92210000  0.28320000  1.0 -0.0666819182
C  C15  1  0.95740000  0.00440000  0.26960000  1.0 0.022230926
C  C16  1  0.10440000  0.94000000  0.31150000  1.0 -0.033217391
C  C17  1  0.01980000  0.29580000  0.09230000  1.0 0.546185318
C  C18  1  0.04290000  0.17670000  0.17440000  1.0 0.0118965996
C  C19  1  0.96530000  0.07730000  0.16550000  1.0 -0.033217391
C  C20  1  0.34640000  0.66160000  0.10580000  1.0 0.0911629047
C  C21  1  0.46860000  0.66900000  0.10680000  1.0 -0.1873562005
C  C22  1  0.53410000  0.56230000  0.11640000  1.0 0.1098422423
C  C23  1  0.47220000  0.45340000  0.12450000  1.0 -0.1873562005
C  C24  1  0.35020000  0.45340000  0.12530000  1.0 0.0978086438
C  C25  1  0.86530000  0.46150000  0.16390000  1.0 0.0832405719
C  C26  1  0.74430000  0.45730000  0.16620000  1.0 -0.1747244265
C  C27  1  0.66590000  0.56390000  0.11800000  1.0 0.1098422423
C  C28  1  0.71540000  0.66960000  0.06990000  1.0 -0.2210509595
C  C29  1  0.83730000  0.66510000  0.07100000  1.0 0.0344854924
C  C30  1  0.92210000  0.85170000  0.21680000  1.0 -0.0666819182
C  C31  1  0.00440000  0.95740000  0.23040000  1.0 0.022230926
C  C32  1  0.94000000  0.10440000  0.18850000  1.0 -0.033217391
C  C33  1  0.70420000  0.98020000  0.59230000  1.0 0.546185318
C  C34  1  0.82330000  0.95710000  0.67440000  1.0 0.0118965996
C  C35  1  0.92270000  0.03470000  0.66550000  1.0 -0.033217391
C  C36  1  0.33840000  0.65360000  0.60580000  1.0 0.0911629047
C  C37  1  0.33100000  0.53140000  0.60680000  1.0 -0.1873562005
C  C38  1  0.43770000  0.46590000  0.61640000  1.0 0.1098422423
C  C39  1  0.54660000  0.52780000  0.62450000  1.0 -0.1873562005
C  C40  1  0.54660000  0.64980000  0.62530000  1.0 0.0978086438
C  C41  1  0.53850000  0.13470000  0.66390000  1.0 0.0832405719
C  C42  1  0.54270000  0.25570000  0.66620000  1.0 -0.1747244265
C  C43  1  0.43610000  0.33410000  0.61800000  1.0 0.1098422423
C  C44  1  0.33040000  0.28460000  0.56990000  1.0 -0.2210509595
C  C45  1  0.33490000  0.16270000  0.57100000  1.0 0.0344854924
C  C46  1  0.14830000  0.07790000  0.71680000  1.0 -0.0666819182
C  C47  1  0.04260000  0.99560000  0.73040000  1.0 0.022230926
C  C48  1  0.89560000  0.06000000  0.68850000  1.0 -0.033217391
C  C49  1  0.98020000  0.70420000  0.90770000  1.0 0.546185318
C  C50  1  0.95710000  0.82330000  0.82560000  1.0 0.0118965996
C  C51  1  0.03470000  0.92270000  0.83450000  1.0 -0.033217391
C  C52  1  0.65360000  0.33840000  0.89420000  1.0 0.0911629047
C  C53  1  0.53140000  0.33100000  0.89320000  1.0 -0.1873562005
C  C54  1  0.46590000  0.43770000  0.88360000  1.0 0.1098422423
C  C55  1  0.52780000  0.54660000  0.87550000  1.0 -0.1873562005
C  C56  1  0.64980000  0.54660000  0.87470000  1.0 0.0978086438
C  C57  1  0.13470000  0.53850000  0.83610000  1.0 0.0832405719
C  C58  1  0.25570000  0.54270000  0.83380000  1.0 -0.1747244265
C  C59  1  0.33410000  0.43610000  0.88200000  1.0 0.1098422423
C  C60  1  0.28460000  0.33040000  0.93010000  1.0 -0.2210509595
C  C61  1  0.16270000  0.33490000  0.92900000  1.0 0.0344854924
C  C62  1  0.07790000  0.14830000  0.78320000  1.0 -0.0666819182
C  C63  1  0.99560000  0.04260000  0.76960000  1.0 0.022230926
C  C64  1  0.06000000  0.89560000  0.81150000  1.0 -0.033217391
C  C65  1  0.15360000  0.15360000  0.25000000  1.0 -0.2083538961
C  C66  1  0.97420000  0.97420000  0.25000000  1.0 0.0832405719
C  C67  1  0.87730000  0.87730000  0.25000000  1.0 -0.0086713738
C  C68  1  0.84640000  0.84640000  0.75000000  1.0 -0.2083538961
C  C69  1  0.02580000  0.02580000  0.75000000  1.0 0.0832405719
C  C70  1  0.12270000  0.12270000  0.75000000  1.0 -0.0086713738
N  N1  1  0.55550000  0.28690000  0.38390000  1.0 -0.2210509595
N  N2  1  0.56260000  0.91240000  0.38370000  1.0 -0.2397440341
N  N3  1  0.59420000  0.15400000  0.21640000  1.0 0.6465144786
N  N4  1  0.28690000  0.55550000  0.11610000  1.0 -0.2210509595
N  N5  1  0.91240000  0.56260000  0.11630000  1.0 -0.2397440341
N  N6  1  0.15400000  0.59420000  0.28360000  1.0 0.6465144786
N  N7  1  0.44450000  0.71310000  0.61610000  1.0 -0.2210509595
N  N8  1  0.43740000  0.08760000  0.61630000  1.0 -0.2397440341
N  N9  1  0.40580000  0.84600000  0.78360000  1.0 0.6465144786
N  N10  1  0.71310000  0.44450000  0.88390000  1.0 -0.2210509595
N  N11  1  0.08760000  0.43740000  0.88370000  1.0 -0.2397440341
N  N12  1  0.84600000  0.40580000  0.71640000  1.0 0.6465144786
Cl  Cl1  1  0.74500000  0.89700000  0.19440000  1.0 -0.050432891
Cl  Cl2  1  0.79430000  0.84810000  0.26360000  1.0 -0.0199734966
Cl  Cl3  1  0.89700000  0.74500000  0.30560000  1.0 -0.050432891
Cl  Cl4  1  0.84810000  0.79430000  0.23640000  1.0 -0.0199734966
Cl  Cl5  1  0.25500000  0.10300000  0.80560000  1.0 -0.050432891
Cl  Cl6  1  0.20570000  0.15190000  0.73640000  1.0 -0.0199734966
Cl  Cl7  1  0.10300000  0.25500000  0.69440000  1.0 -0.050432891
Cl  Cl8  1  0.15190000  0.20570000  0.76360000  1.0 -0.0199734966
O  O1  1  0.38173000  0.09045000  0.39440000  1.0 -0.5340628889
O  O2  1  0.30107000  0.93371000  0.48480000  1.0 -0.4893571403
O  O3  1  0.48210000  0.14550000  0.22160000  1.0 -0.4278973904
O  O4  1  0.68100000  0.14240000  0.29570000  1.0 -0.4218464759
O  O5  1  0.61180000  0.17540000  0.13570000  1.0 -0.3788820844
O  O6  1  0.09045000  0.38173000  0.10560000  1.0 -0.5340628889
O  O7  1  0.93371000  0.30107000  0.01520000  1.0 -0.4893571403
O  O8  1  0.14550000  0.48210000  0.27840000  1.0 -0.4278973904
O  O9  1  0.14240000  0.68100000  0.20430000  1.0 -0.4218464759
O  O10  1  0.17540000  0.61180000  0.36430000  1.0 -0.3788820844
O  O11  1  0.61827000  0.90955000  0.60560000  1.0 -0.5340628889
O  O12  1  0.69893000  0.06629000  0.51520000  1.0 -0.4893571403
O  O13  1  0.51790000  0.85450000  0.77840000  1.0 -0.4278973904
O  O14  1  0.31900000  0.85760000  0.70430000  1.0 -0.4218464759
O  O15  1  0.38820000  0.82460000  0.86430000  1.0 -0.3788820844
O  O16  1  0.90955000  0.61827000  0.89440000  1.0 -0.5340628889
O  O17  1  0.06629000  0.69893000  0.98480000  1.0 -0.4893571403
O  O18  1  0.85450000  0.51790000  0.72160000  1.0 -0.4278973904
O  O19  1  0.85760000  0.31900000  0.79570000  1.0 -0.4218464759
O  O20  1  0.82460000  0.38820000  0.63570000  1.0 -0.3788820844
