# DDEC6 charges by PACMAN v1.1 (https://github.com/mtap-research/PACMAN-charge/)
data_LUMYEZ_FSR_pacman
_symmetry_space_group_name_H-M   'P 1'
_cell_length_a   13.02370000
_cell_length_b   13.02370000
_cell_length_c   16.47300000
_cell_angle_alpha   63.35150000
_cell_angle_beta   116.64800000
_cell_angle_gamma   137.27700000
_symmetry_Int_Tables_number   1
_chemical_formula_structural   Cu2H(C2N3)3
_chemical_formula_sum   'Cu8 H4 C24 N36'
_cell_volume   1661.34948169
_cell_formula_units_Z   4
loop_
 _symmetry_equiv_pos_site_id
 _symmetry_equiv_pos_as_xyz
  1  'x, y, z'
loop_
 _atom_site_type_symbol
 _atom_site_label
 _atom_site_symmetry_multiplicity
 _atom_site_fract_x
 _atom_site_fract_y
 _atom_site_fract_z
 _atom_site_occupancy
 _atom_site_charge
Cu  Cu1  1  0.78066000  0.86610000  0.96118000  1.0 0.1954308071
Cu  Cu2  1  0.86610000  0.78066000  0.53882000  1.0 0.1954308071
Cu  Cu3  1  0.21934000  0.13390000  0.03882000  1.0 0.1954308071
Cu  Cu4  1  0.13390000  0.21934000  0.46118000  1.0 0.1954308071
Cu  Cu5  1  0.57262000  0.65772000  0.62215000  1.0 0.3145580806
Cu  Cu6  1  0.65772000  0.57262000  0.87785000  1.0 0.3145580806
Cu  Cu7  1  0.42738000  0.34228000  0.37785000  1.0 0.3173599162
Cu  Cu8  1  0.34228000  0.42738000  0.12215000  1.0 0.3145580806
H  H1  1  0.40960000  0.91240000  0.62910000  1.0 0.151705324
H  H2  1  0.91240000  0.40960000  0.87090000  1.0 0.151705324
H  H3  1  0.59040000  0.08760000  0.37090000  1.0 0.151705324
H  H4  1  0.08760000  0.59040000  0.12910000  1.0 0.151705324
C  C1  1  0.44630000  0.94810000  0.57700000  1.0 -0.0927774783
C  C2  1  0.94810000  0.44630000  0.92300000  1.0 -0.0927774783
C  C3  1  0.55370000  0.05190000  0.42300000  1.0 -0.0927774783
C  C4  1  0.05190000  0.55370000  0.07700000  1.0 -0.0927774783
C  C5  1  0.54970000  0.93710000  0.58530000  1.0 0.0281944422
C  C6  1  0.93710000  0.54970000  0.91470000  1.0 0.0281944422
C  C7  1  0.45030000  0.06290000  0.41470000  1.0 0.0281944422
C  C8  1  0.06290000  0.45030000  0.08530000  1.0 0.0281944422
C  C9  1  0.60410000  0.98970000  0.50620000  1.0 0.0281944422
C  C10  1  0.98970000  0.60410000  0.99380000  1.0 0.0281944422
C  C11  1  0.39590000  0.01030000  0.49380000  1.0 0.0281944422
C  C12  1  0.01030000  0.39590000  0.00620000  1.0 0.0281944422
C  C13  1  0.71830000  0.99170000  0.50660000  1.0 0.2639425986
C  C14  1  0.99170000  0.71830000  0.99340000  1.0 0.2639425986
C  C15  1  0.28170000  0.00830000  0.49340000  1.0 0.2639425986
C  C16  1  0.00830000  0.28170000  0.00660000  1.0 0.2639425986
C  C17  1  0.60130000  0.87710000  0.67840000  1.0 0.2684363641
C  C18  1  0.87710000  0.60130000  0.82160000  1.0 0.2684363641
C  C19  1  0.39870000  0.12290000  0.32160000  1.0 0.2684363641
C  C20  1  0.12290000  0.39870000  0.17840000  1.0 0.2684363641
C  C21  1  0.62450000  0.71170000  0.03630000  1.0 0.0536410597
C  C22  1  0.71170000  0.62450000  0.46370000  1.0 0.0536410597
C  C23  1  0.37550000  0.28830000  0.96370000  1.0 0.0536410597
C  C24  1  0.28830000  0.37550000  0.53630000  1.0 0.0536410597
N  N1  1  0.84437000  0.11843000  0.47000000  1.0 -0.2342460609
N  N2  1  0.11843000  0.84437000  0.03000000  1.0 -0.2342460609
N  N3  1  0.15563000  0.88157000  0.53000000  1.0 -0.2342460609
N  N4  1  0.88157000  0.15563000  0.97000000  1.0 -0.2342460609
N  N5  1  0.91413000  0.07267000  0.47840000  1.0 -0.001599018
N  N6  1  0.07267000  0.91413000  0.02160000  1.0 -0.001599018
N  N7  1  0.08587000  0.92733000  0.52160000  1.0 -0.001599018
N  N8  1  0.92733000  0.08587000  0.97840000  1.0 -0.001599018
N  N9  1  0.83387000  0.92653000  0.51710000  1.0 0.0026520853
N  N10  1  0.92653000  0.83387000  0.98290000  1.0 0.0026520853
N  N11  1  0.16613000  0.07347000  0.48290000  1.0 0.0051303918
N  N12  1  0.07347000  0.16613000  0.01710000  1.0 0.0051303918
N  N13  1  0.70851000  0.87149000  0.53600000  1.0 -0.2235656611
N  N14  1  0.87149000  0.70851000  0.96400000  1.0 -0.2235656611
N  N15  1  0.29149000  0.12851000  0.46400000  1.0 -0.2235656611
N  N16  1  0.12851000  0.29149000  0.03600000  1.0 -0.2235656611
N  N17  1  0.59906000  0.76434000  0.70120000  1.0 -0.2143134705
N  N18  1  0.76434000  0.59906000  0.79880000  1.0 -0.2143134705
N  N19  1  0.40094000  0.23566000  0.29880000  1.0 -0.2143134705
N  N20  1  0.23566000  0.40094000  0.20120000  1.0 -0.2143134705
N  N21  1  0.65034000  0.74666000  0.79310000  1.0 -0.0141723778
N  N22  1  0.74666000  0.65034000  0.70690000  1.0 -0.0141723778
N  N23  1  0.34966000  0.25334000  0.20690000  1.0 -0.0141723778
N  N24  1  0.25334000  0.34966000  0.29310000  1.0 -0.0141723778
N  N25  1  0.68134000  0.84546000  0.82360000  1.0 0.0026520853
N  N26  1  0.84546000  0.68134000  0.67640000  1.0 0.0026520853
N  N27  1  0.31866000  0.15454000  0.17640000  1.0 0.0026520853
N  N28  1  0.15454000  0.31866000  0.32360000  1.0 0.0026520853
N  N29  1  0.64918000  0.92902000  0.75240000  1.0 -0.2409865416
N  N30  1  0.92902000  0.64918000  0.74760000  1.0 -0.2409865416
N  N31  1  0.35082000  0.07098000  0.24760000  1.0 -0.2409865416
N  N32  1  0.07098000  0.35082000  0.25240000  1.0 -0.2409865416
N  N33  1  0.52150000  0.60950000  0.07120000  1.0 -0.2896862931
N  N34  1  0.60950000  0.52150000  0.42880000  1.0 -0.2896862931
N  N35  1  0.47850000  0.39050000  0.92880000  1.0 -0.2896862931
N  N36  1  0.39050000  0.47850000  0.57120000  1.0 -0.2896862931
