# DDEC6 charges by PACMAN v1.1 (https://github.com/mtap-research/PACMAN-charge/)
data_LUMYUP_ion_pacman
_symmetry_space_group_name_H-M   'P 1'
_cell_length_a   13.03360000
_cell_length_b   13.03360000
_cell_length_c   16.37000000
_cell_angle_alpha   63.64010000
_cell_angle_beta   116.36000000
_cell_angle_gamma   136.66100000
_symmetry_Int_Tables_number   1
_chemical_formula_structural   Cu2H17(C6N5)2
_chemical_formula_sum   'Cu8 H68 C48 N40'
_cell_volume   1676.61525996
_cell_formula_units_Z   4
loop_
 _symmetry_equiv_pos_site_id
 _symmetry_equiv_pos_as_xyz
  1  'x, y, z'
loop_
 _atom_site_type_symbol
 _atom_site_label
 _atom_site_symmetry_multiplicity
 _atom_site_fract_x
 _atom_site_fract_y
 _atom_site_fract_z
 _atom_site_occupancy
 _atom_site_charge
Cu  Cu1  1  0.57822000  0.66176000  0.62207000  1.0 0.2845064564
Cu  Cu2  1  0.66176000  0.57822000  0.87793000  1.0 0.2845064564
Cu  Cu3  1  0.42178000  0.33824000  0.37793000  1.0 0.2845064564
Cu  Cu4  1  0.33824000  0.42178000  0.12207000  1.0 0.2845064564
Cu  Cu5  1  0.77819000  0.86175000  0.96609000  1.0 0.1582853621
Cu  Cu6  1  0.86175000  0.77819000  0.53391000  1.0 0.1582853621
Cu  Cu7  1  0.22181000  0.13825000  0.03391000  1.0 0.1582853621
Cu  Cu8  1  0.13825000  0.22181000  0.46609000  1.0 0.1582853621
H  H1  1  0.41130000  0.91550000  0.62990000  1.0 0.1290137905
H  H2  1  0.91550000  0.41130000  0.87010000  1.0 0.1290137905
H  H3  1  0.58870000  0.08450000  0.37010000  1.0 0.1290137905
H  H4  1  0.08450000  0.58870000  0.12990000  1.0 0.1290137905
H  H5  1  0.07430000  0.47610000  0.68970000  1.0 0.25553921
H  H6  1  0.37130000  0.63770000  0.81210000  1.0 0.138925591
H  H7  1  0.32110000  0.56030000  0.90800000  1.0 0.1493787928
H  H8  1  0.24020000  0.61360000  0.82180000  1.0 0.1290137905
H  H9  1  0.09810000  0.36370000  0.85100000  1.0 0.1022334997
H  H10  1  0.22870000  0.38850000  0.84020000  1.0 0.108660662
H  H11  1  0.09160000  0.45460000  0.53460000  1.0 0.138925591
H  H12  1  0.26210000  0.60050000  0.52680000  1.0 0.138925591
H  H13  1  0.15800000  0.61240000  0.53840000  1.0 0.1290137905
H  H14  1  0.26480000  0.46200000  0.68160000  1.0 0.108660662
H  H15  1  0.31580000  0.61160000  0.68650000  1.0 0.0869390307
H  H16  1  0.11720000  0.23420000  0.71640000  1.0 0.138925591
H  H17  1  0.94540000  0.08400000  0.71230000  1.0 0.138925591
H  H18  1  0.04660000  0.14440000  0.80550000  1.0 0.138925591
H  H19  1  0.91600000  0.25700000  0.64970000  1.0 0.108660662
H  H20  1  0.92210000  0.23010000  0.75450000  1.0 0.1022334997
H  H21  1  0.47610000  0.07430000  0.81030000  1.0 0.25553921
H  H22  1  0.63770000  0.37130000  0.68790000  1.0 0.138925591
H  H23  1  0.56030000  0.32110000  0.59200000  1.0 0.1493787928
H  H24  1  0.61360000  0.24020000  0.67820000  1.0 0.1290137905
H  H25  1  0.36370000  0.09810000  0.64900000  1.0 0.1022334997
H  H26  1  0.38850000  0.22870000  0.65980000  1.0 0.108660662
H  H27  1  0.45460000  0.09160000  0.96540000  1.0 0.138925591
H  H28  1  0.60050000  0.26210000  0.97320000  1.0 0.138925591
H  H29  1  0.61240000  0.15800000  0.96160000  1.0 0.1290137905
H  H30  1  0.46200000  0.26480000  0.81840000  1.0 0.108660662
H  H31  1  0.61160000  0.31580000  0.81350000  1.0 0.0869390307
H  H32  1  0.23420000  0.11720000  0.78360000  1.0 0.138925591
H  H33  1  0.08400000  0.94540000  0.78770000  1.0 0.138925591
H  H34  1  0.14440000  0.04660000  0.69450000  1.0 0.138925591
H  H35  1  0.25700000  0.91600000  0.85030000  1.0 0.108660662
H  H36  1  0.23010000  0.92210000  0.74550000  1.0 0.1022334997
H  H37  1  0.92570000  0.52390000  0.31030000  1.0 0.25553921
H  H38  1  0.62870000  0.36230000  0.18790000  1.0 0.138925591
H  H39  1  0.67890000  0.43970000  0.09200000  1.0 0.1493787928
H  H40  1  0.75980000  0.38640000  0.17820000  1.0 0.1290137905
H  H41  1  0.90190000  0.63630000  0.14900000  1.0 0.1022334997
H  H42  1  0.77130000  0.61150000  0.15980000  1.0 0.108660662
H  H43  1  0.90840000  0.54540000  0.46540000  1.0 0.138925591
H  H44  1  0.73790000  0.39950000  0.47320000  1.0 0.138925591
H  H45  1  0.84200000  0.38760000  0.46160000  1.0 0.1290137905
H  H46  1  0.73520000  0.53800000  0.31840000  1.0 0.108660662
H  H47  1  0.68420000  0.38840000  0.31350000  1.0 0.0869390307
H  H48  1  0.88280000  0.76580000  0.28360000  1.0 0.138925591
H  H49  1  0.05460000  0.91600000  0.28770000  1.0 0.138925591
H  H50  1  0.95340000  0.85560000  0.19450000  1.0 0.138925591
H  H51  1  0.08400000  0.74300000  0.35030000  1.0 0.108660662
H  H52  1  0.07790000  0.76990000  0.24550000  1.0 0.1022334997
H  H53  1  0.52390000  0.92570000  0.18970000  1.0 0.25553921
H  H54  1  0.36230000  0.62870000  0.31210000  1.0 0.138925591
H  H55  1  0.43970000  0.67890000  0.40800000  1.0 0.1493787928
H  H56  1  0.38640000  0.75980000  0.32180000  1.0 0.1290137905
H  H57  1  0.63630000  0.90190000  0.35100000  1.0 0.1022334997
H  H58  1  0.61150000  0.77130000  0.34020000  1.0 0.108660662
H  H59  1  0.54540000  0.90840000  0.03460000  1.0 0.138925591
H  H60  1  0.39950000  0.73790000  0.02680000  1.0 0.138925591
H  H61  1  0.38760000  0.84200000  0.03840000  1.0 0.1290137905
H  H62  1  0.53800000  0.73520000  0.18160000  1.0 0.108660662
H  H63  1  0.38840000  0.68420000  0.18650000  1.0 0.0869390307
H  H64  1  0.76580000  0.88280000  0.21640000  1.0 0.138925591
H  H65  1  0.91600000  0.05460000  0.21230000  1.0 0.138925591
H  H66  1  0.85560000  0.95340000  0.30550000  1.0 0.138925591
H  H67  1  0.74300000  0.08400000  0.14970000  1.0 0.108660662
H  H68  1  0.76990000  0.07790000  0.25450000  1.0 0.1022334997
C  C1  1  0.44690000  0.94950000  0.57740000  1.0 -0.1667177179
C  C2  1  0.94950000  0.44690000  0.92260000  1.0 -0.1667177179
C  C3  1  0.55310000  0.05050000  0.42260000  1.0 -0.1667177179
C  C4  1  0.05050000  0.55310000  0.07740000  1.0 -0.1667177179
C  C5  1  0.55100000  0.94020000  0.58570000  1.0 0.0089891464
C  C6  1  0.94020000  0.55100000  0.91430000  1.0 0.0089891464
C  C7  1  0.44900000  0.05980000  0.41430000  1.0 0.0089891464
C  C8  1  0.05980000  0.44900000  0.08570000  1.0 0.0089891464
C  C9  1  0.60620000  0.99180000  0.50720000  1.0 0.0089891464
C  C10  1  0.99180000  0.60620000  0.99280000  1.0 0.0089891464
C  C11  1  0.39380000  0.00820000  0.49280000  1.0 0.0089891464
C  C12  1  0.00820000  0.39380000  0.00720000  1.0 0.0089891464
C  C13  1  0.72200000  0.99460000  0.50860000  1.0 0.2361704646
C  C14  1  0.99460000  0.72200000  0.99140000  1.0 0.2361704646
C  C15  1  0.27800000  0.00540000  0.49140000  1.0 0.2361704646
C  C16  1  0.00540000  0.27800000  0.00860000  1.0 0.2361704646
C  C17  1  0.60300000  0.88080000  0.67990000  1.0 0.2310129045
C  C18  1  0.88080000  0.60300000  0.82010000  1.0 0.2310129045
C  C19  1  0.39700000  0.11920000  0.32010000  1.0 0.2310129045
C  C20  1  0.11920000  0.39700000  0.17990000  1.0 0.2310129045
C  C21  1  0.62450000  0.70330000  0.04210000  1.0 -0.0792344329
C  C22  1  0.70330000  0.62450000  0.45790000  1.0 -0.0792344329
C  C23  1  0.37550000  0.29670000  0.95790000  1.0 -0.0792344329
C  C24  1  0.29670000  0.37550000  0.54210000  1.0 -0.0792344329
C  C25  1  0.28630000  0.57110000  0.84180000  1.0 -0.3779587956
C  C26  1  0.18080000  0.43060000  0.81810000  1.0 -0.0697316811
C  C27  1  0.18070000  0.54910000  0.55540000  1.0 -0.416778198
C  C28  1  0.23070000  0.51570000  0.66520000  1.0 -0.0272856779
C  C29  1  0.02690000  0.17370000  0.73900000  1.0 -0.3990929337
C  C30  1  0.98060000  0.26920000  0.71110000  1.0 -0.040846732
C  C31  1  0.57110000  0.28630000  0.65820000  1.0 -0.3779587956
C  C32  1  0.43060000  0.18080000  0.68190000  1.0 -0.0697316811
C  C33  1  0.54910000  0.18070000  0.94460000  1.0 -0.416778198
C  C34  1  0.51570000  0.23070000  0.83480000  1.0 -0.0272856779
C  C35  1  0.17370000  0.02690000  0.76100000  1.0 -0.3990929337
C  C36  1  0.26920000  0.98060000  0.78890000  1.0 -0.040846732
C  C37  1  0.71370000  0.42890000  0.15820000  1.0 -0.3779587956
C  C38  1  0.81920000  0.56940000  0.18190000  1.0 -0.0697316811
C  C39  1  0.81930000  0.45090000  0.44460000  1.0 -0.416778198
C  C40  1  0.76930000  0.48430000  0.33480000  1.0 -0.0272856779
C  C41  1  0.97310000  0.82630000  0.26100000  1.0 -0.3990929337
C  C42  1  0.01940000  0.73080000  0.28890000  1.0 -0.040846732
C  C43  1  0.42890000  0.71370000  0.34180000  1.0 -0.3779587956
C  C44  1  0.56940000  0.81920000  0.31810000  1.0 -0.0697316811
C  C45  1  0.45090000  0.81930000  0.05540000  1.0 -0.416778198
C  C46  1  0.48430000  0.76930000  0.16520000  1.0 -0.0272856779
C  C47  1  0.82630000  0.97310000  0.23900000  1.0 -0.3990929337
C  C48  1  0.73080000  0.01940000  0.21110000  1.0 -0.040846732
N  N1  1  0.84813000  0.12087000  0.47450000  1.0 -0.3099000664
N  N2  1  0.12087000  0.84813000  0.02550000  1.0 -0.3099000664
N  N3  1  0.15187000  0.87913000  0.52550000  1.0 -0.3099000664
N  N4  1  0.87913000  0.15187000  0.97450000  1.0 -0.3099000664
N  N5  1  0.91891000  0.07569000  0.48260000  1.0 -0.0272856779
N  N6  1  0.07569000  0.91891000  0.01740000  1.0 -0.0272856779
N  N7  1  0.08109000  0.92431000  0.51740000  1.0 -0.0272856779
N  N8  1  0.92431000  0.08109000  0.98260000  1.0 -0.0272856779
N  N9  1  0.83803000  0.92977000  0.51920000  1.0 -0.040846732
N  N10  1  0.92977000  0.83803000  0.98080000  1.0 -0.040846732
N  N11  1  0.16197000  0.07023000  0.48080000  1.0 -0.040846732
N  N12  1  0.07023000  0.16197000  0.01920000  1.0 -0.040846732
N  N13  1  0.71275000  0.87485000  0.53680000  1.0 -0.2494141372
N  N14  1  0.87485000  0.71275000  0.96320000  1.0 -0.2494141372
N  N15  1  0.28725000  0.12515000  0.46320000  1.0 -0.2494141372
N  N16  1  0.12515000  0.28725000  0.03680000  1.0 -0.2494141372
N  N17  1  0.64484000  0.92676000  0.75600000  1.0 -0.296854666
N  N18  1  0.92676000  0.64484000  0.74400000  1.0 -0.296854666
N  N19  1  0.35516000  0.07324000  0.24400000  1.0 -0.296854666
N  N20  1  0.07324000  0.35516000  0.25600000  1.0 -0.296854666
N  N21  1  0.67928000  0.84572000  0.82560000  1.0 -0.0030562353
N  N22  1  0.84572000  0.67928000  0.67440000  1.0 -0.0030562353
N  N23  1  0.32072000  0.15428000  0.17440000  1.0 -0.0030562353
N  N24  1  0.15428000  0.32072000  0.32560000  1.0 -0.0030562353
N  N25  1  0.65597000  0.75283000  0.79380000  1.0 -0.0565385712
N  N26  1  0.75283000  0.65597000  0.70620000  1.0 -0.0565385712
N  N27  1  0.34403000  0.24717000  0.20620000  1.0 -0.0565385712
N  N28  1  0.24717000  0.34403000  0.29380000  1.0 -0.0565385712
N  N29  1  0.60775000  0.77245000  0.70130000  1.0 -0.2494141372
N  N30  1  0.77245000  0.60775000  0.79870000  1.0 -0.2494141372
N  N31  1  0.39225000  0.22755000  0.29870000  1.0 -0.2494141372
N  N32  1  0.22755000  0.39225000  0.20130000  1.0 -0.2494141372
N  N33  1  0.52060000  0.60180000  0.07490000  1.0 -0.3458577009
N  N34  1  0.60180000  0.52060000  0.42510000  1.0 -0.3458577009
N  N35  1  0.47940000  0.39820000  0.92510000  1.0 -0.3458577009
N  N36  1  0.39820000  0.47940000  0.57490000  1.0 -0.3458577009
N  N37  1  0.10990000  0.42750000  0.71070000  1.0 -0.0140403235
N  N38  1  0.42750000  0.10990000  0.78930000  1.0 -0.0140403235
N  N39  1  0.89010000  0.57250000  0.28930000  1.0 -0.0140403235
N  N40  1  0.57250000  0.89010000  0.21070000  1.0 -0.0140403235
