# DDEC6 charges by PACMAN v1.1 (https://github.com/mtap-research/PACMAN-charge/)
data_LUMZAW_ion_pacman
_symmetry_space_group_name_H-M   'P 1'
_cell_length_a   13.02050000
_cell_length_b   13.02050000
_cell_length_c   16.95900000
_cell_angle_alpha   62.66770000
_cell_angle_beta   117.33200000
_cell_angle_gamma   138.46500000
_symmetry_Int_Tables_number   1
_chemical_formula_structural   Cu2H17(C6N5)2
_chemical_formula_sum   'Cu8 H68 C48 N40'
_cell_volume   1660.74341150
_cell_formula_units_Z   4
loop_
 _symmetry_equiv_pos_site_id
 _symmetry_equiv_pos_as_xyz
  1  'x, y, z'
loop_
 _atom_site_type_symbol
 _atom_site_label
 _atom_site_symmetry_multiplicity
 _atom_site_fract_x
 _atom_site_fract_y
 _atom_site_fract_z
 _atom_site_occupancy
 _atom_site_charge
Cu  Cu1  1  0.17602000  0.48274000  0.67665000  1.0 0.2782063521
Cu  Cu2  1  0.51726000  0.82398000  0.17665000  1.0 0.2782063521
Cu  Cu3  1  0.95549000  0.25149000  0.35151000  1.0 0.2059875465
Cu  Cu4  1  0.74851000  0.04451000  0.85151000  1.0 0.2059875465
Cu  Cu5  1  0.25121000  0.37741000  0.27256000  1.0 0.3091842122
Cu  Cu6  1  0.62259000  0.74879000  0.77256000  1.0 0.3091842122
Cu  Cu7  1  0.05679000  0.18437000  0.60291000  1.0 0.2285765356
Cu  Cu8  1  0.81563000  0.94321000  0.10291000  1.0 0.2285765356
H  H1  1  0.79130000  0.50790000  0.35010000  1.0 0.130562165
H  H2  1  0.49210000  0.20870000  0.85010000  1.0 0.130562165
H  H3  1  0.95530000  0.66730000  0.09610000  1.0 0.130562165
H  H4  1  0.33270000  0.04470000  0.59610000  1.0 0.130562165
H  H5  1  0.04310000  0.29690000  0.03930000  1.0 0.2604788926
H  H6  1  0.02440000  0.33180000  0.94200000  1.0 0.2604788926
H  H7  1  0.10930000  0.55210000  0.99670000  1.0 0.0817302352
H  H8  1  0.81760000  0.25440000  0.02930000  1.0 0.1400166075
H  H9  1  0.88640000  0.41080000  0.04070000  1.0 0.1400166075
H  H10  1  0.96690000  0.34470000  0.10430000  1.0 0.1400166075
H  H11  1  0.93320000  0.54640000  0.87150000  1.0 0.1479063424
H  H12  1  0.85390000  0.38490000  0.86040000  1.0 0.1400166075
H  H13  1  0.02660000  0.53800000  0.84450000  1.0 0.1400166075
H  H14  1  0.29960000  0.51500000  0.05760000  1.0 0.0817302352
H  H15  1  0.18040000  0.25680000  0.02800000  1.0 0.1400166075
H  H16  1  0.36430000  0.39770000  0.04510000  1.0 0.1479063424
H  H17  1  0.26730000  0.37510000  0.94590000  1.0 0.1479063424
H  H18  1  0.28050000  0.58150000  0.87350000  1.0 0.1400166075
H  H19  1  0.42030000  0.69330000  0.94290000  1.0 0.1400166075
H  H20  1  0.26320000  0.65600000  0.91180000  1.0 0.1247175819
H  H21  1  0.70310000  0.95690000  0.53930000  1.0 0.2604788926
H  H22  1  0.66820000  0.97560000  0.44200000  1.0 0.2604788926
H  H23  1  0.44790000  0.89070000  0.49670000  1.0 0.0817302352
H  H24  1  0.74560000  0.18240000  0.52930000  1.0 0.1400166075
H  H25  1  0.58920000  0.11360000  0.54070000  1.0 0.1400166075
H  H26  1  0.65530000  0.03310000  0.60430000  1.0 0.1400166075
H  H27  1  0.45360000  0.06680000  0.37150000  1.0 0.1479063424
H  H28  1  0.61510000  0.14610000  0.36040000  1.0 0.1400166075
H  H29  1  0.46200000  0.97340000  0.34450000  1.0 0.1400166075
H  H30  1  0.48500000  0.70040000  0.55760000  1.0 0.0817302352
H  H31  1  0.74320000  0.81960000  0.52800000  1.0 0.1400166075
H  H32  1  0.60230000  0.63570000  0.54510000  1.0 0.1479063424
H  H33  1  0.62490000  0.73270000  0.44590000  1.0 0.1479063424
H  H34  1  0.41850000  0.71950000  0.37350000  1.0 0.1400166075
H  H35  1  0.30670000  0.57970000  0.44290000  1.0 0.1400166075
H  H36  1  0.34400000  0.73680000  0.41180000  1.0 0.1247175819
H  H37  1  0.35980000  0.01840000  0.00610000  1.0 0.2712278253
H  H38  1  0.26620000  0.90560000  0.07660000  1.0 0.2604788926
H  H39  1  0.07250000  0.90790000  0.99630000  1.0 0.0707804764
H  H40  1  0.21380000  0.16880000  0.92380000  1.0 0.1400166075
H  H41  1  0.08080000  0.06280000  0.85090000  1.0 0.1617282516
H  H42  1  0.25580000  0.14900000  0.86190000  1.0 0.1400166075
H  H43  1  0.96530000  0.77170000  0.89200000  1.0 0.1479063424
H  H44  1  0.07750000  0.74750000  0.96640000  1.0 0.130562165
H  H45  1  0.13070000  0.86930000  0.87560000  1.0 0.1400166075
H  H46  1  0.41040000  0.22400000  0.03240000  1.0 0.0707804764
H  H47  1  0.19270000  0.03850000  0.11220000  1.0 0.1400166075
H  H48  1  0.35180000  0.16200000  0.17080000  1.0 0.1479063424
H  H49  1  0.28340000  0.99140000  0.19200000  1.0 0.1400166075
H  H50  1  0.51990000  0.07850000  0.17940000  1.0 0.1479063424
H  H51  1  0.60780000  0.25500000  0.16520000  1.0 0.1479063424
H  H52  1  0.60190000  0.20170000  0.09590000  1.0 0.1479063424
H  H53  1  0.98160000  0.64020000  0.50610000  1.0 0.2712278253
H  H54  1  0.09440000  0.73380000  0.57660000  1.0 0.2604788926
H  H55  1  0.09210000  0.92750000  0.49630000  1.0 0.0707804764
H  H56  1  0.83120000  0.78620000  0.42380000  1.0 0.1400166075
H  H57  1  0.93720000  0.91920000  0.35090000  1.0 0.1617282516
H  H58  1  0.85100000  0.74420000  0.36190000  1.0 0.1400166075
H  H59  1  0.22830000  0.03470000  0.39200000  1.0 0.1479063424
H  H60  1  0.25250000  0.92250000  0.46640000  1.0 0.130562165
H  H61  1  0.13070000  0.86930000  0.37560000  1.0 0.1400166075
H  H62  1  0.77600000  0.58960000  0.53240000  1.0 0.0707804764
H  H63  1  0.96150000  0.80730000  0.61220000  1.0 0.1400166075
H  H64  1  0.83800000  0.64820000  0.67080000  1.0 0.1479063424
H  H65  1  0.00860000  0.71660000  0.69200000  1.0 0.1400166075
H  H66  1  0.92150000  0.48010000  0.67940000  1.0 0.1479063424
H  H67  1  0.74500000  0.39220000  0.66520000  1.0 0.1479063424
H  H68  1  0.79830000  0.39810000  0.59590000  1.0 0.1479063424
C  C1  1  0.98300000  0.47560000  0.40070000  1.0 0.2497560368
C  C2  1  0.52440000  0.01700000  0.90070000  1.0 0.2497560368
C  C3  1  0.92680000  0.53040000  0.30740000  1.0 0.0089826929
C  C4  1  0.46960000  0.07320000  0.80740000  1.0 0.0089826929
C  C5  1  0.82610000  0.54230000  0.29880000  1.0 -0.1523322576
C  C6  1  0.45770000  0.17390000  0.79880000  1.0 -0.1523322576
C  C7  1  0.77320000  0.60200000  0.21870000  1.0 0.0008572953
C  C8  1  0.39800000  0.22680000  0.71870000  1.0 0.0008572953
C  C9  1  0.82610000  0.65510000  0.14070000  1.0 0.0089826929
C  C10  1  0.34490000  0.17390000  0.64070000  1.0 0.0089826929
C  C11  1  0.92500000  0.63840000  0.14800000  1.0 -0.1710033083
C  C12  1  0.36160000  0.07500000  0.64800000  1.0 -0.1710033083
C  C13  1  0.98010000  0.57950000  0.23090000  1.0 0.0089826929
C  C14  1  0.42050000  0.01990000  0.73090000  1.0 0.0089826929
C  C15  1  0.09420000  0.58380000  0.22690000  1.0 0.2497560368
C  C16  1  0.41620000  0.90580000  0.72690000  1.0 0.2497560368
C  C17  1  0.77800000  0.71960000  0.04840000  1.0 0.2497560368
C  C18  1  0.28040000  0.22200000  0.54840000  1.0 0.2497560368
C  C19  1  0.66140000  0.60320000  0.21760000  1.0 0.2285765356
C  C20  1  0.39680000  0.33860000  0.71760000  1.0 0.2285765356
C  C21  1  0.88920000  0.00320000  0.66380000  1.0 -0.1140076631
C  C22  1  0.99680000  0.11080000  0.16380000  1.0 -0.1140076631
C  C23  1  0.77110000  0.07370000  0.29770000  1.0 -0.1174384953
C  C24  1  0.92630000  0.22890000  0.79770000  1.0 -0.1174384953
C  C25  1  0.01560000  0.44900000  0.97930000  1.0 0.2285765356
C  C26  1  0.91270000  0.35670000  0.04400000  1.0 -0.4764708493
C  C27  1  0.95130000  0.48270000  0.87970000  1.0 -0.4713277433
C  C28  1  0.24430000  0.47770000  0.00050000  1.0 0.2285765356
C  C29  1  0.26640000  0.36500000  0.00540000  1.0 -0.4877527469
C  C30  1  0.30750000  0.61370000  0.92580000  1.0 -0.4713277433
C  C31  1  0.55100000  0.98440000  0.47930000  1.0 0.2285765356
C  C32  1  0.64330000  0.08730000  0.54400000  1.0 -0.4713277433
C  C33  1  0.51730000  0.04870000  0.37970000  1.0 -0.4713277433
C  C34  1  0.52230000  0.75570000  0.50050000  1.0 0.2285765356
C  C35  1  0.63500000  0.73360000  0.50540000  1.0 -0.4877527469
C  C36  1  0.38630000  0.69250000  0.42580000  1.0 -0.4713277433
C  C37  1  0.14770000  0.95370000  0.96300000  1.0 0.2241281233
C  C38  1  0.17730000  0.09690000  0.89340000  1.0 -0.4713277433
C  C39  1  0.07330000  0.82330000  0.92020000  1.0 -0.4764708493
C  C40  1  0.38870000  0.13210000  0.07840000  1.0 0.2285765356
C  C41  1  0.29510000  0.07550000  0.14480000  1.0 -0.464565646
C  C42  1  0.54450000  0.17050000  0.13520000  1.0 -0.4713277433
C  C43  1  0.04630000  0.85230000  0.46300000  1.0 0.2241281233
C  C44  1  0.90310000  0.82270000  0.39340000  1.0 -0.4713277433
C  C45  1  0.17670000  0.92670000  0.42020000  1.0 -0.4764708493
C  C46  1  0.86790000  0.61130000  0.57840000  1.0 0.2285765356
C  C47  1  0.92450000  0.70490000  0.64480000  1.0 -0.464565646
C  C48  1  0.82950000  0.45550000  0.63520000  1.0 -0.4713277433
N  N1  1  0.06870000  0.45390000  0.54210000  1.0 -0.0451282003
N  N2  1  0.54610000  0.93130000  0.04210000  1.0 -0.0451282003
N  N3  1  0.03440000  0.53300000  0.47110000  1.0 -0.2823765391
N  N4  1  0.46700000  0.96560000  0.97110000  1.0 -0.2823765391
N  N5  1  0.98350000  0.36250000  0.42650000  1.0 -0.2327877098
N  N6  1  0.63750000  0.01650000  0.92650000  1.0 -0.2327877098
N  N7  1  0.03770000  0.34930000  0.51630000  1.0 -0.0386108701
N  N8  1  0.65070000  0.96230000  0.01630000  1.0 -0.0386108701
N  N9  1  0.09390000  0.46830000  0.26570000  1.0 -0.2327877098
N  N10  1  0.53170000  0.90610000  0.76570000  1.0 -0.2327877098
N  N11  1  0.21570000  0.52470000  0.24050000  1.0 -0.0386108701
N  N12  1  0.47530000  0.78430000  0.74050000  1.0 -0.0386108701
N  N13  1  0.28730000  0.66770000  0.19150000  1.0 -0.0604296961
N  N14  1  0.33230000  0.71270000  0.69150000  1.0 -0.0604296961
N  N15  1  0.21130000  0.70930000  0.18030000  1.0 -0.3006814756
N  N16  1  0.29070000  0.78870000  0.68030000  1.0 -0.3006814756
N  N17  1  0.72660000  0.66440000  0.97680000  1.0 -0.2873920017
N  N18  1  0.33560000  0.27340000  0.47680000  1.0 -0.2873920017
N  N19  1  0.70780000  0.75940000  0.90670000  1.0 -0.0241019373
N  N20  1  0.24060000  0.29220000  0.40670000  1.0 -0.0241019373
N  N21  1  0.75020000  0.86640000  0.93550000  1.0 -0.0386108701
N  N22  1  0.13360000  0.24980000  0.43550000  1.0 -0.0386108701
N  N23  1  0.79680000  0.84500000  0.02680000  1.0 -0.2427614519
N  N24  1  0.15500000  0.20320000  0.52680000  1.0 -0.2427614519
N  N25  1  0.66760000  0.72400000  0.18060000  1.0 -0.2056390458
N  N26  1  0.27600000  0.33240000  0.68060000  1.0 -0.2056390458
N  N27  1  0.54640000  0.67360000  0.20070000  1.0 -0.0604296961
N  N28  1  0.32640000  0.45360000  0.70070000  1.0 -0.0604296961
N  N29  1  0.47190000  0.52750000  0.24960000  1.0 -0.025689955
N  N30  1  0.47250000  0.52810000  0.74960000  1.0 -0.025689955
N  N31  1  0.54090000  0.48190000  0.26070000  1.0 -0.2519713455
N  N32  1  0.51810000  0.45910000  0.76070000  1.0 -0.2519713455
N  N33  1  0.78750000  0.90190000  0.70320000  1.0 -0.3334745878
N  N34  1  0.09810000  0.21250000  0.20320000  1.0 -0.3334745878
N  N35  1  0.66870000  0.97330000  0.25750000  1.0 -0.3110668772
N  N36  1  0.02670000  0.33130000  0.75750000  1.0 -0.3110668772
N  N37  1  0.07420000  0.37580000  0.99040000  1.0 -0.3006814756
N  N38  1  0.62420000  0.92580000  0.49040000  1.0 -0.3006814756
N  N39  1  0.29550000  0.99210000  0.03330000  1.0 -0.3207337373
N  N40  1  0.00790000  0.70450000  0.53330000  1.0 -0.3207337373
