# DDEC6 charges by PACMAN v1.1 (https://github.com/mtap-research/PACMAN-charge/)
data_LUNBEB_FSR_pacman
_symmetry_space_group_name_H-M   'P 1'
_cell_length_a   13.11200000
_cell_length_b   13.11200000
_cell_length_c   18.03000000
_cell_angle_alpha   87.31420000
_cell_angle_beta   92.68580000
_cell_angle_gamma   66.86380000
_symmetry_Int_Tables_number   1
_chemical_formula_structural   Co3W6C6S8(NO2)6
_chemical_formula_sum   'Co6 W12 C12 S16 N12 O24'
_cell_volume   2840.16462201
_cell_formula_units_Z   2
loop_
 _symmetry_equiv_pos_site_id
 _symmetry_equiv_pos_as_xyz
  1  'x, y, z'
loop_
 _atom_site_type_symbol
 _atom_site_label
 _atom_site_symmetry_multiplicity
 _atom_site_fract_x
 _atom_site_fract_y
 _atom_site_fract_z
 _atom_site_occupancy
 _atom_site_charge
Co  Co1  1  0.71529000  0.20449000  0.69440000  1.0 1.4831533192
Co  Co2  1  0.20449000  0.71529000  0.80560000  1.0 1.4831533192
Co  Co3  1  0.28471000  0.79551000  0.30560000  1.0 1.4831533192
Co  Co4  1  0.79551000  0.28471000  0.19440000  1.0 1.4694742321
Co  Co5  1  0.00000000  0.50000000  0.00000000  1.0 1.4884345888
Co  Co6  1  0.50000000  0.00000000  0.50000000  1.0 1.4831533192
W  W1  1  0.53864000  0.04812000  0.90875000  1.0 0.5314968287
W  W2  1  0.04812000  0.53864000  0.59125000  1.0 0.5314968287
W  W3  1  0.46136000  0.95188000  0.09125000  1.0 0.5314968287
W  W4  1  0.95188000  0.46136000  0.40875000  1.0 0.5357802866
W  W5  1  0.41733000  0.93293000  0.94755000  1.0 0.4984469398
W  W6  1  0.93293000  0.41733000  0.55245000  1.0 0.513963884
W  W7  1  0.58267000  0.06707000  0.05245000  1.0 0.517931646
W  W8  1  0.06707000  0.58267000  0.44755000  1.0 0.4984469398
W  W9  1  0.62738000  0.86660000  0.00202000  1.0 0.4929498194
W  W10  1  0.86660000  0.62738000  0.49798000  1.0 0.4984469398
W  W11  1  0.37262000  0.13340000  0.99798000  1.0 0.4929498194
W  W12  1  0.13340000  0.37262000  0.50202000  1.0 0.4984469398
C  C1  1  0.59330000  0.10490000  0.80920000  1.0 0.2997006627
C  C2  1  0.10490000  0.59330000  0.69080000  1.0 0.2997006627
C  C3  1  0.40670000  0.89510000  0.19080000  1.0 0.2997006627
C  C4  1  0.89510000  0.40670000  0.30920000  1.0 0.2997006627
C  C5  1  0.32180000  0.85700000  0.89240000  1.0 0.3174313886
C  C6  1  0.85700000  0.32180000  0.60760000  1.0 0.3174313886
C  C7  1  0.67820000  0.14300000  0.10760000  1.0 0.3174313886
C  C8  1  0.14300000  0.67820000  0.39240000  1.0 0.3174313886
C  C9  1  0.77220000  0.71760000  0.00690000  1.0 0.2997006627
C  C10  1  0.71760000  0.77220000  0.49310000  1.0 0.2997006627
C  C11  1  0.22780000  0.28240000  0.99310000  1.0 0.2997006627
C  C12  1  0.28240000  0.22780000  0.50690000  1.0 0.2997006627
S  S1  1  0.57660000  0.86040000  0.86960000  1.0 -0.2006292732
S  S2  1  0.86040000  0.57660000  0.63040000  1.0 -0.2063296677
S  S3  1  0.42340000  0.13960000  0.13040000  1.0 -0.2063296677
S  S4  1  0.13960000  0.42340000  0.36960000  1.0 -0.2006292732
S  S5  1  0.72900000  0.98160000  0.96650000  1.0 -0.2306830527
S  S6  1  0.98160000  0.72900000  0.53350000  1.0 -0.2221387566
S  S7  1  0.27100000  0.01840000  0.03350000  1.0 -0.2221387566
S  S8  1  0.01840000  0.27100000  0.46650000  1.0 -0.2515804014
S  S9  1  0.34240000  0.10440000  0.86550000  1.0 -0.2515804014
S  S10  1  0.10440000  0.34240000  0.63450000  1.0 -0.2599026503
S  S11  1  0.65760000  0.89560000  0.13450000  1.0 -0.2699944518
S  S12  1  0.89560000  0.65760000  0.36550000  1.0 -0.2599026503
S  S13  1  0.50720000  0.77180000  0.03640000  1.0 -0.2006292732
S  S14  1  0.77180000  0.50720000  0.46360000  1.0 -0.2221387566
S  S15  1  0.49280000  0.22820000  0.96360000  1.0 -0.2221387566
S  S16  1  0.22820000  0.49280000  0.53640000  1.0 -0.1927768232
N  N1  1  0.62410000  0.14090000  0.76010000  1.0 -0.5071637956
N  N2  1  0.14090000  0.62410000  0.73990000  1.0 -0.5071637956
N  N3  1  0.37590000  0.85910000  0.23990000  1.0 -0.5071637956
N  N4  1  0.85910000  0.37590000  0.26010000  1.0 -0.4990324022
N  N5  1  0.27120000  0.81180000  0.86350000  1.0 -0.5411132218
N  N6  1  0.81180000  0.27120000  0.63650000  1.0 -0.5305786075
N  N7  1  0.72880000  0.18820000  0.13650000  1.0 -0.5305786075
N  N8  1  0.18820000  0.72880000  0.36350000  1.0 -0.5469544174
N  N9  1  0.84830000  0.63590000  0.00310000  1.0 -0.5071637956
N  N10  1  0.63590000  0.84830000  0.49690000  1.0 -0.5071637956
N  N11  1  0.15170000  0.36410000  0.99690000  1.0 -0.5071637956
N  N12  1  0.36410000  0.15170000  0.50310000  1.0 -0.5071637956
O  O1  1  0.69660000  0.32500000  0.77390000  1.0 -0.4905216536
O  O2  1  0.32500000  0.69660000  0.72610000  1.0 -0.4905216536
O  O3  1  0.30340000  0.67500000  0.22610000  1.0 -0.4990324022
O  O4  1  0.67500000  0.30340000  0.27390000  1.0 -0.4905216536
O  O5  1  0.86050000  0.09610000  0.75570000  1.0 -0.3589019419
O  O6  1  0.09610000  0.86050000  0.74430000  1.0 -0.3589019419
O  O7  1  0.13950000  0.90390000  0.24430000  1.0 -0.369024718
O  O8  1  0.90390000  0.13950000  0.25570000  1.0 -0.3447817804
O  O9  1  0.74050000  0.07970000  0.61630000  1.0 -0.2378987463
O  O10  1  0.07970000  0.74050000  0.88370000  1.0 -0.2378987463
O  O11  1  0.25950000  0.92030000  0.38370000  1.0 -0.2515804014
O  O12  1  0.92030000  0.25950000  0.11630000  1.0 -0.2306830527
O  O13  1  0.57120000  0.31360000  0.63080000  1.0 -0.3916996213
O  O14  1  0.31360000  0.57120000  0.86920000  1.0 -0.3916996213
O  O15  1  0.42880000  0.68640000  0.36920000  1.0 -0.4019570292
O  O16  1  0.68640000  0.42880000  0.13080000  1.0 -0.3753048421
O  O17  1  0.91830000  0.40730000  0.95280000  1.0 -0.4694595875
O  O18  1  0.40730000  0.91830000  0.54720000  1.0 -0.4611019136
O  O19  1  0.08170000  0.59270000  0.04720000  1.0 -0.4611019136
O  O20  1  0.59270000  0.08170000  0.45280000  1.0 -0.4694595875
O  O21  1  0.01380000  0.55560000  0.88890000  1.0 -0.2699944518
O  O22  1  0.55560000  0.01380000  0.61110000  1.0 -0.2798692526
O  O23  1  0.98620000  0.44440000  0.11110000  1.0 -0.2798692526
O  O24  1  0.44440000  0.98620000  0.38890000  1.0 -0.2699944518
