# DDEC6 charges by PACMAN v1.1 (https://github.com/mtap-research/PACMAN-charge/)
data_LUNWUP_ASR_pacman
_symmetry_space_group_name_H-M   'P 1'
_cell_length_a   15.04150000
_cell_length_b   15.04150000
_cell_length_c   15.04150000
_cell_angle_alpha   90.00000000
_cell_angle_beta   90.00000000
_cell_angle_gamma   90.00000000
_symmetry_Int_Tables_number   1
_chemical_formula_structural   KCoH30C33(N2O)6
_chemical_formula_sum   'K4 Co4 H120 C132 N48 O24'
_cell_volume   3403.09007272
_cell_formula_units_Z   4
loop_
 _symmetry_equiv_pos_site_id
 _symmetry_equiv_pos_as_xyz
  1  'x, y, z'
loop_
 _atom_site_type_symbol
 _atom_site_label
 _atom_site_symmetry_multiplicity
 _atom_site_fract_x
 _atom_site_fract_y
 _atom_site_fract_z
 _atom_site_occupancy
 _atom_site_charge
K  K1  1  0.22288000  0.22288000  0.22288000  1.0 0.7603656383
K  K2  1  0.27712000  0.77712000  0.72288000  1.0 0.7603656383
K  K3  1  0.77712000  0.72288000  0.27712000  1.0 0.7603656383
K  K4  1  0.72288000  0.27712000  0.77712000  1.0 0.7603656383
Co  Co1  1  0.64573000  0.14573000  0.35427000  1.0 0.5917252036
Co  Co2  1  0.85427000  0.85427000  0.85427000  1.0 0.5917252036
Co  Co3  1  0.35427000  0.64573000  0.14573000  1.0 0.5917252036
Co  Co4  1  0.14573000  0.35427000  0.64573000  1.0 0.5917252036
H  H1  1  0.71103000  0.34631000  0.32976000  1.0 0.06260639
H  H2  1  0.49126000  0.48519000  0.25038000  1.0 0.069776726
H  H3  1  0.41105000  0.34910000  0.26283000  1.0 0.0834317636
H  H4  1  0.71527000  0.48917000  0.28550000  1.0 0.1394487397
H  H5  1  0.64625000  0.53737000  0.24024000  1.0 0.1301625142
H  H6  1  0.41738000  0.35078000  0.22735000  1.0 0.0834317636
H  H7  1  0.50417000  0.47563000  0.20193000  1.0 0.069776726
H  H8  1  0.72264000  0.48036000  0.22759000  1.0 0.0834317636
H  H9  1  0.64512000  0.52847000  0.19779000  1.0 0.1001211588
H  H10  1  0.71195000  0.34200000  0.29792000  1.0 0.069776726
H  H11  1  0.78897000  0.65369000  0.82976000  1.0 0.06260639
H  H12  1  0.00874000  0.51481000  0.75038000  1.0 0.069776726
H  H13  1  0.08895000  0.65090000  0.76283000  1.0 0.0834317636
H  H14  1  0.78473000  0.51083000  0.78550000  1.0 0.1394487397
H  H15  1  0.85375000  0.46263000  0.74024000  1.0 0.1301625142
H  H16  1  0.08262000  0.64922000  0.72735000  1.0 0.0834317636
H  H17  1  0.99583000  0.52437000  0.70193000  1.0 0.069776726
H  H18  1  0.77736000  0.51964000  0.72759000  1.0 0.0834317636
H  H19  1  0.85488000  0.47153000  0.69779000  1.0 0.1001211588
H  H20  1  0.78805000  0.65800000  0.79792000  1.0 0.069776726
H  H21  1  0.28897000  0.84631000  0.17024000  1.0 0.06260639
H  H22  1  0.50874000  0.98519000  0.24962000  1.0 0.069776726
H  H23  1  0.58895000  0.84910000  0.23717000  1.0 0.0834317636
H  H24  1  0.28473000  0.98917000  0.21450000  1.0 0.1394487397
H  H25  1  0.35375000  0.03737000  0.25976000  1.0 0.1301625142
H  H26  1  0.58262000  0.85078000  0.27265000  1.0 0.0834317636
H  H27  1  0.49583000  0.97563000  0.29807000  1.0 0.069776726
H  H28  1  0.27736000  0.98036000  0.27241000  1.0 0.0834317636
H  H29  1  0.35488000  0.02847000  0.30221000  1.0 0.1001211588
H  H30  1  0.28805000  0.84200000  0.20208000  1.0 0.069776726
H  H31  1  0.21103000  0.15369000  0.67024000  1.0 0.06260639
H  H32  1  0.99126000  0.01481000  0.74962000  1.0 0.069776726
H  H33  1  0.91105000  0.15090000  0.73717000  1.0 0.0834317636
H  H34  1  0.21527000  0.01083000  0.71450000  1.0 0.1394487397
H  H35  1  0.14625000  0.96263000  0.75976000  1.0 0.1301625142
H  H36  1  0.91738000  0.14922000  0.77265000  1.0 0.0834317636
H  H37  1  0.00417000  0.02437000  0.79807000  1.0 0.069776726
H  H38  1  0.22264000  0.01964000  0.77241000  1.0 0.0834317636
H  H39  1  0.14512000  0.97153000  0.80221000  1.0 0.1001211588
H  H40  1  0.21195000  0.15800000  0.70208000  1.0 0.069776726
H  H41  1  0.32976000  0.71103000  0.34631000  1.0 0.06260639
H  H42  1  0.25038000  0.49126000  0.48519000  1.0 0.069776726
H  H43  1  0.26283000  0.41105000  0.34910000  1.0 0.0834317636
H  H44  1  0.28550000  0.71527000  0.48917000  1.0 0.1394487397
H  H45  1  0.24024000  0.64625000  0.53737000  1.0 0.1301625142
H  H46  1  0.22735000  0.41738000  0.35078000  1.0 0.0834317636
H  H47  1  0.20193000  0.50417000  0.47563000  1.0 0.069776726
H  H48  1  0.22759000  0.72264000  0.48036000  1.0 0.0834317636
H  H49  1  0.19779000  0.64512000  0.52847000  1.0 0.1001211588
H  H50  1  0.29792000  0.71195000  0.34200000  1.0 0.069776726
H  H51  1  0.82976000  0.78897000  0.65369000  1.0 0.06260639
H  H52  1  0.75038000  0.00874000  0.51481000  1.0 0.069776726
H  H53  1  0.76283000  0.08895000  0.65090000  1.0 0.0834317636
H  H54  1  0.78550000  0.78473000  0.51083000  1.0 0.1394487397
H  H55  1  0.74024000  0.85375000  0.46263000  1.0 0.1301625142
H  H56  1  0.72735000  0.08262000  0.64922000  1.0 0.0834317636
H  H57  1  0.70193000  0.99583000  0.52437000  1.0 0.069776726
H  H58  1  0.72759000  0.77736000  0.51964000  1.0 0.0834317636
H  H59  1  0.69779000  0.85488000  0.47153000  1.0 0.1001211588
H  H60  1  0.79792000  0.78805000  0.65800000  1.0 0.069776726
H  H61  1  0.17024000  0.28897000  0.84631000  1.0 0.06260639
H  H62  1  0.24962000  0.50874000  0.98519000  1.0 0.069776726
H  H63  1  0.23717000  0.58895000  0.84910000  1.0 0.0834317636
H  H64  1  0.21450000  0.28473000  0.98917000  1.0 0.1394487397
H  H65  1  0.25976000  0.35375000  0.03737000  1.0 0.1301625142
H  H66  1  0.27265000  0.58262000  0.85078000  1.0 0.0834317636
H  H67  1  0.29807000  0.49583000  0.97563000  1.0 0.069776726
H  H68  1  0.27241000  0.27736000  0.98036000  1.0 0.0834317636
H  H69  1  0.30221000  0.35488000  0.02847000  1.0 0.1001211588
H  H70  1  0.20208000  0.28805000  0.84200000  1.0 0.069776726
H  H71  1  0.67024000  0.21103000  0.15369000  1.0 0.06260639
H  H72  1  0.74962000  0.99126000  0.01481000  1.0 0.069776726
H  H73  1  0.73717000  0.91105000  0.15090000  1.0 0.0834317636
H  H74  1  0.71450000  0.21527000  0.01083000  1.0 0.1394487397
H  H75  1  0.75976000  0.14625000  0.96263000  1.0 0.1301625142
H  H76  1  0.77265000  0.91738000  0.14922000  1.0 0.0834317636
H  H77  1  0.79807000  0.00417000  0.02437000  1.0 0.069776726
H  H78  1  0.77241000  0.22264000  0.01964000  1.0 0.0834317636
H  H79  1  0.80221000  0.14512000  0.97153000  1.0 0.1001211588
H  H80  1  0.70208000  0.21195000  0.15800000  1.0 0.069776726
H  H81  1  0.34631000  0.32976000  0.71103000  1.0 0.06260639
H  H82  1  0.48519000  0.25038000  0.49126000  1.0 0.069776726
H  H83  1  0.34910000  0.26283000  0.41105000  1.0 0.0834317636
H  H84  1  0.48917000  0.28550000  0.71527000  1.0 0.1394487397
H  H85  1  0.53737000  0.24024000  0.64625000  1.0 0.1301625142
H  H86  1  0.35078000  0.22735000  0.41738000  1.0 0.0834317636
H  H87  1  0.47563000  0.20193000  0.50417000  1.0 0.069776726
H  H88  1  0.48036000  0.22759000  0.72264000  1.0 0.0834317636
H  H89  1  0.52847000  0.19779000  0.64512000  1.0 0.1001211588
H  H90  1  0.34200000  0.29792000  0.71195000  1.0 0.069776726
H  H91  1  0.65369000  0.82976000  0.78897000  1.0 0.06260639
H  H92  1  0.51481000  0.75038000  0.00874000  1.0 0.069776726
H  H93  1  0.65090000  0.76283000  0.08895000  1.0 0.0834317636
H  H94  1  0.51083000  0.78550000  0.78473000  1.0 0.1394487397
H  H95  1  0.46263000  0.74024000  0.85375000  1.0 0.1301625142
H  H96  1  0.64922000  0.72735000  0.08262000  1.0 0.0834317636
H  H97  1  0.52437000  0.70193000  0.99583000  1.0 0.069776726
H  H98  1  0.51964000  0.72759000  0.77736000  1.0 0.0834317636
H  H99  1  0.47153000  0.69779000  0.85488000  1.0 0.1001211588
H  H100  1  0.65800000  0.79792000  0.78805000  1.0 0.069776726
H  H101  1  0.84631000  0.17024000  0.28897000  1.0 0.06260639
H  H102  1  0.98519000  0.24962000  0.50874000  1.0 0.069776726
H  H103  1  0.84910000  0.23717000  0.58895000  1.0 0.0834317636
H  H104  1  0.98917000  0.21450000  0.28473000  1.0 0.1394487397
H  H105  1  0.03737000  0.25976000  0.35375000  1.0 0.1301625142
H  H106  1  0.85078000  0.27265000  0.58262000  1.0 0.0834317636
H  H107  1  0.97563000  0.29807000  0.49583000  1.0 0.069776726
H  H108  1  0.98036000  0.27241000  0.27736000  1.0 0.0834317636
H  H109  1  0.02847000  0.30221000  0.35488000  1.0 0.1001211588
H  H110  1  0.84200000  0.20208000  0.28805000  1.0 0.069776726
H  H111  1  0.15369000  0.67024000  0.21103000  1.0 0.06260639
H  H112  1  0.01481000  0.74962000  0.99126000  1.0 0.069776726
H  H113  1  0.15090000  0.73717000  0.91105000  1.0 0.0834317636
H  H114  1  0.01083000  0.71450000  0.21527000  1.0 0.1394487397
H  H115  1  0.96263000  0.75976000  0.14625000  1.0 0.1301625142
H  H116  1  0.14922000  0.77265000  0.91738000  1.0 0.0834317636
H  H117  1  0.02437000  0.79807000  0.00417000  1.0 0.069776726
H  H118  1  0.01964000  0.77241000  0.22264000  1.0 0.0834317636
H  H119  1  0.97153000  0.80221000  0.14512000  1.0 0.1001211588
H  H120  1  0.15800000  0.70208000  0.21195000  1.0 0.069776726
C  C1  1  0.46970000  0.18550000  0.29390000  1.0 0.3175462541
C  C2  1  0.51610000  0.27400000  0.29700000  1.0 0.1394487397
C  C3  1  0.64970000  0.34720000  0.31460000  1.0 0.0366737775
C  C4  1  0.61130000  0.42840000  0.29100000  1.0 0.0876178078
C  C5  1  0.51950000  0.43170000  0.26850000  1.0 -0.0374734171
C  C6  1  0.47310000  0.35050000  0.27450000  1.0 -0.0767352127
C  C7  1  0.51670000  0.27180000  0.27400000  1.0 0.1001211588
C  C8  1  0.47910000  0.34940000  0.24100000  1.0 -0.0639886527
C  C9  1  0.52950000  0.42360000  0.22700000  1.0 -0.0475783478
C  C10  1  0.61450000  0.42170000  0.25100000  1.0 0.069776726
C  C11  1  0.65020000  0.34390000  0.28470000  1.0 0.0099608929
C  C12  1  0.03030000  0.81450000  0.79390000  1.0 0.3175462541
C  C13  1  0.98390000  0.72600000  0.79700000  1.0 0.1394487397
C  C14  1  0.85030000  0.65280000  0.81460000  1.0 0.0366737775
C  C15  1  0.88870000  0.57160000  0.79100000  1.0 0.0876178078
C  C16  1  0.98050000  0.56830000  0.76850000  1.0 -0.0374734171
C  C17  1  0.02690000  0.64950000  0.77450000  1.0 -0.0767352127
C  C18  1  0.98330000  0.72820000  0.77400000  1.0 0.1001211588
C  C19  1  0.02090000  0.65060000  0.74100000  1.0 -0.0639886527
C  C20  1  0.97050000  0.57640000  0.72700000  1.0 -0.0475783478
C  C21  1  0.88550000  0.57830000  0.75100000  1.0 0.069776726
C  C22  1  0.84980000  0.65610000  0.78470000  1.0 0.0099608929
C  C23  1  0.53030000  0.68550000  0.20610000  1.0 0.3175462541
C  C24  1  0.48390000  0.77400000  0.20300000  1.0 0.1394487397
C  C25  1  0.35030000  0.84720000  0.18540000  1.0 0.0366737775
C  C26  1  0.38870000  0.92840000  0.20900000  1.0 0.0876178078
C  C27  1  0.48050000  0.93170000  0.23150000  1.0 -0.0374734171
C  C28  1  0.52690000  0.85050000  0.22550000  1.0 -0.0767352127
C  C29  1  0.48330000  0.77180000  0.22600000  1.0 0.1001211588
C  C30  1  0.52090000  0.84940000  0.25900000  1.0 -0.0639886527
C  C31  1  0.47050000  0.92360000  0.27300000  1.0 -0.0475783478
C  C32  1  0.38550000  0.92170000  0.24900000  1.0 0.069776726
C  C33  1  0.34980000  0.84390000  0.21530000  1.0 0.0099608929
C  C34  1  0.96970000  0.31450000  0.70610000  1.0 0.3175462541
C  C35  1  0.01610000  0.22600000  0.70300000  1.0 0.1394487397
C  C36  1  0.14970000  0.15280000  0.68540000  1.0 0.0366737775
C  C37  1  0.11130000  0.07160000  0.70900000  1.0 0.0876178078
C  C38  1  0.01950000  0.06830000  0.73150000  1.0 -0.0374734171
C  C39  1  0.97310000  0.14950000  0.72550000  1.0 -0.0767352127
C  C40  1  0.01670000  0.22820000  0.72600000  1.0 0.1001211588
C  C41  1  0.97910000  0.15060000  0.75900000  1.0 -0.0639886527
C  C42  1  0.02950000  0.07640000  0.77300000  1.0 -0.0475783478
C  C43  1  0.11450000  0.07830000  0.74900000  1.0 0.069776726
C  C44  1  0.15020000  0.15610000  0.71530000  1.0 0.0099608929
C  C45  1  0.29390000  0.46970000  0.18550000  1.0 0.3175462541
C  C46  1  0.29700000  0.51610000  0.27400000  1.0 0.1394487397
C  C47  1  0.31460000  0.64970000  0.34720000  1.0 0.0366737775
C  C48  1  0.29100000  0.61130000  0.42840000  1.0 0.0876178078
C  C49  1  0.26850000  0.51950000  0.43170000  1.0 -0.0374734171
C  C50  1  0.27450000  0.47310000  0.35050000  1.0 -0.0767352127
C  C51  1  0.27400000  0.51670000  0.27180000  1.0 0.1001211588
C  C52  1  0.24100000  0.47910000  0.34940000  1.0 -0.0639886527
C  C53  1  0.22700000  0.52950000  0.42360000  1.0 -0.0475783478
C  C54  1  0.25100000  0.61450000  0.42170000  1.0 0.069776726
C  C55  1  0.28470000  0.65020000  0.34390000  1.0 0.0099608929
C  C56  1  0.79390000  0.03030000  0.81450000  1.0 0.3175462541
C  C57  1  0.79700000  0.98390000  0.72600000  1.0 0.1394487397
C  C58  1  0.81460000  0.85030000  0.65280000  1.0 0.0366737775
C  C59  1  0.79100000  0.88870000  0.57160000  1.0 0.0876178078
C  C60  1  0.76850000  0.98050000  0.56830000  1.0 -0.0374734171
C  C61  1  0.77450000  0.02690000  0.64950000  1.0 -0.0767352127
C  C62  1  0.77400000  0.98330000  0.72820000  1.0 0.1001211588
C  C63  1  0.74100000  0.02090000  0.65060000  1.0 -0.0639886527
C  C64  1  0.72700000  0.97050000  0.57640000  1.0 -0.0475783478
C  C65  1  0.75100000  0.88550000  0.57830000  1.0 0.069776726
C  C66  1  0.78470000  0.84980000  0.65610000  1.0 0.0099608929
C  C67  1  0.20610000  0.53030000  0.68550000  1.0 0.3175462541
C  C68  1  0.20300000  0.48390000  0.77400000  1.0 0.1394487397
C  C69  1  0.18540000  0.35030000  0.84720000  1.0 0.0366737775
C  C70  1  0.20900000  0.38870000  0.92840000  1.0 0.0876178078
C  C71  1  0.23150000  0.48050000  0.93170000  1.0 -0.0374734171
C  C72  1  0.22550000  0.52690000  0.85050000  1.0 -0.0767352127
C  C73  1  0.22600000  0.48330000  0.77180000  1.0 0.1001211588
C  C74  1  0.25900000  0.52090000  0.84940000  1.0 -0.0639886527
C  C75  1  0.27300000  0.47050000  0.92360000  1.0 -0.0475783478
C  C76  1  0.24900000  0.38550000  0.92170000  1.0 0.069776726
C  C77  1  0.21530000  0.34980000  0.84390000  1.0 0.0099608929
C  C78  1  0.70610000  0.96970000  0.31450000  1.0 0.3175462541
C  C79  1  0.70300000  0.01610000  0.22600000  1.0 0.1394487397
C  C80  1  0.68540000  0.14970000  0.15280000  1.0 0.0366737775
C  C81  1  0.70900000  0.11130000  0.07160000  1.0 0.0876178078
C  C82  1  0.73150000  0.01950000  0.06830000  1.0 -0.0374734171
C  C83  1  0.72550000  0.97310000  0.14950000  1.0 -0.0767352127
C  C84  1  0.72600000  0.01670000  0.22820000  1.0 0.1001211588
C  C85  1  0.75900000  0.97910000  0.15060000  1.0 -0.0639886527
C  C86  1  0.77300000  0.02950000  0.07640000  1.0 -0.0475783478
C  C87  1  0.74900000  0.11450000  0.07830000  1.0 0.069776726
C  C88  1  0.71530000  0.15020000  0.15610000  1.0 0.0099608929
C  C89  1  0.18550000  0.29390000  0.46970000  1.0 0.3175462541
C  C90  1  0.27400000  0.29700000  0.51610000  1.0 0.1394487397
C  C91  1  0.34720000  0.31460000  0.64970000  1.0 0.0366737775
C  C92  1  0.42840000  0.29100000  0.61130000  1.0 0.0876178078
C  C93  1  0.43170000  0.26850000  0.51950000  1.0 -0.0374734171
C  C94  1  0.35050000  0.27450000  0.47310000  1.0 -0.0767352127
C  C95  1  0.27180000  0.27400000  0.51670000  1.0 0.1001211588
C  C96  1  0.34940000  0.24100000  0.47910000  1.0 -0.0639886527
C  C97  1  0.42360000  0.22700000  0.52950000  1.0 -0.0475783478
C  C98  1  0.42170000  0.25100000  0.61450000  1.0 0.069776726
C  C99  1  0.34390000  0.28470000  0.65020000  1.0 0.0099608929
C  C100  1  0.81450000  0.79390000  0.03030000  1.0 0.3175462541
C  C101  1  0.72600000  0.79700000  0.98390000  1.0 0.1394487397
C  C102  1  0.65280000  0.81460000  0.85030000  1.0 0.0366737775
C  C103  1  0.57160000  0.79100000  0.88870000  1.0 0.0876178078
C  C104  1  0.56830000  0.76850000  0.98050000  1.0 -0.0374734171
C  C105  1  0.64950000  0.77450000  0.02690000  1.0 -0.0767352127
C  C106  1  0.72820000  0.77400000  0.98330000  1.0 0.1001211588
C  C107  1  0.65060000  0.74100000  0.02090000  1.0 -0.0639886527
C  C108  1  0.57640000  0.72700000  0.97050000  1.0 -0.0475783478
C  C109  1  0.57830000  0.75100000  0.88550000  1.0 0.069776726
C  C110  1  0.65610000  0.78470000  0.84980000  1.0 0.0099608929
C  C111  1  0.68550000  0.20610000  0.53030000  1.0 0.3175462541
C  C112  1  0.77400000  0.20300000  0.48390000  1.0 0.1394487397
C  C113  1  0.84720000  0.18540000  0.35030000  1.0 0.0366737775
C  C114  1  0.92840000  0.20900000  0.38870000  1.0 0.0876178078
C  C115  1  0.93170000  0.23150000  0.48050000  1.0 -0.0374734171
C  C116  1  0.85050000  0.22550000  0.52690000  1.0 -0.0767352127
C  C117  1  0.77180000  0.22600000  0.48330000  1.0 0.1001211588
C  C118  1  0.84940000  0.25900000  0.52090000  1.0 -0.0639886527
C  C119  1  0.92360000  0.27300000  0.47050000  1.0 -0.0475783478
C  C120  1  0.92170000  0.24900000  0.38550000  1.0 0.069776726
C  C121  1  0.84390000  0.21530000  0.34980000  1.0 0.0099608929
C  C122  1  0.31450000  0.70610000  0.96970000  1.0 0.3175462541
C  C123  1  0.22600000  0.70300000  0.01610000  1.0 0.1394487397
C  C124  1  0.15280000  0.68540000  0.14970000  1.0 0.0366737775
C  C125  1  0.07160000  0.70900000  0.11130000  1.0 0.0876178078
C  C126  1  0.06830000  0.73150000  0.01950000  1.0 -0.0374734171
C  C127  1  0.14950000  0.72550000  0.97310000  1.0 -0.0767352127
C  C128  1  0.22820000  0.72600000  0.01670000  1.0 0.1001211588
C  C129  1  0.15060000  0.75900000  0.97910000  1.0 -0.0639886527
C  C130  1  0.07640000  0.77300000  0.02950000  1.0 -0.0475783478
C  C131  1  0.07830000  0.74900000  0.11450000  1.0 0.069776726
C  C132  1  0.15610000  0.71530000  0.15020000  1.0 0.0099608929
N  N1  1  0.60450000  0.27030000  0.31700000  1.0 -0.2351063607
N  N2  1  0.65820000  0.50480000  0.28900000  1.0 -0.2198069623
N  N3  1  0.66760000  0.49630000  0.24200000  1.0 -0.2275156879
N  N4  1  0.60300000  0.27400000  0.29900000  1.0 -0.2145836471
N  N5  1  0.89550000  0.72970000  0.81700000  1.0 -0.2351063607
N  N6  1  0.84180000  0.49520000  0.78900000  1.0 -0.2198069623
N  N7  1  0.83240000  0.50370000  0.74200000  1.0 -0.2275156879
N  N8  1  0.89700000  0.72600000  0.79900000  1.0 -0.2145836471
N  N9  1  0.39550000  0.77030000  0.18300000  1.0 -0.2351063607
N  N10  1  0.34180000  0.00480000  0.21100000  1.0 -0.2198069623
N  N11  1  0.33240000  0.99630000  0.25800000  1.0 -0.2275156879
N  N12  1  0.39700000  0.77400000  0.20100000  1.0 -0.2145836471
N  N13  1  0.10450000  0.22970000  0.68300000  1.0 -0.2275156879
N  N14  1  0.15820000  0.99520000  0.71100000  1.0 -0.2198069623
N  N15  1  0.16760000  0.00370000  0.75800000  1.0 -0.2275156879
N  N16  1  0.10300000  0.22600000  0.70100000  1.0 -0.2145836471
N  N17  1  0.31700000  0.60450000  0.27030000  1.0 -0.2351063607
N  N18  1  0.28900000  0.65820000  0.50480000  1.0 -0.2198069623
N  N19  1  0.24200000  0.66760000  0.49630000  1.0 -0.2275156879
N  N20  1  0.29900000  0.60300000  0.27400000  1.0 -0.2145836471
N  N21  1  0.81700000  0.89550000  0.72970000  1.0 -0.2351063607
N  N22  1  0.78900000  0.84180000  0.49520000  1.0 -0.2198069623
N  N23  1  0.74200000  0.83240000  0.50370000  1.0 -0.2275156879
N  N24  1  0.79900000  0.89700000  0.72600000  1.0 -0.2145836471
N  N25  1  0.18300000  0.39550000  0.77030000  1.0 -0.2351063607
N  N26  1  0.21100000  0.34180000  0.00480000  1.0 -0.2198069623
N  N27  1  0.25800000  0.33240000  0.99630000  1.0 -0.2275156879
N  N28  1  0.20100000  0.39700000  0.77400000  1.0 -0.2145836471
N  N29  1  0.68300000  0.10450000  0.22970000  1.0 -0.2275156879
N  N30  1  0.71100000  0.15820000  0.99520000  1.0 -0.2198069623
N  N31  1  0.75800000  0.16760000  0.00370000  1.0 -0.2275156879
N  N32  1  0.70100000  0.10300000  0.22600000  1.0 -0.2145836471
N  N33  1  0.27030000  0.31700000  0.60450000  1.0 -0.2351063607
N  N34  1  0.50480000  0.28900000  0.65820000  1.0 -0.2198069623
N  N35  1  0.49630000  0.24200000  0.66760000  1.0 -0.2275156879
N  N36  1  0.27400000  0.29900000  0.60300000  1.0 -0.2145836471
N  N37  1  0.72970000  0.81700000  0.89550000  1.0 -0.2351063607
N  N38  1  0.49520000  0.78900000  0.84180000  1.0 -0.2198069623
N  N39  1  0.50370000  0.74200000  0.83240000  1.0 -0.2275156879
N  N40  1  0.72600000  0.79900000  0.89700000  1.0 -0.2145836471
N  N41  1  0.77030000  0.18300000  0.39550000  1.0 -0.2351063607
N  N42  1  0.00480000  0.21100000  0.34180000  1.0 -0.2198069623
N  N43  1  0.99630000  0.25800000  0.33240000  1.0 -0.2275156879
N  N44  1  0.77400000  0.20100000  0.39700000  1.0 -0.2145836471
N  N45  1  0.22970000  0.68300000  0.10450000  1.0 -0.2351063607
N  N46  1  0.99520000  0.71100000  0.15820000  1.0 -0.2198069623
N  N47  1  0.00370000  0.75800000  0.16760000  1.0 -0.2275156879
N  N48  1  0.22600000  0.70100000  0.10300000  1.0 -0.2145836471
O  O1  1  0.51370000  0.12120000  0.32520000  1.0 -0.4800261749
O  O2  1  0.39040000  0.18100000  0.26850000  1.0 -0.5022572247
O  O3  1  0.98630000  0.87880000  0.82520000  1.0 -0.4800261749
O  O4  1  0.10960000  0.81900000  0.76850000  1.0 -0.5022572247
O  O5  1  0.48630000  0.62120000  0.17480000  1.0 -0.4800261749
O  O6  1  0.60960000  0.68100000  0.23150000  1.0 -0.5022572247
O  O7  1  0.01370000  0.37880000  0.67480000  1.0 -0.4800261749
O  O8  1  0.89040000  0.31900000  0.73150000  1.0 -0.5022572247
O  O9  1  0.32520000  0.51370000  0.12120000  1.0 -0.4800261749
O  O10  1  0.26850000  0.39040000  0.18100000  1.0 -0.5022572247
O  O11  1  0.82520000  0.98630000  0.87880000  1.0 -0.4800261749
O  O12  1  0.76850000  0.10960000  0.81900000  1.0 -0.5022572247
O  O13  1  0.17480000  0.48630000  0.62120000  1.0 -0.4800261749
O  O14  1  0.23150000  0.60960000  0.68100000  1.0 -0.5022572247
O  O15  1  0.67480000  0.01370000  0.37880000  1.0 -0.4800261749
O  O16  1  0.73150000  0.89040000  0.31900000  1.0 -0.5022572247
O  O17  1  0.12120000  0.32520000  0.51370000  1.0 -0.4800261749
O  O18  1  0.18100000  0.26850000  0.39040000  1.0 -0.5022572247
O  O19  1  0.87880000  0.82520000  0.98630000  1.0 -0.4800261749
O  O20  1  0.81900000  0.76850000  0.10960000  1.0 -0.5022572247
O  O21  1  0.62120000  0.17480000  0.48630000  1.0 -0.4800261749
O  O22  1  0.68100000  0.23150000  0.60960000  1.0 -0.5022572247
O  O23  1  0.37880000  0.67480000  0.01370000  1.0 -0.4800261749
O  O24  1  0.31900000  0.73150000  0.89040000  1.0 -0.5022572247
