# DDEC6 charges by PACMAN v1.1 (https://github.com/mtap-research/PACMAN-charge/)
data_LURRIA_ASR_pacman
_symmetry_space_group_name_H-M   'P 1'
_cell_length_a   36.53620000
_cell_length_b   36.53620000
_cell_length_c   36.53620000
_cell_angle_alpha   60.00000000
_cell_angle_beta   60.00000000
_cell_angle_gamma   60.00000000
_symmetry_Int_Tables_number   1
_chemical_formula_structural   CuH8(C9O2)2
_chemical_formula_sum   'Cu24 H192 C432 O96'
_cell_volume   34486.97720645
_cell_formula_units_Z   24
loop_
 _symmetry_equiv_pos_site_id
 _symmetry_equiv_pos_as_xyz
  1  'x, y, z'
loop_
 _atom_site_type_symbol
 _atom_site_label
 _atom_site_symmetry_multiplicity
 _atom_site_fract_x
 _atom_site_fract_y
 _atom_site_fract_z
 _atom_site_occupancy
 _atom_site_charge
Cu  Cu1  1  0.00000000  0.21194000  0.00000000  1.0 0.8283582015
Cu  Cu2  1  0.21194000  0.00000000  0.78806000  1.0 0.8283582015
Cu  Cu3  1  0.00000000  0.78806000  0.00000000  1.0 0.8283582015
Cu  Cu4  1  0.78806000  0.00000000  0.21194000  1.0 0.8202535195
Cu  Cu5  1  0.00000000  0.00000000  0.21194000  1.0 0.8283582015
Cu  Cu6  1  0.78806000  0.21194000  0.00000000  1.0 0.8283582015
Cu  Cu7  1  0.00000000  0.00000000  0.78806000  1.0 0.8283582015
Cu  Cu8  1  0.21194000  0.78806000  0.00000000  1.0 0.8283582015
Cu  Cu9  1  0.21194000  0.00000000  0.00000000  1.0 0.8202535195
Cu  Cu10  1  0.00000000  0.78806000  0.21194000  1.0 0.8283582015
Cu  Cu11  1  0.78806000  0.00000000  0.00000000  1.0 0.8202535195
Cu  Cu12  1  0.00000000  0.21194000  0.78806000  1.0 0.8283582015
Cu  Cu13  1  0.00000000  0.28266000  0.00000000  1.0 0.8897720221
Cu  Cu14  1  0.28266000  0.00000000  0.71734000  1.0 0.8897720221
Cu  Cu15  1  0.00000000  0.71734000  0.00000000  1.0 0.8897720221
Cu  Cu16  1  0.71734000  0.00000000  0.28266000  1.0 0.8897720221
Cu  Cu17  1  0.00000000  0.00000000  0.28266000  1.0 0.8897720221
Cu  Cu18  1  0.71734000  0.28266000  0.00000000  1.0 0.8897720221
Cu  Cu19  1  0.00000000  0.00000000  0.71734000  1.0 0.8897720221
Cu  Cu20  1  0.28266000  0.71734000  0.00000000  1.0 0.8897720221
Cu  Cu21  1  0.28266000  0.00000000  0.00000000  1.0 0.8847378972
Cu  Cu22  1  0.00000000  0.71734000  0.28266000  1.0 0.8897720221
Cu  Cu23  1  0.71734000  0.00000000  0.00000000  1.0 0.8847378972
Cu  Cu24  1  0.00000000  0.28266000  0.71734000  1.0 0.8897720221
H  H1  1  0.99130000  0.13170000  0.13170000  1.0 0.1387402448
H  H2  1  0.13170000  0.99130000  0.74530000  1.0 0.1387402448
H  H3  1  0.13170000  0.74530000  0.99130000  1.0 0.1387402448
H  H4  1  0.74530000  0.13170000  0.13170000  1.0 0.1387402448
H  H5  1  0.13170000  0.99130000  0.13170000  1.0 0.1387402448
H  H6  1  0.74530000  0.13170000  0.99130000  1.0 0.1387402448
H  H7  1  0.99130000  0.13170000  0.74530000  1.0 0.1387402448
H  H8  1  0.13170000  0.74530000  0.13170000  1.0 0.1387402448
H  H9  1  0.13170000  0.13170000  0.99130000  1.0 0.1387402448
H  H10  1  0.99130000  0.74530000  0.13170000  1.0 0.1387402448
H  H11  1  0.74530000  0.99130000  0.13170000  1.0 0.1387402448
H  H12  1  0.13170000  0.13170000  0.74530000  1.0 0.1387402448
H  H13  1  0.00870000  0.86830000  0.25470000  1.0 0.1387402448
H  H14  1  0.86830000  0.00870000  0.86830000  1.0 0.1387402448
H  H15  1  0.86830000  0.25470000  0.86830000  1.0 0.1387402448
H  H16  1  0.25470000  0.86830000  0.00870000  1.0 0.1387402448
H  H17  1  0.86830000  0.00870000  0.25470000  1.0 0.1387402448
H  H18  1  0.25470000  0.86830000  0.86830000  1.0 0.1387402448
H  H19  1  0.00870000  0.86830000  0.86830000  1.0 0.1387402448
H  H20  1  0.86830000  0.25470000  0.00870000  1.0 0.1387402448
H  H21  1  0.86830000  0.86830000  0.25470000  1.0 0.1387402448
H  H22  1  0.00870000  0.25470000  0.86830000  1.0 0.1387402448
H  H23  1  0.25470000  0.00870000  0.86830000  1.0 0.1387402448
H  H24  1  0.86830000  0.86830000  0.00870000  1.0 0.1387402448
H  H25  1  0.93370000  0.39310000  0.28010000  1.0 0.0697396685
H  H26  1  0.39310000  0.93370000  0.39310000  1.0 0.0697396685
H  H27  1  0.28010000  0.39310000  0.93370000  1.0 0.0697396685
H  H28  1  0.39310000  0.28010000  0.39310000  1.0 0.0697396685
H  H29  1  0.28010000  0.93370000  0.39310000  1.0 0.0697396685
H  H30  1  0.39310000  0.39310000  0.93370000  1.0 0.0697396685
H  H31  1  0.93370000  0.28010000  0.39310000  1.0 0.0697396685
H  H32  1  0.39310000  0.39310000  0.28010000  1.0 0.0697396685
H  H33  1  0.39310000  0.28010000  0.93370000  1.0 0.0697396685
H  H34  1  0.93370000  0.39310000  0.39310000  1.0 0.0697396685
H  H35  1  0.39310000  0.93370000  0.28010000  1.0 0.0697396685
H  H36  1  0.28010000  0.39310000  0.39310000  1.0 0.0697396685
H  H37  1  0.06630000  0.60690000  0.60690000  1.0 0.0697396685
H  H38  1  0.60690000  0.06630000  0.71990000  1.0 0.0697396685
H  H39  1  0.71990000  0.60690000  0.60690000  1.0 0.0697396685
H  H40  1  0.60690000  0.71990000  0.06630000  1.0 0.0697396685
H  H41  1  0.71990000  0.06630000  0.60690000  1.0 0.0697396685
H  H42  1  0.60690000  0.60690000  0.71990000  1.0 0.0697396685
H  H43  1  0.06630000  0.71990000  0.60690000  1.0 0.0697396685
H  H44  1  0.60690000  0.60690000  0.06630000  1.0 0.0697396685
H  H45  1  0.60690000  0.71990000  0.60690000  1.0 0.0697396685
H  H46  1  0.06630000  0.60690000  0.71990000  1.0 0.0697396685
H  H47  1  0.60690000  0.06630000  0.60690000  1.0 0.0697396685
H  H48  1  0.71990000  0.60690000  0.06630000  1.0 0.0697396685
H  H49  1  0.93340000  0.36140000  0.26200000  1.0 0.1065473971
H  H50  1  0.36140000  0.93340000  0.44320000  1.0 0.1065473971
H  H51  1  0.26200000  0.44320000  0.93340000  1.0 0.1065473971
H  H52  1  0.44320000  0.26200000  0.36140000  1.0 0.1065473971
H  H53  1  0.26200000  0.93340000  0.36140000  1.0 0.1065473971
H  H54  1  0.44320000  0.36140000  0.93340000  1.0 0.1065473971
H  H55  1  0.93340000  0.26200000  0.44320000  1.0 0.1065473971
H  H56  1  0.36140000  0.44320000  0.26200000  1.0 0.1065473971
H  H57  1  0.36140000  0.26200000  0.93340000  1.0 0.1065473971
H  H58  1  0.93340000  0.44320000  0.36140000  1.0 0.1065473971
H  H59  1  0.44320000  0.93340000  0.26200000  1.0 0.1065473971
H  H60  1  0.26200000  0.36140000  0.44320000  1.0 0.1065473971
H  H61  1  0.06660000  0.63860000  0.55680000  1.0 0.1065473971
H  H62  1  0.63860000  0.06660000  0.73800000  1.0 0.1065473971
H  H63  1  0.73800000  0.55680000  0.63860000  1.0 0.1065473971
H  H64  1  0.55680000  0.73800000  0.06660000  1.0 0.1065473971
H  H65  1  0.73800000  0.06660000  0.55680000  1.0 0.1065473971
H  H66  1  0.55680000  0.63860000  0.73800000  1.0 0.1065473971
H  H67  1  0.06660000  0.73800000  0.63860000  1.0 0.1065473971
H  H68  1  0.63860000  0.55680000  0.06660000  1.0 0.1065473971
H  H69  1  0.63860000  0.73800000  0.55680000  1.0 0.1065473971
H  H70  1  0.06660000  0.55680000  0.73800000  1.0 0.1065473971
H  H71  1  0.55680000  0.06660000  0.63860000  1.0 0.1065473971
H  H72  1  0.73800000  0.63860000  0.06660000  1.0 0.1065473971
H  H73  1  0.06660000  0.63860000  0.73800000  1.0 0.1065473971
H  H74  1  0.63860000  0.06660000  0.55680000  1.0 0.1065473971
H  H75  1  0.73800000  0.55680000  0.06660000  1.0 0.1065473971
H  H76  1  0.55680000  0.73800000  0.63860000  1.0 0.1065473971
H  H77  1  0.73800000  0.06660000  0.63860000  1.0 0.1065473971
H  H78  1  0.55680000  0.63860000  0.06660000  1.0 0.1065473971
H  H79  1  0.06660000  0.73800000  0.55680000  1.0 0.1065473971
H  H80  1  0.63860000  0.55680000  0.73800000  1.0 0.1065473971
H  H81  1  0.63860000  0.73800000  0.06660000  1.0 0.1065473971
H  H82  1  0.06660000  0.55680000  0.63860000  1.0 0.1065473971
H  H83  1  0.55680000  0.06660000  0.73800000  1.0 0.1065473971
H  H84  1  0.73800000  0.63860000  0.55680000  1.0 0.1065473971
H  H85  1  0.93340000  0.36140000  0.44320000  1.0 0.1065473971
H  H86  1  0.36140000  0.93340000  0.26200000  1.0 0.1065473971
H  H87  1  0.26200000  0.44320000  0.36140000  1.0 0.1065473971
H  H88  1  0.44320000  0.26200000  0.93340000  1.0 0.1065473971
H  H89  1  0.26200000  0.93340000  0.44320000  1.0 0.1065473971
H  H90  1  0.44320000  0.36140000  0.26200000  1.0 0.1065473971
H  H91  1  0.93340000  0.26200000  0.36140000  1.0 0.1065473971
H  H92  1  0.36140000  0.44320000  0.93340000  1.0 0.1065473971
H  H93  1  0.36140000  0.26200000  0.44320000  1.0 0.1065473971
H  H94  1  0.93340000  0.44320000  0.26200000  1.0 0.1065473971
H  H95  1  0.44320000  0.93340000  0.36140000  1.0 0.1065473971
H  H96  1  0.26200000  0.36140000  0.93340000  1.0 0.1065473971
H  H97  1  0.96760000  0.24560000  0.13740000  1.0 0.1334862202
H  H98  1  0.24560000  0.96760000  0.64940000  1.0 0.1334862202
H  H99  1  0.13740000  0.64940000  0.96760000  1.0 0.1334862202
H  H100  1  0.64940000  0.13740000  0.24560000  1.0 0.1334862202
H  H101  1  0.13740000  0.96760000  0.24560000  1.0 0.1334862202
H  H102  1  0.64940000  0.24560000  0.96760000  1.0 0.1334862202
H  H103  1  0.96760000  0.13740000  0.64940000  1.0 0.1334862202
H  H104  1  0.24560000  0.64940000  0.13740000  1.0 0.1334862202
H  H105  1  0.24560000  0.13740000  0.96760000  1.0 0.1334862202
H  H106  1  0.96760000  0.64940000  0.24560000  1.0 0.1334862202
H  H107  1  0.64940000  0.96760000  0.13740000  1.0 0.1334862202
H  H108  1  0.13740000  0.24560000  0.64940000  1.0 0.1334862202
H  H109  1  0.03240000  0.75440000  0.35060000  1.0 0.1334862202
H  H110  1  0.75440000  0.03240000  0.86260000  1.0 0.1334862202
H  H111  1  0.86260000  0.35060000  0.75440000  1.0 0.1334862202
H  H112  1  0.35060000  0.86260000  0.03240000  1.0 0.1334862202
H  H113  1  0.86260000  0.03240000  0.35060000  1.0 0.1334862202
H  H114  1  0.35060000  0.75440000  0.86260000  1.0 0.1334862202
H  H115  1  0.03240000  0.86260000  0.75440000  1.0 0.1334862202
H  H116  1  0.75440000  0.35060000  0.03240000  1.0 0.1334862202
H  H117  1  0.75440000  0.86260000  0.35060000  1.0 0.1334862202
H  H118  1  0.03240000  0.35060000  0.86260000  1.0 0.1334862202
H  H119  1  0.35060000  0.03240000  0.75440000  1.0 0.1334862202
H  H120  1  0.86260000  0.75440000  0.03240000  1.0 0.1334862202
H  H121  1  0.03240000  0.75440000  0.86260000  1.0 0.1334862202
H  H122  1  0.75440000  0.03240000  0.35060000  1.0 0.1334862202
H  H123  1  0.86260000  0.35060000  0.03240000  1.0 0.1334862202
H  H124  1  0.35060000  0.86260000  0.75440000  1.0 0.1334862202
H  H125  1  0.86260000  0.03240000  0.75440000  1.0 0.1334862202
H  H126  1  0.35060000  0.75440000  0.03240000  1.0 0.1334862202
H  H127  1  0.03240000  0.86260000  0.35060000  1.0 0.1334862202
H  H128  1  0.75440000  0.35060000  0.86260000  1.0 0.1334862202
H  H129  1  0.75440000  0.86260000  0.03240000  1.0 0.1334862202
H  H130  1  0.03240000  0.35060000  0.75440000  1.0 0.1334862202
H  H131  1  0.35060000  0.03240000  0.86260000  1.0 0.1334862202
H  H132  1  0.86260000  0.75440000  0.35060000  1.0 0.1334862202
H  H133  1  0.96760000  0.24560000  0.64940000  1.0 0.1334862202
H  H134  1  0.24560000  0.96760000  0.13740000  1.0 0.1334862202
H  H135  1  0.13740000  0.64940000  0.24560000  1.0 0.1334862202
H  H136  1  0.64940000  0.13740000  0.96760000  1.0 0.1334862202
H  H137  1  0.13740000  0.96760000  0.64940000  1.0 0.1334862202
H  H138  1  0.64940000  0.24560000  0.13740000  1.0 0.1334862202
H  H139  1  0.96760000  0.13740000  0.24560000  1.0 0.1334862202
H  H140  1  0.24560000  0.64940000  0.96760000  1.0 0.1334862202
H  H141  1  0.24560000  0.13740000  0.64940000  1.0 0.1334862202
H  H142  1  0.96760000  0.64940000  0.13740000  1.0 0.1334862202
H  H143  1  0.64940000  0.96760000  0.24560000  1.0 0.1334862202
H  H144  1  0.13740000  0.24560000  0.96760000  1.0 0.1334862202
H  H145  1  0.95880000  0.31260000  0.21860000  1.0 0.117036162
H  H146  1  0.31260000  0.95880000  0.51000000  1.0 0.117036162
H  H147  1  0.21860000  0.51000000  0.95880000  1.0 0.117036162
H  H148  1  0.51000000  0.21860000  0.31260000  1.0 0.117036162
H  H149  1  0.21860000  0.95880000  0.31260000  1.0 0.117036162
H  H150  1  0.51000000  0.31260000  0.95880000  1.0 0.117036162
H  H151  1  0.95880000  0.21860000  0.51000000  1.0 0.117036162
H  H152  1  0.31260000  0.51000000  0.21860000  1.0 0.117036162
H  H153  1  0.31260000  0.21860000  0.95880000  1.0 0.117036162
H  H154  1  0.95880000  0.51000000  0.31260000  1.0 0.117036162
H  H155  1  0.51000000  0.95880000  0.21860000  1.0 0.117036162
H  H156  1  0.21860000  0.31260000  0.51000000  1.0 0.117036162
H  H157  1  0.04120000  0.68740000  0.49000000  1.0 0.117036162
H  H158  1  0.68740000  0.04120000  0.78140000  1.0 0.117036162
H  H159  1  0.78140000  0.49000000  0.68740000  1.0 0.117036162
H  H160  1  0.49000000  0.78140000  0.04120000  1.0 0.117036162
H  H161  1  0.78140000  0.04120000  0.49000000  1.0 0.117036162
H  H162  1  0.49000000  0.68740000  0.78140000  1.0 0.117036162
H  H163  1  0.04120000  0.78140000  0.68740000  1.0 0.117036162
H  H164  1  0.68740000  0.49000000  0.04120000  1.0 0.117036162
H  H165  1  0.68740000  0.78140000  0.49000000  1.0 0.117036162
H  H166  1  0.04120000  0.49000000  0.78140000  1.0 0.117036162
H  H167  1  0.49000000  0.04120000  0.68740000  1.0 0.117036162
H  H168  1  0.78140000  0.68740000  0.04120000  1.0 0.117036162
H  H169  1  0.04120000  0.68740000  0.78140000  1.0 0.117036162
H  H170  1  0.68740000  0.04120000  0.49000000  1.0 0.117036162
H  H171  1  0.78140000  0.49000000  0.04120000  1.0 0.117036162
H  H172  1  0.49000000  0.78140000  0.68740000  1.0 0.117036162
H  H173  1  0.78140000  0.04120000  0.68740000  1.0 0.117036162
H  H174  1  0.49000000  0.68740000  0.04120000  1.0 0.117036162
H  H175  1  0.04120000  0.78140000  0.49000000  1.0 0.117036162
H  H176  1  0.68740000  0.49000000  0.78140000  1.0 0.117036162
H  H177  1  0.68740000  0.78140000  0.04120000  1.0 0.117036162
H  H178  1  0.04120000  0.49000000  0.68740000  1.0 0.117036162
H  H179  1  0.49000000  0.04120000  0.78140000  1.0 0.117036162
H  H180  1  0.78140000  0.68740000  0.49000000  1.0 0.117036162
H  H181  1  0.95880000  0.31260000  0.51000000  1.0 0.117036162
H  H182  1  0.31260000  0.95880000  0.21860000  1.0 0.117036162
H  H183  1  0.21860000  0.51000000  0.31260000  1.0 0.117036162
H  H184  1  0.51000000  0.21860000  0.95880000  1.0 0.117036162
H  H185  1  0.21860000  0.95880000  0.51000000  1.0 0.117036162
H  H186  1  0.51000000  0.31260000  0.21860000  1.0 0.117036162
H  H187  1  0.95880000  0.21860000  0.31260000  1.0 0.117036162
H  H188  1  0.31260000  0.51000000  0.95880000  1.0 0.117036162
H  H189  1  0.31260000  0.21860000  0.51000000  1.0 0.117036162
H  H190  1  0.95880000  0.51000000  0.21860000  1.0 0.117036162
H  H191  1  0.51000000  0.95880000  0.31260000  1.0 0.117036162
H  H192  1  0.21860000  0.31260000  0.95880000  1.0 0.117036162
C  C1  1  0.98690000  0.21170000  0.08250000  1.0 0.5266295059
C  C2  1  0.21170000  0.98690000  0.71890000  1.0 0.5266295059
C  C3  1  0.08250000  0.71890000  0.98690000  1.0 0.5266295059
C  C4  1  0.71890000  0.08250000  0.21170000  1.0 0.5266295059
C  C5  1  0.08250000  0.98690000  0.21170000  1.0 0.5266295059
C  C6  1  0.71890000  0.21170000  0.98690000  1.0 0.5266295059
C  C7  1  0.98690000  0.08250000  0.71890000  1.0 0.5266295059
C  C8  1  0.21170000  0.71890000  0.08250000  1.0 0.5266295059
C  C9  1  0.21170000  0.08250000  0.98690000  1.0 0.5266295059
C  C10  1  0.98690000  0.71890000  0.21170000  1.0 0.5266295059
C  C11  1  0.71890000  0.98690000  0.08250000  1.0 0.5266295059
C  C12  1  0.08250000  0.21170000  0.71890000  1.0 0.5266295059
C  C13  1  0.01310000  0.78830000  0.28110000  1.0 0.5266295059
C  C14  1  0.78830000  0.01310000  0.91750000  1.0 0.5266295059
C  C15  1  0.91750000  0.28110000  0.78830000  1.0 0.5266295059
C  C16  1  0.28110000  0.91750000  0.01310000  1.0 0.5266295059
C  C17  1  0.91750000  0.01310000  0.28110000  1.0 0.5266295059
C  C18  1  0.28110000  0.78830000  0.91750000  1.0 0.5266295059
C  C19  1  0.01310000  0.91750000  0.78830000  1.0 0.5266295059
C  C20  1  0.78830000  0.28110000  0.01310000  1.0 0.5266295059
C  C21  1  0.78830000  0.91750000  0.28110000  1.0 0.5266295059
C  C22  1  0.01310000  0.28110000  0.91750000  1.0 0.5266295059
C  C23  1  0.28110000  0.01310000  0.78830000  1.0 0.5266295059
C  C24  1  0.91750000  0.78830000  0.01310000  1.0 0.5266295059
C  C25  1  0.01310000  0.78830000  0.91750000  1.0 0.5266295059
C  C26  1  0.78830000  0.01310000  0.28110000  1.0 0.5266295059
C  C27  1  0.91750000  0.28110000  0.01310000  1.0 0.5266295059
C  C28  1  0.28110000  0.91750000  0.78830000  1.0 0.5266295059
C  C29  1  0.91750000  0.01310000  0.78830000  1.0 0.5266295059
C  C30  1  0.28110000  0.78830000  0.01310000  1.0 0.5266295059
C  C31  1  0.01310000  0.91750000  0.28110000  1.0 0.5266295059
C  C32  1  0.78830000  0.28110000  0.91750000  1.0 0.5266295059
C  C33  1  0.78830000  0.91750000  0.01310000  1.0 0.5266295059
C  C34  1  0.01310000  0.28110000  0.78830000  1.0 0.5266295059
C  C35  1  0.28110000  0.01310000  0.91750000  1.0 0.5266295059
C  C36  1  0.91750000  0.78830000  0.28110000  1.0 0.5266295059
C  C37  1  0.98690000  0.21170000  0.71890000  1.0 0.5266295059
C  C38  1  0.21170000  0.98690000  0.08250000  1.0 0.5266295059
C  C39  1  0.08250000  0.71890000  0.21170000  1.0 0.5266295059
C  C40  1  0.71890000  0.08250000  0.98690000  1.0 0.5266295059
C  C41  1  0.08250000  0.98690000  0.71890000  1.0 0.5266295059
C  C42  1  0.71890000  0.21170000  0.08250000  1.0 0.5266295059
C  C43  1  0.98690000  0.08250000  0.21170000  1.0 0.5266295059
C  C44  1  0.21170000  0.71890000  0.98690000  1.0 0.5266295059
C  C45  1  0.21170000  0.08250000  0.71890000  1.0 0.5266295059
C  C46  1  0.98690000  0.71890000  0.08250000  1.0 0.5266295059
C  C47  1  0.71890000  0.98690000  0.21170000  1.0 0.5266295059
C  C48  1  0.08250000  0.21170000  0.98690000  1.0 0.5266295059
C  C49  1  0.97980000  0.19080000  0.12780000  1.0 -0.0608984993
C  C50  1  0.19080000  0.97980000  0.70160000  1.0 -0.0608984993
C  C51  1  0.12780000  0.70160000  0.97980000  1.0 -0.0608984993
C  C52  1  0.70160000  0.12780000  0.19080000  1.0 -0.0608984993
C  C53  1  0.12780000  0.97980000  0.19080000  1.0 -0.0608984993
C  C54  1  0.70160000  0.19080000  0.97980000  1.0 -0.0608984993
C  C55  1  0.97980000  0.12780000  0.70160000  1.0 -0.0608984993
C  C56  1  0.19080000  0.70160000  0.12780000  1.0 -0.0608984993
C  C57  1  0.19080000  0.12780000  0.97980000  1.0 -0.0608984993
C  C58  1  0.97980000  0.70160000  0.19080000  1.0 -0.0608984993
C  C59  1  0.70160000  0.97980000  0.12780000  1.0 -0.0608984993
C  C60  1  0.12780000  0.19080000  0.70160000  1.0 -0.0608984993
C  C61  1  0.02020000  0.80920000  0.29840000  1.0 -0.0608984993
C  C62  1  0.80920000  0.02020000  0.87220000  1.0 -0.0608984993
C  C63  1  0.87220000  0.29840000  0.80920000  1.0 -0.0608984993
C  C64  1  0.29840000  0.87220000  0.02020000  1.0 -0.0608984993
C  C65  1  0.87220000  0.02020000  0.29840000  1.0 -0.0608984993
C  C66  1  0.29840000  0.80920000  0.87220000  1.0 -0.0608984993
C  C67  1  0.02020000  0.87220000  0.80920000  1.0 -0.0608984993
C  C68  1  0.80920000  0.29840000  0.02020000  1.0 -0.0608984993
C  C69  1  0.80920000  0.87220000  0.29840000  1.0 -0.0608984993
C  C70  1  0.02020000  0.29840000  0.87220000  1.0 -0.0608984993
C  C71  1  0.29840000  0.02020000  0.80920000  1.0 -0.0608984993
C  C72  1  0.87220000  0.80920000  0.02020000  1.0 -0.0608984993
C  C73  1  0.02020000  0.80920000  0.87220000  1.0 -0.0608984993
C  C74  1  0.80920000  0.02020000  0.29840000  1.0 -0.0608984993
C  C75  1  0.87220000  0.29840000  0.02020000  1.0 -0.0608984993
C  C76  1  0.29840000  0.87220000  0.80920000  1.0 -0.0608984993
C  C77  1  0.87220000  0.02020000  0.80920000  1.0 -0.0608984993
C  C78  1  0.29840000  0.80920000  0.02020000  1.0 -0.0608984993
C  C79  1  0.02020000  0.87220000  0.29840000  1.0 -0.0608984993
C  C80  1  0.80920000  0.29840000  0.87220000  1.0 -0.0608984993
C  C81  1  0.80920000  0.87220000  0.02020000  1.0 -0.0608984993
C  C82  1  0.02020000  0.29840000  0.80920000  1.0 -0.0608984993
C  C83  1  0.29840000  0.02020000  0.87220000  1.0 -0.0608984993
C  C84  1  0.87220000  0.80920000  0.29840000  1.0 -0.0608984993
C  C85  1  0.97980000  0.19080000  0.70160000  1.0 -0.0608984993
C  C86  1  0.19080000  0.97980000  0.12780000  1.0 -0.0608984993
C  C87  1  0.12780000  0.70160000  0.19080000  1.0 -0.0608984993
C  C88  1  0.70160000  0.12780000  0.97980000  1.0 -0.0608984993
C  C89  1  0.12780000  0.97980000  0.70160000  1.0 -0.0608984993
C  C90  1  0.70160000  0.19080000  0.12780000  1.0 -0.0608984993
C  C91  1  0.97980000  0.12780000  0.19080000  1.0 -0.0608984993
C  C92  1  0.19080000  0.70160000  0.97980000  1.0 -0.0608984993
C  C93  1  0.19080000  0.12780000  0.70160000  1.0 -0.0608984993
C  C94  1  0.97980000  0.70160000  0.12780000  1.0 -0.0608984993
C  C95  1  0.70160000  0.97980000  0.19080000  1.0 -0.0608984993
C  C96  1  0.12780000  0.19080000  0.97980000  1.0 -0.0608984993
C  C97  1  0.98440000  0.14840000  0.14840000  1.0 -0.0608984993
C  C98  1  0.14840000  0.98440000  0.71880000  1.0 -0.0608984993
C  C99  1  0.14840000  0.71880000  0.98440000  1.0 -0.0608984993
C  C100  1  0.71880000  0.14840000  0.14840000  1.0 -0.0608984993
C  C101  1  0.14840000  0.98440000  0.14840000  1.0 -0.0608984993
C  C102  1  0.71880000  0.14840000  0.98440000  1.0 -0.0608984993
C  C103  1  0.98440000  0.14840000  0.71880000  1.0 -0.0608984993
C  C104  1  0.14840000  0.71880000  0.14840000  1.0 -0.0608984993
C  C105  1  0.14840000  0.14840000  0.98440000  1.0 -0.0608984993
C  C106  1  0.98440000  0.71880000  0.14840000  1.0 -0.0608984993
C  C107  1  0.71880000  0.98440000  0.14840000  1.0 -0.0608984993
C  C108  1  0.14840000  0.14840000  0.71880000  1.0 -0.0608984993
C  C109  1  0.01560000  0.85160000  0.28120000  1.0 -0.0608984993
C  C110  1  0.85160000  0.01560000  0.85160000  1.0 -0.0608984993
C  C111  1  0.85160000  0.28120000  0.85160000  1.0 -0.0608984993
C  C112  1  0.28120000  0.85160000  0.01560000  1.0 -0.0608984993
C  C113  1  0.85160000  0.01560000  0.28120000  1.0 -0.0608984993
C  C114  1  0.28120000  0.85160000  0.85160000  1.0 -0.0608984993
C  C115  1  0.01560000  0.85160000  0.85160000  1.0 -0.0608984993
C  C116  1  0.85160000  0.28120000  0.01560000  1.0 -0.0608984993
C  C117  1  0.85160000  0.85160000  0.28120000  1.0 -0.0608984993
C  C118  1  0.01560000  0.28120000  0.85160000  1.0 -0.0608984993
C  C119  1  0.28120000  0.01560000  0.85160000  1.0 -0.0608984993
C  C120  1  0.85160000  0.85160000  0.01560000  1.0 -0.0608984993
C  C121  1  0.93310000  0.30970000  0.30970000  1.0 0.0508735259
C  C122  1  0.30970000  0.93310000  0.44750000  1.0 0.0508735259
C  C123  1  0.30970000  0.44750000  0.93310000  1.0 0.0508735259
C  C124  1  0.44750000  0.30970000  0.30970000  1.0 0.0508735259
C  C125  1  0.30970000  0.93310000  0.30970000  1.0 0.0508735259
C  C126  1  0.44750000  0.30970000  0.93310000  1.0 0.0508735259
C  C127  1  0.93310000  0.30970000  0.44750000  1.0 0.0508735259
C  C128  1  0.30970000  0.44750000  0.30970000  1.0 0.0508735259
C  C129  1  0.30970000  0.30970000  0.93310000  1.0 0.0508735259
C  C130  1  0.93310000  0.44750000  0.30970000  1.0 0.0508735259
C  C131  1  0.44750000  0.93310000  0.30970000  1.0 0.0508735259
C  C132  1  0.30970000  0.30970000  0.44750000  1.0 0.0508735259
C  C133  1  0.06690000  0.69030000  0.55250000  1.0 0.0508735259
C  C134  1  0.69030000  0.06690000  0.69030000  1.0 0.0508735259
C  C135  1  0.69030000  0.55250000  0.69030000  1.0 0.0508735259
C  C136  1  0.55250000  0.69030000  0.06690000  1.0 0.0508735259
C  C137  1  0.69030000  0.06690000  0.55250000  1.0 0.0508735259
C  C138  1  0.55250000  0.69030000  0.69030000  1.0 0.0508735259
C  C139  1  0.06690000  0.69030000  0.69030000  1.0 0.0508735259
C  C140  1  0.69030000  0.55250000  0.06690000  1.0 0.0508735259
C  C141  1  0.69030000  0.69030000  0.55250000  1.0 0.0508735259
C  C142  1  0.06690000  0.55250000  0.69030000  1.0 0.0508735259
C  C143  1  0.55250000  0.06690000  0.69030000  1.0 0.0508735259
C  C144  1  0.69030000  0.69030000  0.06690000  1.0 0.0508735259
C  C145  1  0.93120000  0.37920000  0.31040000  1.0 -0.1601300076
C  C146  1  0.37920000  0.93120000  0.37920000  1.0 -0.1601300076
C  C147  1  0.31040000  0.37920000  0.93120000  1.0 -0.1601300076
C  C148  1  0.37920000  0.31040000  0.37920000  1.0 -0.1601300076
C  C149  1  0.31040000  0.93120000  0.37920000  1.0 -0.1601300076
C  C150  1  0.37920000  0.37920000  0.93120000  1.0 -0.1601300076
C  C151  1  0.93120000  0.31040000  0.37920000  1.0 -0.1601300076
C  C152  1  0.37920000  0.37920000  0.31040000  1.0 -0.1601300076
C  C153  1  0.37920000  0.31040000  0.93120000  1.0 -0.1601300076
C  C154  1  0.93120000  0.37920000  0.37920000  1.0 -0.1601300076
C  C155  1  0.37920000  0.93120000  0.31040000  1.0 -0.1601300076
C  C156  1  0.31040000  0.37920000  0.37920000  1.0 -0.1601300076
C  C157  1  0.06880000  0.62080000  0.62080000  1.0 -0.1601300076
C  C158  1  0.62080000  0.06880000  0.68960000  1.0 -0.1601300076
C  C159  1  0.68960000  0.62080000  0.62080000  1.0 -0.1601300076
C  C160  1  0.62080000  0.68960000  0.06880000  1.0 -0.1601300076
C  C161  1  0.68960000  0.06880000  0.62080000  1.0 -0.1601300076
C  C162  1  0.62080000  0.62080000  0.68960000  1.0 -0.1601300076
C  C163  1  0.06880000  0.68960000  0.62080000  1.0 -0.1601300076
C  C164  1  0.62080000  0.62080000  0.06880000  1.0 -0.1601300076
C  C165  1  0.62080000  0.68960000  0.62080000  1.0 -0.1601300076
C  C166  1  0.06880000  0.62080000  0.68960000  1.0 -0.1601300076
C  C167  1  0.62080000  0.06880000  0.62080000  1.0 -0.1601300076
C  C168  1  0.68960000  0.62080000  0.06880000  1.0 -0.1601300076
C  C169  1  0.92940000  0.33500000  0.33500000  1.0 0.0508735259
C  C170  1  0.33500000  0.92940000  0.40060000  1.0 0.0508735259
C  C171  1  0.33500000  0.40060000  0.92940000  1.0 0.0508735259
C  C172  1  0.40060000  0.33500000  0.33500000  1.0 0.0508735259
C  C173  1  0.33500000  0.92940000  0.33500000  1.0 0.0508735259
C  C174  1  0.40060000  0.33500000  0.92940000  1.0 0.0508735259
C  C175  1  0.92940000  0.33500000  0.40060000  1.0 0.0508735259
C  C176  1  0.33500000  0.40060000  0.33500000  1.0 0.0508735259
C  C177  1  0.33500000  0.33500000  0.92940000  1.0 0.0508735259
C  C178  1  0.92940000  0.40060000  0.33500000  1.0 0.0508735259
C  C179  1  0.40060000  0.92940000  0.33500000  1.0 0.0508735259
C  C180  1  0.33500000  0.33500000  0.40060000  1.0 0.0508735259
C  C181  1  0.07060000  0.66500000  0.59940000  1.0 0.0508735259
C  C182  1  0.66500000  0.07060000  0.66500000  1.0 0.0508735259
C  C183  1  0.66500000  0.59940000  0.66500000  1.0 0.0508735259
C  C184  1  0.59940000  0.66500000  0.07060000  1.0 0.0508735259
C  C185  1  0.66500000  0.07060000  0.59940000  1.0 0.0508735259
C  C186  1  0.59940000  0.66500000  0.66500000  1.0 0.0508735259
C  C187  1  0.07060000  0.66500000  0.66500000  1.0 0.0508735259
C  C188  1  0.66500000  0.59940000  0.07060000  1.0 0.0508735259
C  C189  1  0.66500000  0.66500000  0.59940000  1.0 0.0508735259
C  C190  1  0.07060000  0.59940000  0.66500000  1.0 0.0508735259
C  C191  1  0.59940000  0.07060000  0.66500000  1.0 0.0508735259
C  C192  1  0.66500000  0.66500000  0.07060000  1.0 0.0508735259
C  C193  1  0.93670000  0.33110000  0.27430000  1.0 -0.1211226428
C  C194  1  0.33110000  0.93670000  0.45790000  1.0 -0.1211226428
C  C195  1  0.27430000  0.45790000  0.93670000  1.0 -0.1211226428
C  C196  1  0.45790000  0.27430000  0.33110000  1.0 -0.1211226428
C  C197  1  0.27430000  0.93670000  0.33110000  1.0 -0.1211226428
C  C198  1  0.45790000  0.33110000  0.93670000  1.0 -0.1211226428
C  C199  1  0.93670000  0.27430000  0.45790000  1.0 -0.1211226428
C  C200  1  0.33110000  0.45790000  0.27430000  1.0 -0.1211226428
C  C201  1  0.33110000  0.27430000  0.93670000  1.0 -0.1211226428
C  C202  1  0.93670000  0.45790000  0.33110000  1.0 -0.1211226428
C  C203  1  0.45790000  0.93670000  0.27430000  1.0 -0.1211226428
C  C204  1  0.27430000  0.33110000  0.45790000  1.0 -0.1211226428
C  C205  1  0.06330000  0.66890000  0.54210000  1.0 -0.1211226428
C  C206  1  0.66890000  0.06330000  0.72570000  1.0 -0.1211226428
C  C207  1  0.72570000  0.54210000  0.66890000  1.0 -0.1211226428
C  C208  1  0.54210000  0.72570000  0.06330000  1.0 -0.1211226428
C  C209  1  0.72570000  0.06330000  0.54210000  1.0 -0.1211226428
C  C210  1  0.54210000  0.66890000  0.72570000  1.0 -0.1211226428
C  C211  1  0.06330000  0.72570000  0.66890000  1.0 -0.1211226428
C  C212  1  0.66890000  0.54210000  0.06330000  1.0 -0.1211226428
C  C213  1  0.66890000  0.72570000  0.54210000  1.0 -0.1211226428
C  C214  1  0.06330000  0.54210000  0.72570000  1.0 -0.1211226428
C  C215  1  0.54210000  0.06330000  0.66890000  1.0 -0.1211226428
C  C216  1  0.72570000  0.66890000  0.06330000  1.0 -0.1211226428
C  C217  1  0.06330000  0.66890000  0.72570000  1.0 -0.1211226428
C  C218  1  0.66890000  0.06330000  0.54210000  1.0 -0.1211226428
C  C219  1  0.72570000  0.54210000  0.06330000  1.0 -0.1211226428
C  C220  1  0.54210000  0.72570000  0.66890000  1.0 -0.1211226428
C  C221  1  0.72570000  0.06330000  0.66890000  1.0 -0.1211226428
C  C222  1  0.54210000  0.66890000  0.06330000  1.0 -0.1211226428
C  C223  1  0.06330000  0.72570000  0.54210000  1.0 -0.1211226428
C  C224  1  0.66890000  0.54210000  0.72570000  1.0 -0.1211226428
C  C225  1  0.66890000  0.72570000  0.06330000  1.0 -0.1211226428
C  C226  1  0.06330000  0.54210000  0.66890000  1.0 -0.1211226428
C  C227  1  0.54210000  0.06330000  0.72570000  1.0 -0.1211226428
C  C228  1  0.72570000  0.66890000  0.54210000  1.0 -0.1211226428
C  C229  1  0.93670000  0.33110000  0.45790000  1.0 -0.1211226428
C  C230  1  0.33110000  0.93670000  0.27430000  1.0 -0.1211226428
C  C231  1  0.27430000  0.45790000  0.33110000  1.0 -0.1211226428
C  C232  1  0.45790000  0.27430000  0.93670000  1.0 -0.1211226428
C  C233  1  0.27430000  0.93670000  0.45790000  1.0 -0.1211226428
C  C234  1  0.45790000  0.33110000  0.27430000  1.0 -0.1211226428
C  C235  1  0.93670000  0.27430000  0.33110000  1.0 -0.1211226428
C  C236  1  0.33110000  0.45790000  0.93670000  1.0 -0.1211226428
C  C237  1  0.33110000  0.27430000  0.45790000  1.0 -0.1211226428
C  C238  1  0.93670000  0.45790000  0.27430000  1.0 -0.1211226428
C  C239  1  0.45790000  0.93670000  0.33110000  1.0 -0.1211226428
C  C240  1  0.27430000  0.33110000  0.93670000  1.0 -0.1211226428
C  C241  1  0.97190000  0.21510000  0.15070000  1.0 -0.1141616307
C  C242  1  0.21510000  0.97190000  0.66230000  1.0 -0.1211226428
C  C243  1  0.15070000  0.66230000  0.97190000  1.0 -0.1141616307
C  C244  1  0.66230000  0.15070000  0.21510000  1.0 -0.1141616307
C  C245  1  0.15070000  0.97190000  0.21510000  1.0 -0.1211226428
C  C246  1  0.66230000  0.21510000  0.97190000  1.0 -0.1141616307
C  C247  1  0.97190000  0.15070000  0.66230000  1.0 -0.1141616307
C  C248  1  0.21510000  0.66230000  0.15070000  1.0 -0.1211226428
C  C249  1  0.21510000  0.15070000  0.97190000  1.0 -0.1141616307
C  C250  1  0.97190000  0.66230000  0.21510000  1.0 -0.1141616307
C  C251  1  0.66230000  0.97190000  0.15070000  1.0 -0.1211226428
C  C252  1  0.15070000  0.21510000  0.66230000  1.0 -0.1141616307
C  C253  1  0.02810000  0.78490000  0.33770000  1.0 -0.1211226428
C  C254  1  0.78490000  0.02810000  0.84930000  1.0 -0.1141616307
C  C255  1  0.84930000  0.33770000  0.78490000  1.0 -0.1141616307
C  C256  1  0.33770000  0.84930000  0.02810000  1.0 -0.1211226428
C  C257  1  0.84930000  0.02810000  0.33770000  1.0 -0.1141616307
C  C258  1  0.33770000  0.78490000  0.84930000  1.0 -0.1211226428
C  C259  1  0.02810000  0.84930000  0.78490000  1.0 -0.1211226428
C  C260  1  0.78490000  0.33770000  0.02810000  1.0 -0.1211226428
C  C261  1  0.78490000  0.84930000  0.33770000  1.0 -0.1141616307
C  C262  1  0.02810000  0.33770000  0.84930000  1.0 -0.1211226428
C  C263  1  0.33770000  0.02810000  0.78490000  1.0 -0.1141616307
C  C264  1  0.84930000  0.78490000  0.02810000  1.0 -0.1211226428
C  C265  1  0.02810000  0.78490000  0.84930000  1.0 -0.1211226428
C  C266  1  0.78490000  0.02810000  0.33770000  1.0 -0.1141616307
C  C267  1  0.84930000  0.33770000  0.02810000  1.0 -0.1141616307
C  C268  1  0.33770000  0.84930000  0.78490000  1.0 -0.1211226428
C  C269  1  0.84930000  0.02810000  0.78490000  1.0 -0.1141616307
C  C270  1  0.33770000  0.78490000  0.02810000  1.0 -0.1211226428
C  C271  1  0.02810000  0.84930000  0.33770000  1.0 -0.1211226428
C  C272  1  0.78490000  0.33770000  0.84930000  1.0 -0.1141616307
C  C273  1  0.78490000  0.84930000  0.02810000  1.0 -0.1211226428
C  C274  1  0.02810000  0.33770000  0.78490000  1.0 -0.1141616307
C  C275  1  0.33770000  0.02810000  0.84930000  1.0 -0.1141616307
C  C276  1  0.84930000  0.78490000  0.33770000  1.0 -0.1141616307
C  C277  1  0.97190000  0.21510000  0.66230000  1.0 -0.1141616307
C  C278  1  0.21510000  0.97190000  0.15070000  1.0 -0.1211226428
C  C279  1  0.15070000  0.66230000  0.21510000  1.0 -0.1211226428
C  C280  1  0.66230000  0.15070000  0.97190000  1.0 -0.1141616307
C  C281  1  0.15070000  0.97190000  0.66230000  1.0 -0.1211226428
C  C282  1  0.66230000  0.21510000  0.15070000  1.0 -0.1141616307
C  C283  1  0.97190000  0.15070000  0.21510000  1.0 -0.1141616307
C  C284  1  0.21510000  0.66230000  0.97190000  1.0 -0.1141616307
C  C285  1  0.21510000  0.15070000  0.66230000  1.0 -0.1141616307
C  C286  1  0.97190000  0.66230000  0.15070000  1.0 -0.1141616307
C  C287  1  0.66230000  0.97190000  0.21510000  1.0 -0.1211226428
C  C288  1  0.15070000  0.21510000  0.97190000  1.0 -0.1141616307
C  C289  1  0.97040000  0.19320000  0.19320000  1.0 0.0833865166
C  C290  1  0.19320000  0.97040000  0.64320000  1.0 0.0833865166
C  C291  1  0.19320000  0.64320000  0.97040000  1.0 0.0833865166
C  C292  1  0.64320000  0.19320000  0.19320000  1.0 0.0833865166
C  C293  1  0.19320000  0.97040000  0.19320000  1.0 0.0833865166
C  C294  1  0.64320000  0.19320000  0.97040000  1.0 0.0833865166
C  C295  1  0.97040000  0.19320000  0.64320000  1.0 0.0833865166
C  C296  1  0.19320000  0.64320000  0.19320000  1.0 0.0833865166
C  C297  1  0.19320000  0.19320000  0.97040000  1.0 0.0833865166
C  C298  1  0.97040000  0.64320000  0.19320000  1.0 0.0833865166
C  C299  1  0.64320000  0.97040000  0.19320000  1.0 0.0833865166
C  C300  1  0.19320000  0.19320000  0.64320000  1.0 0.0833865166
C  C301  1  0.02960000  0.80680000  0.35680000  1.0 0.0833865166
C  C302  1  0.80680000  0.02960000  0.80680000  1.0 0.0833865166
C  C303  1  0.80680000  0.35680000  0.80680000  1.0 0.0833865166
C  C304  1  0.35680000  0.80680000  0.02960000  1.0 0.0833865166
C  C305  1  0.80680000  0.02960000  0.35680000  1.0 0.0883513722
C  C306  1  0.35680000  0.80680000  0.80680000  1.0 0.0833865166
C  C307  1  0.02960000  0.80680000  0.80680000  1.0 0.0833865166
C  C308  1  0.80680000  0.35680000  0.02960000  1.0 0.0833865166
C  C309  1  0.80680000  0.80680000  0.35680000  1.0 0.0833865166
C  C310  1  0.02960000  0.35680000  0.80680000  1.0 0.0833865166
C  C311  1  0.35680000  0.02960000  0.80680000  1.0 0.0833865166
C  C312  1  0.80680000  0.80680000  0.02960000  1.0 0.0883513722
C  C313  1  0.95850000  0.22070000  0.22070000  1.0 -0.0274038802
C  C314  1  0.22070000  0.95850000  0.60010000  1.0 -0.0274038802
C  C315  1  0.22070000  0.60010000  0.95850000  1.0 -0.0274038802
C  C316  1  0.60010000  0.22070000  0.22070000  1.0 -0.0274038802
C  C317  1  0.22070000  0.95850000  0.22070000  1.0 -0.0274038802
C  C318  1  0.60010000  0.22070000  0.95850000  1.0 -0.0274038802
C  C319  1  0.95850000  0.22070000  0.60010000  1.0 -0.0274038802
C  C320  1  0.22070000  0.60010000  0.22070000  1.0 -0.0274038802
C  C321  1  0.22070000  0.22070000  0.95850000  1.0 -0.0274038802
C  C322  1  0.95850000  0.60010000  0.22070000  1.0 -0.0274038802
C  C323  1  0.60010000  0.95850000  0.22070000  1.0 -0.0274038802
C  C324  1  0.22070000  0.22070000  0.60010000  1.0 -0.0274038802
C  C325  1  0.04150000  0.77930000  0.39990000  1.0 -0.0274038802
C  C326  1  0.77930000  0.04150000  0.77930000  1.0 -0.0274038802
C  C327  1  0.77930000  0.39990000  0.77930000  1.0 -0.0274038802
C  C328  1  0.39990000  0.77930000  0.04150000  1.0 -0.0274038802
C  C329  1  0.77930000  0.04150000  0.39990000  1.0 -0.0274038802
C  C330  1  0.39990000  0.77930000  0.77930000  1.0 -0.0274038802
C  C331  1  0.04150000  0.77930000  0.77930000  1.0 -0.0274038802
C  C332  1  0.77930000  0.39990000  0.04150000  1.0 -0.0274038802
C  C333  1  0.77930000  0.77930000  0.39990000  1.0 -0.0274038802
C  C334  1  0.04150000  0.39990000  0.77930000  1.0 -0.0274038802
C  C335  1  0.39990000  0.04150000  0.77930000  1.0 -0.0274038802
C  C336  1  0.77930000  0.77930000  0.04150000  1.0 -0.0274038802
C  C337  1  0.94780000  0.30140000  0.24980000  1.0 -0.0881525503
C  C338  1  0.30140000  0.94780000  0.50100000  1.0 -0.0881525503
C  C339  1  0.24980000  0.50100000  0.94780000  1.0 -0.0881525503
C  C340  1  0.50100000  0.24980000  0.30140000  1.0 -0.0881525503
C  C341  1  0.24980000  0.94780000  0.30140000  1.0 -0.0881525503
C  C342  1  0.50100000  0.30140000  0.94780000  1.0 -0.0881525503
C  C343  1  0.94780000  0.24980000  0.50100000  1.0 -0.0881525503
C  C344  1  0.30140000  0.50100000  0.24980000  1.0 -0.0881525503
C  C345  1  0.30140000  0.24980000  0.94780000  1.0 -0.0881525503
C  C346  1  0.94780000  0.50100000  0.30140000  1.0 -0.0881525503
C  C347  1  0.50100000  0.94780000  0.24980000  1.0 -0.0881525503
C  C348  1  0.24980000  0.30140000  0.50100000  1.0 -0.0881525503
C  C349  1  0.05220000  0.69860000  0.49900000  1.0 -0.0881525503
C  C350  1  0.69860000  0.05220000  0.75020000  1.0 -0.0881525503
C  C351  1  0.75020000  0.49900000  0.69860000  1.0 -0.0881525503
C  C352  1  0.49900000  0.75020000  0.05220000  1.0 -0.0881525503
C  C353  1  0.75020000  0.05220000  0.49900000  1.0 -0.0881525503
C  C354  1  0.49900000  0.69860000  0.75020000  1.0 -0.0881525503
C  C355  1  0.05220000  0.75020000  0.69860000  1.0 -0.0881525503
C  C356  1  0.69860000  0.49900000  0.05220000  1.0 -0.0881525503
C  C357  1  0.69860000  0.75020000  0.49900000  1.0 -0.0881525503
C  C358  1  0.05220000  0.49900000  0.75020000  1.0 -0.0881525503
C  C359  1  0.49900000  0.05220000  0.69860000  1.0 -0.0881525503
C  C360  1  0.75020000  0.69860000  0.05220000  1.0 -0.0881525503
C  C361  1  0.05220000  0.69860000  0.75020000  1.0 -0.0881525503
C  C362  1  0.69860000  0.05220000  0.49900000  1.0 -0.0881525503
C  C363  1  0.75020000  0.49900000  0.05220000  1.0 -0.0881525503
C  C364  1  0.49900000  0.75020000  0.69860000  1.0 -0.0881525503
C  C365  1  0.75020000  0.05220000  0.69860000  1.0 -0.0881525503
C  C366  1  0.49900000  0.69860000  0.05220000  1.0 -0.0881525503
C  C367  1  0.05220000  0.75020000  0.49900000  1.0 -0.0881525503
C  C368  1  0.69860000  0.49900000  0.75020000  1.0 -0.0881525503
C  C369  1  0.69860000  0.75020000  0.05220000  1.0 -0.0881525503
C  C370  1  0.05220000  0.49900000  0.69860000  1.0 -0.0881525503
C  C371  1  0.49900000  0.05220000  0.75020000  1.0 -0.0881525503
C  C372  1  0.75020000  0.69860000  0.49900000  1.0 -0.0881525503
C  C373  1  0.94780000  0.30140000  0.50100000  1.0 -0.0881525503
C  C374  1  0.30140000  0.94780000  0.24980000  1.0 -0.0881525503
C  C375  1  0.24980000  0.50100000  0.30140000  1.0 -0.0881525503
C  C376  1  0.50100000  0.24980000  0.94780000  1.0 -0.0881525503
C  C377  1  0.24980000  0.94780000  0.50100000  1.0 -0.0881525503
C  C378  1  0.50100000  0.30140000  0.24980000  1.0 -0.0881525503
C  C379  1  0.94780000  0.24980000  0.30140000  1.0 -0.0881525503
C  C380  1  0.30140000  0.50100000  0.94780000  1.0 -0.0881525503
C  C381  1  0.30140000  0.24980000  0.50100000  1.0 -0.0881525503
C  C382  1  0.94780000  0.50100000  0.24980000  1.0 -0.0881525503
C  C383  1  0.50100000  0.94780000  0.30140000  1.0 -0.0881525503
C  C384  1  0.24980000  0.30140000  0.94780000  1.0 -0.0881525503
C  C385  1  0.95520000  0.23840000  0.23840000  1.0 -0.0395467022
C  C386  1  0.23840000  0.95520000  0.56800000  1.0 -0.0395467022
C  C387  1  0.23840000  0.56800000  0.95520000  1.0 -0.0395467022
C  C388  1  0.56800000  0.23840000  0.23840000  1.0 -0.0395467022
C  C389  1  0.23840000  0.95520000  0.23840000  1.0 -0.0395467022
C  C390  1  0.56800000  0.23840000  0.95520000  1.0 -0.0395467022
C  C391  1  0.95520000  0.23840000  0.56800000  1.0 -0.0395467022
C  C392  1  0.23840000  0.56800000  0.23840000  1.0 -0.0395467022
C  C393  1  0.23840000  0.23840000  0.95520000  1.0 -0.0395467022
C  C394  1  0.95520000  0.56800000  0.23840000  1.0 -0.0395467022
C  C395  1  0.56800000  0.95520000  0.23840000  1.0 -0.0395467022
C  C396  1  0.23840000  0.23840000  0.56800000  1.0 -0.0395467022
C  C397  1  0.04480000  0.76160000  0.43200000  1.0 -0.0395467022
C  C398  1  0.76160000  0.04480000  0.76160000  1.0 -0.0395467022
C  C399  1  0.76160000  0.43200000  0.76160000  1.0 -0.0395467022
C  C400  1  0.43200000  0.76160000  0.04480000  1.0 -0.0395467022
C  C401  1  0.76160000  0.04480000  0.43200000  1.0 -0.0395467022
C  C402  1  0.43200000  0.76160000  0.76160000  1.0 -0.0395467022
C  C403  1  0.04480000  0.76160000  0.76160000  1.0 -0.0395467022
C  C404  1  0.76160000  0.43200000  0.04480000  1.0 -0.0395467022
C  C405  1  0.76160000  0.76160000  0.43200000  1.0 -0.0395467022
C  C406  1  0.04480000  0.43200000  0.76160000  1.0 -0.0395467022
C  C407  1  0.43200000  0.04480000  0.76160000  1.0 -0.0395467022
C  C408  1  0.76160000  0.76160000  0.04480000  1.0 -0.0395467022
C  C409  1  0.94420000  0.26560000  0.26560000  1.0 0.0186769198
C  C410  1  0.26560000  0.94420000  0.52460000  1.0 0.0132988174
C  C411  1  0.26560000  0.52460000  0.94420000  1.0 0.0132988174
C  C412  1  0.52460000  0.26560000  0.26560000  1.0 0.0186769198
C  C413  1  0.26560000  0.94420000  0.26560000  1.0 0.0132988174
C  C414  1  0.52460000  0.26560000  0.94420000  1.0 0.0132988174
C  C415  1  0.94420000  0.26560000  0.52460000  1.0 0.0132988174
C  C416  1  0.26560000  0.52460000  0.26560000  1.0 0.0186769198
C  C417  1  0.26560000  0.26560000  0.94420000  1.0 0.0132988174
C  C418  1  0.94420000  0.52460000  0.26560000  1.0 0.0186769198
C  C419  1  0.52460000  0.94420000  0.26560000  1.0 0.0132988174
C  C420  1  0.26560000  0.26560000  0.52460000  1.0 0.0186769198
C  C421  1  0.05580000  0.73440000  0.47540000  1.0 0.0132988174
C  C422  1  0.73440000  0.05580000  0.73440000  1.0 0.0132988174
C  C423  1  0.73440000  0.47540000  0.73440000  1.0 0.0132988174
C  C424  1  0.47540000  0.73440000  0.05580000  1.0 0.0132988174
C  C425  1  0.73440000  0.05580000  0.47540000  1.0 0.0132988174
C  C426  1  0.47540000  0.73440000  0.73440000  1.0 0.0132988174
C  C427  1  0.05580000  0.73440000  0.73440000  1.0 0.0132988174
C  C428  1  0.73440000  0.47540000  0.05580000  1.0 0.0132988174
C  C429  1  0.73440000  0.73440000  0.47540000  1.0 0.0132988174
C  C430  1  0.05580000  0.47540000  0.73440000  1.0 0.0132988174
C  C431  1  0.47540000  0.05580000  0.73440000  1.0 0.0132988174
C  C432  1  0.73440000  0.73440000  0.05580000  1.0 0.0132988174
O  O1  1  0.98795000  0.19333000  0.05927000  1.0 -0.4852499001
O  O2  1  0.19333000  0.98795000  0.75945000  1.0 -0.4843705711
O  O3  1  0.05927000  0.75945000  0.98795000  1.0 -0.4852499001
O  O4  1  0.75945000  0.05927000  0.19333000  1.0 -0.4852499001
O  O5  1  0.05927000  0.98795000  0.19333000  1.0 -0.4852499001
O  O6  1  0.75945000  0.19333000  0.98795000  1.0 -0.4852499001
O  O7  1  0.98795000  0.05927000  0.75945000  1.0 -0.4852499001
O  O8  1  0.19333000  0.75945000  0.05927000  1.0 -0.4852499001
O  O9  1  0.19333000  0.05927000  0.98795000  1.0 -0.4843705711
O  O10  1  0.98795000  0.75945000  0.19333000  1.0 -0.4852499001
O  O11  1  0.75945000  0.98795000  0.05927000  1.0 -0.4843705711
O  O12  1  0.05927000  0.19333000  0.75945000  1.0 -0.4843705711
O  O13  1  0.01205000  0.80667000  0.24055000  1.0 -0.4852499001
O  O14  1  0.80667000  0.01205000  0.94073000  1.0 -0.4843705711
O  O15  1  0.94073000  0.24055000  0.80667000  1.0 -0.4852499001
O  O16  1  0.24055000  0.94073000  0.01205000  1.0 -0.4843705711
O  O17  1  0.94073000  0.01205000  0.24055000  1.0 -0.4852499001
O  O18  1  0.24055000  0.80667000  0.94073000  1.0 -0.4852499001
O  O19  1  0.01205000  0.94073000  0.80667000  1.0 -0.4852499001
O  O20  1  0.80667000  0.24055000  0.01205000  1.0 -0.4852499001
O  O21  1  0.80667000  0.94073000  0.24055000  1.0 -0.4852499001
O  O22  1  0.01205000  0.24055000  0.94073000  1.0 -0.4852499001
O  O23  1  0.24055000  0.01205000  0.80667000  1.0 -0.4843705711
O  O24  1  0.94073000  0.80667000  0.01205000  1.0 -0.4852499001
O  O25  1  0.01205000  0.80667000  0.94073000  1.0 -0.4852499001
O  O26  1  0.80667000  0.01205000  0.24055000  1.0 -0.4843705711
O  O27  1  0.94073000  0.24055000  0.01205000  1.0 -0.4852499001
O  O28  1  0.24055000  0.94073000  0.80667000  1.0 -0.4852499001
O  O29  1  0.94073000  0.01205000  0.80667000  1.0 -0.4852499001
O  O30  1  0.24055000  0.80667000  0.01205000  1.0 -0.4843705711
O  O31  1  0.01205000  0.94073000  0.24055000  1.0 -0.4852499001
O  O32  1  0.80667000  0.24055000  0.94073000  1.0 -0.4852499001
O  O33  1  0.80667000  0.94073000  0.01205000  1.0 -0.4843705711
O  O34  1  0.01205000  0.24055000  0.80667000  1.0 -0.4843705711
O  O35  1  0.24055000  0.01205000  0.94073000  1.0 -0.4843705711
O  O36  1  0.94073000  0.80667000  0.24055000  1.0 -0.4852499001
O  O37  1  0.98795000  0.19333000  0.75945000  1.0 -0.4852499001
O  O38  1  0.19333000  0.98795000  0.05927000  1.0 -0.4843705711
O  O39  1  0.05927000  0.75945000  0.19333000  1.0 -0.4852499001
O  O40  1  0.75945000  0.05927000  0.98795000  1.0 -0.4843705711
O  O41  1  0.05927000  0.98795000  0.75945000  1.0 -0.4852499001
O  O42  1  0.75945000  0.19333000  0.05927000  1.0 -0.4843705711
O  O43  1  0.98795000  0.05927000  0.19333000  1.0 -0.4852499001
O  O44  1  0.19333000  0.75945000  0.98795000  1.0 -0.4852499001
O  O45  1  0.19333000  0.05927000  0.75945000  1.0 -0.4843705711
O  O46  1  0.98795000  0.75945000  0.05927000  1.0 -0.4852499001
O  O47  1  0.75945000  0.98795000  0.19333000  1.0 -0.4852499001
O  O48  1  0.05927000  0.19333000  0.98795000  1.0 -0.4843705711
O  O49  1  0.99013000  0.25187000  0.05989000  1.0 -0.5005750201
O  O50  1  0.25187000  0.99013000  0.69811000  1.0 -0.5005750201
O  O51  1  0.05989000  0.69811000  0.99013000  1.0 -0.5005750201
O  O52  1  0.69811000  0.05989000  0.25187000  1.0 -0.5005750201
O  O53  1  0.05989000  0.99013000  0.25187000  1.0 -0.5005750201
O  O54  1  0.69811000  0.25187000  0.99013000  1.0 -0.5005750201
O  O55  1  0.99013000  0.05989000  0.69811000  1.0 -0.5005750201
O  O56  1  0.25187000  0.69811000  0.05989000  1.0 -0.5005750201
O  O57  1  0.25187000  0.05989000  0.99013000  1.0 -0.5005750201
O  O58  1  0.99013000  0.69811000  0.25187000  1.0 -0.5005750201
O  O59  1  0.69811000  0.99013000  0.05989000  1.0 -0.5005750201
O  O60  1  0.05989000  0.25187000  0.69811000  1.0 -0.5005750201
O  O61  1  0.00987000  0.74813000  0.30189000  1.0 -0.5005750201
O  O62  1  0.74813000  0.00987000  0.94011000  1.0 -0.5005750201
O  O63  1  0.94011000  0.30189000  0.74813000  1.0 -0.5005750201
O  O64  1  0.30189000  0.94011000  0.00987000  1.0 -0.5005750201
O  O65  1  0.94011000  0.00987000  0.30189000  1.0 -0.5005750201
O  O66  1  0.30189000  0.74813000  0.94011000  1.0 -0.5005750201
O  O67  1  0.00987000  0.94011000  0.74813000  1.0 -0.5005750201
O  O68  1  0.74813000  0.30189000  0.00987000  1.0 -0.5005750201
O  O69  1  0.74813000  0.94011000  0.30189000  1.0 -0.5005750201
O  O70  1  0.00987000  0.30189000  0.94011000  1.0 -0.5005750201
O  O71  1  0.30189000  0.00987000  0.74813000  1.0 -0.5005750201
O  O72  1  0.94011000  0.74813000  0.00987000  1.0 -0.5005750201
O  O73  1  0.00987000  0.74813000  0.94011000  1.0 -0.5005750201
O  O74  1  0.74813000  0.00987000  0.30189000  1.0 -0.5005750201
O  O75  1  0.94011000  0.30189000  0.00987000  1.0 -0.5005750201
O  O76  1  0.30189000  0.94011000  0.74813000  1.0 -0.5005750201
O  O77  1  0.94011000  0.00987000  0.74813000  1.0 -0.5005750201
O  O78  1  0.30189000  0.74813000  0.00987000  1.0 -0.5005750201
O  O79  1  0.00987000  0.94011000  0.30189000  1.0 -0.5005750201
O  O80  1  0.74813000  0.30189000  0.94011000  1.0 -0.5005750201
O  O81  1  0.74813000  0.94011000  0.00987000  1.0 -0.5005750201
O  O82  1  0.00987000  0.30189000  0.74813000  1.0 -0.5005750201
O  O83  1  0.30189000  0.00987000  0.94011000  1.0 -0.5005750201
O  O84  1  0.94011000  0.74813000  0.30189000  1.0 -0.5005750201
O  O85  1  0.99013000  0.25187000  0.69811000  1.0 -0.5005750201
O  O86  1  0.25187000  0.99013000  0.05989000  1.0 -0.5005750201
O  O87  1  0.05989000  0.69811000  0.25187000  1.0 -0.5005750201
O  O88  1  0.69811000  0.05989000  0.99013000  1.0 -0.5005750201
O  O89  1  0.05989000  0.99013000  0.69811000  1.0 -0.5005750201
O  O90  1  0.69811000  0.25187000  0.05989000  1.0 -0.5005750201
O  O91  1  0.99013000  0.05989000  0.25187000  1.0 -0.5005750201
O  O92  1  0.25187000  0.69811000  0.99013000  1.0 -0.5005750201
O  O93  1  0.25187000  0.05989000  0.69811000  1.0 -0.5005750201
O  O94  1  0.99013000  0.69811000  0.05989000  1.0 -0.5005750201
O  O95  1  0.69811000  0.99013000  0.25187000  1.0 -0.5005750201
O  O96  1  0.05989000  0.25187000  0.99013000  1.0 -0.5005750201
