# DDEC6 charges by PACMAN v1.1 (https://github.com/mtap-research/PACMAN-charge/)
data_LUSQOH_FSR_pacman
_symmetry_space_group_name_H-M   'P 1'
_cell_length_a   27.01180000
_cell_length_b   27.01180000
_cell_length_c   25.02540000
_cell_angle_alpha   90.00000000
_cell_angle_beta   90.00000000
_cell_angle_gamma   120.00000000
_symmetry_Int_Tables_number   1
_chemical_formula_structural   Cu3H98C62N6O13
_chemical_formula_sum   'Cu18 H588 C372 N36 O78'
_cell_volume   15813.16164886
_cell_formula_units_Z   6
loop_
 _symmetry_equiv_pos_site_id
 _symmetry_equiv_pos_as_xyz
  1  'x, y, z'
loop_
 _atom_site_type_symbol
 _atom_site_label
 _atom_site_symmetry_multiplicity
 _atom_site_fract_x
 _atom_site_fract_y
 _atom_site_fract_z
 _atom_site_occupancy
 _atom_site_charge
Cu  Cu1  1  0.62195000  0.81098000  0.83333000  1.0 0.7469215052
Cu  Cu2  1  0.81098000  0.62195000  0.50000000  1.0 0.7469215052
Cu  Cu3  1  0.18902000  0.81098000  0.16667000  1.0 0.7469215052
Cu  Cu4  1  0.37805000  0.18903000  0.83333000  1.0 0.7469215052
Cu  Cu5  1  0.18903000  0.37805000  0.50000000  1.0 0.7469215052
Cu  Cu6  1  0.81098000  0.18903000  0.16667000  1.0 0.7469215052
Cu  Cu7  1  0.86294000  0.26566000  0.96703000  1.0 0.7198409942
Cu  Cu8  1  0.59728000  0.86294000  0.63370000  1.0 0.7198409942
Cu  Cu9  1  0.73434000  0.59728000  0.30036000  1.0 0.7198409942
Cu  Cu10  1  0.13706000  0.73434000  0.96703000  1.0 0.7198409942
Cu  Cu11  1  0.40272000  0.13706000  0.63370000  1.0 0.7198409942
Cu  Cu12  1  0.26566000  0.40272000  0.30036000  1.0 0.7198409942
Cu  Cu13  1  0.59728000  0.73434000  0.03297000  1.0 0.7198409942
Cu  Cu14  1  0.13706000  0.40272000  0.69964000  1.0 0.7198409942
Cu  Cu15  1  0.26566000  0.86294000  0.36630000  1.0 0.7198409942
Cu  Cu16  1  0.73434000  0.13706000  0.36630000  1.0 0.7198409942
Cu  Cu17  1  0.40272000  0.26566000  0.03297000  1.0 0.7198409942
Cu  Cu18  1  0.86294000  0.59728000  0.69964000  1.0 0.7198409942
H  H1  1  0.65600000  0.95630000  0.80320000  1.0 0.1118638462
H  H2  1  0.69970000  0.65600000  0.46987000  1.0 0.1118638462
H  H3  1  0.04370000  0.69970000  0.13653000  1.0 0.1118638462
H  H4  1  0.34400000  0.04370000  0.80320000  1.0 0.1118638462
H  H5  1  0.30030000  0.34400000  0.46987000  1.0 0.1118638462
H  H6  1  0.95630000  0.30030000  0.13653000  1.0 0.1118638462
H  H7  1  0.69970000  0.04370000  0.19680000  1.0 0.1118638462
H  H8  1  0.34400000  0.30030000  0.86347000  1.0 0.1118638462
H  H9  1  0.95630000  0.65600000  0.53013000  1.0 0.1118638462
H  H10  1  0.04370000  0.34400000  0.53013000  1.0 0.1118638462
H  H11  1  0.30030000  0.95630000  0.19680000  1.0 0.1118638462
H  H12  1  0.65600000  0.69970000  0.86347000  1.0 0.1118638462
H  H13  1  0.54190000  0.87080000  0.82850000  1.0 0.1292590306
H  H14  1  0.67110000  0.54190000  0.49517000  1.0 0.1292590306
H  H15  1  0.12920000  0.67110000  0.16183000  1.0 0.1292590306
H  H16  1  0.45810000  0.12920000  0.82850000  1.0 0.1292590306
H  H17  1  0.32890000  0.45810000  0.49517000  1.0 0.1292590306
H  H18  1  0.87080000  0.32890000  0.16183000  1.0 0.1292590306
H  H19  1  0.67110000  0.12920000  0.17150000  1.0 0.1292590306
H  H20  1  0.45810000  0.32890000  0.83817000  1.0 0.1292590306
H  H21  1  0.87080000  0.54190000  0.50483000  1.0 0.1292590306
H  H22  1  0.12920000  0.45810000  0.50483000  1.0 0.1292590306
H  H23  1  0.32890000  0.87080000  0.17150000  1.0 0.1292590306
H  H24  1  0.54190000  0.67110000  0.83817000  1.0 0.1292590306
H  H25  1  0.55470000  0.91810000  0.78580000  1.0 0.1212529336
H  H26  1  0.63660000  0.55470000  0.45247000  1.0 0.1212529336
H  H27  1  0.08190000  0.63660000  0.11913000  1.0 0.1212529336
H  H28  1  0.44530000  0.08190000  0.78580000  1.0 0.1212529336
H  H29  1  0.36340000  0.44530000  0.45247000  1.0 0.1212529336
H  H30  1  0.91810000  0.36340000  0.11913000  1.0 0.1212529336
H  H31  1  0.63660000  0.08190000  0.21420000  1.0 0.1212529336
H  H32  1  0.44530000  0.36340000  0.88087000  1.0 0.1212529336
H  H33  1  0.91810000  0.55470000  0.54753000  1.0 0.1212529336
H  H34  1  0.08190000  0.44530000  0.54753000  1.0 0.1212529336
H  H35  1  0.36340000  0.91810000  0.21420000  1.0 0.1212529336
H  H36  1  0.55470000  0.63660000  0.88087000  1.0 0.1212529336
H  H37  1  0.58700000  0.94420000  0.89500000  1.0 0.0696922905
H  H38  1  0.64280000  0.58700000  0.56167000  1.0 0.0696922905
H  H39  1  0.05580000  0.64280000  0.22833000  1.0 0.0696922905
H  H40  1  0.41300000  0.05580000  0.89500000  1.0 0.0696922905
H  H41  1  0.35720000  0.41300000  0.56167000  1.0 0.0696922905
H  H42  1  0.94420000  0.35720000  0.22833000  1.0 0.0696922905
H  H43  1  0.64280000  0.05580000  0.10500000  1.0 0.0696922905
H  H44  1  0.41300000  0.35720000  0.77167000  1.0 0.0696922905
H  H45  1  0.94420000  0.58700000  0.43833000  1.0 0.0696922905
H  H46  1  0.05580000  0.41300000  0.43833000  1.0 0.0696922905
H  H47  1  0.35720000  0.94420000  0.10500000  1.0 0.0696922905
H  H48  1  0.58700000  0.64280000  0.77167000  1.0 0.0696922905
H  H49  1  0.48920000  0.89530000  0.88670000  1.0 0.1381258154
H  H50  1  0.59390000  0.48920000  0.55337000  1.0 0.1381258154
H  H51  1  0.10470000  0.59390000  0.22003000  1.0 0.1381258154
H  H52  1  0.51080000  0.10470000  0.88670000  1.0 0.1381258154
H  H53  1  0.40610000  0.51080000  0.55337000  1.0 0.1381258154
H  H54  1  0.89530000  0.40610000  0.22003000  1.0 0.1381258154
H  H55  1  0.59390000  0.10470000  0.11330000  1.0 0.1381258154
H  H56  1  0.51080000  0.40610000  0.77997000  1.0 0.1381258154
H  H57  1  0.89530000  0.48920000  0.44663000  1.0 0.1381258154
H  H58  1  0.10470000  0.51080000  0.44663000  1.0 0.1381258154
H  H59  1  0.40610000  0.89530000  0.11330000  1.0 0.1381258154
H  H60  1  0.48920000  0.59390000  0.77997000  1.0 0.1381258154
H  H61  1  0.49280000  0.94240000  0.84760000  1.0 0.1212529336
H  H62  1  0.55040000  0.49280000  0.51427000  1.0 0.1212529336
H  H63  1  0.05760000  0.55040000  0.18093000  1.0 0.1212529336
H  H64  1  0.50720000  0.05760000  0.84760000  1.0 0.1212529336
H  H65  1  0.44960000  0.50720000  0.51427000  1.0 0.1212529336
H  H66  1  0.94240000  0.44960000  0.18093000  1.0 0.1212529336
H  H67  1  0.55040000  0.05760000  0.15240000  1.0 0.1212529336
H  H68  1  0.50720000  0.44960000  0.81907000  1.0 0.1212529336
H  H69  1  0.94240000  0.49280000  0.48573000  1.0 0.1212529336
H  H70  1  0.05760000  0.50720000  0.48573000  1.0 0.1212529336
H  H71  1  0.44960000  0.94240000  0.15240000  1.0 0.1212529336
H  H72  1  0.49280000  0.55040000  0.81907000  1.0 0.1212529336
H  H73  1  0.51130000  0.95770000  0.90750000  1.0 0.1292590306
H  H74  1  0.55360000  0.51130000  0.57417000  1.0 0.1292590306
H  H75  1  0.04230000  0.55360000  0.24083000  1.0 0.1292590306
H  H76  1  0.48870000  0.04230000  0.90750000  1.0 0.1292590306
H  H77  1  0.44640000  0.48870000  0.57417000  1.0 0.1292590306
H  H78  1  0.95770000  0.44640000  0.24083000  1.0 0.1292590306
H  H79  1  0.55360000  0.04230000  0.09250000  1.0 0.1292590306
H  H80  1  0.48870000  0.44640000  0.75917000  1.0 0.1292590306
H  H81  1  0.95770000  0.51130000  0.42583000  1.0 0.1292590306
H  H82  1  0.04230000  0.48870000  0.42583000  1.0 0.1292590306
H  H83  1  0.44640000  0.95770000  0.09250000  1.0 0.1292590306
H  H84  1  0.51130000  0.55360000  0.75917000  1.0 0.1292590306
H  H85  1  0.64380000  0.02160000  0.83850000  1.0 0.1118638462
H  H86  1  0.62220000  0.64380000  0.50517000  1.0 0.1118638462
H  H87  1  0.97840000  0.62220000  0.17183000  1.0 0.1118638462
H  H88  1  0.35620000  0.97840000  0.83850000  1.0 0.1118638462
H  H89  1  0.37780000  0.35620000  0.50517000  1.0 0.1118638462
H  H90  1  0.02160000  0.37780000  0.17183000  1.0 0.1118638462
H  H91  1  0.62220000  0.97840000  0.16150000  1.0 0.1118638462
H  H92  1  0.35620000  0.37780000  0.82817000  1.0 0.1118638462
H  H93  1  0.02160000  0.64380000  0.49483000  1.0 0.1118638462
H  H94  1  0.97840000  0.35620000  0.49483000  1.0 0.1118638462
H  H95  1  0.37780000  0.02160000  0.16150000  1.0 0.1118638462
H  H96  1  0.64380000  0.62220000  0.82817000  1.0 0.1118638462
H  H97  1  0.60830000  0.03690000  0.87790000  1.0 0.1292590306
H  H98  1  0.57140000  0.60830000  0.54457000  1.0 0.1292590306
H  H99  1  0.96310000  0.57140000  0.21123000  1.0 0.1292590306
H  H100  1  0.39170000  0.96310000  0.87790000  1.0 0.1292590306
H  H101  1  0.42860000  0.39170000  0.54457000  1.0 0.1292590306
H  H102  1  0.03690000  0.42860000  0.21123000  1.0 0.1292590306
H  H103  1  0.57140000  0.96310000  0.12210000  1.0 0.1292590306
H  H104  1  0.39170000  0.42860000  0.78877000  1.0 0.1292590306
H  H105  1  0.03690000  0.60830000  0.45543000  1.0 0.1292590306
H  H106  1  0.96310000  0.39170000  0.45543000  1.0 0.1292590306
H  H107  1  0.42860000  0.03690000  0.12210000  1.0 0.1292590306
H  H108  1  0.60830000  0.57140000  0.78877000  1.0 0.1292590306
H  H109  1  0.58890000  0.02170000  0.81820000  1.0 0.1292590306
H  H110  1  0.56720000  0.58890000  0.48487000  1.0 0.1292590306
H  H111  1  0.97830000  0.56720000  0.15153000  1.0 0.1292590306
H  H112  1  0.41110000  0.97830000  0.81820000  1.0 0.1292590306
H  H113  1  0.43280000  0.41110000  0.48487000  1.0 0.1292590306
H  H114  1  0.02170000  0.43280000  0.15153000  1.0 0.1292590306
H  H115  1  0.56720000  0.97830000  0.18180000  1.0 0.1292590306
H  H116  1  0.41110000  0.43280000  0.84847000  1.0 0.1292590306
H  H117  1  0.02170000  0.58890000  0.51513000  1.0 0.1292590306
H  H118  1  0.97830000  0.41110000  0.51513000  1.0 0.1292590306
H  H119  1  0.43280000  0.02170000  0.18180000  1.0 0.1292590306
H  H120  1  0.58890000  0.56720000  0.84847000  1.0 0.1292590306
H  H121  1  0.72400000  0.91540000  0.82910000  1.0 0.1118638462
H  H122  1  0.80860000  0.72400000  0.49577000  1.0 0.1118638462
H  H123  1  0.08460000  0.80860000  0.16243000  1.0 0.1118638462
H  H124  1  0.27600000  0.08460000  0.82910000  1.0 0.1118638462
H  H125  1  0.19140000  0.27600000  0.49577000  1.0 0.1118638462
H  H126  1  0.91540000  0.19140000  0.16243000  1.0 0.1118638462
H  H127  1  0.80860000  0.08460000  0.17090000  1.0 0.1118638462
H  H128  1  0.27600000  0.19140000  0.83757000  1.0 0.1118638462
H  H129  1  0.91540000  0.72400000  0.50423000  1.0 0.1118638462
H  H130  1  0.08460000  0.27600000  0.50423000  1.0 0.1118638462
H  H131  1  0.19140000  0.91540000  0.17090000  1.0 0.1118638462
H  H132  1  0.72400000  0.80860000  0.83757000  1.0 0.1118638462
H  H133  1  0.71400000  0.90150000  0.89020000  1.0 0.1292590306
H  H134  1  0.81250000  0.71400000  0.55687000  1.0 0.1292590306
H  H135  1  0.09850000  0.81250000  0.22353000  1.0 0.1292590306
H  H136  1  0.28600000  0.09850000  0.89020000  1.0 0.1292590306
H  H137  1  0.18750000  0.28600000  0.55687000  1.0 0.1292590306
H  H138  1  0.90150000  0.18750000  0.22353000  1.0 0.1292590306
H  H139  1  0.81250000  0.09850000  0.10980000  1.0 0.1292590306
H  H140  1  0.28600000  0.18750000  0.77647000  1.0 0.1292590306
H  H141  1  0.90150000  0.71400000  0.44313000  1.0 0.1292590306
H  H142  1  0.09850000  0.28600000  0.44313000  1.0 0.1292590306
H  H143  1  0.18750000  0.90150000  0.10980000  1.0 0.1292590306
H  H144  1  0.71400000  0.81250000  0.77647000  1.0 0.1292590306
H  H145  1  0.69910000  0.97470000  0.94600000  1.0 0.1292590306
H  H146  1  0.72440000  0.69910000  0.61267000  1.0 0.1292590306
H  H147  1  0.02530000  0.72440000  0.27933000  1.0 0.1292590306
H  H148  1  0.30090000  0.02530000  0.94600000  1.0 0.1292590306
H  H149  1  0.27560000  0.30090000  0.61267000  1.0 0.1292590306
H  H150  1  0.97470000  0.27560000  0.27933000  1.0 0.1292590306
H  H151  1  0.72440000  0.02530000  0.05400000  1.0 0.1292590306
H  H152  1  0.30090000  0.27560000  0.72067000  1.0 0.1292590306
H  H153  1  0.97470000  0.69910000  0.38733000  1.0 0.1212529336
H  H154  1  0.02530000  0.30090000  0.38733000  1.0 0.1292590306
H  H155  1  0.27560000  0.97470000  0.05400000  1.0 0.1292590306
H  H156  1  0.69910000  0.72440000  0.72067000  1.0 0.1292590306
H  H157  1  0.77940000  0.01270000  0.80530000  1.0 0.1381258154
H  H158  1  0.76670000  0.77940000  0.47197000  1.0 0.1381258154
H  H159  1  0.98730000  0.76670000  0.13863000  1.0 0.1381258154
H  H160  1  0.22060000  0.98730000  0.80530000  1.0 0.1381258154
H  H161  1  0.23330000  0.22060000  0.47197000  1.0 0.1381258154
H  H162  1  0.01270000  0.23330000  0.13863000  1.0 0.1381258154
H  H163  1  0.76670000  0.98730000  0.19470000  1.0 0.1381258154
H  H164  1  0.22060000  0.23330000  0.86137000  1.0 0.1381258154
H  H165  1  0.01270000  0.77940000  0.52803000  1.0 0.1381258154
H  H166  1  0.98730000  0.22060000  0.52803000  1.0 0.1381258154
H  H167  1  0.23330000  0.01270000  0.19470000  1.0 0.1381258154
H  H168  1  0.77940000  0.76670000  0.86137000  1.0 0.1381258154
H  H169  1  0.73630000  0.07100000  0.96460000  1.0 0.1292590306
H  H170  1  0.66530000  0.73630000  0.63127000  1.0 0.1292590306
H  H171  1  0.92900000  0.66530000  0.29793000  1.0 0.1292590306
H  H172  1  0.26370000  0.92900000  0.96460000  1.0 0.1292590306
H  H173  1  0.33470000  0.26370000  0.63127000  1.0 0.1292590306
H  H174  1  0.07100000  0.33470000  0.29793000  1.0 0.1292590306
H  H175  1  0.66530000  0.92900000  0.03540000  1.0 0.1292590306
H  H176  1  0.26370000  0.33470000  0.70207000  1.0 0.1292590306
H  H177  1  0.07100000  0.73630000  0.36873000  1.0 0.1292590306
H  H178  1  0.92900000  0.26370000  0.36873000  1.0 0.1292590306
H  H179  1  0.33470000  0.07100000  0.03540000  1.0 0.1292590306
H  H180  1  0.73630000  0.66530000  0.70207000  1.0 0.1292590306
H  H181  1  0.81920000  0.11010000  0.82350000  1.0 0.1292590306
H  H182  1  0.70910000  0.81920000  0.49017000  1.0 0.1292590306
H  H183  1  0.88990000  0.70910000  0.15683000  1.0 0.1292590306
H  H184  1  0.18080000  0.88990000  0.82350000  1.0 0.1292590306
H  H185  1  0.29090000  0.18080000  0.49017000  1.0 0.1292590306
H  H186  1  0.11010000  0.29090000  0.15683000  1.0 0.1292590306
H  H187  1  0.70910000  0.88990000  0.17650000  1.0 0.1292590306
H  H188  1  0.18080000  0.29090000  0.84317000  1.0 0.1292590306
H  H189  1  0.11010000  0.81920000  0.50983000  1.0 0.1292590306
H  H190  1  0.88990000  0.18080000  0.50983000  1.0 0.1292590306
H  H191  1  0.29090000  0.11010000  0.17650000  1.0 0.1292590306
H  H192  1  0.81920000  0.70910000  0.84317000  1.0 0.1292590306
H  H193  1  0.82460000  0.18520000  0.87600000  1.0 0.1212529336
H  H194  1  0.63940000  0.82460000  0.54267000  1.0 0.1212529336
H  H195  1  0.81480000  0.63940000  0.20933000  1.0 0.1212529336
H  H196  1  0.17540000  0.81480000  0.87600000  1.0 0.1212529336
H  H197  1  0.36060000  0.17540000  0.54267000  1.0 0.1212529336
H  H198  1  0.18520000  0.36060000  0.20933000  1.0 0.1212529336
H  H199  1  0.63940000  0.81480000  0.12400000  1.0 0.1212529336
H  H200  1  0.17540000  0.36060000  0.79067000  1.0 0.1212529336
H  H201  1  0.18520000  0.82460000  0.45733000  1.0 0.1212529336
H  H202  1  0.81480000  0.17540000  0.45733000  1.0 0.1212529336
H  H203  1  0.36060000  0.18520000  0.12400000  1.0 0.1212529336
H  H204  1  0.82460000  0.63940000  0.79067000  1.0 0.1212529336
H  H205  1  0.77340000  0.16980000  0.91470000  1.0 0.1292590306
H  H206  1  0.60360000  0.77340000  0.58137000  1.0 0.1292590306
H  H207  1  0.83020000  0.60360000  0.24803000  1.0 0.1292590306
H  H208  1  0.22660000  0.83020000  0.91470000  1.0 0.1292590306
H  H209  1  0.39640000  0.22660000  0.58137000  1.0 0.1292590306
H  H210  1  0.16980000  0.39640000  0.24803000  1.0 0.1292590306
H  H211  1  0.60360000  0.83020000  0.08530000  1.0 0.1292590306
H  H212  1  0.22660000  0.39640000  0.75197000  1.0 0.1292590306
H  H213  1  0.16980000  0.77340000  0.41863000  1.0 0.1292590306
H  H214  1  0.83020000  0.22660000  0.41863000  1.0 0.1292590306
H  H215  1  0.39640000  0.16980000  0.08530000  1.0 0.1292590306
H  H216  1  0.77340000  0.60360000  0.75197000  1.0 0.1292590306
H  H217  1  0.89340000  0.15750000  0.91510000  1.0 0.0982758463
H  H218  1  0.73590000  0.89340000  0.58177000  1.0 0.0982758463
H  H219  1  0.84250000  0.73590000  0.24843000  1.0 0.0982758463
H  H220  1  0.10660000  0.84250000  0.91510000  1.0 0.0982758463
H  H221  1  0.26410000  0.10660000  0.58177000  1.0 0.0982758463
H  H222  1  0.15750000  0.26410000  0.24843000  1.0 0.0982758463
H  H223  1  0.73590000  0.84250000  0.08490000  1.0 0.0982758463
H  H224  1  0.10660000  0.26410000  0.75157000  1.0 0.0982758463
H  H225  1  0.15750000  0.89340000  0.41823000  1.0 0.0982758463
H  H226  1  0.84250000  0.10660000  0.41823000  1.0 0.0982758463
H  H227  1  0.26410000  0.15750000  0.08490000  1.0 0.0982758463
H  H228  1  0.89340000  0.73590000  0.75157000  1.0 0.0982758463
H  H229  1  0.96230000  0.18220000  0.98670000  1.0 0.1292590306
H  H230  1  0.78010000  0.96230000  0.65337000  1.0 0.1292590306
H  H231  1  0.81780000  0.78010000  0.32003000  1.0 0.1292590306
H  H232  1  0.03770000  0.81780000  0.98670000  1.0 0.1292590306
H  H233  1  0.21990000  0.03770000  0.65337000  1.0 0.1292590306
H  H234  1  0.18220000  0.21990000  0.32003000  1.0 0.1292590306
H  H235  1  0.78010000  0.81780000  0.01330000  1.0 0.1292590306
H  H236  1  0.03770000  0.21990000  0.67997000  1.0 0.1292590306
H  H237  1  0.18220000  0.96230000  0.34663000  1.0 0.1292590306
H  H238  1  0.81780000  0.03770000  0.34663000  1.0 0.1292590306
H  H239  1  0.21990000  0.18220000  0.01330000  1.0 0.1292590306
H  H240  1  0.96230000  0.78010000  0.67997000  1.0 0.1292590306
H  H241  1  0.92170000  0.19380000  0.02250000  1.0 0.1212529336
H  H242  1  0.72790000  0.92170000  0.68917000  1.0 0.1212529336
H  H243  1  0.80620000  0.72790000  0.35583000  1.0 0.1212529336
H  H244  1  0.07830000  0.80620000  0.02250000  1.0 0.1212529336
H  H245  1  0.27210000  0.07830000  0.68917000  1.0 0.1212529336
H  H246  1  0.19380000  0.27210000  0.35583000  1.0 0.1212529336
H  H247  1  0.72790000  0.80620000  0.97750000  1.0 0.1212529336
H  H248  1  0.07830000  0.27210000  0.64417000  1.0 0.1212529336
H  H249  1  0.19380000  0.92170000  0.31083000  1.0 0.1212529336
H  H250  1  0.80620000  0.07830000  0.31083000  1.0 0.1212529336
H  H251  1  0.27210000  0.19380000  0.97750000  1.0 0.1212529336
H  H252  1  0.92170000  0.72790000  0.64417000  1.0 0.1212529336
H  H253  1  0.79700000  0.35490000  0.94620000  1.0 0.0901394251
H  H254  1  0.44210000  0.79700000  0.61287000  1.0 0.0901394251
H  H255  1  0.64510000  0.44210000  0.27953000  1.0 0.0901394251
H  H256  1  0.20300000  0.64510000  0.94620000  1.0 0.0901394251
H  H257  1  0.55790000  0.20300000  0.61287000  1.0 0.0901394251
H  H258  1  0.35490000  0.55790000  0.27953000  1.0 0.0901394251
H  H259  1  0.44210000  0.64510000  0.05380000  1.0 0.0901394251
H  H260  1  0.20300000  0.55790000  0.72047000  1.0 0.0901394251
H  H261  1  0.35490000  0.79700000  0.38713000  1.0 0.0901394251
H  H262  1  0.64510000  0.20300000  0.38713000  1.0 0.0901394251
H  H263  1  0.55790000  0.35490000  0.05380000  1.0 0.0901394251
H  H264  1  0.79700000  0.44210000  0.72047000  1.0 0.0901394251
H  H265  1  0.80060000  0.36460000  0.04350000  1.0 0.1292590306
H  H266  1  0.43600000  0.80060000  0.71017000  1.0 0.1292590306
H  H267  1  0.63540000  0.43600000  0.37683000  1.0 0.1292590306
H  H268  1  0.19940000  0.63540000  0.04350000  1.0 0.1292590306
H  H269  1  0.56400000  0.19940000  0.71017000  1.0 0.1292590306
H  H270  1  0.36460000  0.56400000  0.37683000  1.0 0.1292590306
H  H271  1  0.43600000  0.63540000  0.95650000  1.0 0.1292590306
H  H272  1  0.19940000  0.56400000  0.62317000  1.0 0.1292590306
H  H273  1  0.36460000  0.80060000  0.28983000  1.0 0.1292590306
H  H274  1  0.63540000  0.19940000  0.28983000  1.0 0.1292590306
H  H275  1  0.56400000  0.36460000  0.95650000  1.0 0.1292590306
H  H276  1  0.80060000  0.43600000  0.62317000  1.0 0.1292590306
H  H277  1  0.85750000  0.36260000  0.04140000  1.0 0.1212529336
H  H278  1  0.49490000  0.85750000  0.70807000  1.0 0.1212529336
H  H279  1  0.63740000  0.49490000  0.37473000  1.0 0.1212529336
H  H280  1  0.14250000  0.63740000  0.04140000  1.0 0.1212529336
H  H281  1  0.50510000  0.14250000  0.70807000  1.0 0.1212529336
H  H282  1  0.36260000  0.50510000  0.37473000  1.0 0.1212529336
H  H283  1  0.49490000  0.63740000  0.95860000  1.0 0.1212529336
H  H284  1  0.14250000  0.50510000  0.62527000  1.0 0.1212529336
H  H285  1  0.36260000  0.85750000  0.29193000  1.0 0.1212529336
H  H286  1  0.63740000  0.14250000  0.29193000  1.0 0.1212529336
H  H287  1  0.50510000  0.36260000  0.95860000  1.0 0.1212529336
H  H288  1  0.85750000  0.49490000  0.62527000  1.0 0.1212529336
H  H289  1  0.89930000  0.44640000  0.98860000  1.0 0.0639522865
H  H290  1  0.45290000  0.89930000  0.65527000  1.0 0.0639522865
H  H291  1  0.55360000  0.45290000  0.32193000  1.0 0.0639522865
H  H292  1  0.10070000  0.55360000  0.98860000  1.0 0.0639522865
H  H293  1  0.54710000  0.10070000  0.65527000  1.0 0.0639522865
H  H294  1  0.44640000  0.54710000  0.32193000  1.0 0.0639522865
H  H295  1  0.45290000  0.55360000  0.01140000  1.0 0.0639522865
H  H296  1  0.10070000  0.54710000  0.67807000  1.0 0.0639522865
H  H297  1  0.44640000  0.89930000  0.34473000  1.0 0.0639522865
H  H298  1  0.55360000  0.10070000  0.34473000  1.0 0.0639522865
H  H299  1  0.54710000  0.44640000  0.01140000  1.0 0.0639522865
H  H300  1  0.89930000  0.45290000  0.67807000  1.0 0.0639522865
H  H301  1  0.91310000  0.50910000  0.05790000  1.0 0.1292590306
H  H302  1  0.40400000  0.91310000  0.72457000  1.0 0.1292590306
H  H303  1  0.49090000  0.40400000  0.39123000  1.0 0.1292590306
H  H304  1  0.08690000  0.49090000  0.05790000  1.0 0.1292590306
H  H305  1  0.59600000  0.08690000  0.72457000  1.0 0.1292590306
H  H306  1  0.50910000  0.59600000  0.39123000  1.0 0.1292590306
H  H307  1  0.40400000  0.49090000  0.94210000  1.0 0.1292590306
H  H308  1  0.08690000  0.59600000  0.60877000  1.0 0.1292590306
H  H309  1  0.50910000  0.91310000  0.27543000  1.0 0.1292590306
H  H310  1  0.49090000  0.08690000  0.27543000  1.0 0.1292590306
H  H311  1  0.59600000  0.50910000  0.94210000  1.0 0.1292590306
H  H312  1  0.91310000  0.40400000  0.60877000  1.0 0.1292590306
H  H313  1  0.91670000  0.45640000  0.07900000  1.0 0.1212529336
H  H314  1  0.46030000  0.91670000  0.74567000  1.0 0.1212529336
H  H315  1  0.54360000  0.46030000  0.41233000  1.0 0.1212529336
H  H316  1  0.08330000  0.54360000  0.07900000  1.0 0.1212529336
H  H317  1  0.53970000  0.08330000  0.74567000  1.0 0.1212529336
H  H318  1  0.45640000  0.53970000  0.41233000  1.0 0.1212529336
H  H319  1  0.46030000  0.54360000  0.92100000  1.0 0.1212529336
H  H320  1  0.08330000  0.53970000  0.58767000  1.0 0.1212529336
H  H321  1  0.45640000  0.91670000  0.25433000  1.0 0.1212529336
H  H322  1  0.54360000  0.08330000  0.25433000  1.0 0.1212529336
H  H323  1  0.53970000  0.45640000  0.92100000  1.0 0.1212529336
H  H324  1  0.91670000  0.46030000  0.58767000  1.0 0.1212529336
H  H325  1  0.86140000  0.46010000  0.08890000  1.0 0.1292590306
H  H326  1  0.40130000  0.86140000  0.75557000  1.0 0.1292590306
H  H327  1  0.53990000  0.40130000  0.42223000  1.0 0.1292590306
H  H328  1  0.13860000  0.53990000  0.08890000  1.0 0.1292590306
H  H329  1  0.59870000  0.13860000  0.75557000  1.0 0.1292590306
H  H330  1  0.46010000  0.59870000  0.42223000  1.0 0.1292590306
H  H331  1  0.40130000  0.53990000  0.91110000  1.0 0.1292590306
H  H332  1  0.13860000  0.59870000  0.57777000  1.0 0.1292590306
H  H333  1  0.46010000  0.86140000  0.24443000  1.0 0.1292590306
H  H334  1  0.53990000  0.13860000  0.24443000  1.0 0.1292590306
H  H335  1  0.59870000  0.46010000  0.91110000  1.0 0.1292590306
H  H336  1  0.86140000  0.40130000  0.57777000  1.0 0.1292590306
H  H337  1  0.81620000  0.44090000  0.95340000  1.0 0.0982758463
H  H338  1  0.37530000  0.81620000  0.62007000  1.0 0.0982758463
H  H339  1  0.55910000  0.37530000  0.28673000  1.0 0.0982758463
H  H340  1  0.18380000  0.55910000  0.95340000  1.0 0.0982758463
H  H341  1  0.62470000  0.18380000  0.62007000  1.0 0.0982758463
H  H342  1  0.44090000  0.62470000  0.28673000  1.0 0.0982758463
H  H343  1  0.37530000  0.55910000  0.04660000  1.0 0.0982758463
H  H344  1  0.18380000  0.62470000  0.71327000  1.0 0.0982758463
H  H345  1  0.44090000  0.81620000  0.37993000  1.0 0.0982758463
H  H346  1  0.55910000  0.18380000  0.37993000  1.0 0.0982758463
H  H347  1  0.62470000  0.44090000  0.04660000  1.0 0.0982758463
H  H348  1  0.81620000  0.37530000  0.71327000  1.0 0.0982758463
H  H349  1  0.85550000  0.50090000  0.97940000  1.0 0.1212529336
H  H350  1  0.35460000  0.85550000  0.64607000  1.0 0.1212529336
H  H351  1  0.49910000  0.35460000  0.31273000  1.0 0.1212529336
H  H352  1  0.14450000  0.49910000  0.97940000  1.0 0.1212529336
H  H353  1  0.64540000  0.14450000  0.64607000  1.0 0.1212529336
H  H354  1  0.50090000  0.64540000  0.31273000  1.0 0.1212529336
H  H355  1  0.35460000  0.49910000  0.02060000  1.0 0.1212529336
H  H356  1  0.14450000  0.64540000  0.68727000  1.0 0.1212529336
H  H357  1  0.50090000  0.85550000  0.35393000  1.0 0.1212529336
H  H358  1  0.49910000  0.14450000  0.35393000  1.0 0.1212529336
H  H359  1  0.64540000  0.50090000  0.02060000  1.0 0.1212529336
H  H360  1  0.85550000  0.35460000  0.68727000  1.0 0.1212529336
H  H361  1  0.80120000  0.45490000  0.00990000  1.0 0.1292590306
H  H362  1  0.34630000  0.80120000  0.67657000  1.0 0.1292590306
H  H363  1  0.54510000  0.34630000  0.34323000  1.0 0.1292590306
H  H364  1  0.19880000  0.54510000  0.00990000  1.0 0.1292590306
H  H365  1  0.65370000  0.19880000  0.67657000  1.0 0.1292590306
H  H366  1  0.45490000  0.65370000  0.34323000  1.0 0.1292590306
H  H367  1  0.34630000  0.54510000  0.99010000  1.0 0.1292590306
H  H368  1  0.19880000  0.65370000  0.65677000  1.0 0.1292590306
H  H369  1  0.45490000  0.80120000  0.32343000  1.0 0.1292590306
H  H370  1  0.54510000  0.19880000  0.32343000  1.0 0.1292590306
H  H371  1  0.65370000  0.45490000  0.99010000  1.0 0.1292590306
H  H372  1  0.80120000  0.34630000  0.65677000  1.0 0.1292590306
H  H373  1  0.88440000  0.32540000  0.86810000  1.0 0.1381258154
H  H374  1  0.55900000  0.88440000  0.53477000  1.0 0.1381258154
H  H375  1  0.67460000  0.55900000  0.20143000  1.0 0.1381258154
H  H376  1  0.11560000  0.67460000  0.86810000  1.0 0.1381258154
H  H377  1  0.44100000  0.11560000  0.53477000  1.0 0.1381258154
H  H378  1  0.32540000  0.44100000  0.20143000  1.0 0.1381258154
H  H379  1  0.55900000  0.67460000  0.13190000  1.0 0.1381258154
H  H380  1  0.11560000  0.44100000  0.79857000  1.0 0.1381258154
H  H381  1  0.32540000  0.88440000  0.46523000  1.0 0.1381258154
H  H382  1  0.67460000  0.11560000  0.46523000  1.0 0.1381258154
H  H383  1  0.44100000  0.32540000  0.13190000  1.0 0.1381258154
H  H384  1  0.88440000  0.55900000  0.79857000  1.0 0.1381258154
H  H385  1  0.81800000  0.29590000  0.87590000  1.0 0.1212529336
H  H386  1  0.52210000  0.81800000  0.54257000  1.0 0.1212529336
H  H387  1  0.70410000  0.52210000  0.20923000  1.0 0.1212529336
H  H388  1  0.18200000  0.70410000  0.87590000  1.0 0.1212529336
H  H389  1  0.47790000  0.18200000  0.54257000  1.0 0.1212529336
H  H390  1  0.29590000  0.47790000  0.20923000  1.0 0.1212529336
H  H391  1  0.52210000  0.70410000  0.12410000  1.0 0.1212529336
H  H392  1  0.18200000  0.47790000  0.79077000  1.0 0.1212529336
H  H393  1  0.29590000  0.81800000  0.45743000  1.0 0.1212529336
H  H394  1  0.70410000  0.18200000  0.45743000  1.0 0.1212529336
H  H395  1  0.47790000  0.29590000  0.12410000  1.0 0.1212529336
H  H396  1  0.81800000  0.52210000  0.79077000  1.0 0.1212529336
H  H397  1  0.93980000  0.43110000  0.85340000  1.0 0.1292590306
H  H398  1  0.50870000  0.93980000  0.52007000  1.0 0.1292590306
H  H399  1  0.56890000  0.50870000  0.18673000  1.0 0.1292590306
H  H400  1  0.06020000  0.56890000  0.85340000  1.0 0.1292590306
H  H401  1  0.49130000  0.06020000  0.52007000  1.0 0.1292590306
H  H402  1  0.43110000  0.49130000  0.18673000  1.0 0.1292590306
H  H403  1  0.50870000  0.56890000  0.14660000  1.0 0.1292590306
H  H404  1  0.06020000  0.49130000  0.81327000  1.0 0.1292590306
H  H405  1  0.43110000  0.93980000  0.47993000  1.0 0.1292590306
H  H406  1  0.56890000  0.06020000  0.47993000  1.0 0.1292590306
H  H407  1  0.49130000  0.43110000  0.14660000  1.0 0.1292590306
H  H408  1  0.93980000  0.50870000  0.81327000  1.0 0.1292590306
H  H409  1  0.76850000  0.34560000  0.85000000  1.0 0.1381258154
H  H410  1  0.42290000  0.76850000  0.51667000  1.0 0.1381258154
H  H411  1  0.65440000  0.42290000  0.18333000  1.0 0.1381258154
H  H412  1  0.23150000  0.65440000  0.85000000  1.0 0.1381258154
H  H413  1  0.57710000  0.23150000  0.51667000  1.0 0.1381258154
H  H414  1  0.34560000  0.57710000  0.18333000  1.0 0.1381258154
H  H415  1  0.42290000  0.65440000  0.15000000  1.0 0.1381258154
H  H416  1  0.23150000  0.57710000  0.81667000  1.0 0.1381258154
H  H417  1  0.34560000  0.76850000  0.48333000  1.0 0.1381258154
H  H418  1  0.65440000  0.23150000  0.48333000  1.0 0.1381258154
H  H419  1  0.57710000  0.34560000  0.15000000  1.0 0.1381258154
H  H420  1  0.76850000  0.42290000  0.81667000  1.0 0.1381258154
H  H421  1  0.62670000  0.89250000  0.88320000  1.0 0.2599993379
H  H422  1  0.73420000  0.62670000  0.54987000  1.0 0.2599993379
H  H423  1  0.10750000  0.73420000  0.21653000  1.0 0.2599993379
H  H424  1  0.37330000  0.10750000  0.88320000  1.0 0.2599993379
H  H425  1  0.26580000  0.37330000  0.54987000  1.0 0.2599993379
H  H426  1  0.89250000  0.26580000  0.21653000  1.0 0.2599993379
H  H427  1  0.73420000  0.10750000  0.11680000  1.0 0.2599993379
H  H428  1  0.37330000  0.26580000  0.78347000  1.0 0.2599993379
H  H429  1  0.89250000  0.62670000  0.45013000  1.0 0.2599993379
H  H430  1  0.10750000  0.37330000  0.45013000  1.0 0.2599993379
H  H431  1  0.26580000  0.89250000  0.11680000  1.0 0.2599993379
H  H432  1  0.62670000  0.73420000  0.78347000  1.0 0.2599993379
H  H433  1  0.82780000  0.16270000  0.98280000  1.0 0.2675094959
H  H434  1  0.66510000  0.82780000  0.64947000  1.0 0.2675094959
H  H435  1  0.83730000  0.66510000  0.31613000  1.0 0.2675094959
H  H436  1  0.17220000  0.83730000  0.98280000  1.0 0.2675094959
H  H437  1  0.33490000  0.17220000  0.64947000  1.0 0.2675094959
H  H438  1  0.16270000  0.33490000  0.31613000  1.0 0.2675094959
H  H439  1  0.66510000  0.83730000  0.01720000  1.0 0.2675094959
H  H440  1  0.17220000  0.33490000  0.68387000  1.0 0.2675094959
H  H441  1  0.16270000  0.82780000  0.35053000  1.0 0.2675094959
H  H442  1  0.83730000  0.17220000  0.35053000  1.0 0.2675094959
H  H443  1  0.33490000  0.16270000  0.01720000  1.0 0.2675094959
H  H444  1  0.82780000  0.66510000  0.68387000  1.0 0.2675094959
H  H445  1  0.89600000  0.36870000  0.95120000  1.0 0.2599993379
H  H446  1  0.52730000  0.89600000  0.61787000  1.0 0.2599993379
H  H447  1  0.63130000  0.52730000  0.28453000  1.0 0.2599993379
H  H448  1  0.10400000  0.63130000  0.95120000  1.0 0.2599993379
H  H449  1  0.47270000  0.10400000  0.61787000  1.0 0.2599993379
H  H450  1  0.36870000  0.47270000  0.28453000  1.0 0.2599993379
H  H451  1  0.52730000  0.63130000  0.04880000  1.0 0.2599993379
H  H452  1  0.10400000  0.47270000  0.71547000  1.0 0.2599993379
H  H453  1  0.36870000  0.89600000  0.38213000  1.0 0.2599993379
H  H454  1  0.63130000  0.10400000  0.38213000  1.0 0.2599993379
H  H455  1  0.47270000  0.36870000  0.04880000  1.0 0.2599993379
H  H456  1  0.89600000  0.52730000  0.71547000  1.0 0.2599993379
H  H457  1  0.89380000  0.05970000  0.07140000  1.0 0.0901394251
H  H458  1  0.83410000  0.89380000  0.73807000  1.0 0.0901394251
H  H459  1  0.94030000  0.83410000  0.40473000  1.0 0.0901394251
H  H460  1  0.10620000  0.94030000  0.07140000  1.0 0.0901394251
H  H461  1  0.16590000  0.10620000  0.73807000  1.0 0.0901394251
H  H462  1  0.05970000  0.16590000  0.40473000  1.0 0.0901394251
H  H463  1  0.83410000  0.94030000  0.92860000  1.0 0.0901394251
H  H464  1  0.10620000  0.16590000  0.59527000  1.0 0.0901394251
H  H465  1  0.05970000  0.89380000  0.26193000  1.0 0.0901394251
H  H466  1  0.94030000  0.10620000  0.26193000  1.0 0.0901394251
H  H467  1  0.16590000  0.05970000  0.92860000  1.0 0.0901394251
H  H468  1  0.89380000  0.83410000  0.59527000  1.0 0.0901394251
H  H469  1  0.91210000  0.12220000  0.08920000  1.0 0.1212529336
H  H470  1  0.78990000  0.91210000  0.75587000  1.0 0.1212529336
H  H471  1  0.87780000  0.78990000  0.42253000  1.0 0.1212529336
H  H472  1  0.08790000  0.87780000  0.08920000  1.0 0.1212529336
H  H473  1  0.21010000  0.08790000  0.75587000  1.0 0.1212529336
H  H474  1  0.12220000  0.21010000  0.42253000  1.0 0.1212529336
H  H475  1  0.78990000  0.87780000  0.91080000  1.0 0.1212529336
H  H476  1  0.08790000  0.21010000  0.57747000  1.0 0.1212529336
H  H477  1  0.12220000  0.91210000  0.24413000  1.0 0.1212529336
H  H478  1  0.87780000  0.08790000  0.24413000  1.0 0.1212529336
H  H479  1  0.21010000  0.12220000  0.91080000  1.0 0.1212529336
H  H480  1  0.91210000  0.78990000  0.57747000  1.0 0.1212529336
H  H481  1  0.95440000  0.11040000  0.05610000  1.0 0.1381258154
H  H482  1  0.84400000  0.95440000  0.72277000  1.0 0.1381258154
H  H483  1  0.88960000  0.84400000  0.38943000  1.0 0.1381258154
H  H484  1  0.04560000  0.88960000  0.05610000  1.0 0.1381258154
H  H485  1  0.15600000  0.04560000  0.72277000  1.0 0.1381258154
H  H486  1  0.11040000  0.15600000  0.38943000  1.0 0.1381258154
H  H487  1  0.84400000  0.88960000  0.94390000  1.0 0.1381258154
H  H488  1  0.04560000  0.15600000  0.61057000  1.0 0.1381258154
H  H489  1  0.11040000  0.95440000  0.27723000  1.0 0.1381258154
H  H490  1  0.88960000  0.04560000  0.27723000  1.0 0.1381258154
H  H491  1  0.15600000  0.11040000  0.94390000  1.0 0.1381258154
H  H492  1  0.95440000  0.84400000  0.61057000  1.0 0.1381258154
H  H493  1  0.84850000  0.09150000  0.00910000  1.0 0.0811808727
H  H494  1  0.75700000  0.84850000  0.67577000  1.0 0.0811808727
H  H495  1  0.90850000  0.75700000  0.34243000  1.0 0.0811808727
H  H496  1  0.15150000  0.90850000  0.00910000  1.0 0.0811808727
H  H497  1  0.24300000  0.15150000  0.67577000  1.0 0.0811808727
H  H498  1  0.09150000  0.24300000  0.34243000  1.0 0.0811808727
H  H499  1  0.75700000  0.90850000  0.99090000  1.0 0.0811808727
H  H500  1  0.15150000  0.24300000  0.65757000  1.0 0.0811808727
H  H501  1  0.09150000  0.84850000  0.32423000  1.0 0.0811808727
H  H502  1  0.90850000  0.15150000  0.32423000  1.0 0.0811808727
H  H503  1  0.24300000  0.09150000  0.99090000  1.0 0.0811808727
H  H504  1  0.84850000  0.75700000  0.65757000  1.0 0.0811808727
H  H505  1  0.89580000  0.03970000  0.96980000  1.0 0.0696922905
H  H506  1  0.85610000  0.89580000  0.63647000  1.0 0.0639522865
H  H507  1  0.96030000  0.85610000  0.30313000  1.0 0.0696922905
H  H508  1  0.10420000  0.96030000  0.96980000  1.0 0.0696922905
H  H509  1  0.14390000  0.10420000  0.63647000  1.0 0.0696922905
H  H510  1  0.03970000  0.14390000  0.30313000  1.0 0.0696922905
H  H511  1  0.85610000  0.96030000  0.03020000  1.0 0.0696922905
H  H512  1  0.10420000  0.14390000  0.69687000  1.0 0.0696922905
H  H513  1  0.03970000  0.89580000  0.36353000  1.0 0.0696922905
H  H514  1  0.96030000  0.10420000  0.36353000  1.0 0.0696922905
H  H515  1  0.14390000  0.03970000  0.03020000  1.0 0.0696922905
H  H516  1  0.89580000  0.85610000  0.69687000  1.0 0.0696922905
H  H517  1  0.95450000  0.09710000  0.96790000  1.0 0.0901394251
H  H518  1  0.85740000  0.95450000  0.63457000  1.0 0.0901394251
H  H519  1  0.90290000  0.85740000  0.30123000  1.0 0.0901394251
H  H520  1  0.04550000  0.90290000  0.96790000  1.0 0.0901394251
H  H521  1  0.14260000  0.04550000  0.63457000  1.0 0.0901394251
H  H522  1  0.09710000  0.14260000  0.30123000  1.0 0.0901394251
H  H523  1  0.85740000  0.90290000  0.03210000  1.0 0.0901394251
H  H524  1  0.04550000  0.14260000  0.69877000  1.0 0.0901394251
H  H525  1  0.09710000  0.95450000  0.36543000  1.0 0.0901394251
H  H526  1  0.90290000  0.04550000  0.36543000  1.0 0.0901394251
H  H527  1  0.14260000  0.09710000  0.03210000  1.0 0.0901394251
H  H528  1  0.95450000  0.85740000  0.69877000  1.0 0.0901394251
H  H529  1  0.90510000  0.08770000  0.92900000  1.0 0.0639522865
H  H530  1  0.81740000  0.90510000  0.59567000  1.0 0.0639522865
H  H531  1  0.91230000  0.81740000  0.26233000  1.0 0.0639522865
H  H532  1  0.09490000  0.91230000  0.92900000  1.0 0.0639522865
H  H533  1  0.18260000  0.09490000  0.59567000  1.0 0.0639522865
H  H534  1  0.08770000  0.18260000  0.26233000  1.0 0.0639522865
H  H535  1  0.81740000  0.91230000  0.07100000  1.0 0.0639522865
H  H536  1  0.09490000  0.18260000  0.73767000  1.0 0.0639522865
H  H537  1  0.08770000  0.90510000  0.40433000  1.0 0.0639522865
H  H538  1  0.91230000  0.09490000  0.40433000  1.0 0.0639522865
H  H539  1  0.18260000  0.08770000  0.07100000  1.0 0.0639522865
H  H540  1  0.90510000  0.81740000  0.73767000  1.0 0.0639522865
H  H541  1  0.85500000  0.02400000  0.98380000  1.0 0.0811808727
H  H542  1  0.83100000  0.85500000  0.65047000  1.0 0.0811808727
H  H543  1  0.97600000  0.83100000  0.31713000  1.0 0.0811808727
H  H544  1  0.14500000  0.97600000  0.98380000  1.0 0.0811808727
H  H545  1  0.16900000  0.14500000  0.65047000  1.0 0.0811808727
H  H546  1  0.02400000  0.16900000  0.31713000  1.0 0.0811808727
H  H547  1  0.83100000  0.97600000  0.01620000  1.0 0.0811808727
H  H548  1  0.14500000  0.16900000  0.68287000  1.0 0.0811808727
H  H549  1  0.02400000  0.85500000  0.34953000  1.0 0.0811808727
H  H550  1  0.97600000  0.14500000  0.34953000  1.0 0.0811808727
H  H551  1  0.16900000  0.02400000  0.01620000  1.0 0.0811808727
H  H552  1  0.85500000  0.83100000  0.68287000  1.0 0.0811808727
H  H553  1  0.90890000  0.06570000  0.95020000  1.0 0.0430011812
H  H554  1  0.84320000  0.90890000  0.61687000  1.0 0.0430011812
H  H555  1  0.93430000  0.84320000  0.28353000  1.0 0.0430011812
H  H556  1  0.09110000  0.93430000  0.95020000  1.0 0.0430011812
H  H557  1  0.15680000  0.09110000  0.61687000  1.0 0.0430011812
H  H558  1  0.06570000  0.15680000  0.28353000  1.0 0.0430011812
H  H559  1  0.84320000  0.93430000  0.04980000  1.0 0.0430011812
H  H560  1  0.09110000  0.15680000  0.71647000  1.0 0.0430011812
H  H561  1  0.06570000  0.90890000  0.38313000  1.0 0.0430011812
H  H562  1  0.93430000  0.09110000  0.38313000  1.0 0.0430011812
H  H563  1  0.15680000  0.06570000  0.04980000  1.0 0.0430011812
H  H564  1  0.90890000  0.84320000  0.71647000  1.0 0.0430011812
H  H565  1  0.85030000  0.06290000  0.93990000  1.0 0.0901394251
H  H566  1  0.78740000  0.85030000  0.60657000  1.0 0.0901394251
H  H567  1  0.93710000  0.78740000  0.27323000  1.0 0.0901394251
H  H568  1  0.14970000  0.93710000  0.93990000  1.0 0.0901394251
H  H569  1  0.21260000  0.14970000  0.60657000  1.0 0.0901394251
H  H570  1  0.06290000  0.21260000  0.27323000  1.0 0.0901394251
H  H571  1  0.78740000  0.93710000  0.06010000  1.0 0.0901394251
H  H572  1  0.14970000  0.21260000  0.72677000  1.0 0.0901394251
H  H573  1  0.06290000  0.85030000  0.39343000  1.0 0.0901394251
H  H574  1  0.93710000  0.14970000  0.39343000  1.0 0.0901394251
H  H575  1  0.21260000  0.06290000  0.06010000  1.0 0.0901394251
H  H576  1  0.85030000  0.78740000  0.72677000  1.0 0.0901394251
H  H577  1  0.86500000  0.05300000  0.07400000  1.0 0.0515273815
H  H578  1  0.81200000  0.86500000  0.74067000  1.0 0.0515273815
H  H579  1  0.94700000  0.81200000  0.40733000  1.0 0.0515273815
H  H580  1  0.13500000  0.94700000  0.07400000  1.0 0.0515273815
H  H581  1  0.18800000  0.13500000  0.74067000  1.0 0.0515273815
H  H582  1  0.05300000  0.18800000  0.40733000  1.0 0.0515273815
H  H583  1  0.81200000  0.94700000  0.92600000  1.0 0.0515273815
H  H584  1  0.13500000  0.18800000  0.59267000  1.0 0.0515273815
H  H585  1  0.05300000  0.86500000  0.25933000  1.0 0.0515273815
H  H586  1  0.94700000  0.13500000  0.25933000  1.0 0.0515273815
H  H587  1  0.18800000  0.05300000  0.92600000  1.0 0.0515273815
H  H588  1  0.86500000  0.81200000  0.59267000  1.0 0.0515273815
C  C1  1  0.62380000  0.88370000  0.75579000  1.0 0.5590531733
C  C2  1  0.74010000  0.62380000  0.42246000  1.0 0.5590531733
C  C3  1  0.11630000  0.74010000  0.08912000  1.0 0.5590531733
C  C4  1  0.37620000  0.11630000  0.75579000  1.0 0.5590531733
C  C5  1  0.25990000  0.37620000  0.42246000  1.0 0.5590531733
C  C6  1  0.88370000  0.25990000  0.08912000  1.0 0.5590531733
C  C7  1  0.74010000  0.11630000  0.24421000  1.0 0.5590531733
C  C8  1  0.37620000  0.25990000  0.91088000  1.0 0.5590531733
C  C9  1  0.88370000  0.62380000  0.57754000  1.0 0.5590531733
C  C10  1  0.11630000  0.37620000  0.57754000  1.0 0.5590531733
C  C11  1  0.25990000  0.88370000  0.24421000  1.0 0.5590531733
C  C12  1  0.62380000  0.74010000  0.91088000  1.0 0.5590531733
C  C13  1  0.62740000  0.91580000  0.80760000  1.0 -0.028985712
C  C14  1  0.71160000  0.62740000  0.47427000  1.0 -0.028985712
C  C15  1  0.08420000  0.71160000  0.14093000  1.0 -0.028985712
C  C16  1  0.37260000  0.08420000  0.80760000  1.0 -0.028985712
C  C17  1  0.28840000  0.37260000  0.47427000  1.0 -0.028985712
C  C18  1  0.91580000  0.28840000  0.14093000  1.0 -0.028985712
C  C19  1  0.71160000  0.08420000  0.19240000  1.0 -0.028985712
C  C20  1  0.37260000  0.28840000  0.85907000  1.0 -0.028985712
C  C21  1  0.91580000  0.62740000  0.52573000  1.0 -0.028985712
C  C22  1  0.08420000  0.37260000  0.52573000  1.0 -0.028985712
C  C23  1  0.28840000  0.91580000  0.19240000  1.0 -0.028985712
C  C24  1  0.62740000  0.71160000  0.85907000  1.0 -0.028985712
C  C25  1  0.56860000  0.91000000  0.81850000  1.0 -0.2644183977
C  C26  1  0.65860000  0.56860000  0.48517000  1.0 -0.2644183977
C  C27  1  0.09000000  0.65860000  0.15183000  1.0 -0.2644183977
C  C28  1  0.43140000  0.09000000  0.81850000  1.0 -0.2644183977
C  C29  1  0.34140000  0.43140000  0.48517000  1.0 -0.2644183977
C  C30  1  0.91000000  0.34140000  0.15183000  1.0 -0.2644183977
C  C31  1  0.65860000  0.09000000  0.18150000  1.0 -0.2644183977
C  C32  1  0.43140000  0.34140000  0.84817000  1.0 -0.2644183977
C  C33  1  0.91000000  0.56860000  0.51483000  1.0 -0.2644183977
C  C34  1  0.09000000  0.43140000  0.51483000  1.0 -0.2652658839
C  C35  1  0.34140000  0.91000000  0.18150000  1.0 -0.2644183977
C  C36  1  0.56860000  0.65860000  0.84817000  1.0 -0.2652658839
C  C37  1  0.56970000  0.95060000  0.86330000  1.0 0.1292590306
C  C38  1  0.61910000  0.56970000  0.52997000  1.0 0.1292590306
C  C39  1  0.04940000  0.61910000  0.19663000  1.0 0.1292590306
C  C40  1  0.43030000  0.04940000  0.86330000  1.0 0.1381258154
C  C41  1  0.38090000  0.43030000  0.52997000  1.0 0.1292590306
C  C42  1  0.95060000  0.38090000  0.19663000  1.0 0.1381258154
C  C43  1  0.61910000  0.04940000  0.13670000  1.0 0.1381258154
C  C44  1  0.43030000  0.38090000  0.80337000  1.0 0.1292590306
C  C45  1  0.95060000  0.56970000  0.47003000  1.0 0.1381258154
C  C46  1  0.04940000  0.43030000  0.47003000  1.0 0.1292590306
C  C47  1  0.38090000  0.95060000  0.13670000  1.0 0.1381258154
C  C48  1  0.56970000  0.61910000  0.80337000  1.0 0.1292590306
C  C49  1  0.51060000  0.93510000  0.87750000  1.0 -0.438724619
C  C50  1  0.57550000  0.51060000  0.54417000  1.0 -0.438724619
C  C51  1  0.06490000  0.57550000  0.21083000  1.0 -0.438724619
C  C52  1  0.48940000  0.06490000  0.87750000  1.0 -0.438724619
C  C53  1  0.42450000  0.48940000  0.54417000  1.0 -0.438724619
C  C54  1  0.93510000  0.42450000  0.21083000  1.0 -0.438724619
C  C55  1  0.57550000  0.06490000  0.12250000  1.0 -0.438724619
C  C56  1  0.48940000  0.42450000  0.78917000  1.0 -0.438724619
C  C57  1  0.93510000  0.51060000  0.45583000  1.0 -0.438724619
C  C58  1  0.06490000  0.48940000  0.45583000  1.0 -0.438724619
C  C59  1  0.42450000  0.93510000  0.12250000  1.0 -0.438724619
C  C60  1  0.51060000  0.57550000  0.78917000  1.0 -0.438724619
C  C61  1  0.60600000  0.01350000  0.84810000  1.0 -0.438724619
C  C62  1  0.59250000  0.60600000  0.51477000  1.0 -0.438724619
C  C63  1  0.98650000  0.59250000  0.18143000  1.0 -0.438724619
C  C64  1  0.39400000  0.98650000  0.84810000  1.0 -0.438724619
C  C65  1  0.40750000  0.39400000  0.51477000  1.0 -0.438724619
C  C66  1  0.01350000  0.40750000  0.18143000  1.0 -0.438724619
C  C67  1  0.59250000  0.98650000  0.15190000  1.0 -0.438724619
C  C68  1  0.39400000  0.40750000  0.81857000  1.0 -0.438724619
C  C69  1  0.01350000  0.60600000  0.48523000  1.0 -0.438724619
C  C70  1  0.98650000  0.39400000  0.48523000  1.0 -0.438724619
C  C71  1  0.40750000  0.01350000  0.15190000  1.0 -0.438724619
C  C72  1  0.60600000  0.59250000  0.81857000  1.0 -0.438724619
C  C73  1  0.70640000  0.92030000  0.86090000  1.0 -0.1880854573
C  C74  1  0.78610000  0.70640000  0.52757000  1.0 -0.1880854573
C  C75  1  0.07970000  0.78610000  0.19423000  1.0 -0.1880854573
C  C76  1  0.29360000  0.07970000  0.86090000  1.0 -0.1880854573
C  C77  1  0.21390000  0.29360000  0.52757000  1.0 -0.1880854573
C  C78  1  0.92030000  0.21390000  0.19423000  1.0 -0.1880854573
C  C79  1  0.78610000  0.07970000  0.13910000  1.0 -0.1880854573
C  C80  1  0.29360000  0.21390000  0.80577000  1.0 -0.1880854573
C  C81  1  0.92030000  0.70640000  0.47243000  1.0 -0.1880854573
C  C82  1  0.07970000  0.29360000  0.47243000  1.0 -0.1880854573
C  C83  1  0.21390000  0.92030000  0.13910000  1.0 -0.1880854573
C  C84  1  0.70640000  0.78610000  0.80577000  1.0 -0.1880854573
C  C85  1  0.73420000  0.98373000  0.87331000  1.0 0.0811808727
C  C86  1  0.75047000  0.73420000  0.53998000  1.0 0.0811808727
C  C87  1  0.01627000  0.75047000  0.20664000  1.0 0.0811808727
C  C88  1  0.26580000  0.01627000  0.87331000  1.0 0.0811808727
C  C89  1  0.24953000  0.26580000  0.53998000  1.0 0.0811808727
C  C90  1  0.98373000  0.24953000  0.20664000  1.0 0.0901394251
C  C91  1  0.75047000  0.01627000  0.12669000  1.0 0.0811808727
C  C92  1  0.26580000  0.24953000  0.79336000  1.0 0.0811808727
C  C93  1  0.98373000  0.73420000  0.46002000  1.0 0.0811808727
C  C94  1  0.01627000  0.26580000  0.46002000  1.0 0.0811808727
C  C95  1  0.24953000  0.98373000  0.12669000  1.0 0.0811808727
C  C96  1  0.73420000  0.75047000  0.79336000  1.0 0.0811808727
C  C97  1  0.72260000  0.00180000  0.92100000  1.0 -0.1786631704
C  C98  1  0.72080000  0.72260000  0.58767000  1.0 -0.1786631704
C  C99  1  0.99820000  0.72080000  0.25433000  1.0 -0.1786631704
C  C100  1  0.27740000  0.99820000  0.92100000  1.0 -0.1786631704
C  C101  1  0.27920000  0.27740000  0.58767000  1.0 -0.1786631704
C  C102  1  0.00180000  0.27920000  0.25433000  1.0 -0.1786631704
C  C103  1  0.72080000  0.99820000  0.07900000  1.0 -0.1786631704
C  C104  1  0.27740000  0.27920000  0.74567000  1.0 -0.1786631704
C  C105  1  0.00180000  0.72260000  0.41233000  1.0 -0.1786631704
C  C106  1  0.99820000  0.27740000  0.41233000  1.0 -0.1786631704
C  C107  1  0.27920000  0.00180000  0.07900000  1.0 -0.1786631704
C  C108  1  0.72260000  0.72080000  0.74567000  1.0 -0.1786631704
C  C109  1  0.77060000  0.02430000  0.83720000  1.0 -0.1496501459
C  C110  1  0.74630000  0.77060000  0.50387000  1.0 -0.1496501459
C  C111  1  0.97570000  0.74630000  0.17053000  1.0 -0.1496501459
C  C112  1  0.22940000  0.97570000  0.83720000  1.0 -0.1496501459
C  C113  1  0.25370000  0.22940000  0.50387000  1.0 -0.1496501459
C  C114  1  0.02430000  0.25370000  0.17053000  1.0 -0.1496501459
C  C115  1  0.74630000  0.97570000  0.16280000  1.0 -0.1496501459
C  C116  1  0.22940000  0.25370000  0.82947000  1.0 -0.1496501459
C  C117  1  0.02430000  0.77060000  0.49613000  1.0 -0.1496501459
C  C118  1  0.97570000  0.22940000  0.49613000  1.0 -0.1496501459
C  C119  1  0.25370000  0.02430000  0.16280000  1.0 -0.1496501459
C  C120  1  0.77060000  0.74630000  0.82947000  1.0 -0.1496501459
C  C121  1  0.74510000  0.05980000  0.93260000  1.0 -0.1590782845
C  C122  1  0.68530000  0.74510000  0.59927000  1.0 -0.1590782845
C  C123  1  0.94020000  0.68530000  0.26593000  1.0 -0.1590782845
C  C124  1  0.25490000  0.94020000  0.93260000  1.0 -0.1590782845
C  C125  1  0.31470000  0.25490000  0.59927000  1.0 -0.1590782845
C  C126  1  0.05980000  0.31470000  0.26593000  1.0 -0.1590782845
C  C127  1  0.68530000  0.94020000  0.06740000  1.0 -0.1590782845
C  C128  1  0.25490000  0.31470000  0.73407000  1.0 -0.1590782845
C  C129  1  0.05980000  0.74510000  0.40073000  1.0 -0.1590782845
C  C130  1  0.94020000  0.25490000  0.40073000  1.0 -0.1590782845
C  C131  1  0.31470000  0.05980000  0.06740000  1.0 -0.1590782845
C  C132  1  0.74510000  0.68530000  0.73407000  1.0 -0.1590782845
C  C133  1  0.79460000  0.08310000  0.84800000  1.0 -0.1496501459
C  C134  1  0.71150000  0.79460000  0.51467000  1.0 -0.1496501459
C  C135  1  0.91690000  0.71150000  0.18133000  1.0 -0.1496501459
C  C136  1  0.20540000  0.91690000  0.84800000  1.0 -0.1496501459
C  C137  1  0.28850000  0.20540000  0.51467000  1.0 -0.1496501459
C  C138  1  0.08310000  0.28850000  0.18133000  1.0 -0.1496501459
C  C139  1  0.71150000  0.91690000  0.15200000  1.0 -0.1496501459
C  C140  1  0.20540000  0.28850000  0.81867000  1.0 -0.1496501459
C  C141  1  0.08310000  0.79460000  0.48533000  1.0 -0.1496501459
C  C142  1  0.91690000  0.20540000  0.48533000  1.0 -0.1496501459
C  C143  1  0.28850000  0.08310000  0.15200000  1.0 -0.1496501459
C  C144  1  0.79460000  0.71150000  0.81867000  1.0 -0.1496501459
C  C145  1  0.78110000  0.10070000  0.89548000  1.0 0.0982758463
C  C146  1  0.68040000  0.78110000  0.56215000  1.0 0.0982758463
C  C147  1  0.89930000  0.68040000  0.22881000  1.0 0.0982758463
C  C148  1  0.21890000  0.89930000  0.89548000  1.0 0.0982758463
C  C149  1  0.31960000  0.21890000  0.56215000  1.0 0.0982758463
C  C150  1  0.10070000  0.31960000  0.22881000  1.0 0.0982758463
C  C151  1  0.68040000  0.89930000  0.10452000  1.0 0.0982758463
C  C152  1  0.21890000  0.31960000  0.77119000  1.0 0.0982758463
C  C153  1  0.10070000  0.78110000  0.43785000  1.0 0.0982758463
C  C154  1  0.89930000  0.21890000  0.43785000  1.0 0.0982758463
C  C155  1  0.31960000  0.10070000  0.10452000  1.0 0.0982758463
C  C156  1  0.78110000  0.68040000  0.77119000  1.0 0.0982758463
C  C157  1  0.80490000  0.16320000  0.90750000  1.0 -0.1668743261
C  C158  1  0.64170000  0.80490000  0.57417000  1.0 -0.1668743261
C  C159  1  0.83680000  0.64170000  0.24083000  1.0 -0.1668743261
C  C160  1  0.19510000  0.83680000  0.90750000  1.0 -0.1668743261
C  C161  1  0.35830000  0.19510000  0.57417000  1.0 -0.1668743261
C  C162  1  0.16320000  0.35830000  0.24083000  1.0 -0.1668743261
C  C163  1  0.64170000  0.83680000  0.09250000  1.0 -0.1668743261
C  C164  1  0.19510000  0.35830000  0.75917000  1.0 -0.1668743261
C  C165  1  0.16320000  0.80490000  0.42583000  1.0 -0.1668743261
C  C166  1  0.83680000  0.19510000  0.42583000  1.0 -0.1668743261
C  C167  1  0.35830000  0.16320000  0.09250000  1.0 -0.1668743261
C  C168  1  0.80490000  0.64170000  0.75917000  1.0 -0.1668743261
C  C169  1  0.94500000  0.24490000  0.92450000  1.0 0.5417406019
C  C170  1  0.70010000  0.94500000  0.59117000  1.0 0.5417406019
C  C171  1  0.75510000  0.70010000  0.25783000  1.0 0.5417406019
C  C172  1  0.05500000  0.75510000  0.92450000  1.0 0.5417406019
C  C173  1  0.29990000  0.05500000  0.59117000  1.0 0.5417406019
C  C174  1  0.24490000  0.29990000  0.25783000  1.0 0.5417406019
C  C175  1  0.70010000  0.75510000  0.07550000  1.0 0.5417406019
C  C176  1  0.05500000  0.29990000  0.74217000  1.0 0.5417406019
C  C177  1  0.24490000  0.94500000  0.40883000  1.0 0.5417406019
C  C178  1  0.75510000  0.05500000  0.40883000  1.0 0.5417406019
C  C179  1  0.29990000  0.24490000  0.07550000  1.0 0.5417406019
C  C180  1  0.94500000  0.70010000  0.74217000  1.0 0.5417406019
C  C181  1  0.89950000  0.18530000  0.94320000  1.0 -0.0231264083
C  C182  1  0.71420000  0.89950000  0.60987000  1.0 -0.0231264083
C  C183  1  0.81470000  0.71420000  0.27653000  1.0 -0.0231264083
C  C184  1  0.10050000  0.81470000  0.94320000  1.0 -0.0231264083
C  C185  1  0.28580000  0.10050000  0.60987000  1.0 -0.0231264083
C  C186  1  0.18530000  0.28580000  0.27653000  1.0 -0.0231264083
C  C187  1  0.71420000  0.81470000  0.05680000  1.0 -0.0231264083
C  C188  1  0.10050000  0.28580000  0.72347000  1.0 -0.0231264083
C  C189  1  0.18530000  0.89950000  0.39013000  1.0 -0.0231264083
C  C190  1  0.81470000  0.10050000  0.39013000  1.0 -0.0231264083
C  C191  1  0.28580000  0.18530000  0.05680000  1.0 -0.0231264083
C  C192  1  0.89950000  0.71420000  0.72347000  1.0 -0.0231264083
C  C193  1  0.92270000  0.17110000  0.99290000  1.0 -0.2900223452
C  C194  1  0.75160000  0.92270000  0.65957000  1.0 -0.2900223452
C  C195  1  0.82890000  0.75160000  0.32623000  1.0 -0.2900223452
C  C196  1  0.07730000  0.82890000  0.99290000  1.0 -0.2900223452
C  C197  1  0.24840000  0.07730000  0.65957000  1.0 -0.2900223452
C  C198  1  0.17110000  0.24840000  0.32623000  1.0 -0.2900223452
C  C199  1  0.75160000  0.82890000  0.00710000  1.0 -0.2900223452
C  C200  1  0.07730000  0.24840000  0.67377000  1.0 -0.2900223452
C  C201  1  0.17110000  0.92270000  0.34043000  1.0 -0.2900223452
C  C202  1  0.82890000  0.07730000  0.34043000  1.0 -0.2900223452
C  C203  1  0.24840000  0.17110000  0.00710000  1.0 -0.2900223452
C  C204  1  0.92270000  0.75160000  0.67377000  1.0 -0.2900223452
C  C205  1  0.76830000  0.27700000  0.98550000  1.0 0.5417406019
C  C206  1  0.49130000  0.76830000  0.65217000  1.0 0.5417406019
C  C207  1  0.72300000  0.49130000  0.31883000  1.0 0.5417406019
C  C208  1  0.23170000  0.72300000  0.98550000  1.0 0.5417406019
C  C209  1  0.50870000  0.23170000  0.65217000  1.0 0.5417406019
C  C210  1  0.27700000  0.50870000  0.31883000  1.0 0.5417406019
C  C211  1  0.49130000  0.72300000  0.01450000  1.0 0.5417406019
C  C212  1  0.23170000  0.50870000  0.68117000  1.0 0.5417406019
C  C213  1  0.27700000  0.76830000  0.34783000  1.0 0.5417406019
C  C214  1  0.72300000  0.23170000  0.34783000  1.0 0.5417406019
C  C215  1  0.50870000  0.27700000  0.01450000  1.0 0.5417406019
C  C216  1  0.76830000  0.49130000  0.68117000  1.0 0.5417406019
C  C217  1  0.81370000  0.33860000  0.97040000  1.0 -0.0354438697
C  C218  1  0.47510000  0.81370000  0.63707000  1.0 -0.0354438697
C  C219  1  0.66140000  0.47510000  0.30373000  1.0 -0.0354438697
C  C220  1  0.18630000  0.66140000  0.97040000  1.0 -0.0354438697
C  C221  1  0.52490000  0.18630000  0.63707000  1.0 -0.0354438697
C  C222  1  0.33860000  0.52490000  0.30373000  1.0 -0.0354438697
C  C223  1  0.47510000  0.66140000  0.02960000  1.0 -0.0354438697
C  C224  1  0.18630000  0.52490000  0.69627000  1.0 -0.0354438697
C  C225  1  0.33860000  0.81370000  0.36293000  1.0 -0.0354438697
C  C226  1  0.66140000  0.18630000  0.36293000  1.0 -0.0354438697
C  C227  1  0.52490000  0.33860000  0.02960000  1.0 -0.0354438697
C  C228  1  0.81370000  0.47510000  0.69627000  1.0 -0.0354438697
C  C229  1  0.83380000  0.37370000  0.02160000  1.0 -0.2644183977
C  C230  1  0.46010000  0.83380000  0.68827000  1.0 -0.2652658839
C  C231  1  0.62630000  0.46010000  0.35493000  1.0 -0.2652658839
C  C232  1  0.16620000  0.62630000  0.02160000  1.0 -0.2652658839
C  C233  1  0.53990000  0.16620000  0.68827000  1.0 -0.2652658839
C  C234  1  0.37370000  0.53990000  0.35493000  1.0 -0.2652658839
C  C235  1  0.46010000  0.62630000  0.97840000  1.0 -0.2644183977
C  C236  1  0.16620000  0.53990000  0.64507000  1.0 -0.2652658839
C  C237  1  0.37370000  0.83380000  0.31173000  1.0 -0.2652658839
C  C238  1  0.62630000  0.16620000  0.31173000  1.0 -0.2652658839
C  C239  1  0.53990000  0.37370000  0.97840000  1.0 -0.2652658839
C  C240  1  0.83380000  0.46010000  0.64507000  1.0 -0.2652658839
C  C241  1  0.86730000  0.43810000  0.01250000  1.0 0.1292590306
C  C242  1  0.42920000  0.86730000  0.67917000  1.0 0.1292590306
C  C243  1  0.56190000  0.42920000  0.34583000  1.0 0.1292590306
C  C244  1  0.13270000  0.56190000  0.01250000  1.0 0.1292590306
C  C245  1  0.57080000  0.13270000  0.67917000  1.0 0.1292590306
C  C246  1  0.43810000  0.57080000  0.34583000  1.0 0.1292590306
C  C247  1  0.42920000  0.56190000  0.98750000  1.0 0.1292590306
C  C248  1  0.13270000  0.57080000  0.65417000  1.0 0.1292590306
C  C249  1  0.43810000  0.86730000  0.32083000  1.0 0.1292590306
C  C250  1  0.56190000  0.13270000  0.32083000  1.0 0.1292590306
C  C251  1  0.57080000  0.43810000  0.98750000  1.0 0.1292590306
C  C252  1  0.86730000  0.42920000  0.65417000  1.0 0.1292590306
C  C253  1  0.89180000  0.46870000  0.06420000  1.0 -0.438724619
C  C254  1  0.42310000  0.89180000  0.73087000  1.0 -0.438724619
C  C255  1  0.53130000  0.42310000  0.39753000  1.0 -0.438724619
C  C256  1  0.10820000  0.53130000  0.06420000  1.0 -0.438724619
C  C257  1  0.57690000  0.10820000  0.73087000  1.0 -0.438724619
C  C258  1  0.46870000  0.57690000  0.39753000  1.0 -0.438724619
C  C259  1  0.42310000  0.53130000  0.93580000  1.0 -0.438724619
C  C260  1  0.10820000  0.57690000  0.60247000  1.0 -0.438724619
C  C261  1  0.46870000  0.89180000  0.26913000  1.0 -0.438724619
C  C262  1  0.53130000  0.10820000  0.26913000  1.0 -0.438724619
C  C263  1  0.57690000  0.46870000  0.93580000  1.0 -0.438724619
C  C264  1  0.89180000  0.42310000  0.60247000  1.0 -0.438724619
C  C265  1  0.83180000  0.46080000  0.98640000  1.0 -0.4273243404
C  C266  1  0.37100000  0.83180000  0.65307000  1.0 -0.4273243404
C  C267  1  0.53920000  0.37100000  0.31973000  1.0 -0.4273243404
C  C268  1  0.16820000  0.53920000  0.98640000  1.0 -0.4273243404
C  C269  1  0.62900000  0.16820000  0.65307000  1.0 -0.4273243404
C  C270  1  0.46080000  0.62900000  0.31973000  1.0 -0.4273243404
C  C271  1  0.37100000  0.53920000  0.01360000  1.0 -0.4273243404
C  C272  1  0.16820000  0.62900000  0.68027000  1.0 -0.4273243404
C  C273  1  0.46080000  0.83180000  0.34693000  1.0 -0.4273243404
C  C274  1  0.53920000  0.16820000  0.34693000  1.0 -0.4273243404
C  C275  1  0.62900000  0.46080000  0.01360000  1.0 -0.4273243404
C  C276  1  0.83180000  0.37100000  0.68027000  1.0 -0.4273243404
C  C277  1  0.85400000  0.33020000  0.88340000  1.0 -0.1786631704
C  C278  1  0.52380000  0.85400000  0.55007000  1.0 -0.1786631704
C  C279  1  0.66980000  0.52380000  0.21673000  1.0 -0.1786631704
C  C280  1  0.14600000  0.66980000  0.88340000  1.0 -0.1786631704
C  C281  1  0.47620000  0.14600000  0.55007000  1.0 -0.1786631704
C  C282  1  0.33020000  0.47620000  0.21673000  1.0 -0.1786631704
C  C283  1  0.52380000  0.66980000  0.11660000  1.0 -0.1786631704
C  C284  1  0.14600000  0.47620000  0.78327000  1.0 -0.1786631704
C  C285  1  0.33020000  0.85400000  0.44993000  1.0 -0.1786631704
C  C286  1  0.66980000  0.14600000  0.44993000  1.0 -0.1786631704
C  C287  1  0.47620000  0.33020000  0.11660000  1.0 -0.1786631704
C  C288  1  0.85400000  0.52380000  0.78327000  1.0 -0.1786631704
C  C289  1  0.85420000  0.37990000  0.85722000  1.0 0.0901394251
C  C290  1  0.47430000  0.85420000  0.52389000  1.0 0.0901394251
C  C291  1  0.62010000  0.47430000  0.19055000  1.0 0.0901394251
C  C292  1  0.14580000  0.62010000  0.85722000  1.0 0.0901394251
C  C293  1  0.52570000  0.14580000  0.52389000  1.0 0.0901394251
C  C294  1  0.37990000  0.52570000  0.19055000  1.0 0.0901394251
C  C295  1  0.47430000  0.62010000  0.14278000  1.0 0.0901394251
C  C296  1  0.14580000  0.52570000  0.80945000  1.0 0.0901394251
C  C297  1  0.37990000  0.85420000  0.47611000  1.0 0.0901394251
C  C298  1  0.62010000  0.14580000  0.47611000  1.0 0.0901394251
C  C299  1  0.52570000  0.37990000  0.14278000  1.0 0.0901394251
C  C300  1  0.85420000  0.47430000  0.80945000  1.0 0.0901394251
C  C301  1  0.90520000  0.42920000  0.84532000  1.0 -0.1590782845
C  C302  1  0.47600000  0.90520000  0.51199000  1.0 -0.1590782845
C  C303  1  0.57080000  0.47600000  0.17865000  1.0 -0.1590782845
C  C304  1  0.09480000  0.57080000  0.84532000  1.0 -0.1590782845
C  C305  1  0.52400000  0.09480000  0.51199000  1.0 -0.1590782845
C  C306  1  0.42920000  0.52400000  0.17865000  1.0 -0.1590782845
C  C307  1  0.47600000  0.57080000  0.15468000  1.0 -0.1590782845
C  C308  1  0.09480000  0.52400000  0.82135000  1.0 -0.1590782845
C  C309  1  0.42920000  0.90520000  0.48801000  1.0 -0.1590782845
C  C310  1  0.57080000  0.09480000  0.48801000  1.0 -0.1590782845
C  C311  1  0.52400000  0.42920000  0.15468000  1.0 -0.1590782845
C  C312  1  0.90520000  0.47600000  0.82135000  1.0 -0.1590782845
C  C313  1  0.80320000  0.37880000  0.84400000  1.0 -0.1305423807
C  C314  1  0.42440000  0.80320000  0.51067000  1.0 -0.1305423807
C  C315  1  0.62120000  0.42440000  0.17733000  1.0 -0.1305423807
C  C316  1  0.19680000  0.62120000  0.84400000  1.0 -0.1305423807
C  C317  1  0.57560000  0.19680000  0.51067000  1.0 -0.1305423807
C  C318  1  0.37880000  0.57560000  0.17733000  1.0 -0.1305423807
C  C319  1  0.42440000  0.62120000  0.15600000  1.0 -0.1305423807
C  C320  1  0.19680000  0.57560000  0.82267000  1.0 -0.1305423807
C  C321  1  0.37880000  0.80320000  0.48933000  1.0 -0.1305423807
C  C322  1  0.62120000  0.19680000  0.48933000  1.0 -0.1305423807
C  C323  1  0.57560000  0.37880000  0.15600000  1.0 -0.1305423807
C  C324  1  0.80320000  0.42440000  0.82267000  1.0 -0.1305423807
C  C325  1  0.91490000  0.09930000  0.06140000  1.0 -0.4273243404
C  C326  1  0.81560000  0.91490000  0.72807000  1.0 -0.4273243404
C  C327  1  0.90070000  0.81560000  0.39473000  1.0 -0.4273243404
C  C328  1  0.08510000  0.90070000  0.06140000  1.0 -0.4273243404
C  C329  1  0.18440000  0.08510000  0.72807000  1.0 -0.4273243404
C  C330  1  0.09930000  0.18440000  0.39473000  1.0 -0.4273243404
C  C331  1  0.81560000  0.90070000  0.93860000  1.0 -0.4273243404
C  C332  1  0.08510000  0.18440000  0.60527000  1.0 -0.4273243404
C  C333  1  0.09930000  0.91490000  0.27193000  1.0 -0.4273243404
C  C334  1  0.90070000  0.08510000  0.27193000  1.0 -0.4273243404
C  C335  1  0.18440000  0.09930000  0.93860000  1.0 -0.4273243404
C  C336  1  0.91490000  0.81560000  0.60527000  1.0 -0.4273243404
C  C337  1  0.89010000  0.10830000  0.00890000  1.0 0.1381258154
C  C338  1  0.78180000  0.89010000  0.67557000  1.0 0.1381258154
C  C339  1  0.89170000  0.78180000  0.34223000  1.0 0.1381258154
C  C340  1  0.10990000  0.89170000  0.00890000  1.0 0.1381258154
C  C341  1  0.21820000  0.10990000  0.67557000  1.0 0.1381258154
C  C342  1  0.10830000  0.21820000  0.34223000  1.0 0.1381258154
C  C343  1  0.78180000  0.89170000  0.99110000  1.0 0.1381258154
C  C344  1  0.10990000  0.21820000  0.65777000  1.0 0.1381258154
C  C345  1  0.10830000  0.89010000  0.32443000  1.0 0.1381258154
C  C346  1  0.89170000  0.10990000  0.32443000  1.0 0.1381258154
C  C347  1  0.21820000  0.10830000  0.99110000  1.0 0.1381258154
C  C348  1  0.89010000  0.78180000  0.65777000  1.0 0.1381258154
C  C349  1  0.91390000  0.08030000  0.96420000  1.0 -0.1786631704
C  C350  1  0.83360000  0.91390000  0.63087000  1.0 -0.1786631704
C  C351  1  0.91970000  0.83360000  0.29753000  1.0 -0.1786631704
C  C352  1  0.08610000  0.91970000  0.96420000  1.0 -0.1786631704
C  C353  1  0.16640000  0.08610000  0.63087000  1.0 -0.1786631704
C  C354  1  0.08030000  0.16640000  0.29753000  1.0 -0.1786631704
C  C355  1  0.83360000  0.91970000  0.03580000  1.0 -0.1786631704
C  C356  1  0.08610000  0.16640000  0.70247000  1.0 -0.1786631704
C  C357  1  0.08030000  0.91390000  0.36913000  1.0 -0.1786631704
C  C358  1  0.91970000  0.08610000  0.36913000  1.0 -0.1786631704
C  C359  1  0.16640000  0.08030000  0.03580000  1.0 -0.1786631704
C  C360  1  0.91390000  0.83360000  0.70247000  1.0 -0.1786631704
C  C361  1  0.87460000  0.06070000  0.96670000  1.0 -0.2204374739
C  C362  1  0.81390000  0.87460000  0.63337000  1.0 -0.2204374739
C  C363  1  0.93930000  0.81390000  0.30003000  1.0 -0.2204374739
C  C364  1  0.12540000  0.93930000  0.96670000  1.0 -0.2204374739
C  C365  1  0.18610000  0.12540000  0.63337000  1.0 -0.2204374739
C  C366  1  0.06070000  0.18610000  0.30003000  1.0 -0.2204374739
C  C367  1  0.81390000  0.93930000  0.03330000  1.0 -0.2204374739
C  C368  1  0.12540000  0.18610000  0.69997000  1.0 -0.2204374739
C  C369  1  0.06070000  0.87460000  0.36663000  1.0 -0.2204374739
C  C370  1  0.93930000  0.12540000  0.36663000  1.0 -0.2204374739
C  C371  1  0.18610000  0.06070000  0.03330000  1.0 -0.2204374739
C  C372  1  0.87460000  0.81390000  0.69997000  1.0 -0.2204374739
N  N1  1  0.64454000  0.89188000  0.85259000  1.0 -0.310712461
N  N2  1  0.75266000  0.64454000  0.51926000  1.0 -0.310712461
N  N3  1  0.10812000  0.75266000  0.18592000  1.0 -0.310712461
N  N4  1  0.35546000  0.10812000  0.85259000  1.0 -0.310712461
N  N5  1  0.24734000  0.35546000  0.51926000  1.0 -0.310712461
N  N6  1  0.89188000  0.24734000  0.18592000  1.0 -0.310712461
N  N7  1  0.75266000  0.10812000  0.14741000  1.0 -0.310712461
N  N8  1  0.35546000  0.24734000  0.81408000  1.0 -0.310712461
N  N9  1  0.89188000  0.64454000  0.48074000  1.0 -0.310712461
N  N10  1  0.10812000  0.35546000  0.48074000  1.0 -0.310712461
N  N11  1  0.24734000  0.89188000  0.14741000  1.0 -0.310712461
N  N12  1  0.64454000  0.75266000  0.81408000  1.0 -0.310712461
N  N13  1  0.84512000  0.18456000  0.95351000  1.0 -0.3270975854
N  N14  1  0.66056000  0.84512000  0.62018000  1.0 -0.3270975854
N  N15  1  0.81544000  0.66056000  0.28684000  1.0 -0.3270975854
N  N16  1  0.15488000  0.81544000  0.95351000  1.0 -0.3270975854
N  N17  1  0.33944000  0.15488000  0.62018000  1.0 -0.3270975854
N  N18  1  0.18456000  0.33944000  0.28684000  1.0 -0.3270975854
N  N19  1  0.66056000  0.81544000  0.04649000  1.0 -0.3270975854
N  N20  1  0.15488000  0.33944000  0.71316000  1.0 -0.3270975854
N  N21  1  0.18456000  0.84512000  0.37982000  1.0 -0.3270975854
N  N22  1  0.81544000  0.15488000  0.37982000  1.0 -0.3270975854
N  N23  1  0.33944000  0.18456000  0.04649000  1.0 -0.3270975854
N  N24  1  0.84512000  0.66056000  0.71316000  1.0 -0.3270975854
N  N25  1  0.86220000  0.33693000  0.94311000  1.0 -0.3270975854
N  N26  1  0.52527000  0.86220000  0.60978000  1.0 -0.3270975854
N  N27  1  0.66307000  0.52527000  0.27644000  1.0 -0.3270975854
N  N28  1  0.13780000  0.66307000  0.94311000  1.0 -0.3270975854
N  N29  1  0.47473000  0.13780000  0.60978000  1.0 -0.3270975854
N  N30  1  0.33693000  0.47473000  0.27644000  1.0 -0.3270975854
N  N31  1  0.52527000  0.66307000  0.05689000  1.0 -0.3270975854
N  N32  1  0.13780000  0.47473000  0.72356000  1.0 -0.3270975854
N  N33  1  0.33693000  0.86220000  0.39022000  1.0 -0.3270975854
N  N34  1  0.66307000  0.13780000  0.39022000  1.0 -0.3270975854
N  N35  1  0.47473000  0.33693000  0.05689000  1.0 -0.3270975854
N  N36  1  0.86220000  0.52527000  0.72356000  1.0 -0.3270975854
O  O1  1  0.62777000  0.83866000  0.76014000  1.0 -0.5159607474
O  O2  1  0.78911000  0.62777000  0.42681000  1.0 -0.5159607474
O  O3  1  0.16134000  0.78911000  0.09347000  1.0 -0.5159607474
O  O4  1  0.37223000  0.16134000  0.76014000  1.0 -0.5159607474
O  O5  1  0.21089000  0.37223000  0.42681000  1.0 -0.5159607474
O  O6  1  0.83866000  0.21089000  0.09347000  1.0 -0.5159607474
O  O7  1  0.78911000  0.16134000  0.23986000  1.0 -0.5159607474
O  O8  1  0.37223000  0.21089000  0.90653000  1.0 -0.5159607474
O  O9  1  0.83866000  0.62777000  0.57319000  1.0 -0.5159607474
O  O10  1  0.16134000  0.37223000  0.57319000  1.0 -0.5159607474
O  O11  1  0.21089000  0.83866000  0.23986000  1.0 -0.5159607474
O  O12  1  0.62777000  0.78911000  0.90653000  1.0 -0.5159607474
O  O13  1  0.61839000  0.90332000  0.71334000  1.0 -0.5297237976
O  O14  1  0.71507000  0.61839000  0.38001000  1.0 -0.5297237976
O  O15  1  0.09668000  0.71507000  0.04667000  1.0 -0.5297237976
O  O16  1  0.38161000  0.09668000  0.71334000  1.0 -0.5297237976
O  O17  1  0.28493000  0.38161000  0.38001000  1.0 -0.5297237976
O  O18  1  0.90332000  0.28493000  0.04667000  1.0 -0.5297237976
O  O19  1  0.71507000  0.09668000  0.28666000  1.0 -0.5297237976
O  O20  1  0.38161000  0.28493000  0.95333000  1.0 -0.5297237976
O  O21  1  0.90332000  0.61839000  0.61999000  1.0 -0.5297237976
O  O22  1  0.09668000  0.38161000  0.61999000  1.0 -0.5297237976
O  O23  1  0.28493000  0.90332000  0.28666000  1.0 -0.5297237976
O  O24  1  0.61839000  0.71507000  0.95333000  1.0 -0.5297237976
O  O25  1  0.93483000  0.28587000  0.93201000  1.0 -0.5395188573
O  O26  1  0.64896000  0.93483000  0.59868000  1.0 -0.5395188573
O  O27  1  0.71413000  0.64896000  0.26534000  1.0 -0.5395188573
O  O28  1  0.06517000  0.71413000  0.93201000  1.0 -0.5395188573
O  O29  1  0.35104000  0.06517000  0.59868000  1.0 -0.5395188573
O  O30  1  0.28587000  0.35104000  0.26534000  1.0 -0.5395188573
O  O31  1  0.64896000  0.71413000  0.06799000  1.0 -0.5395188573
O  O32  1  0.06517000  0.35104000  0.73466000  1.0 -0.5395188573
O  O33  1  0.28587000  0.93483000  0.40132000  1.0 -0.5395188573
O  O34  1  0.71413000  0.06517000  0.40132000  1.0 -0.5395188573
O  O35  1  0.35104000  0.28587000  0.06799000  1.0 -0.5395188573
O  O36  1  0.93483000  0.64896000  0.73466000  1.0 -0.5395188573
O  O37  1  0.98870000  0.25010000  0.90370000  1.0 -0.488232905
O  O38  1  0.73860000  0.98870000  0.57037000  1.0 -0.488232905
O  O39  1  0.74990000  0.73860000  0.23703000  1.0 -0.488232905
O  O40  1  0.01130000  0.74990000  0.90370000  1.0 -0.488232905
O  O41  1  0.26140000  0.01130000  0.57037000  1.0 -0.488232905
O  O42  1  0.25010000  0.26140000  0.23703000  1.0 -0.488232905
O  O43  1  0.73860000  0.74990000  0.09630000  1.0 -0.488232905
O  O44  1  0.01130000  0.26140000  0.76297000  1.0 -0.488232905
O  O45  1  0.25010000  0.98870000  0.42963000  1.0 -0.488232905
O  O46  1  0.74990000  0.01130000  0.42963000  1.0 -0.488232905
O  O47  1  0.26140000  0.25010000  0.09630000  1.0 -0.488232905
O  O48  1  0.98870000  0.73860000  0.76297000  1.0 -0.488232905
O  O49  1  0.78523000  0.24053000  0.98903000  1.0 -0.5395188573
O  O50  1  0.54470000  0.78523000  0.65570000  1.0 -0.5395188573
O  O51  1  0.75947000  0.54470000  0.32236000  1.0 -0.5395188573
O  O52  1  0.21477000  0.75947000  0.98903000  1.0 -0.5395188573
O  O53  1  0.45530000  0.21477000  0.65570000  1.0 -0.5395188573
O  O54  1  0.24053000  0.45530000  0.32236000  1.0 -0.5395188573
O  O55  1  0.54470000  0.75947000  0.01097000  1.0 -0.5395188573
O  O56  1  0.21477000  0.45530000  0.67764000  1.0 -0.5395188573
O  O57  1  0.24053000  0.78523000  0.34430000  1.0 -0.5395188573
O  O58  1  0.75947000  0.21477000  0.34430000  1.0 -0.5395188573
O  O59  1  0.45530000  0.24053000  0.01097000  1.0 -0.5395188573
O  O60  1  0.78523000  0.54470000  0.67764000  1.0 -0.5395188573
O  O61  1  0.71940000  0.26720000  0.99640000  1.0 -0.488232905
O  O62  1  0.45220000  0.71940000  0.66307000  1.0 -0.488232905
O  O63  1  0.73280000  0.45220000  0.32973000  1.0 -0.488232905
O  O64  1  0.28060000  0.73280000  0.99640000  1.0 -0.488232905
O  O65  1  0.54780000  0.28060000  0.66307000  1.0 -0.488232905
O  O66  1  0.26720000  0.54780000  0.32973000  1.0 -0.488232905
O  O67  1  0.45220000  0.73280000  0.00360000  1.0 -0.488232905
O  O68  1  0.28060000  0.54780000  0.67027000  1.0 -0.488232905
O  O69  1  0.26720000  0.71940000  0.33693000  1.0 -0.488232905
O  O70  1  0.73280000  0.28060000  0.33693000  1.0 -0.488232905
O  O71  1  0.54780000  0.26720000  0.00360000  1.0 -0.488232905
O  O72  1  0.71940000  0.45220000  0.67027000  1.0 -0.488232905
O  O73  1  0.52830000  0.76415000  0.83333000  1.0 -0.6531485114
O  O74  1  0.76415000  0.52830000  0.50000000  1.0 -0.6531485114
O  O75  1  0.23585000  0.76415000  0.16667000  1.0 -0.655608857
O  O76  1  0.47170000  0.23585000  0.83333000  1.0 -0.6531485114
O  O77  1  0.23585000  0.47170000  0.50000000  1.0 -0.6531485114
O  O78  1  0.76415000  0.23585000  0.16667000  1.0 -0.655608857
