# DDEC6 charges by PACMAN v1.1 (https://github.com/mtap-research/PACMAN-charge/)
data_LUSQIB_ASR_pacman
_symmetry_space_group_name_H-M   'P 1'
_cell_length_a   21.55990000
_cell_length_b   21.55990000
_cell_length_c   12.89740000
_cell_angle_alpha   90.00000000
_cell_angle_beta   90.00000000
_cell_angle_gamma   90.00000000
_symmetry_Int_Tables_number   1
_chemical_formula_structural   Cu3H78C46(NO2)4
_chemical_formula_sum   'Cu12 H312 C184 N16 O32'
_cell_volume   5995.08925918
_cell_formula_units_Z   4
loop_
 _symmetry_equiv_pos_site_id
 _symmetry_equiv_pos_as_xyz
  1  'x, y, z'
loop_
 _atom_site_type_symbol
 _atom_site_label
 _atom_site_symmetry_multiplicity
 _atom_site_fract_x
 _atom_site_fract_y
 _atom_site_fract_z
 _atom_site_occupancy
 _atom_site_charge
Cu  Cu1  1  0.20949000  0.20949000  0.50000000  1.0 0.5989691745
Cu  Cu2  1  0.70949000  0.29051000  0.50000000  1.0 0.5989691745
Cu  Cu3  1  0.79051000  0.79051000  0.50000000  1.0 0.5989691745
Cu  Cu4  1  0.29051000  0.70949000  0.50000000  1.0 0.5989691745
Cu  Cu5  1  0.31312000  0.05811000  0.68583000  1.0 0.7764639612
Cu  Cu6  1  0.55811000  0.18688000  0.68583000  1.0 0.7764639612
Cu  Cu7  1  0.68688000  0.94189000  0.68583000  1.0 0.7764639612
Cu  Cu8  1  0.44189000  0.81312000  0.68583000  1.0 0.7764639612
Cu  Cu9  1  0.18688000  0.55811000  0.31417000  1.0 0.7764639612
Cu  Cu10  1  0.81312000  0.44189000  0.31417000  1.0 0.7764639612
Cu  Cu11  1  0.05811000  0.31312000  0.31417000  1.0 0.7764639612
Cu  Cu12  1  0.94189000  0.68688000  0.31417000  1.0 0.7764639612
H  H1  1  0.19360000  0.16320000  0.32420000  1.0 0.248535348
H  H2  1  0.66320000  0.30640000  0.32420000  1.0 0.248535348
H  H3  1  0.80640000  0.83680000  0.32420000  1.0 0.248535348
H  H4  1  0.33680000  0.69360000  0.32420000  1.0 0.248535348
H  H5  1  0.30640000  0.66320000  0.67580000  1.0 0.248535348
H  H6  1  0.69360000  0.33680000  0.67580000  1.0 0.248535348
H  H7  1  0.16320000  0.19360000  0.67580000  1.0 0.248535348
H  H8  1  0.83680000  0.80640000  0.67580000  1.0 0.248535348
H  H9  1  0.28200000  0.12130000  0.83240000  1.0 0.2432796899
H  H10  1  0.62130000  0.21800000  0.83240000  1.0 0.2432796899
H  H11  1  0.71800000  0.87870000  0.83240000  1.0 0.2432796899
H  H12  1  0.37870000  0.78200000  0.83240000  1.0 0.2432796899
H  H13  1  0.21800000  0.62130000  0.16760000  1.0 0.2432796899
H  H14  1  0.78200000  0.37870000  0.16760000  1.0 0.2432796899
H  H15  1  0.12130000  0.28200000  0.16760000  1.0 0.2432796899
H  H16  1  0.87870000  0.71800000  0.16760000  1.0 0.2432796899
H  H17  1  0.27360000  0.08010000  0.34550000  1.0 0.1380570064
H  H18  1  0.58010000  0.22640000  0.34550000  1.0 0.1380570064
H  H19  1  0.72640000  0.91990000  0.34550000  1.0 0.1380570064
H  H20  1  0.41990000  0.77360000  0.34550000  1.0 0.1380570064
H  H21  1  0.22640000  0.58010000  0.65450000  1.0 0.1380570064
H  H22  1  0.77360000  0.41990000  0.65450000  1.0 0.1380570064
H  H23  1  0.08010000  0.27360000  0.65450000  1.0 0.1380570064
H  H24  1  0.91990000  0.72640000  0.65450000  1.0 0.1380570064
H  H25  1  0.15050000  0.08450000  0.41890000  1.0 0.0512798354
H  H26  1  0.58450000  0.34950000  0.41890000  1.0 0.0512798354
H  H27  1  0.84950000  0.91550000  0.41890000  1.0 0.0512798354
H  H28  1  0.41550000  0.65050000  0.41890000  1.0 0.0512798354
H  H29  1  0.34950000  0.58450000  0.58110000  1.0 0.0512798354
H  H30  1  0.65050000  0.41550000  0.58110000  1.0 0.0512798354
H  H31  1  0.08450000  0.15050000  0.58110000  1.0 0.0512798354
H  H32  1  0.91550000  0.84950000  0.58110000  1.0 0.0512798354
H  H33  1  0.19150000  0.02680000  0.45400000  1.0 0.0408720692
H  H34  1  0.52680000  0.30850000  0.45400000  1.0 0.0408720692
H  H35  1  0.80850000  0.97320000  0.45400000  1.0 0.0408720692
H  H36  1  0.47320000  0.69150000  0.45400000  1.0 0.0408720692
H  H37  1  0.30850000  0.52680000  0.54600000  1.0 0.0408720692
H  H38  1  0.69150000  0.47320000  0.54600000  1.0 0.0408720692
H  H39  1  0.02680000  0.19150000  0.54600000  1.0 0.0408720692
H  H40  1  0.97320000  0.80850000  0.54600000  1.0 0.0408720692
H  H41  1  0.15180000  0.05660000  0.25450000  1.0 0.0512798354
H  H42  1  0.55660000  0.34820000  0.25450000  1.0 0.0512798354
H  H43  1  0.84820000  0.94340000  0.25450000  1.0 0.0512798354
H  H44  1  0.44340000  0.65180000  0.25450000  1.0 0.0512798354
H  H45  1  0.34820000  0.55660000  0.74550000  1.0 0.0512798354
H  H46  1  0.65180000  0.44340000  0.74550000  1.0 0.0512798354
H  H47  1  0.05660000  0.15180000  0.74550000  1.0 0.0512798354
H  H48  1  0.94340000  0.84820000  0.74550000  1.0 0.0512798354
H  H49  1  0.24960000  0.01860000  0.23360000  1.0 0.0611271299
H  H50  1  0.51860000  0.25040000  0.23360000  1.0 0.0611271299
H  H51  1  0.75040000  0.98140000  0.23360000  1.0 0.0611271299
H  H52  1  0.48140000  0.74960000  0.23360000  1.0 0.0611271299
H  H53  1  0.25040000  0.51860000  0.76640000  1.0 0.0611271299
H  H54  1  0.74960000  0.48140000  0.76640000  1.0 0.0611271299
H  H55  1  0.01860000  0.24960000  0.76640000  1.0 0.0611271299
H  H56  1  0.98140000  0.75040000  0.76640000  1.0 0.0611271299
H  H57  1  0.22730000  0.95420000  0.28270000  1.0 0.0204330897
H  H58  1  0.45420000  0.27270000  0.28270000  1.0 0.0204330897
H  H59  1  0.77270000  0.04580000  0.28270000  1.0 0.0204330897
H  H60  1  0.54580000  0.72730000  0.28270000  1.0 0.0204330897
H  H61  1  0.27270000  0.45420000  0.71730000  1.0 0.0204330897
H  H62  1  0.72730000  0.54580000  0.71730000  1.0 0.0204330897
H  H63  1  0.95420000  0.22730000  0.71730000  1.0 0.0204330897
H  H64  1  0.04580000  0.77270000  0.71730000  1.0 0.0204330897
H  H65  1  0.19710000  0.97860000  0.17680000  1.0 0.0884942274
H  H66  1  0.47860000  0.30290000  0.17680000  1.0 0.0884942274
H  H67  1  0.80290000  0.02140000  0.17680000  1.0 0.0884942274
H  H68  1  0.52140000  0.69710000  0.17680000  1.0 0.0884942274
H  H69  1  0.30290000  0.47860000  0.82320000  1.0 0.0884942274
H  H70  1  0.69710000  0.52140000  0.82320000  1.0 0.0884942274
H  H71  1  0.97860000  0.19710000  0.82320000  1.0 0.0884942274
H  H72  1  0.02140000  0.80290000  0.82320000  1.0 0.0884942274
H  H73  1  0.07930000  0.00490000  0.35760000  1.0 0.0611271299
H  H74  1  0.50490000  0.42070000  0.35760000  1.0 0.0611271299
H  H75  1  0.92070000  0.99510000  0.35760000  1.0 0.0611271299
H  H76  1  0.49510000  0.57930000  0.35760000  1.0 0.0611271299
H  H77  1  0.42070000  0.50490000  0.64240000  1.0 0.0611271299
H  H78  1  0.57930000  0.49510000  0.64240000  1.0 0.0611271299
H  H79  1  0.00490000  0.07930000  0.64240000  1.0 0.0611271299
H  H80  1  0.99510000  0.92070000  0.64240000  1.0 0.0611271299
H  H81  1  0.09410000  0.97030000  0.25060000  1.0 0.0681967728
H  H82  1  0.47030000  0.40590000  0.25060000  1.0 0.0681967728
H  H83  1  0.90590000  0.02970000  0.25060000  1.0 0.0681967728
H  H84  1  0.52970000  0.59410000  0.25060000  1.0 0.0681967728
H  H85  1  0.40590000  0.47030000  0.74940000  1.0 0.0681967728
H  H86  1  0.59410000  0.52970000  0.74940000  1.0 0.0681967728
H  H87  1  0.97030000  0.09410000  0.74940000  1.0 0.0681967728
H  H88  1  0.02970000  0.90590000  0.74940000  1.0 0.0681967728
H  H89  1  0.12330000  0.94510000  0.35670000  1.0 0.0512798354
H  H90  1  0.44510000  0.37670000  0.35670000  1.0 0.0512798354
H  H91  1  0.87670000  0.05490000  0.35670000  1.0 0.0512798354
H  H92  1  0.55490000  0.62330000  0.35670000  1.0 0.0512798354
H  H93  1  0.37670000  0.44510000  0.64330000  1.0 0.0512798354
H  H94  1  0.62330000  0.55490000  0.64330000  1.0 0.0512798354
H  H95  1  0.94510000  0.12330000  0.64330000  1.0 0.0512798354
H  H96  1  0.05490000  0.87670000  0.64330000  1.0 0.0512798354
H  H97  1  0.27030000  0.23540000  0.28920000  1.0 0.1016227509
H  H98  1  0.73540000  0.22970000  0.28920000  1.0 0.1016227509
H  H99  1  0.72970000  0.76460000  0.28920000  1.0 0.1016227509
H  H100  1  0.26460000  0.77030000  0.28920000  1.0 0.1016227509
H  H101  1  0.22970000  0.73540000  0.71080000  1.0 0.1016227509
H  H102  1  0.77030000  0.26460000  0.71080000  1.0 0.1016227509
H  H103  1  0.23540000  0.27030000  0.71080000  1.0 0.1016227509
H  H104  1  0.76460000  0.72970000  0.71080000  1.0 0.1016227509
H  H105  1  0.31890000  0.19050000  0.34540000  1.0 0.111882902
H  H106  1  0.69050000  0.18110000  0.34540000  1.0 0.111882902
H  H107  1  0.68110000  0.80950000  0.34540000  1.0 0.111882902
H  H108  1  0.30950000  0.81890000  0.34540000  1.0 0.111882902
H  H109  1  0.18110000  0.69050000  0.65460000  1.0 0.111882902
H  H110  1  0.81890000  0.30950000  0.65460000  1.0 0.111882902
H  H111  1  0.19050000  0.31890000  0.65460000  1.0 0.111882902
H  H112  1  0.80950000  0.68110000  0.65460000  1.0 0.111882902
H  H113  1  0.20770000  0.17430000  0.13880000  1.0 0.111882902
H  H114  1  0.67430000  0.29230000  0.13880000  1.0 0.111882902
H  H115  1  0.79230000  0.82570000  0.13880000  1.0 0.111882902
H  H116  1  0.32570000  0.70770000  0.13880000  1.0 0.111882902
H  H117  1  0.29230000  0.67430000  0.86120000  1.0 0.111882902
H  H118  1  0.70770000  0.32570000  0.86120000  1.0 0.111882902
H  H119  1  0.17430000  0.20770000  0.86120000  1.0 0.111882902
H  H120  1  0.82570000  0.79230000  0.86120000  1.0 0.111882902
H  H121  1  0.22170000  0.11920000  0.98890000  1.0 0.111882902
H  H122  1  0.61920000  0.27830000  0.98890000  1.0 0.111882902
H  H123  1  0.77830000  0.88080000  0.98890000  1.0 0.111882902
H  H124  1  0.38080000  0.72170000  0.98890000  1.0 0.111882902
H  H125  1  0.27830000  0.61920000  0.01110000  1.0 0.111882902
H  H126  1  0.72170000  0.38080000  0.01110000  1.0 0.111882902
H  H127  1  0.11920000  0.22170000  0.01110000  1.0 0.111882902
H  H128  1  0.88080000  0.77830000  0.01110000  1.0 0.111882902
H  H129  1  0.39480000  0.07610000  0.08050000  1.0 0.1208145512
H  H130  1  0.57610000  0.10520000  0.08050000  1.0 0.1208145512
H  H131  1  0.60520000  0.92390000  0.08050000  1.0 0.1208145512
H  H132  1  0.42390000  0.89480000  0.08050000  1.0 0.1208145512
H  H133  1  0.10520000  0.57610000  0.91950000  1.0 0.1208145512
H  H134  1  0.89480000  0.42390000  0.91950000  1.0 0.1208145512
H  H135  1  0.07610000  0.39480000  0.91950000  1.0 0.1208145512
H  H136  1  0.92390000  0.60520000  0.91950000  1.0 0.1208145512
H  H137  1  0.37950000  0.13120000  0.23110000  1.0 0.1320073344
H  H138  1  0.63120000  0.12050000  0.23110000  1.0 0.1320073344
H  H139  1  0.62050000  0.86880000  0.23110000  1.0 0.1320073344
H  H140  1  0.36880000  0.87950000  0.23110000  1.0 0.1320073344
H  H141  1  0.12050000  0.63120000  0.76890000  1.0 0.1320073344
H  H142  1  0.87950000  0.36880000  0.76890000  1.0 0.1320073344
H  H143  1  0.13120000  0.37950000  0.76890000  1.0 0.1320073344
H  H144  1  0.86880000  0.62050000  0.76890000  1.0 0.1320073344
H  H145  1  0.39230000  0.14120000  0.89340000  1.0 0.0884942274
H  H146  1  0.64120000  0.10770000  0.89340000  1.0 0.0884942274
H  H147  1  0.60770000  0.85880000  0.89340000  1.0 0.0884942274
H  H148  1  0.35880000  0.89230000  0.89340000  1.0 0.0884942274
H  H149  1  0.10770000  0.64120000  0.10660000  1.0 0.0884942274
H  H150  1  0.89230000  0.35880000  0.10660000  1.0 0.0884942274
H  H151  1  0.14120000  0.39230000  0.10660000  1.0 0.0884942274
H  H152  1  0.85880000  0.60770000  0.10660000  1.0 0.0884942274
H  H153  1  0.30390000  0.21270000  0.85280000  1.0 0.0884942274
H  H154  1  0.71270000  0.19610000  0.85280000  1.0 0.0884942274
H  H155  1  0.69610000  0.78730000  0.85280000  1.0 0.0884942274
H  H156  1  0.28730000  0.80390000  0.85280000  1.0 0.0884942274
H  H157  1  0.19610000  0.71270000  0.14720000  1.0 0.0884942274
H  H158  1  0.80390000  0.28730000  0.14720000  1.0 0.0884942274
H  H159  1  0.21270000  0.30390000  0.14720000  1.0 0.0884942274
H  H160  1  0.78730000  0.69610000  0.14720000  1.0 0.0884942274
H  H161  1  0.33220000  0.21580000  0.73860000  1.0 0.111882902
H  H162  1  0.71580000  0.16780000  0.73860000  1.0 0.111882902
H  H163  1  0.66780000  0.78420000  0.73860000  1.0 0.111882902
H  H164  1  0.28420000  0.83220000  0.73860000  1.0 0.111882902
H  H165  1  0.16780000  0.71580000  0.26140000  1.0 0.111882902
H  H166  1  0.83220000  0.28420000  0.26140000  1.0 0.111882902
H  H167  1  0.21580000  0.33220000  0.26140000  1.0 0.111882902
H  H168  1  0.78420000  0.66780000  0.26140000  1.0 0.111882902
H  H169  1  0.42520000  0.25760000  0.80780000  1.0 0.0512798354
H  H170  1  0.75760000  0.07480000  0.80780000  1.0 0.0512798354
H  H171  1  0.57480000  0.74240000  0.80780000  1.0 0.0512798354
H  H172  1  0.24240000  0.92520000  0.80780000  1.0 0.0512798354
H  H173  1  0.07480000  0.75760000  0.19220000  1.0 0.0512798354
H  H174  1  0.92520000  0.24240000  0.19220000  1.0 0.0512798354
H  H175  1  0.25760000  0.42520000  0.19220000  1.0 0.0512798354
H  H176  1  0.74240000  0.57480000  0.19220000  1.0 0.0512798354
H  H177  1  0.42640000  0.29770000  0.97590000  1.0 0.1320073344
H  H178  1  0.79770000  0.07360000  0.97590000  1.0 0.1320073344
H  H179  1  0.57360000  0.70230000  0.97590000  1.0 0.1320073344
H  H180  1  0.20230000  0.92640000  0.97590000  1.0 0.1320073344
H  H181  1  0.07360000  0.79770000  0.02410000  1.0 0.1320073344
H  H182  1  0.92640000  0.20230000  0.02410000  1.0 0.1320073344
H  H183  1  0.29770000  0.42640000  0.02410000  1.0 0.1320073344
H  H184  1  0.70230000  0.57360000  0.02410000  1.0 0.1320073344
H  H185  1  0.36050000  0.26640000  0.99890000  1.0 0.1320073344
H  H186  1  0.76640000  0.13950000  0.99890000  1.0 0.1320073344
H  H187  1  0.63950000  0.73360000  0.99890000  1.0 0.1320073344
H  H188  1  0.23360000  0.86050000  0.99890000  1.0 0.1320073344
H  H189  1  0.13950000  0.76640000  0.00110000  1.0 0.1320073344
H  H190  1  0.86050000  0.23360000  0.00110000  1.0 0.1320073344
H  H191  1  0.26640000  0.36050000  0.00110000  1.0 0.1320073344
H  H192  1  0.73360000  0.63950000  0.00110000  1.0 0.1320073344
H  H193  1  0.42010000  0.22380000  0.97840000  1.0 0.111882902
H  H194  1  0.72380000  0.07990000  0.97840000  1.0 0.111882902
H  H195  1  0.57990000  0.77620000  0.97840000  1.0 0.111882902
H  H196  1  0.27620000  0.92010000  0.97840000  1.0 0.111882902
H  H197  1  0.07990000  0.72380000  0.02160000  1.0 0.111882902
H  H198  1  0.92010000  0.27620000  0.02160000  1.0 0.111882902
H  H199  1  0.22380000  0.42010000  0.02160000  1.0 0.111882902
H  H200  1  0.77620000  0.57990000  0.02160000  1.0 0.111882902
H  H201  1  0.38330000  0.35770000  0.83320000  1.0 0.1320073344
H  H202  1  0.85770000  0.11670000  0.83320000  1.0 0.1320073344
H  H203  1  0.61670000  0.64230000  0.83320000  1.0 0.1320073344
H  H204  1  0.14230000  0.88330000  0.83320000  1.0 0.1320073344
H  H205  1  0.11670000  0.85770000  0.16680000  1.0 0.1320073344
H  H206  1  0.88330000  0.14230000  0.16680000  1.0 0.1320073344
H  H207  1  0.35770000  0.38330000  0.16680000  1.0 0.1320073344
H  H208  1  0.64230000  0.61670000  0.16680000  1.0 0.1320073344
H  H209  1  0.35160000  0.32360000  0.73650000  1.0 0.1208145512
H  H210  1  0.82360000  0.14840000  0.73650000  1.0 0.1208145512
H  H211  1  0.64840000  0.67640000  0.73650000  1.0 0.1208145512
H  H212  1  0.17640000  0.85160000  0.73650000  1.0 0.1208145512
H  H213  1  0.14840000  0.82360000  0.26350000  1.0 0.1208145512
H  H214  1  0.85160000  0.17640000  0.26350000  1.0 0.1208145512
H  H215  1  0.32360000  0.35160000  0.26350000  1.0 0.1208145512
H  H216  1  0.67640000  0.64840000  0.26350000  1.0 0.1208145512
H  H217  1  0.31560000  0.32800000  0.84470000  1.0 0.1208145512
H  H218  1  0.82800000  0.18440000  0.84470000  1.0 0.1208145512
H  H219  1  0.68440000  0.67200000  0.84470000  1.0 0.1208145512
H  H220  1  0.17200000  0.81560000  0.84470000  1.0 0.1208145512
H  H221  1  0.18440000  0.82800000  0.15530000  1.0 0.1208145512
H  H222  1  0.81560000  0.17200000  0.15530000  1.0 0.1208145512
H  H223  1  0.32800000  0.31560000  0.15530000  1.0 0.1208145512
H  H224  1  0.67200000  0.68440000  0.15530000  1.0 0.1208145512
H  H225  1  0.28640000  0.02470000  0.90970000  1.0 0.111882902
H  H226  1  0.52470000  0.21360000  0.90970000  1.0 0.111882902
H  H227  1  0.71360000  0.97530000  0.90970000  1.0 0.111882902
H  H228  1  0.47530000  0.78640000  0.90970000  1.0 0.111882902
H  H229  1  0.21360000  0.52470000  0.09030000  1.0 0.111882902
H  H230  1  0.78640000  0.47530000  0.09030000  1.0 0.111882902
H  H231  1  0.02470000  0.28640000  0.09030000  1.0 0.111882902
H  H232  1  0.97530000  0.71360000  0.09030000  1.0 0.111882902
H  H233  1  0.35960000  0.03470000  0.92010000  1.0 0.111882902
H  H234  1  0.53470000  0.14040000  0.92010000  1.0 0.111882902
H  H235  1  0.64040000  0.96530000  0.92010000  1.0 0.111882902
H  H236  1  0.46530000  0.85960000  0.92010000  1.0 0.111882902
H  H237  1  0.14040000  0.53470000  0.07990000  1.0 0.111882902
H  H238  1  0.85960000  0.46530000  0.07990000  1.0 0.111882902
H  H239  1  0.03470000  0.35960000  0.07990000  1.0 0.111882902
H  H240  1  0.96530000  0.64040000  0.07990000  1.0 0.111882902
H  H241  1  0.15830000  0.07360000  0.34260000  1.0 0.0296665411
H  H242  1  0.57360000  0.34170000  0.34260000  1.0 0.0296665411
H  H243  1  0.84170000  0.92640000  0.34260000  1.0 0.0296665411
H  H244  1  0.42640000  0.65830000  0.34260000  1.0 0.0296665411
H  H245  1  0.34170000  0.57360000  0.65740000  1.0 0.0296665411
H  H246  1  0.65830000  0.42640000  0.65740000  1.0 0.0296665411
H  H247  1  0.07360000  0.15830000  0.65740000  1.0 0.0296665411
H  H248  1  0.92640000  0.84170000  0.65740000  1.0 0.0296665411
H  H249  1  0.16470000  0.06720000  0.46450000  1.0 0.0681967728
H  H250  1  0.56720000  0.33530000  0.46450000  1.0 0.0681967728
H  H251  1  0.83530000  0.93280000  0.46450000  1.0 0.0681967728
H  H252  1  0.43280000  0.66470000  0.46450000  1.0 0.0681967728
H  H253  1  0.33530000  0.56720000  0.53550000  1.0 0.0681967728
H  H254  1  0.66470000  0.43280000  0.53550000  1.0 0.0681967728
H  H255  1  0.06720000  0.16470000  0.53550000  1.0 0.0681967728
H  H256  1  0.93280000  0.83530000  0.53550000  1.0 0.0681967728
H  H257  1  0.20640000  0.98260000  0.45340000  1.0 0.0681967728
H  H258  1  0.48260000  0.29360000  0.45340000  1.0 0.0681967728
H  H259  1  0.79360000  0.01740000  0.45340000  1.0 0.0681967728
H  H260  1  0.51740000  0.70640000  0.45340000  1.0 0.0681967728
H  H261  1  0.29360000  0.48260000  0.54660000  1.0 0.0681967728
H  H262  1  0.70640000  0.51740000  0.54660000  1.0 0.0681967728
H  H263  1  0.98260000  0.20640000  0.54660000  1.0 0.0681967728
H  H264  1  0.01740000  0.79360000  0.54660000  1.0 0.0681967728
H  H265  1  0.22500000  0.92450000  0.30260000  1.0 0.0784163897
H  H266  1  0.42450000  0.27500000  0.30260000  1.0 0.0784163897
H  H267  1  0.77500000  0.07550000  0.30260000  1.0 0.0784163897
H  H268  1  0.57550000  0.72500000  0.30260000  1.0 0.0784163897
H  H269  1  0.27500000  0.42450000  0.69740000  1.0 0.0784163897
H  H270  1  0.72500000  0.57550000  0.69740000  1.0 0.0784163897
H  H271  1  0.92450000  0.22500000  0.69740000  1.0 0.0784163897
H  H272  1  0.07550000  0.77500000  0.69740000  1.0 0.0784163897
H  H273  1  0.20280000  0.98040000  0.22990000  1.0 0.0204330897
H  H274  1  0.48040000  0.29720000  0.22990000  1.0 0.0204330897
H  H275  1  0.79720000  0.01960000  0.22990000  1.0 0.0204330897
H  H276  1  0.51960000  0.70280000  0.22990000  1.0 0.0204330897
H  H277  1  0.29720000  0.48040000  0.77010000  1.0 0.0204330897
H  H278  1  0.70280000  0.51960000  0.77010000  1.0 0.0204330897
H  H279  1  0.98040000  0.20280000  0.77010000  1.0 0.0204330897
H  H280  1  0.01960000  0.79720000  0.77010000  1.0 0.0204330897
H  H281  1  0.26550000  0.98650000  0.29530000  1.0 0.0408720692
H  H282  1  0.48650000  0.23450000  0.29530000  1.0 0.0408720692
H  H283  1  0.73450000  0.01350000  0.29530000  1.0 0.0408720692
H  H284  1  0.51350000  0.76550000  0.29530000  1.0 0.0408720692
H  H285  1  0.23450000  0.48650000  0.70470000  1.0 0.0408720692
H  H286  1  0.76550000  0.51350000  0.70470000  1.0 0.0408720692
H  H287  1  0.98650000  0.26550000  0.70470000  1.0 0.0408720692
H  H288  1  0.01350000  0.73450000  0.70470000  1.0 0.0408720692
H  H289  1  0.11520000  0.92660000  0.39380000  1.0 0.0784163897
H  H290  1  0.42660000  0.38480000  0.39380000  1.0 0.0784163897
H  H291  1  0.88480000  0.07340000  0.39380000  1.0 0.0784163897
H  H292  1  0.57340000  0.61520000  0.39380000  1.0 0.0784163897
H  H293  1  0.38480000  0.42660000  0.60620000  1.0 0.0784163897
H  H294  1  0.61520000  0.57340000  0.60620000  1.0 0.0784163897
H  H295  1  0.92660000  0.11520000  0.60620000  1.0 0.0784163897
H  H296  1  0.07340000  0.88480000  0.60620000  1.0 0.0784163897
H  H297  1  0.09500000  0.98620000  0.45950000  1.0 0.0884942274
H  H298  1  0.48620000  0.40500000  0.45950000  1.0 0.0884942274
H  H299  1  0.90500000  0.01380000  0.45950000  1.0 0.0884942274
H  H300  1  0.51380000  0.59500000  0.45950000  1.0 0.0884942274
H  H301  1  0.40500000  0.48620000  0.54050000  1.0 0.0884942274
H  H302  1  0.59500000  0.51380000  0.54050000  1.0 0.0884942274
H  H303  1  0.98620000  0.09500000  0.54050000  1.0 0.0884942274
H  H304  1  0.01380000  0.90500000  0.54050000  1.0 0.0884942274
H  H305  1  0.09090000  0.98750000  0.33560000  1.0 0.0408720692
H  H306  1  0.48750000  0.40910000  0.33560000  1.0 0.0408720692
H  H307  1  0.90910000  0.01250000  0.33560000  1.0 0.0408720692
H  H308  1  0.51250000  0.59090000  0.33560000  1.0 0.0408720692
H  H309  1  0.40910000  0.48750000  0.66440000  1.0 0.0408720692
H  H310  1  0.59090000  0.51250000  0.66440000  1.0 0.0408720692
H  H311  1  0.98750000  0.09090000  0.66440000  1.0 0.0408720692
H  H312  1  0.01250000  0.90910000  0.66440000  1.0 0.0408720692
C  C1  1  0.27202000  0.09945000  0.50220000  1.0 0.5080595146
C  C2  1  0.59945000  0.22798000  0.50220000  1.0 0.5080595146
C  C3  1  0.72798000  0.90055000  0.50220000  1.0 0.5080595146
C  C4  1  0.40055000  0.77202000  0.50220000  1.0 0.5080595146
C  C5  1  0.22798000  0.59945000  0.49780000  1.0 0.5080595146
C  C6  1  0.77202000  0.40055000  0.49780000  1.0 0.5080595146
C  C7  1  0.09945000  0.27202000  0.49780000  1.0 0.5080595146
C  C8  1  0.90055000  0.72798000  0.49780000  1.0 0.5080595146
C  C9  1  0.24310000  0.09806000  0.39580000  1.0 -0.0804982177
C  C10  1  0.59806000  0.25690000  0.39580000  1.0 -0.0804982177
C  C11  1  0.75690000  0.90194000  0.39580000  1.0 -0.0804982177
C  C12  1  0.40194000  0.74310000  0.39580000  1.0 -0.0804982177
C  C13  1  0.25690000  0.59806000  0.60420000  1.0 -0.0804982177
C  C14  1  0.74310000  0.40194000  0.60420000  1.0 -0.0804982177
C  C15  1  0.09806000  0.24310000  0.60420000  1.0 -0.0804982177
C  C16  1  0.90194000  0.75690000  0.60420000  1.0 -0.0804982177
C  C17  1  0.18580000  0.05780000  0.39810000  1.0 -0.2089634408
C  C18  1  0.55780000  0.31420000  0.39810000  1.0 -0.2089634408
C  C19  1  0.81420000  0.94220000  0.39810000  1.0 -0.2089634408
C  C20  1  0.44220000  0.68580000  0.39810000  1.0 -0.2089634408
C  C21  1  0.31420000  0.55780000  0.60190000  1.0 -0.2089634408
C  C22  1  0.68580000  0.44220000  0.60190000  1.0 -0.2089634408
C  C23  1  0.05780000  0.18580000  0.60190000  1.0 -0.2089634408
C  C24  1  0.94220000  0.81420000  0.60190000  1.0 -0.2089634408
C  C25  1  0.16670000  0.02350000  0.30270000  1.0 0.0116978404
C  C26  1  0.52350000  0.33333333  0.30270000  1.0 0.0116978404
C  C27  1  0.83330000  0.97650000  0.30270000  1.0 0.0116978404
C  C28  1  0.47650000  0.66666667  0.30270000  1.0 0.0116978404
C  C29  1  0.33333333  0.52350000  0.69730000  1.0 0.0116978404
C  C30  1  0.66666667  0.47650000  0.69730000  1.0 0.0116978404
C  C31  1  0.02350000  0.16670000  0.69730000  1.0 0.0116978404
C  C32  1  0.97650000  0.83330000  0.69730000  1.0 0.0116978404
C  C33  1  0.21400000  0.99110000  0.24420000  1.0 -0.1888689697
C  C34  1  0.49110000  0.28600000  0.24420000  1.0 -0.1888689697
C  C35  1  0.78600000  0.00890000  0.24420000  1.0 -0.1888689697
C  C36  1  0.50890000  0.71400000  0.24420000  1.0 -0.1888689697
C  C37  1  0.28600000  0.49110000  0.75580000  1.0 -0.1888689697
C  C38  1  0.71400000  0.50890000  0.75580000  1.0 -0.1888689697
C  C39  1  0.99110000  0.21400000  0.75580000  1.0 -0.1888689697
C  C40  1  0.00890000  0.78600000  0.75580000  1.0 -0.1888689697
C  C41  1  0.11100000  0.98240000  0.31830000  1.0 -0.1888689697
C  C42  1  0.48240000  0.38900000  0.31830000  1.0 -0.1888689697
C  C43  1  0.88900000  0.01760000  0.31830000  1.0 -0.1888689697
C  C44  1  0.51760000  0.61100000  0.31830000  1.0 -0.1888689697
C  C45  1  0.38900000  0.48240000  0.68170000  1.0 -0.1888689697
C  C46  1  0.61100000  0.51760000  0.68170000  1.0 -0.1888689697
C  C47  1  0.98240000  0.11100000  0.68170000  1.0 -0.1888689697
C  C48  1  0.01760000  0.88900000  0.68170000  1.0 -0.1888689697
C  C49  1  0.28040000  0.19145000  0.30380000  1.0 -0.1778299839
C  C50  1  0.69145000  0.21960000  0.30380000  1.0 -0.1778299839
C  C51  1  0.71960000  0.80855000  0.30380000  1.0 -0.1778299839
C  C52  1  0.30855000  0.78040000  0.30380000  1.0 -0.1778299839
C  C53  1  0.21960000  0.69145000  0.69620000  1.0 -0.1778299839
C  C54  1  0.78040000  0.30855000  0.69620000  1.0 -0.1736979233
C  C55  1  0.19145000  0.28040000  0.69620000  1.0 -0.1736979233
C  C56  1  0.80855000  0.71960000  0.69620000  1.0 -0.1736979233
C  C57  1  0.29140000  0.15772000  0.20170000  1.0 0.0784163897
C  C58  1  0.65772000  0.20860000  0.20170000  1.0 0.0784163897
C  C59  1  0.70860000  0.84228000  0.20170000  1.0 0.0784163897
C  C60  1  0.34228000  0.79140000  0.20170000  1.0 0.0784163897
C  C61  1  0.20860000  0.65772000  0.79830000  1.0 0.0784163897
C  C62  1  0.79140000  0.34228000  0.79830000  1.0 0.0784163897
C  C63  1  0.15772000  0.29140000  0.79830000  1.0 0.0784163897
C  C64  1  0.84228000  0.70860000  0.79830000  1.0 0.0784163897
C  C65  1  0.24610000  0.15370000  0.12750000  1.0 -0.1736979233
C  C66  1  0.65370000  0.25390000  0.12750000  1.0 -0.1736979233
C  C67  1  0.75390000  0.84630000  0.12750000  1.0 -0.1736979233
C  C68  1  0.34630000  0.74610000  0.12750000  1.0 -0.1736979233
C  C69  1  0.25390000  0.65370000  0.87250000  1.0 -0.1736979233
C  C70  1  0.74610000  0.34630000  0.87250000  1.0 -0.1736979233
C  C71  1  0.15370000  0.24610000  0.87250000  1.0 -0.1736979233
C  C72  1  0.84630000  0.75390000  0.87250000  1.0 -0.1736979233
C  C73  1  0.25440000  0.12110000  0.03810000  1.0 -0.1595262668
C  C74  1  0.62110000  0.24560000  0.03810000  1.0 -0.1595262668
C  C75  1  0.74560000  0.87890000  0.03810000  1.0 -0.1595262668
C  C76  1  0.37890000  0.75440000  0.03810000  1.0 -0.1595262668
C  C77  1  0.24560000  0.62110000  0.96190000  1.0 -0.1595262668
C  C78  1  0.75440000  0.37890000  0.96190000  1.0 -0.1595262668
C  C79  1  0.12110000  0.25440000  0.96190000  1.0 -0.1595262668
C  C80  1  0.87890000  0.74560000  0.96190000  1.0 -0.1595262668
C  C81  1  0.30936000  0.09084000  0.01770000  1.0 0.0884942274
C  C82  1  0.59084000  0.19064000  0.01770000  1.0 0.0884942274
C  C83  1  0.69064000  0.90916000  0.01770000  1.0 0.0884942274
C  C84  1  0.40916000  0.80936000  0.01770000  1.0 0.0884942274
C  C85  1  0.19064000  0.59084000  0.98230000  1.0 0.0884942274
C  C86  1  0.80936000  0.40916000  0.98230000  1.0 0.0884942274
C  C87  1  0.09084000  0.30936000  0.98230000  1.0 0.0884942274
C  C88  1  0.90916000  0.69064000  0.98230000  1.0 0.0884942274
C  C89  1  0.35600000  0.09580000  0.09220000  1.0 -0.1595262668
C  C90  1  0.59580000  0.14400000  0.09220000  1.0 -0.1595262668
C  C91  1  0.64400000  0.90420000  0.09220000  1.0 -0.1595262668
C  C92  1  0.40420000  0.85600000  0.09220000  1.0 -0.1595262668
C  C93  1  0.14400000  0.59580000  0.90780000  1.0 -0.1595262668
C  C94  1  0.85600000  0.40420000  0.90780000  1.0 -0.1595262668
C  C95  1  0.09580000  0.35600000  0.90780000  1.0 -0.1595262668
C  C96  1  0.90420000  0.64400000  0.90780000  1.0 -0.1595262668
C  C97  1  0.34690000  0.12860000  0.18170000  1.0 -0.1595262668
C  C98  1  0.62860000  0.15310000  0.18170000  1.0 -0.1595262668
C  C99  1  0.65310000  0.87140000  0.18170000  1.0 -0.1595262668
C  C100  1  0.37140000  0.84690000  0.18170000  1.0 -0.1595262668
C  C101  1  0.15310000  0.62860000  0.81830000  1.0 -0.1595262668
C  C102  1  0.84690000  0.37140000  0.81830000  1.0 -0.1595262668
C  C103  1  0.12860000  0.34690000  0.81830000  1.0 -0.1595262668
C  C104  1  0.87140000  0.65310000  0.81830000  1.0 -0.1595262668
C  C105  1  0.41435000  0.12940000  0.73700000  1.0 0.554073764
C  C106  1  0.62940000  0.08565000  0.73700000  1.0 0.554073764
C  C107  1  0.58565000  0.87060000  0.73700000  1.0 0.554073764
C  C108  1  0.37060000  0.91435000  0.73700000  1.0 0.554073764
C  C109  1  0.08565000  0.62940000  0.26300000  1.0 0.554073764
C  C110  1  0.91435000  0.37060000  0.26300000  1.0 0.554073764
C  C111  1  0.12940000  0.41435000  0.26300000  1.0 0.554073764
C  C112  1  0.87060000  0.58565000  0.26300000  1.0 0.554073764
C  C113  1  0.36950000  0.14377000  0.82590000  1.0 -0.0451676269
C  C114  1  0.64377000  0.13050000  0.82590000  1.0 -0.0451676269
C  C115  1  0.63050000  0.85623000  0.82590000  1.0 -0.0451676269
C  C116  1  0.35623000  0.86950000  0.82590000  1.0 -0.0451676269
C  C117  1  0.13050000  0.64377000  0.17410000  1.0 -0.0451676269
C  C118  1  0.86950000  0.35623000  0.17410000  1.0 -0.0451676269
C  C119  1  0.14377000  0.36950000  0.17410000  1.0 -0.0451676269
C  C120  1  0.85623000  0.63050000  0.17410000  1.0 -0.0451676269
C  C121  1  0.34292000  0.20985000  0.81260000  1.0 -0.2751792241
C  C122  1  0.70985000  0.15708000  0.81260000  1.0 -0.2751792241
C  C123  1  0.65708000  0.79015000  0.81260000  1.0 -0.2751792241
C  C124  1  0.29015000  0.84292000  0.81260000  1.0 -0.2751792241
C  C125  1  0.15708000  0.70985000  0.18740000  1.0 -0.2751792241
C  C126  1  0.84292000  0.29015000  0.18740000  1.0 -0.2751792241
C  C127  1  0.20985000  0.34292000  0.18740000  1.0 -0.2751792241
C  C128  1  0.79015000  0.65708000  0.18740000  1.0 -0.2751792241
C  C129  1  0.38510000  0.26240000  0.84570000  1.0 0.1535329855
C  C130  1  0.76240000  0.11490000  0.84570000  1.0 0.1535329855
C  C131  1  0.61490000  0.73760000  0.84570000  1.0 0.1535329855
C  C132  1  0.23760000  0.88510000  0.84570000  1.0 0.1535329855
C  C133  1  0.11490000  0.76240000  0.15430000  1.0 0.1535329855
C  C134  1  0.88510000  0.23760000  0.15430000  1.0 0.1535329855
C  C135  1  0.26240000  0.38510000  0.15430000  1.0 0.1535329855
C  C136  1  0.73760000  0.61490000  0.15430000  1.0 0.1535329855
C  C137  1  0.39930000  0.26260000  0.95960000  1.0 -0.4801251784
C  C138  1  0.76260000  0.10070000  0.95960000  1.0 -0.4801251784
C  C139  1  0.60070000  0.73740000  0.95960000  1.0 -0.4801251784
C  C140  1  0.23740000  0.89930000  0.95960000  1.0 -0.4801251784
C  C141  1  0.10070000  0.76260000  0.04040000  1.0 -0.4873608296
C  C142  1  0.89930000  0.23740000  0.04040000  1.0 -0.4873608296
C  C143  1  0.26260000  0.39930000  0.04040000  1.0 -0.4873608296
C  C144  1  0.73740000  0.60070000  0.04040000  1.0 -0.4873608296
C  C145  1  0.35630000  0.32330000  0.81210000  1.0 -0.4873608296
C  C146  1  0.82330000  0.14370000  0.81210000  1.0 -0.4873608296
C  C147  1  0.64370000  0.67670000  0.81210000  1.0 -0.4873608296
C  C148  1  0.17670000  0.85630000  0.81210000  1.0 -0.4873608296
C  C149  1  0.14370000  0.82330000  0.18790000  1.0 -0.4873608296
C  C150  1  0.85630000  0.17670000  0.18790000  1.0 -0.4873608296
C  C151  1  0.32330000  0.35630000  0.18790000  1.0 -0.4873608296
C  C152  1  0.67670000  0.64370000  0.18790000  1.0 -0.4873608296
C  C153  1  0.31920000  0.05640000  0.91740000  1.0 -0.1778299839
C  C154  1  0.55640000  0.18080000  0.91740000  1.0 -0.1778299839
C  C155  1  0.68080000  0.94360000  0.91740000  1.0 -0.1778299839
C  C156  1  0.44360000  0.81920000  0.91740000  1.0 -0.1778299839
C  C157  1  0.18080000  0.55640000  0.08260000  1.0 -0.1778299839
C  C158  1  0.81920000  0.44360000  0.08260000  1.0 -0.1778299839
C  C159  1  0.05640000  0.31920000  0.08260000  1.0 -0.1778299839
C  C160  1  0.94360000  0.68080000  0.08260000  1.0 -0.1778299839
C  C161  1  0.18540000  0.99840000  0.38940000  1.0 -0.0279039052
C  C162  1  0.49840000  0.31460000  0.38940000  1.0 -0.0279039052
C  C163  1  0.81460000  0.00160000  0.38940000  1.0 -0.0279039052
C  C164  1  0.50160000  0.68540000  0.38940000  1.0 -0.0279039052
C  C165  1  0.31460000  0.49840000  0.61060000  1.0 -0.0279039052
C  C166  1  0.68540000  0.50160000  0.61060000  1.0 -0.0279039052
C  C167  1  0.99840000  0.18540000  0.61060000  1.0 -0.0279039052
C  C168  1  0.00160000  0.81460000  0.61060000  1.0 -0.0279039052
C  C169  1  0.22330000  0.96970000  0.29500000  1.0 -0.1235830878
C  C170  1  0.46970000  0.27670000  0.29500000  1.0 -0.1235830878
C  C171  1  0.77670000  0.03030000  0.29500000  1.0 -0.1235830878
C  C172  1  0.53030000  0.72330000  0.29500000  1.0 -0.1235830878
C  C173  1  0.27670000  0.46970000  0.70500000  1.0 -0.1235830878
C  C174  1  0.72330000  0.53030000  0.70500000  1.0 -0.1235830878
C  C175  1  0.96970000  0.22330000  0.70500000  1.0 -0.1235830878
C  C176  1  0.03030000  0.77670000  0.70500000  1.0 -0.1235830878
C  C177  1  0.11460000  0.97210000  0.39500000  1.0 -0.2250883449
C  C178  1  0.47210000  0.38540000  0.39500000  1.0 -0.2250883449
C  C179  1  0.88540000  0.02790000  0.39500000  1.0 -0.2245596517
C  C180  1  0.52790000  0.61460000  0.39500000  1.0 -0.2250883449
C  C181  1  0.38540000  0.47210000  0.60500000  1.0 -0.2250883449
C  C182  1  0.61460000  0.52790000  0.60500000  1.0 -0.2250883449
C  C183  1  0.97210000  0.11460000  0.60500000  1.0 -0.2245596517
C  C184  1  0.02790000  0.88540000  0.60500000  1.0 -0.2250883449
N  N1  1  0.22915000  0.16340000  0.36510000  1.0 -0.3369613309
N  N2  1  0.66340000  0.27085000  0.36510000  1.0 -0.3369613309
N  N3  1  0.77085000  0.83660000  0.36510000  1.0 -0.3369613309
N  N4  1  0.33660000  0.72915000  0.36510000  1.0 -0.3369613309
N  N5  1  0.27085000  0.66340000  0.63490000  1.0 -0.3369613309
N  N6  1  0.72915000  0.33660000  0.63490000  1.0 -0.3369613309
N  N7  1  0.16340000  0.22915000  0.63490000  1.0 -0.3369613309
N  N8  1  0.83660000  0.77085000  0.63490000  1.0 -0.3369613309
N  N9  1  0.31816000  0.09806000  0.82590000  1.0 -0.3470889498
N  N10  1  0.59806000  0.18184000  0.82590000  1.0 -0.3470889498
N  N11  1  0.68184000  0.90194000  0.82590000  1.0 -0.3470889498
N  N12  1  0.40194000  0.81816000  0.82590000  1.0 -0.3470889498
N  N13  1  0.18184000  0.59806000  0.17410000  1.0 -0.3470889498
N  N14  1  0.81816000  0.40194000  0.17410000  1.0 -0.3470889498
N  N15  1  0.09806000  0.31816000  0.17410000  1.0 -0.3470889498
N  N16  1  0.90194000  0.68184000  0.17410000  1.0 -0.3470889498
O  O1  1  0.26223000  0.14609000  0.56017000  1.0 -0.5650801529
O  O2  1  0.64609000  0.23777000  0.56017000  1.0 -0.5650801529
O  O3  1  0.73777000  0.85391000  0.56017000  1.0 -0.5650801529
O  O4  1  0.35391000  0.76223000  0.56017000  1.0 -0.5650801529
O  O5  1  0.23777000  0.64609000  0.43983000  1.0 -0.5650801529
O  O6  1  0.76223000  0.35391000  0.43983000  1.0 -0.5644121636
O  O7  1  0.14609000  0.26223000  0.43983000  1.0 -0.5650801529
O  O8  1  0.85391000  0.73777000  0.43983000  1.0 -0.5644121636
O  O9  1  0.30176000  0.05301000  0.53150000  1.0 -0.4801251784
O  O10  1  0.55301000  0.19824000  0.53150000  1.0 -0.4801251784
O  O11  1  0.69824000  0.94699000  0.53150000  1.0 -0.4801251784
O  O12  1  0.44699000  0.80176000  0.53150000  1.0 -0.4801251784
O  O13  1  0.19824000  0.55301000  0.46850000  1.0 -0.4801251784
O  O14  1  0.80176000  0.44699000  0.46850000  1.0 -0.4801251784
O  O15  1  0.05301000  0.30176000  0.46850000  1.0 -0.4801251784
O  O16  1  0.94699000  0.69824000  0.46850000  1.0 -0.4801251784
O  O17  1  0.39403000  0.09447000  0.66560000  1.0 -0.4873608296
O  O18  1  0.59447000  0.10597000  0.66560000  1.0 -0.4873608296
O  O19  1  0.60597000  0.90553000  0.66560000  1.0 -0.4873608296
O  O20  1  0.40553000  0.89403000  0.66560000  1.0 -0.4873608296
O  O21  1  0.10597000  0.59447000  0.33440000  1.0 -0.4873608296
O  O22  1  0.89403000  0.40553000  0.33440000  1.0 -0.4873608296
O  O23  1  0.09447000  0.39403000  0.33440000  1.0 -0.4873608296
O  O24  1  0.90553000  0.60597000  0.33440000  1.0 -0.4873608296
O  O25  1  0.46520000  0.15384000  0.73800000  1.0 -0.5533638467
O  O26  1  0.65384000  0.03480000  0.73800000  1.0 -0.5533638467
O  O27  1  0.53480000  0.84616000  0.73800000  1.0 -0.5533638467
O  O28  1  0.34616000  0.96520000  0.73800000  1.0 -0.5533638467
O  O29  1  0.03480000  0.65384000  0.26200000  1.0 -0.5533638467
O  O30  1  0.96520000  0.34616000  0.26200000  1.0 -0.5533638467
O  O31  1  0.15384000  0.46520000  0.26200000  1.0 -0.5533638467
O  O32  1  0.84616000  0.53480000  0.26200000  1.0 -0.5533638467
