# DDEC6 charges by PACMAN v1.1 (https://github.com/mtap-research/PACMAN-charge/)
data_LUSZOP_FSR_pacman
_symmetry_space_group_name_H-M   'P 1'
_cell_length_a   7.33330000
_cell_length_b   18.15300000
_cell_length_c   12.07780000
_cell_angle_alpha   90.00000000
_cell_angle_beta   122.87900000
_cell_angle_gamma   90.00000000
_symmetry_Int_Tables_number   1
_chemical_formula_structural   Cu2H3C8SO9
_chemical_formula_sum   'Cu8 H12 C32 S4 O36'
_cell_volume   1350.27222204
_cell_formula_units_Z   4
loop_
 _symmetry_equiv_pos_site_id
 _symmetry_equiv_pos_as_xyz
  1  'x, y, z'
loop_
 _atom_site_type_symbol
 _atom_site_label
 _atom_site_symmetry_multiplicity
 _atom_site_fract_x
 _atom_site_fract_y
 _atom_site_fract_z
 _atom_site_occupancy
 _atom_site_charge
Cu  Cu1  1  0.35153000  0.09427000  0.21710000  1.0 1.1710813491
Cu  Cu2  1  0.64847000  0.59427000  0.28290000  1.0 1.1710813491
Cu  Cu3  1  0.64847000  0.90573000  0.78290000  1.0 1.1710813491
Cu  Cu4  1  0.35153000  0.40573000  0.71710000  1.0 1.1710813491
Cu  Cu5  1  0.88793000  0.06855000  0.93194000  1.0 1.1366206456
Cu  Cu6  1  0.11207000  0.56855000  0.56806000  1.0 1.1366206456
Cu  Cu7  1  0.11207000  0.93145000  0.06806000  1.0 1.1366206456
Cu  Cu8  1  0.88793000  0.43145000  0.43194000  1.0 1.1366206456
H  H1  1  0.38310000  0.30780000  0.16560000  1.0 0.1393728883
H  H2  1  0.61690000  0.80780000  0.33440000  1.0 0.1393728883
H  H3  1  0.61690000  0.69220000  0.83440000  1.0 0.1393728883
H  H4  1  0.38310000  0.19220000  0.66560000  1.0 0.1393728883
H  H5  1  0.85830000  0.29330000  0.79620000  1.0 0.1393728883
H  H6  1  0.14170000  0.79330000  0.70380000  1.0 0.1393728883
H  H7  1  0.14170000  0.70670000  0.20380000  1.0 0.1393728883
H  H8  1  0.85830000  0.20670000  0.29620000  1.0 0.1393728883
H  H9  1  0.15920000  0.48840000  0.93810000  1.0 0.1456849922
H  H10  1  0.84080000  0.98840000  0.56190000  1.0 0.1456849922
H  H11  1  0.84080000  0.51160000  0.06190000  1.0 0.1456849922
H  H12  1  0.15920000  0.01160000  0.43810000  1.0 0.1456849922
C  C1  1  0.98690000  0.39550000  0.84970000  1.0 -0.0449097108
C  C2  1  0.01310000  0.89550000  0.65030000  1.0 -0.046116526
C  C3  1  0.01310000  0.60450000  0.15030000  1.0 -0.046116526
C  C4  1  0.98690000  0.10450000  0.34970000  1.0 -0.0449097108
C  C5  1  0.29850000  0.40450000  0.07010000  1.0 -0.0085242836
C  C6  1  0.70150000  0.90450000  0.42990000  1.0 -0.0085242836
C  C7  1  0.70150000  0.59550000  0.92990000  1.0 -0.0085242836
C  C8  1  0.29850000  0.09550000  0.57010000  1.0 -0.0085242836
C  C9  1  0.28160000  0.33000000  0.08590000  1.0 -0.0620646279
C  C10  1  0.71840000  0.83000000  0.41410000  1.0 -0.0620646279
C  C11  1  0.71840000  0.67000000  0.91410000  1.0 -0.0620646279
C  C12  1  0.28160000  0.17000000  0.58590000  1.0 -0.0620646279
C  C13  1  0.11590000  0.28690000  0.98520000  1.0 -0.0181598666
C  C14  1  0.88410000  0.78690000  0.51480000  1.0 -0.0181598666
C  C15  1  0.88410000  0.71310000  0.01480000  1.0 -0.0181598666
C  C16  1  0.11590000  0.21310000  0.48520000  1.0 -0.0181598666
C  C17  1  0.10700000  0.20760000  0.00930000  1.0 0.6073185254
C  C18  1  0.89300000  0.70760000  0.49070000  1.0 0.6073185254
C  C19  1  0.89300000  0.79240000  0.99070000  1.0 0.6073185254
C  C20  1  0.10700000  0.29240000  0.50930000  1.0 0.6073185254
C  C21  1  0.96840000  0.32070000  0.86530000  1.0 -0.0712662412
C  C22  1  0.03160000  0.82070000  0.63470000  1.0 -0.0712662412
C  C23  1  0.03160000  0.67930000  0.13470000  1.0 -0.0712662412
C  C24  1  0.96840000  0.17930000  0.36530000  1.0 -0.0712662412
C  C25  1  0.14960000  0.43830000  0.95030000  1.0 -0.0712662412
C  C26  1  0.85040000  0.93830000  0.54970000  1.0 -0.0712662412
C  C27  1  0.85040000  0.56170000  0.04970000  1.0 -0.0712662412
C  C28  1  0.14960000  0.06170000  0.45030000  1.0 -0.0712662412
C  C29  1  0.48330000  0.44640000  0.18300000  1.0 0.5991215308
C  C30  1  0.51670000  0.94640000  0.31700000  1.0 0.5991215308
C  C31  1  0.51670000  0.55360000  0.81700000  1.0 0.5991215308
C  C32  1  0.48330000  0.05360000  0.68300000  1.0 0.5991215308
S  S1  1  0.81087000  0.43452000  0.69104000  1.0 1.1710813491
S  S2  1  0.18913000  0.93452000  0.80896000  1.0 1.1756500055
S  S3  1  0.18913000  0.56548000  0.30896000  1.0 1.1756500055
S  S4  1  0.81087000  0.06548000  0.19104000  1.0 1.1710813491
O  O1  1  0.96680000  0.16780000  0.91410000  1.0 -0.4976984102
O  O2  1  0.03320000  0.66780000  0.58590000  1.0 -0.4976984102
O  O3  1  0.03320000  0.83220000  0.08590000  1.0 -0.4976984102
O  O4  1  0.96680000  0.33220000  0.41410000  1.0 -0.4976984102
O  O5  1  0.18670000  0.03470000  0.05710000  1.0 -0.8870250534
O  O6  1  0.81330000  0.53470000  0.44290000  1.0 -0.8843345991
O  O7  1  0.81330000  0.96530000  0.94290000  1.0 -0.8843345991
O  O8  1  0.18670000  0.46530000  0.55710000  1.0 -0.8843345991
O  O9  1  0.50400000  0.51300000  0.16350000  1.0 -0.4976984102
O  O10  1  0.49600000  0.01300000  0.33650000  1.0 -0.4976984102
O  O11  1  0.49600000  0.48700000  0.83650000  1.0 -0.4976984102
O  O12  1  0.50400000  0.98700000  0.66350000  1.0 -0.4976984102
O  O13  1  0.24380000  0.18580000  0.12540000  1.0 -0.4803590428
O  O14  1  0.75620000  0.68580000  0.37460000  1.0 -0.4803590428
O  O15  1  0.75620000  0.81420000  0.87460000  1.0 -0.4803590428
O  O16  1  0.24380000  0.31420000  0.62540000  1.0 -0.4852547597
O  O17  1  0.83080000  0.51280000  0.70260000  1.0 -0.4803590428
O  O18  1  0.16920000  0.01280000  0.79740000  1.0 -0.4803590428
O  O19  1  0.16920000  0.48720000  0.29740000  1.0 -0.4803590428
O  O20  1  0.83080000  0.98720000  0.20260000  1.0 -0.4803590428
O  O21  1  0.59930000  0.40990000  0.28620000  1.0 -0.4803590428
O  O22  1  0.40070000  0.90990000  0.21380000  1.0 -0.4803590428
O  O23  1  0.40070000  0.59010000  0.71380000  1.0 -0.4803590428
O  O24  1  0.59930000  0.09010000  0.78620000  1.0 -0.4803590428
O  O25  1  0.88700000  0.40320000  0.61300000  1.0 -0.6178705047
O  O26  1  0.11300000  0.90320000  0.88700000  1.0 -0.6178705047
O  O27  1  0.11300000  0.59680000  0.38700000  1.0 -0.6178705047
O  O28  1  0.88700000  0.09680000  0.11300000  1.0 -0.6178705047
O  O29  1  0.59520000  0.40670000  0.64500000  1.0 -0.5375719916
O  O30  1  0.40480000  0.90670000  0.85500000  1.0 -0.5375719916
O  O31  1  0.40480000  0.59330000  0.35500000  1.0 -0.5375719916
O  O32  1  0.59520000  0.09330000  0.14500000  1.0 -0.5375719916
O  O33  1  0.49540000  0.15510000  0.37770000  1.0 -0.3569965314
O  O34  1  0.50460000  0.65510000  0.12230000  1.0 -0.3569965314
O  O35  1  0.50460000  0.84490000  0.62230000  1.0 -0.3569965314
O  O36  1  0.49540000  0.34490000  0.87770000  1.0 -0.3569965314
