# DDEC6 charges by PACMAN v1.1 (https://github.com/mtap-research/PACMAN-charge/)
data_LUSZOP01_FSR_pacman
_symmetry_space_group_name_H-M   'P 1'
_cell_length_a   7.33540000
_cell_length_b   18.14000000
_cell_length_c   12.08830000
_cell_angle_alpha   90.00000000
_cell_angle_beta   122.89800000
_cell_angle_gamma   90.00000000
_symmetry_Int_Tables_number   1
_chemical_formula_structural   Cu2H3C8SO9
_chemical_formula_sum   'Cu8 H12 C32 S4 O36'
_cell_volume   1350.57536907
_cell_formula_units_Z   4
loop_
 _symmetry_equiv_pos_site_id
 _symmetry_equiv_pos_as_xyz
  1  'x, y, z'
loop_
 _atom_site_type_symbol
 _atom_site_label
 _atom_site_symmetry_multiplicity
 _atom_site_fract_x
 _atom_site_fract_y
 _atom_site_fract_z
 _atom_site_occupancy
 _atom_site_charge
Cu  Cu1  1  0.35153000  0.09449000  0.21696000  1.0 1.1648728558
Cu  Cu2  1  0.64847000  0.59449000  0.28304000  1.0 1.1648728558
Cu  Cu3  1  0.64847000  0.90551000  0.78304000  1.0 1.1648728558
Cu  Cu4  1  0.35153000  0.40551000  0.71696000  1.0 1.1648728558
Cu  Cu5  1  0.88834000  0.06850000  0.93155000  1.0 1.1380295464
Cu  Cu6  1  0.11166000  0.56850000  0.56845000  1.0 1.1380295464
Cu  Cu7  1  0.11166000  0.93150000  0.06845000  1.0 1.1380295464
Cu  Cu8  1  0.88834000  0.43150000  0.43155000  1.0 1.1380295464
H  H1  1  0.38350000  0.30770000  0.16590000  1.0 0.135861651
H  H2  1  0.61650000  0.80770000  0.33410000  1.0 0.135861651
H  H3  1  0.61650000  0.69230000  0.83410000  1.0 0.135861651
H  H4  1  0.38350000  0.19230000  0.66590000  1.0 0.135861651
H  H5  1  0.85890000  0.29320000  0.79620000  1.0 0.1460766205
H  H6  1  0.14110000  0.79320000  0.70380000  1.0 0.1460766205
H  H7  1  0.14110000  0.70680000  0.20380000  1.0 0.1460766205
H  H8  1  0.85890000  0.20680000  0.29620000  1.0 0.1460766205
H  H9  1  0.15800000  0.48890000  0.93860000  1.0 0.1460766205
H  H10  1  0.84200000  0.98890000  0.56140000  1.0 0.1460766205
H  H11  1  0.84200000  0.51110000  0.06140000  1.0 0.1460766205
H  H12  1  0.15800000  0.01110000  0.43860000  1.0 0.1460766205
C  C1  1  0.98810000  0.39590000  0.84960000  1.0 -0.036209194
C  C2  1  0.01190000  0.89590000  0.65040000  1.0 -0.036209194
C  C3  1  0.01190000  0.60410000  0.15040000  1.0 -0.036209194
C  C4  1  0.98810000  0.10410000  0.34960000  1.0 -0.036209194
C  C5  1  0.29810000  0.40500000  0.06910000  1.0 -0.0027644434
C  C6  1  0.70190000  0.90500000  0.43090000  1.0 -0.0027644434
C  C7  1  0.70190000  0.59500000  0.93090000  1.0 -0.0027644434
C  C8  1  0.29810000  0.09500000  0.56910000  1.0 -0.0027644434
C  C9  1  0.28250000  0.33000000  0.08610000  1.0 -0.0632099873
C  C10  1  0.71750000  0.83000000  0.41390000  1.0 -0.0632099873
C  C11  1  0.71750000  0.67000000  0.91390000  1.0 -0.0632099873
C  C12  1  0.28250000  0.17000000  0.58610000  1.0 -0.0632099873
C  C13  1  0.11690000  0.28760000  0.98480000  1.0 0.001128513
C  C14  1  0.88310000  0.78760000  0.51520000  1.0 0.001128513
C  C15  1  0.88310000  0.71240000  0.01520000  1.0 0.001128513
C  C16  1  0.11690000  0.21240000  0.48480000  1.0 0.001128513
C  C17  1  0.10710000  0.20710000  0.00910000  1.0 0.607862384
C  C18  1  0.89290000  0.70710000  0.49090000  1.0 0.607862384
C  C19  1  0.89290000  0.79290000  0.99090000  1.0 0.607862384
C  C20  1  0.10710000  0.29290000  0.50910000  1.0 0.607862384
C  C21  1  0.96910000  0.32080000  0.86510000  1.0 -0.0780766402
C  C22  1  0.03090000  0.82080000  0.63490000  1.0 -0.0780766402
C  C23  1  0.03090000  0.67920000  0.13490000  1.0 -0.0780766402
C  C24  1  0.96910000  0.17920000  0.36510000  1.0 -0.0780766402
C  C25  1  0.14950000  0.43870000  0.95040000  1.0 -0.0780766402
C  C26  1  0.85050000  0.93870000  0.54960000  1.0 -0.0780766402
C  C27  1  0.85050000  0.56130000  0.04960000  1.0 -0.0780766402
C  C28  1  0.14950000  0.06130000  0.45040000  1.0 -0.0780766402
C  C29  1  0.48340000  0.44660000  0.18210000  1.0 0.6020457455
C  C30  1  0.51660000  0.94660000  0.31790000  1.0 0.6020457455
C  C31  1  0.51660000  0.55340000  0.81790000  1.0 0.6020457455
C  C32  1  0.48340000  0.05340000  0.68210000  1.0 0.6020457455
S  S1  1  0.81155000  0.43463000  0.69095000  1.0 1.171201677
S  S2  1  0.18845000  0.93463000  0.80905000  1.0 1.171201677
S  S3  1  0.18845000  0.56537000  0.30905000  1.0 1.171201677
S  S4  1  0.81155000  0.06537000  0.19095000  1.0 1.171201677
O  O1  1  0.96700000  0.16804000  0.91440000  1.0 -0.4907629481
O  O2  1  0.03300000  0.66804000  0.58560000  1.0 -0.4907629481
O  O3  1  0.03300000  0.83196000  0.08560000  1.0 -0.4907629481
O  O4  1  0.96700000  0.33196000  0.41440000  1.0 -0.4907629481
O  O5  1  0.18680000  0.03479000  0.05740000  1.0 -0.8967190972
O  O6  1  0.81320000  0.53479000  0.44260000  1.0 -0.8967190972
O  O7  1  0.81320000  0.96521000  0.94260000  1.0 -0.8967190972
O  O8  1  0.18680000  0.46521000  0.55740000  1.0 -0.8967190972
O  O9  1  0.50450000  0.51353000  0.16330000  1.0 -0.499056845
O  O10  1  0.49550000  0.01353000  0.33670000  1.0 -0.499056845
O  O11  1  0.49550000  0.48647000  0.83670000  1.0 -0.499056845
O  O12  1  0.50450000  0.98647000  0.66330000  1.0 -0.499056845
O  O13  1  0.24400000  0.18607000  0.12520000  1.0 -0.4813652129
O  O14  1  0.75600000  0.68607000  0.37480000  1.0 -0.4813652129
O  O15  1  0.75600000  0.81393000  0.87480000  1.0 -0.4813652129
O  O16  1  0.24400000  0.31393000  0.62520000  1.0 -0.4813652129
O  O17  1  0.83160000  0.51280000  0.70190000  1.0 -0.4813652129
O  O18  1  0.16840000  0.01280000  0.79810000  1.0 -0.4813652129
O  O19  1  0.16840000  0.48720000  0.29810000  1.0 -0.4813652129
O  O20  1  0.83160000  0.98720000  0.20190000  1.0 -0.4813652129
O  O21  1  0.60030000  0.41040000  0.28590000  1.0 -0.4813652129
O  O22  1  0.39970000  0.91040000  0.21410000  1.0 -0.4813652129
O  O23  1  0.39970000  0.58960000  0.71410000  1.0 -0.4813652129
O  O24  1  0.60030000  0.08960000  0.78590000  1.0 -0.4813652129
O  O25  1  0.88580000  0.40270000  0.61210000  1.0 -0.6189528993
O  O26  1  0.11420000  0.90270000  0.88790000  1.0 -0.6189528993
O  O27  1  0.11420000  0.59730000  0.38790000  1.0 -0.6189528993
O  O28  1  0.88580000  0.09730000  0.11210000  1.0 -0.6189528993
O  O29  1  0.59590000  0.40730000  0.64510000  1.0 -0.5365877441
O  O30  1  0.40410000  0.90730000  0.85490000  1.0 -0.5365877441
O  O31  1  0.40410000  0.59270000  0.35490000  1.0 -0.5365877441
O  O32  1  0.59590000  0.09270000  0.14510000  1.0 -0.5365877441
O  O33  1  0.49550000  0.15560000  0.37740000  1.0 -0.3686435363
O  O34  1  0.50450000  0.65560000  0.12260000  1.0 -0.3686435363
O  O35  1  0.50450000  0.84440000  0.62260000  1.0 -0.3686435363
O  O36  1  0.49550000  0.34440000  0.87740000  1.0 -0.3686435363
