# DDEC6 charges by PACMAN v1.1 (https://github.com/mtap-research/PACMAN-charge/)
data_LUTBUY_FSR_pacman
_symmetry_space_group_name_H-M   'P 1'
_cell_length_a   7.30200000
_cell_length_b   18.15000000
_cell_length_c   12.17560000
_cell_angle_alpha   90.00000000
_cell_angle_beta   122.73500000
_cell_angle_gamma   90.00000000
_symmetry_Int_Tables_number   1
_chemical_formula_structural   Cu2H3C8SO9
_chemical_formula_sum   'Cu8 H12 C32 S4 O36'
_cell_volume   1357.36949145
_cell_formula_units_Z   4
loop_
 _symmetry_equiv_pos_site_id
 _symmetry_equiv_pos_as_xyz
  1  'x, y, z'
loop_
 _atom_site_type_symbol
 _atom_site_label
 _atom_site_symmetry_multiplicity
 _atom_site_fract_x
 _atom_site_fract_y
 _atom_site_fract_z
 _atom_site_occupancy
 _atom_site_charge
Cu  Cu1  1  0.35090000  0.09474000  0.21500000  1.0 1.1669262331
Cu  Cu2  1  0.64910000  0.59474000  0.28500000  1.0 1.1669262331
Cu  Cu3  1  0.64910000  0.90526000  0.78500000  1.0 1.1669262331
Cu  Cu4  1  0.35090000  0.40526000  0.71500000  1.0 1.1669262331
Cu  Cu5  1  0.89170000  0.06834000  0.92920000  1.0 1.1087218504
Cu  Cu6  1  0.10830000  0.56834000  0.57080000  1.0 1.1087218504
Cu  Cu7  1  0.10830000  0.93166000  0.07080000  1.0 1.1087218504
Cu  Cu8  1  0.89170000  0.43166000  0.42920000  1.0 1.1087218504
H  H1  1  0.38720000  0.30960000  0.16800000  1.0 0.1414324026
H  H2  1  0.61280000  0.80960000  0.33200000  1.0 0.1414324026
H  H3  1  0.61280000  0.69040000  0.83200000  1.0 0.1414324026
H  H4  1  0.38720000  0.19040000  0.66800000  1.0 0.1414324026
H  H5  1  0.86250000  0.29340000  0.80270000  1.0 0.149473479
H  H6  1  0.13750000  0.79340000  0.69730000  1.0 0.149473479
H  H7  1  0.13750000  0.70660000  0.19730000  1.0 0.149473479
H  H8  1  0.86250000  0.20660000  0.30270000  1.0 0.149473479
H  H9  1  0.16930000  0.48930000  0.94630000  1.0 0.149473479
H  H10  1  0.83070000  0.98930000  0.55370000  1.0 0.149473479
H  H11  1  0.83070000  0.51070000  0.05370000  1.0 0.149473479
H  H12  1  0.16930000  0.01070000  0.44630000  1.0 0.149473479
C  C1  1  0.99640000  0.39640000  0.85140000  1.0 -0.0068552138
C  C2  1  0.00360000  0.89640000  0.64860000  1.0 -0.0068552138
C  C3  1  0.00360000  0.60360000  0.14860000  1.0 -0.0068552138
C  C4  1  0.99640000  0.10360000  0.35140000  1.0 -0.0068552138
C  C5  1  0.30200000  0.40550000  0.06700000  1.0 -0.0068552138
C  C6  1  0.69800000  0.90550000  0.43300000  1.0 -0.0038611489
C  C7  1  0.69800000  0.59450000  0.93300000  1.0 -0.0038611489
C  C8  1  0.30200000  0.09450000  0.56700000  1.0 -0.0068552138
C  C9  1  0.28900000  0.33100000  0.08800000  1.0 -0.0631056112
C  C10  1  0.71100000  0.83100000  0.41200000  1.0 -0.0631056112
C  C11  1  0.71100000  0.66900000  0.91200000  1.0 -0.0631056112
C  C12  1  0.28900000  0.16900000  0.58800000  1.0 -0.0631056112
C  C13  1  0.12410000  0.28850000  0.98510000  1.0 0.0035857448
C  C14  1  0.87590000  0.78850000  0.51490000  1.0 0.0035857448
C  C15  1  0.87590000  0.71150000  0.01490000  1.0 0.0035857448
C  C16  1  0.12410000  0.21150000  0.48510000  1.0 0.0035857448
C  C17  1  0.10860000  0.20700000  0.00460000  1.0 0.6069180052
C  C18  1  0.89140000  0.70700000  0.49540000  1.0 0.6069180052
C  C19  1  0.89140000  0.79300000  0.99540000  1.0 0.6069180052
C  C20  1  0.10860000  0.29300000  0.50460000  1.0 0.6069180052
C  C21  1  0.97620000  0.32080000  0.86920000  1.0 -0.0887582461
C  C22  1  0.02380000  0.82080000  0.63080000  1.0 -0.0887582461
C  C23  1  0.02380000  0.67920000  0.13080000  1.0 -0.0887582461
C  C24  1  0.97620000  0.17920000  0.36920000  1.0 -0.0887582461
C  C25  1  0.16100000  0.43880000  0.95600000  1.0 -0.0887582461
C  C26  1  0.83900000  0.93880000  0.54400000  1.0 -0.0887582461
C  C27  1  0.83900000  0.56120000  0.04400000  1.0 -0.0887582461
C  C28  1  0.16100000  0.06120000  0.45600000  1.0 -0.0887582461
C  C29  1  0.49000000  0.44670000  0.18500000  1.0 0.6069180052
C  C30  1  0.51000000  0.94670000  0.31500000  1.0 0.6069180052
C  C31  1  0.51000000  0.55330000  0.81500000  1.0 0.6069180052
C  C32  1  0.49000000  0.05330000  0.68500000  1.0 0.6069180052
S  S1  1  0.81740000  0.43500000  0.69070000  1.0 1.1669262331
S  S2  1  0.18260000  0.93500000  0.80930000  1.0 1.1669262331
S  S3  1  0.18260000  0.56500000  0.30930000  1.0 1.1669262331
S  S4  1  0.81740000  0.06500000  0.19070000  1.0 1.1669262331
O  O1  1  0.97460000  0.16820000  0.91560000  1.0 -0.4643095751
O  O2  1  0.02540000  0.66820000  0.58440000  1.0 -0.4657060821
O  O3  1  0.02540000  0.83180000  0.08440000  1.0 -0.4657060821
O  O4  1  0.97460000  0.33180000  0.41560000  1.0 -0.4643095751
O  O5  1  0.18510000  0.03430000  0.05540000  1.0 -0.8912196476
O  O6  1  0.81490000  0.53430000  0.44460000  1.0 -0.8954361994
O  O7  1  0.81490000  0.96570000  0.94460000  1.0 -0.8912196476
O  O8  1  0.18510000  0.46570000  0.55540000  1.0 -0.8912196476
O  O9  1  0.50500000  0.51450000  0.16020000  1.0 -0.5092939588
O  O10  1  0.49500000  0.01450000  0.33980000  1.0 -0.5092939588
O  O11  1  0.49500000  0.48550000  0.83980000  1.0 -0.5092939588
O  O12  1  0.50500000  0.98550000  0.66020000  1.0 -0.5092939588
O  O13  1  0.24740000  0.18660000  0.12580000  1.0 -0.5092939588
O  O14  1  0.75260000  0.68660000  0.37420000  1.0 -0.5092939588
O  O15  1  0.75260000  0.81340000  0.87420000  1.0 -0.5092939588
O  O16  1  0.24740000  0.31340000  0.62580000  1.0 -0.5092939588
O  O17  1  0.84920000  0.51280000  0.70120000  1.0 -0.5092939588
O  O18  1  0.15080000  0.01280000  0.79880000  1.0 -0.503052167
O  O19  1  0.15080000  0.48720000  0.29880000  1.0 -0.503052167
O  O20  1  0.84920000  0.98720000  0.20120000  1.0 -0.503052167
O  O21  1  0.60450000  0.41040000  0.27750000  1.0 -0.4321332742
O  O22  1  0.39550000  0.91040000  0.22250000  1.0 -0.4321332742
O  O23  1  0.39550000  0.58960000  0.72250000  1.0 -0.4321332742
O  O24  1  0.60450000  0.08960000  0.77750000  1.0 -0.4321332742
O  O25  1  0.88370000  0.40100000  0.60940000  1.0 -0.6294369567
O  O26  1  0.11630000  0.90100000  0.89060000  1.0 -0.6294369567
O  O27  1  0.11630000  0.59900000  0.39060000  1.0 -0.6294369567
O  O28  1  0.88370000  0.09900000  0.10940000  1.0 -0.6294369567
O  O29  1  0.59730000  0.41000000  0.64400000  1.0 -0.5601719637
O  O30  1  0.40270000  0.91000000  0.85600000  1.0 -0.5601719637
O  O31  1  0.40270000  0.59000000  0.35600000  1.0 -0.5601719637
O  O32  1  0.59730000  0.09000000  0.14400000  1.0 -0.5601719637
O  O33  1  0.50620000  0.15560000  0.38340000  1.0 -0.3520811219
O  O34  1  0.49380000  0.65560000  0.11660000  1.0 -0.3430604159
O  O35  1  0.49380000  0.84440000  0.61660000  1.0 -0.3430604159
O  O36  1  0.50620000  0.34440000  0.88340000  1.0 -0.3430604159
