# DDEC6 charges by PACMAN v1.1 (https://github.com/mtap-research/PACMAN-charge/)
data_LUTCAF_FSR_pacman
_symmetry_space_group_name_H-M   'P 1'
_cell_length_a   7.27100000
_cell_length_b   18.06100000
_cell_length_c   12.09080000
_cell_angle_alpha   90.00000000
_cell_angle_beta   122.61600000
_cell_angle_gamma   90.00000000
_symmetry_Int_Tables_number   1
_chemical_formula_structural   Cu2H3C8SO9
_chemical_formula_sum   'Cu8 H12 C32 S4 O36'
_cell_volume   1337.39212195
_cell_formula_units_Z   4
loop_
 _symmetry_equiv_pos_site_id
 _symmetry_equiv_pos_as_xyz
  1  'x, y, z'
loop_
 _atom_site_type_symbol
 _atom_site_label
 _atom_site_symmetry_multiplicity
 _atom_site_fract_x
 _atom_site_fract_y
 _atom_site_fract_z
 _atom_site_occupancy
 _atom_site_charge
Cu  Cu1  1  0.35139000  0.09445000  0.21454000  1.0 1.1563741458
Cu  Cu2  1  0.64861000  0.59445000  0.28546000  1.0 1.1563741458
Cu  Cu3  1  0.64861000  0.90555000  0.78546000  1.0 1.1563741458
Cu  Cu4  1  0.35139000  0.40555000  0.71454000  1.0 1.1563741458
Cu  Cu5  1  0.89262000  0.06840000  0.92917000  1.0 1.1354945196
Cu  Cu6  1  0.10738000  0.56840000  0.57083000  1.0 1.1354945196
Cu  Cu7  1  0.10738000  0.93160000  0.07083000  1.0 1.1348183645
Cu  Cu8  1  0.89262000  0.43160000  0.42917000  1.0 1.1348183645
H  H1  1  0.38720000  0.30840000  0.16480000  1.0 0.1409235137
H  H2  1  0.61280000  0.80840000  0.33520000  1.0 0.1409235137
H  H3  1  0.61280000  0.69160000  0.83520000  1.0 0.1409235137
H  H4  1  0.38720000  0.19160000  0.66480000  1.0 0.1409235137
H  H5  1  0.86490000  0.29350000  0.79840000  1.0 0.1409235137
H  H6  1  0.13510000  0.79350000  0.70160000  1.0 0.1409235137
H  H7  1  0.13510000  0.70650000  0.20160000  1.0 0.1409235137
H  H8  1  0.86490000  0.20650000  0.29840000  1.0 0.1409235137
H  H9  1  0.16460000  0.48870000  0.93750000  1.0 0.1469582064
H  H10  1  0.83540000  0.98870000  0.56250000  1.0 0.1469582064
H  H11  1  0.83540000  0.51130000  0.06250000  1.0 0.1469582064
H  H12  1  0.16460000  0.01130000  0.43750000  1.0 0.1469582064
C  C1  1  0.99480000  0.39590000  0.84950000  1.0 -0.0619621746
C  C2  1  0.00520000  0.89590000  0.65050000  1.0 -0.0619621746
C  C3  1  0.00520000  0.60410000  0.15050000  1.0 -0.0619621746
C  C4  1  0.99480000  0.10410000  0.34950000  1.0 -0.0619621746
C  C5  1  0.30390000  0.40510000  0.06930000  1.0 -0.0210697867
C  C6  1  0.69610000  0.90510000  0.43070000  1.0 -0.0210697867
C  C7  1  0.69610000  0.59490000  0.93070000  1.0 -0.0210697867
C  C8  1  0.30390000  0.09490000  0.56930000  1.0 -0.0210697867
C  C9  1  0.28660000  0.33050000  0.08490000  1.0 -0.0691562997
C  C10  1  0.71340000  0.83050000  0.41510000  1.0 -0.0691562997
C  C11  1  0.71340000  0.66950000  0.91510000  1.0 -0.0691562997
C  C12  1  0.28660000  0.16950000  0.58490000  1.0 -0.0691562997
C  C13  1  0.12450000  0.28740000  0.98570000  1.0 -0.0210697867
C  C14  1  0.87550000  0.78740000  0.51430000  1.0 -0.0210697867
C  C15  1  0.87550000  0.71260000  0.01430000  1.0 -0.0210697867
C  C16  1  0.12450000  0.21260000  0.48570000  1.0 -0.0210697867
C  C17  1  0.11180000  0.20780000  0.00830000  1.0 0.6025614782
C  C18  1  0.88820000  0.70780000  0.49170000  1.0 0.6025614782
C  C19  1  0.88820000  0.79220000  0.99170000  1.0 0.6025614782
C  C20  1  0.11180000  0.29220000  0.50830000  1.0 0.6025614782
C  C21  1  0.97620000  0.32110000  0.86650000  1.0 -0.0619621746
C  C22  1  0.02380000  0.82110000  0.63350000  1.0 -0.0619621746
C  C23  1  0.02380000  0.67890000  0.13350000  1.0 -0.0619621746
C  C24  1  0.97620000  0.17890000  0.36650000  1.0 -0.0619621746
C  C25  1  0.15530000  0.43830000  0.94960000  1.0 -0.0691562997
C  C26  1  0.84470000  0.93830000  0.55040000  1.0 -0.0691562997
C  C27  1  0.84470000  0.56170000  0.05040000  1.0 -0.0691562997
C  C28  1  0.15530000  0.06170000  0.44960000  1.0 -0.0691562997
C  C29  1  0.48760000  0.44680000  0.17910000  1.0 0.6025614782
C  C30  1  0.51240000  0.94680000  0.32090000  1.0 0.6025614782
C  C31  1  0.51240000  0.55320000  0.82090000  1.0 0.6025614782
C  C32  1  0.48760000  0.05320000  0.67910000  1.0 0.6025614782
S  S1  1  0.81969000  0.43516000  0.69189000  1.0 1.169799496
S  S2  1  0.18031000  0.93516000  0.80811000  1.0 1.169799496
S  S3  1  0.18031000  0.56484000  0.30811000  1.0 1.169799496
S  S4  1  0.81969000  0.06484000  0.19189000  1.0 1.169799496
O  O1  1  0.97270000  0.16800000  0.91560000  1.0 -0.4799129473
O  O2  1  0.02730000  0.66800000  0.58440000  1.0 -0.4799129473
O  O3  1  0.02730000  0.83200000  0.08440000  1.0 -0.4799129473
O  O4  1  0.97270000  0.33200000  0.41560000  1.0 -0.4799129473
O  O5  1  0.18840000  0.03420000  0.05730000  1.0 -0.8912185834
O  O6  1  0.81160000  0.53420000  0.44270000  1.0 -0.8912185834
O  O7  1  0.81160000  0.96580000  0.94270000  1.0 -0.8912185834
O  O8  1  0.18840000  0.46580000  0.55730000  1.0 -0.8912185834
O  O9  1  0.50750000  0.51420000  0.16250000  1.0 -0.4884579772
O  O10  1  0.49250000  0.01420000  0.33750000  1.0 -0.4884579772
O  O11  1  0.49250000  0.48580000  0.83750000  1.0 -0.4884579772
O  O12  1  0.50750000  0.98580000  0.66250000  1.0 -0.4884579772
O  O13  1  0.24900000  0.18610000  0.12290000  1.0 -0.4799129473
O  O14  1  0.75100000  0.68610000  0.37710000  1.0 -0.4799129473
O  O15  1  0.75100000  0.81390000  0.87710000  1.0 -0.4799129473
O  O16  1  0.24900000  0.31390000  0.62290000  1.0 -0.4799129473
O  O17  1  0.84930000  0.51320000  0.70200000  1.0 -0.4884579772
O  O18  1  0.15070000  0.01320000  0.79800000  1.0 -0.4884579772
O  O19  1  0.15070000  0.48680000  0.29800000  1.0 -0.4884579772
O  O20  1  0.84930000  0.98680000  0.20200000  1.0 -0.4884579772
O  O21  1  0.61020000  0.41060000  0.28220000  1.0 -0.4799129473
O  O22  1  0.38980000  0.91060000  0.21780000  1.0 -0.4799129473
O  O23  1  0.38980000  0.58940000  0.71780000  1.0 -0.4799129473
O  O24  1  0.61020000  0.08940000  0.78220000  1.0 -0.4799129473
O  O25  1  0.88890000  0.40150000  0.61330000  1.0 -0.5993399875
O  O26  1  0.11110000  0.90150000  0.88670000  1.0 -0.5993399875
O  O27  1  0.11110000  0.59850000  0.38670000  1.0 -0.5993399875
O  O28  1  0.88890000  0.09850000  0.11330000  1.0 -0.5993399875
O  O29  1  0.60410000  0.41050000  0.64910000  1.0 -0.5240534501
O  O30  1  0.39590000  0.91050000  0.85090000  1.0 -0.5240534501
O  O31  1  0.39590000  0.58950000  0.35090000  1.0 -0.5240534501
O  O32  1  0.60410000  0.08950000  0.14910000  1.0 -0.5240534501
O  O33  1  0.49720000  0.15630000  0.37480000  1.0 -0.3571671354
O  O34  1  0.50280000  0.65630000  0.12520000  1.0 -0.3669583308
O  O35  1  0.50280000  0.84370000  0.62520000  1.0 -0.3571671354
O  O36  1  0.49720000  0.34370000  0.87480000  1.0 -0.3571671354
