# DDEC6 charges by PACMAN v1.1 (https://github.com/mtap-research/PACMAN-charge/)
data_LUTZEH_ASR_pacman
_symmetry_space_group_name_H-M   'P 1'
_cell_length_a   33.46450000
_cell_length_b   33.46450000
_cell_length_c   33.46450000
_cell_angle_alpha   60.00000000
_cell_angle_beta   60.00000000
_cell_angle_gamma   60.00000000
_symmetry_Int_Tables_number   1
_chemical_formula_structural   CuH2C26(OF4)4
_chemical_formula_sum   'Cu12 H24 C312 O48 F192'
_cell_volume   26499.52099349
_cell_formula_units_Z   12
loop_
 _symmetry_equiv_pos_site_id
 _symmetry_equiv_pos_as_xyz
  1  'x, y, z'
loop_
 _atom_site_type_symbol
 _atom_site_label
 _atom_site_symmetry_multiplicity
 _atom_site_fract_x
 _atom_site_fract_y
 _atom_site_fract_z
 _atom_site_occupancy
 _atom_site_charge
Cu  Cu1  1  0.00000000  0.00000000  0.45976000  1.0 0.7259667253
Cu  Cu2  1  0.00000000  0.00000000  0.54024000  1.0 0.7259667253
Cu  Cu3  1  0.45976000  0.54024000  0.00000000  1.0 0.7259667253
Cu  Cu4  1  0.54024000  0.45976000  0.00000000  1.0 0.7259667253
Cu  Cu5  1  0.45976000  0.00000000  0.00000000  1.0 0.7259667253
Cu  Cu6  1  0.54024000  0.00000000  0.00000000  1.0 0.7259667253
Cu  Cu7  1  0.00000000  0.45976000  0.54024000  1.0 0.7259667253
Cu  Cu8  1  0.00000000  0.54024000  0.45976000  1.0 0.7259667253
Cu  Cu9  1  0.00000000  0.45976000  0.00000000  1.0 0.7259667253
Cu  Cu10  1  0.00000000  0.54024000  0.00000000  1.0 0.7259667253
Cu  Cu11  1  0.54024000  0.00000000  0.45976000  1.0 0.7259667253
Cu  Cu12  1  0.45976000  0.00000000  0.54024000  1.0 0.7259667253
H  H1  1  0.30330000  0.97170000  0.30330000  1.0 0.1461776208
H  H2  1  0.97170000  0.30330000  0.42170000  1.0 0.1461776208
H  H3  1  0.30330000  0.42170000  0.30330000  1.0 0.1461776208
H  H4  1  0.42170000  0.30330000  0.97170000  1.0 0.1461776208
H  H5  1  0.30330000  0.30330000  0.97170000  1.0 0.1461776208
H  H6  1  0.42170000  0.97170000  0.30330000  1.0 0.1461776208
H  H7  1  0.30330000  0.30330000  0.42170000  1.0 0.1461776208
H  H8  1  0.97170000  0.42170000  0.30330000  1.0 0.1461776208
H  H9  1  0.97170000  0.30330000  0.30330000  1.0 0.1461776208
H  H10  1  0.30330000  0.42170000  0.97170000  1.0 0.1461776208
H  H11  1  0.42170000  0.30330000  0.30330000  1.0 0.1461776208
H  H12  1  0.30330000  0.97170000  0.42170000  1.0 0.1461776208
H  H13  1  0.69670000  0.02830000  0.57830000  1.0 0.1461776208
H  H14  1  0.02830000  0.69670000  0.69670000  1.0 0.1461776208
H  H15  1  0.69670000  0.57830000  0.02830000  1.0 0.1461776208
H  H16  1  0.57830000  0.69670000  0.69670000  1.0 0.1461776208
H  H17  1  0.69670000  0.69670000  0.57830000  1.0 0.1461776208
H  H18  1  0.57830000  0.02830000  0.69670000  1.0 0.1461776208
H  H19  1  0.69670000  0.69670000  0.02830000  1.0 0.1461776208
H  H20  1  0.02830000  0.57830000  0.69670000  1.0 0.1461776208
H  H21  1  0.02830000  0.69670000  0.57830000  1.0 0.1461776208
H  H22  1  0.69670000  0.57830000  0.69670000  1.0 0.1461776208
H  H23  1  0.57830000  0.69670000  0.02830000  1.0 0.1461776208
H  H24  1  0.69670000  0.02830000  0.69670000  1.0 0.1461776208
C  C1  1  0.08828000  0.98812000  0.46180000  1.0 0.5621640096
C  C2  1  0.98812000  0.08828000  0.46180000  1.0 0.5621640096
C  C3  1  0.46180000  0.46180000  0.08828000  1.0 0.5621640096
C  C4  1  0.46180000  0.46180000  0.98812000  1.0 0.5621640096
C  C5  1  0.46180000  0.08828000  0.98812000  1.0 0.5621640096
C  C6  1  0.46180000  0.98812000  0.08828000  1.0 0.5621640096
C  C7  1  0.08828000  0.46180000  0.46180000  1.0 0.5621640096
C  C8  1  0.98812000  0.46180000  0.46180000  1.0 0.5621640096
C  C9  1  0.98812000  0.46180000  0.08828000  1.0 0.5621640096
C  C10  1  0.08828000  0.46180000  0.98812000  1.0 0.5621640096
C  C11  1  0.46180000  0.08828000  0.46180000  1.0 0.5621640096
C  C12  1  0.46180000  0.98812000  0.46180000  1.0 0.5621640096
C  C13  1  0.91172000  0.01188000  0.53820000  1.0 0.5621640096
C  C14  1  0.01188000  0.91172000  0.53820000  1.0 0.5621640096
C  C15  1  0.53820000  0.53820000  0.01188000  1.0 0.5621640096
C  C16  1  0.53820000  0.53820000  0.91172000  1.0 0.5621640096
C  C17  1  0.53820000  0.91172000  0.53820000  1.0 0.5621640096
C  C18  1  0.53820000  0.01188000  0.53820000  1.0 0.5621640096
C  C19  1  0.91172000  0.53820000  0.01188000  1.0 0.5621640096
C  C20  1  0.01188000  0.53820000  0.91172000  1.0 0.5621640096
C  C21  1  0.01188000  0.53820000  0.53820000  1.0 0.5621640096
C  C22  1  0.91172000  0.53820000  0.53820000  1.0 0.5621640096
C  C23  1  0.53820000  0.91172000  0.01188000  1.0 0.5621640096
C  C24  1  0.53820000  0.01188000  0.91172000  1.0 0.5621640096
C  C25  1  0.14296000  0.98184000  0.43760000  1.0 -0.0901572388
C  C26  1  0.98184000  0.14296000  0.43760000  1.0 -0.0901572388
C  C27  1  0.43760000  0.43760000  0.14296000  1.0 -0.0901572388
C  C28  1  0.43760000  0.43760000  0.98184000  1.0 -0.0901572388
C  C29  1  0.43760000  0.14296000  0.98184000  1.0 -0.0901572388
C  C30  1  0.43760000  0.98184000  0.14296000  1.0 -0.0901572388
C  C31  1  0.14296000  0.43760000  0.43760000  1.0 -0.0901572388
C  C32  1  0.98184000  0.43760000  0.43760000  1.0 -0.0901572388
C  C33  1  0.98184000  0.43760000  0.14296000  1.0 -0.0901572388
C  C34  1  0.14296000  0.43760000  0.98184000  1.0 -0.0901572388
C  C35  1  0.43760000  0.14296000  0.43760000  1.0 -0.0901572388
C  C36  1  0.43760000  0.98184000  0.43760000  1.0 -0.0901572388
C  C37  1  0.85704000  0.01816000  0.56240000  1.0 -0.0901572388
C  C38  1  0.01816000  0.85704000  0.56240000  1.0 -0.0901572388
C  C39  1  0.56240000  0.56240000  0.01816000  1.0 -0.0901572388
C  C40  1  0.56240000  0.56240000  0.85704000  1.0 -0.0901572388
C  C41  1  0.56240000  0.85704000  0.56240000  1.0 -0.0901572388
C  C42  1  0.56240000  0.01816000  0.56240000  1.0 -0.0901572388
C  C43  1  0.85704000  0.56240000  0.01816000  1.0 -0.0901572388
C  C44  1  0.01816000  0.56240000  0.85704000  1.0 -0.0901572388
C  C45  1  0.01816000  0.56240000  0.56240000  1.0 -0.0901572388
C  C46  1  0.85704000  0.56240000  0.56240000  1.0 -0.0901572388
C  C47  1  0.56240000  0.85704000  0.01816000  1.0 -0.0901572388
C  C48  1  0.56240000  0.01816000  0.85704000  1.0 -0.0901572388
C  C49  1  0.15690000  0.01570000  0.39150000  1.0 0.118201499
C  C50  1  0.01570000  0.15690000  0.43590000  1.0 0.118201499
C  C51  1  0.39150000  0.43590000  0.15690000  1.0 0.118201499
C  C52  1  0.43590000  0.39150000  0.01570000  1.0 0.118201499
C  C53  1  0.39150000  0.15690000  0.01570000  1.0 0.118201499
C  C54  1  0.43590000  0.01570000  0.15690000  1.0 0.118201499
C  C55  1  0.15690000  0.39150000  0.43590000  1.0 0.118201499
C  C56  1  0.01570000  0.43590000  0.39150000  1.0 0.118201499
C  C57  1  0.01570000  0.39150000  0.15690000  1.0 0.118201499
C  C58  1  0.15690000  0.43590000  0.01570000  1.0 0.118201499
C  C59  1  0.43590000  0.15690000  0.39150000  1.0 0.118201499
C  C60  1  0.39150000  0.01570000  0.43590000  1.0 0.118201499
C  C61  1  0.84310000  0.98430000  0.56410000  1.0 0.118201499
C  C62  1  0.98430000  0.84310000  0.60850000  1.0 0.118201499
C  C63  1  0.60850000  0.56410000  0.98430000  1.0 0.118201499
C  C64  1  0.56410000  0.60850000  0.84310000  1.0 0.118201499
C  C65  1  0.60850000  0.84310000  0.56410000  1.0 0.118201499
C  C66  1  0.56410000  0.98430000  0.60850000  1.0 0.118201499
C  C67  1  0.84310000  0.60850000  0.98430000  1.0 0.118201499
C  C68  1  0.98430000  0.56410000  0.84310000  1.0 0.118201499
C  C69  1  0.98430000  0.60850000  0.56410000  1.0 0.118201499
C  C70  1  0.84310000  0.56410000  0.60850000  1.0 0.118201499
C  C71  1  0.56410000  0.84310000  0.98430000  1.0 0.118201499
C  C72  1  0.60850000  0.98430000  0.84310000  1.0 0.118201499
C  C73  1  0.84310000  0.98430000  0.60850000  1.0 0.118201499
C  C74  1  0.98430000  0.84310000  0.56410000  1.0 0.118201499
C  C75  1  0.60850000  0.56410000  0.84310000  1.0 0.118201499
C  C76  1  0.56410000  0.60850000  0.98430000  1.0 0.118201499
C  C77  1  0.60850000  0.84310000  0.98430000  1.0 0.118201499
C  C78  1  0.56410000  0.98430000  0.84310000  1.0 0.118201499
C  C79  1  0.84310000  0.60850000  0.56410000  1.0 0.118201499
C  C80  1  0.98430000  0.56410000  0.60850000  1.0 0.118201499
C  C81  1  0.98430000  0.60850000  0.84310000  1.0 0.118201499
C  C82  1  0.84310000  0.56410000  0.98430000  1.0 0.118201499
C  C83  1  0.56410000  0.84310000  0.60850000  1.0 0.118201499
C  C84  1  0.60850000  0.98430000  0.56410000  1.0 0.118201499
C  C85  1  0.15690000  0.01570000  0.43590000  1.0 0.118201499
C  C86  1  0.01570000  0.15690000  0.39150000  1.0 0.118201499
C  C87  1  0.39150000  0.43590000  0.01570000  1.0 0.118201499
C  C88  1  0.43590000  0.39150000  0.15690000  1.0 0.118201499
C  C89  1  0.39150000  0.15690000  0.43590000  1.0 0.118201499
C  C90  1  0.43590000  0.01570000  0.39150000  1.0 0.118201499
C  C91  1  0.15690000  0.39150000  0.01570000  1.0 0.118201499
C  C92  1  0.01570000  0.43590000  0.15690000  1.0 0.118201499
C  C93  1  0.01570000  0.39150000  0.43590000  1.0 0.118201499
C  C94  1  0.15690000  0.43590000  0.39150000  1.0 0.118201499
C  C95  1  0.43590000  0.15690000  0.01570000  1.0 0.118201499
C  C96  1  0.39150000  0.01570000  0.15690000  1.0 0.118201499
C  C97  1  0.20590000  0.01250000  0.36770000  1.0 0.1012913739
C  C98  1  0.01250000  0.20590000  0.41390000  1.0 0.1012913739
C  C99  1  0.36770000  0.41390000  0.20590000  1.0 0.1012913739
C  C100  1  0.41390000  0.36770000  0.01250000  1.0 0.1012913739
C  C101  1  0.36770000  0.20590000  0.01250000  1.0 0.1012913739
C  C102  1  0.41390000  0.01250000  0.20590000  1.0 0.1012913739
C  C103  1  0.20590000  0.36770000  0.41390000  1.0 0.1012913739
C  C104  1  0.01250000  0.41390000  0.36770000  1.0 0.1012913739
C  C105  1  0.01250000  0.36770000  0.20590000  1.0 0.1012913739
C  C106  1  0.20590000  0.41390000  0.01250000  1.0 0.1012913739
C  C107  1  0.41390000  0.20590000  0.36770000  1.0 0.1012913739
C  C108  1  0.36770000  0.01250000  0.41390000  1.0 0.1012913739
C  C109  1  0.79410000  0.98750000  0.58610000  1.0 0.1012913739
C  C110  1  0.98750000  0.79410000  0.63230000  1.0 0.1012913739
C  C111  1  0.63230000  0.58610000  0.98750000  1.0 0.1012913739
C  C112  1  0.58610000  0.63230000  0.79410000  1.0 0.1012913739
C  C113  1  0.63230000  0.79410000  0.58610000  1.0 0.1012913739
C  C114  1  0.58610000  0.98750000  0.63230000  1.0 0.1012913739
C  C115  1  0.79410000  0.63230000  0.98750000  1.0 0.1012913739
C  C116  1  0.98750000  0.58610000  0.79410000  1.0 0.1012913739
C  C117  1  0.98750000  0.63230000  0.58610000  1.0 0.1012913739
C  C118  1  0.79410000  0.58610000  0.63230000  1.0 0.1012913739
C  C119  1  0.58610000  0.79410000  0.98750000  1.0 0.1012913739
C  C120  1  0.63230000  0.98750000  0.79410000  1.0 0.1012913739
C  C121  1  0.79410000  0.98750000  0.63230000  1.0 0.1060269802
C  C122  1  0.98750000  0.79410000  0.58610000  1.0 0.1060269802
C  C123  1  0.63230000  0.58610000  0.79410000  1.0 0.1060269802
C  C124  1  0.58610000  0.63230000  0.98750000  1.0 0.1060269802
C  C125  1  0.63230000  0.79410000  0.98750000  1.0 0.1060269802
C  C126  1  0.58610000  0.98750000  0.79410000  1.0 0.1060269802
C  C127  1  0.79410000  0.63230000  0.58610000  1.0 0.1060269802
C  C128  1  0.98750000  0.58610000  0.63230000  1.0 0.1060269802
C  C129  1  0.98750000  0.63230000  0.79410000  1.0 0.1060269802
C  C130  1  0.79410000  0.58610000  0.98750000  1.0 0.1060269802
C  C131  1  0.58610000  0.79410000  0.63230000  1.0 0.1060269802
C  C132  1  0.63230000  0.98750000  0.58610000  1.0 0.1060269802
C  C133  1  0.20590000  0.01250000  0.41390000  1.0 0.1060269802
C  C134  1  0.01250000  0.20590000  0.36770000  1.0 0.1060269802
C  C135  1  0.36770000  0.41390000  0.01250000  1.0 0.1060269802
C  C136  1  0.41390000  0.36770000  0.20590000  1.0 0.1060269802
C  C137  1  0.36770000  0.20590000  0.41390000  1.0 0.1060269802
C  C138  1  0.41390000  0.01250000  0.36770000  1.0 0.1060269802
C  C139  1  0.20590000  0.36770000  0.01250000  1.0 0.1060269802
C  C140  1  0.01250000  0.41390000  0.20590000  1.0 0.1060269802
C  C141  1  0.01250000  0.36770000  0.41390000  1.0 0.1060269802
C  C142  1  0.20590000  0.41390000  0.36770000  1.0 0.1060269802
C  C143  1  0.41390000  0.20590000  0.01250000  1.0 0.1060269802
C  C144  1  0.36770000  0.01250000  0.20590000  1.0 0.1060269802
C  C145  1  0.24200000  0.97420000  0.39120000  1.0 -0.029657427
C  C146  1  0.97420000  0.24200000  0.39260000  1.0 -0.029657427
C  C147  1  0.39120000  0.39260000  0.24200000  1.0 -0.029657427
C  C148  1  0.39260000  0.39120000  0.97420000  1.0 -0.029657427
C  C149  1  0.39120000  0.24200000  0.97420000  1.0 -0.029657427
C  C150  1  0.39260000  0.97420000  0.24200000  1.0 -0.029657427
C  C151  1  0.24200000  0.39120000  0.39260000  1.0 -0.029657427
C  C152  1  0.97420000  0.39260000  0.39120000  1.0 -0.029657427
C  C153  1  0.97420000  0.39120000  0.24200000  1.0 -0.029657427
C  C154  1  0.24200000  0.39260000  0.97420000  1.0 -0.029657427
C  C155  1  0.39260000  0.24200000  0.39120000  1.0 -0.029657427
C  C156  1  0.39120000  0.97420000  0.39260000  1.0 -0.029657427
C  C157  1  0.75800000  0.02580000  0.60740000  1.0 -0.029657427
C  C158  1  0.02580000  0.75800000  0.60880000  1.0 -0.029657427
C  C159  1  0.60880000  0.60740000  0.02580000  1.0 -0.029657427
C  C160  1  0.60740000  0.60880000  0.75800000  1.0 -0.029657427
C  C161  1  0.60880000  0.75800000  0.60740000  1.0 -0.029657427
C  C162  1  0.60740000  0.02580000  0.60880000  1.0 -0.029657427
C  C163  1  0.75800000  0.60880000  0.02580000  1.0 -0.029657427
C  C164  1  0.02580000  0.60740000  0.75800000  1.0 -0.029657427
C  C165  1  0.02580000  0.60880000  0.60740000  1.0 -0.029657427
C  C166  1  0.75800000  0.60740000  0.60880000  1.0 -0.029657427
C  C167  1  0.60740000  0.75800000  0.02580000  1.0 -0.029657427
C  C168  1  0.60880000  0.02580000  0.75800000  1.0 -0.029657427
C  C169  1  0.22640000  0.94200000  0.43580000  1.0 0.0699224462
C  C170  1  0.94200000  0.22640000  0.39580000  1.0 0.0699224462
C  C171  1  0.43580000  0.39580000  0.22640000  1.0 0.0699224462
C  C172  1  0.39580000  0.43580000  0.94200000  1.0 0.0699224462
C  C173  1  0.43580000  0.22640000  0.94200000  1.0 0.0699224462
C  C174  1  0.39580000  0.94200000  0.22640000  1.0 0.0699224462
C  C175  1  0.22640000  0.43580000  0.39580000  1.0 0.0699224462
C  C176  1  0.94200000  0.39580000  0.43580000  1.0 0.0699224462
C  C177  1  0.94200000  0.43580000  0.22640000  1.0 0.0699224462
C  C178  1  0.22640000  0.39580000  0.94200000  1.0 0.0699224462
C  C179  1  0.39580000  0.22640000  0.43580000  1.0 0.0699224462
C  C180  1  0.43580000  0.94200000  0.39580000  1.0 0.0699224462
C  C181  1  0.77360000  0.05800000  0.60420000  1.0 0.0699224462
C  C182  1  0.05800000  0.77360000  0.56420000  1.0 0.0699224462
C  C183  1  0.56420000  0.60420000  0.05800000  1.0 0.0699224462
C  C184  1  0.60420000  0.56420000  0.77360000  1.0 0.0699224462
C  C185  1  0.56420000  0.77360000  0.60420000  1.0 0.0699224462
C  C186  1  0.60420000  0.05800000  0.56420000  1.0 0.0699224462
C  C187  1  0.77360000  0.56420000  0.05800000  1.0 0.0699224462
C  C188  1  0.05800000  0.60420000  0.77360000  1.0 0.0699224462
C  C189  1  0.05800000  0.56420000  0.60420000  1.0 0.0699224462
C  C190  1  0.77360000  0.60420000  0.56420000  1.0 0.0699224462
C  C191  1  0.60420000  0.77360000  0.05800000  1.0 0.0699224462
C  C192  1  0.56420000  0.05800000  0.77360000  1.0 0.0699224462
C  C193  1  0.77360000  0.05800000  0.56420000  1.0 0.0699224462
C  C194  1  0.05800000  0.77360000  0.60420000  1.0 0.0699224462
C  C195  1  0.56420000  0.60420000  0.77360000  1.0 0.0699224462
C  C196  1  0.60420000  0.56420000  0.05800000  1.0 0.0699224462
C  C197  1  0.56420000  0.77360000  0.05800000  1.0 0.0699224462
C  C198  1  0.60420000  0.05800000  0.77360000  1.0 0.0699224462
C  C199  1  0.77360000  0.56420000  0.60420000  1.0 0.0699224462
C  C200  1  0.05800000  0.60420000  0.56420000  1.0 0.0699224462
C  C201  1  0.05800000  0.56420000  0.77360000  1.0 0.0699224462
C  C202  1  0.77360000  0.60420000  0.05800000  1.0 0.0699224462
C  C203  1  0.60420000  0.77360000  0.56420000  1.0 0.0699224462
C  C204  1  0.56420000  0.05800000  0.60420000  1.0 0.0699224462
C  C205  1  0.22640000  0.94200000  0.39580000  1.0 0.0699224462
C  C206  1  0.94200000  0.22640000  0.43580000  1.0 0.0699224462
C  C207  1  0.43580000  0.39580000  0.94200000  1.0 0.0699224462
C  C208  1  0.39580000  0.43580000  0.22640000  1.0 0.0699224462
C  C209  1  0.43580000  0.22640000  0.39580000  1.0 0.0699224462
C  C210  1  0.39580000  0.94200000  0.43580000  1.0 0.0699224462
C  C211  1  0.22640000  0.43580000  0.94200000  1.0 0.0699224462
C  C212  1  0.94200000  0.39580000  0.22640000  1.0 0.0699224462
C  C213  1  0.94200000  0.43580000  0.39580000  1.0 0.0699224462
C  C214  1  0.22640000  0.39580000  0.43580000  1.0 0.0699224462
C  C215  1  0.39580000  0.22640000  0.94200000  1.0 0.0699224462
C  C216  1  0.43580000  0.94200000  0.22640000  1.0 0.0699224462
C  C217  1  0.17740000  0.94520000  0.45960000  1.0 0.0946346816
C  C218  1  0.94520000  0.17740000  0.41780000  1.0 0.0946346816
C  C219  1  0.45960000  0.41780000  0.17740000  1.0 0.0946346816
C  C220  1  0.41780000  0.45960000  0.94520000  1.0 0.0946346816
C  C221  1  0.45960000  0.17740000  0.94520000  1.0 0.0946346816
C  C222  1  0.41780000  0.94520000  0.17740000  1.0 0.0946346816
C  C223  1  0.17740000  0.45960000  0.41780000  1.0 0.0946346816
C  C224  1  0.94520000  0.41780000  0.45960000  1.0 0.1012913739
C  C225  1  0.94520000  0.45960000  0.17740000  1.0 0.0946346816
C  C226  1  0.17740000  0.41780000  0.94520000  1.0 0.0946346816
C  C227  1  0.41780000  0.17740000  0.45960000  1.0 0.0946346816
C  C228  1  0.45960000  0.94520000  0.41780000  1.0 0.0946346816
C  C229  1  0.82260000  0.05480000  0.58220000  1.0 0.0946346816
C  C230  1  0.05480000  0.82260000  0.54040000  1.0 0.0946346816
C  C231  1  0.54040000  0.58220000  0.05480000  1.0 0.0946346816
C  C232  1  0.58220000  0.54040000  0.82260000  1.0 0.1012913739
C  C233  1  0.54040000  0.82260000  0.58220000  1.0 0.0946346816
C  C234  1  0.58220000  0.05480000  0.54040000  1.0 0.0946346816
C  C235  1  0.82260000  0.54040000  0.05480000  1.0 0.0946346816
C  C236  1  0.05480000  0.58220000  0.82260000  1.0 0.0946346816
C  C237  1  0.05480000  0.54040000  0.58220000  1.0 0.0946346816
C  C238  1  0.82260000  0.58220000  0.54040000  1.0 0.0946346816
C  C239  1  0.58220000  0.82260000  0.05480000  1.0 0.0946346816
C  C240  1  0.54040000  0.05480000  0.82260000  1.0 0.1012913739
C  C241  1  0.82260000  0.05480000  0.54040000  1.0 0.0946346816
C  C242  1  0.05480000  0.82260000  0.58220000  1.0 0.0946346816
C  C243  1  0.54040000  0.58220000  0.82260000  1.0 0.0946346816
C  C244  1  0.58220000  0.54040000  0.05480000  1.0 0.0946346816
C  C245  1  0.54040000  0.82260000  0.05480000  1.0 0.0946346816
C  C246  1  0.58220000  0.05480000  0.82260000  1.0 0.1012913739
C  C247  1  0.82260000  0.54040000  0.58220000  1.0 0.0946346816
C  C248  1  0.05480000  0.58220000  0.54040000  1.0 0.0946346816
C  C249  1  0.05480000  0.54040000  0.82260000  1.0 0.1012913739
C  C250  1  0.82260000  0.58220000  0.05480000  1.0 0.0946346816
C  C251  1  0.58220000  0.82260000  0.54040000  1.0 0.0946346816
C  C252  1  0.54040000  0.05480000  0.58220000  1.0 0.0946346816
C  C253  1  0.17740000  0.94520000  0.41780000  1.0 0.1012913739
C  C254  1  0.94520000  0.17740000  0.45960000  1.0 0.0946346816
C  C255  1  0.45960000  0.41780000  0.94520000  1.0 0.0946346816
C  C256  1  0.41780000  0.45960000  0.17740000  1.0 0.0946346816
C  C257  1  0.45960000  0.17740000  0.41780000  1.0 0.1012913739
C  C258  1  0.41780000  0.94520000  0.45960000  1.0 0.0946346816
C  C259  1  0.17740000  0.45960000  0.94520000  1.0 0.0946346816
C  C260  1  0.94520000  0.41780000  0.17740000  1.0 0.0946346816
C  C261  1  0.94520000  0.45960000  0.41780000  1.0 0.0946346816
C  C262  1  0.17740000  0.41780000  0.45960000  1.0 0.0946346816
C  C263  1  0.41780000  0.17740000  0.94520000  1.0 0.0946346816
C  C264  1  0.45960000  0.94520000  0.17740000  1.0 0.0946346816
C  C265  1  0.29508000  0.97152000  0.36670000  1.0 0.0807111544
C  C266  1  0.97152000  0.29508000  0.36670000  1.0 0.0807111544
C  C267  1  0.36670000  0.36670000  0.29508000  1.0 0.0807111544
C  C268  1  0.36670000  0.36670000  0.97152000  1.0 0.0807111544
C  C269  1  0.36670000  0.29508000  0.97152000  1.0 0.0807111544
C  C270  1  0.36670000  0.97152000  0.29508000  1.0 0.0807111544
C  C271  1  0.29508000  0.36670000  0.36670000  1.0 0.0807111544
C  C272  1  0.97152000  0.36670000  0.36670000  1.0 0.0807111544
C  C273  1  0.97152000  0.36670000  0.29508000  1.0 0.0807111544
C  C274  1  0.29508000  0.36670000  0.97152000  1.0 0.0807111544
C  C275  1  0.36670000  0.29508000  0.36670000  1.0 0.0807111544
C  C276  1  0.36670000  0.97152000  0.36670000  1.0 0.0807111544
C  C277  1  0.70492000  0.02848000  0.63330000  1.0 0.0807111544
C  C278  1  0.02848000  0.70492000  0.63330000  1.0 0.0807111544
C  C279  1  0.63330000  0.63330000  0.02848000  1.0 0.0807111544
C  C280  1  0.63330000  0.63330000  0.70492000  1.0 0.0807111544
C  C281  1  0.63330000  0.70492000  0.63330000  1.0 0.0807111544
C  C282  1  0.63330000  0.02848000  0.63330000  1.0 0.0807111544
C  C283  1  0.70492000  0.63330000  0.02848000  1.0 0.0807111544
C  C284  1  0.02848000  0.63330000  0.70492000  1.0 0.0807111544
C  C285  1  0.02848000  0.63330000  0.63330000  1.0 0.0807111544
C  C286  1  0.70492000  0.63330000  0.63330000  1.0 0.0807111544
C  C287  1  0.63330000  0.70492000  0.02848000  1.0 0.0807111544
C  C288  1  0.63330000  0.02848000  0.70492000  1.0 0.0807111544
C  C289  1  0.31940000  0.97156000  0.31940000  1.0 -0.1868229984
C  C290  1  0.97156000  0.31940000  0.38964000  1.0 -0.1836012616
C  C291  1  0.31940000  0.38964000  0.31940000  1.0 -0.1868229984
C  C292  1  0.38964000  0.31940000  0.97156000  1.0 -0.1868229984
C  C293  1  0.31940000  0.31940000  0.97156000  1.0 -0.1868229984
C  C294  1  0.38964000  0.97156000  0.31940000  1.0 -0.1868229984
C  C295  1  0.31940000  0.31940000  0.38964000  1.0 -0.1868229984
C  C296  1  0.97156000  0.38964000  0.31940000  1.0 -0.1868229984
C  C297  1  0.97156000  0.31940000  0.31940000  1.0 -0.1868229984
C  C298  1  0.31940000  0.38964000  0.97156000  1.0 -0.1868229984
C  C299  1  0.38964000  0.31940000  0.31940000  1.0 -0.1868229984
C  C300  1  0.31940000  0.97156000  0.38964000  1.0 -0.1868229984
C  C301  1  0.68060000  0.02844000  0.61036000  1.0 -0.1868229984
C  C302  1  0.02844000  0.68060000  0.68060000  1.0 -0.1868229984
C  C303  1  0.68060000  0.61036000  0.02844000  1.0 -0.1868229984
C  C304  1  0.61036000  0.68060000  0.68060000  1.0 -0.1868229984
C  C305  1  0.68060000  0.68060000  0.61036000  1.0 -0.1868229984
C  C306  1  0.61036000  0.02844000  0.68060000  1.0 -0.1868229984
C  C307  1  0.68060000  0.68060000  0.02844000  1.0 -0.1836012616
C  C308  1  0.02844000  0.61036000  0.68060000  1.0 -0.1868229984
C  C309  1  0.02844000  0.68060000  0.61036000  1.0 -0.1868229984
C  C310  1  0.68060000  0.61036000  0.68060000  1.0 -0.1868229984
C  C311  1  0.61036000  0.68060000  0.02844000  1.0 -0.1836012616
C  C312  1  0.68060000  0.02844000  0.68060000  1.0 -0.1868229984
O  O1  1  0.07064000  0.98850000  0.43740000  1.0 -0.444566993
O  O2  1  0.98850000  0.07064000  0.50346000  1.0 -0.444566993
O  O3  1  0.43740000  0.50346000  0.07064000  1.0 -0.444566993
O  O4  1  0.50346000  0.43740000  0.98850000  1.0 -0.444566993
O  O5  1  0.43740000  0.07064000  0.98850000  1.0 -0.444566993
O  O6  1  0.50346000  0.98850000  0.07064000  1.0 -0.4457315519
O  O7  1  0.07064000  0.43740000  0.50346000  1.0 -0.444566993
O  O8  1  0.98850000  0.50346000  0.43740000  1.0 -0.444566993
O  O9  1  0.98850000  0.43740000  0.07064000  1.0 -0.444566993
O  O10  1  0.07064000  0.50346000  0.98850000  1.0 -0.444566993
O  O11  1  0.50346000  0.07064000  0.43740000  1.0 -0.444566993
O  O12  1  0.43740000  0.98850000  0.50346000  1.0 -0.444566993
O  O13  1  0.92936000  0.01150000  0.49654000  1.0 -0.444566993
O  O14  1  0.01150000  0.92936000  0.56260000  1.0 -0.444566993
O  O15  1  0.56260000  0.49654000  0.01150000  1.0 -0.444566993
O  O16  1  0.49654000  0.56260000  0.92936000  1.0 -0.444566993
O  O17  1  0.56260000  0.92936000  0.49654000  1.0 -0.444566993
O  O18  1  0.49654000  0.01150000  0.56260000  1.0 -0.444566993
O  O19  1  0.92936000  0.56260000  0.01150000  1.0 -0.444566993
O  O20  1  0.01150000  0.49654000  0.92936000  1.0 -0.444566993
O  O21  1  0.01150000  0.56260000  0.49654000  1.0 -0.444566993
O  O22  1  0.92936000  0.49654000  0.56260000  1.0 -0.444566993
O  O23  1  0.49654000  0.92936000  0.01150000  1.0 -0.444566993
O  O24  1  0.56260000  0.01150000  0.92936000  1.0 -0.444566993
O  O25  1  0.92936000  0.01150000  0.56260000  1.0 -0.444566993
O  O26  1  0.01150000  0.92936000  0.49654000  1.0 -0.444566993
O  O27  1  0.56260000  0.49654000  0.92936000  1.0 -0.444566993
O  O28  1  0.49654000  0.56260000  0.01150000  1.0 -0.444566993
O  O29  1  0.56260000  0.92936000  0.01150000  1.0 -0.4457315519
O  O30  1  0.49654000  0.01150000  0.92936000  1.0 -0.444566993
O  O31  1  0.92936000  0.56260000  0.49654000  1.0 -0.444566993
O  O32  1  0.01150000  0.49654000  0.56260000  1.0 -0.444566993
O  O33  1  0.01150000  0.56260000  0.92936000  1.0 -0.444566993
O  O34  1  0.92936000  0.49654000  0.01150000  1.0 -0.444566993
O  O35  1  0.49654000  0.92936000  0.56260000  1.0 -0.444566993
O  O36  1  0.56260000  0.01150000  0.49654000  1.0 -0.444566993
O  O37  1  0.07064000  0.98850000  0.50346000  1.0 -0.444566993
O  O38  1  0.98850000  0.07064000  0.43740000  1.0 -0.444566993
O  O39  1  0.43740000  0.50346000  0.98850000  1.0 -0.444566993
O  O40  1  0.50346000  0.43740000  0.07064000  1.0 -0.444566993
O  O41  1  0.43740000  0.07064000  0.50346000  1.0 -0.444566993
O  O42  1  0.50346000  0.98850000  0.43740000  1.0 -0.444566993
O  O43  1  0.07064000  0.43740000  0.98850000  1.0 -0.444566993
O  O44  1  0.98850000  0.50346000  0.07064000  1.0 -0.444566993
O  O45  1  0.98850000  0.43740000  0.50346000  1.0 -0.444566993
O  O46  1  0.07064000  0.50346000  0.43740000  1.0 -0.444566993
O  O47  1  0.50346000  0.07064000  0.98850000  1.0 -0.4457315519
O  O48  1  0.43740000  0.98850000  0.07064000  1.0 -0.444566993
F  F1  1  0.12670000  0.04970000  0.36870000  1.0 -0.0721278708
F  F2  1  0.04970000  0.12670000  0.45490000  1.0 -0.0721278708
F  F3  1  0.36870000  0.45490000  0.12670000  1.0 -0.0721278708
F  F4  1  0.45490000  0.36870000  0.04970000  1.0 -0.0721278708
F  F5  1  0.36870000  0.12670000  0.04970000  1.0 -0.0721278708
F  F6  1  0.45490000  0.04970000  0.12670000  1.0 -0.0721278708
F  F7  1  0.12670000  0.36870000  0.45490000  1.0 -0.0721278708
F  F8  1  0.04970000  0.45490000  0.36870000  1.0 -0.0721278708
F  F9  1  0.04970000  0.36870000  0.12670000  1.0 -0.0721278708
F  F10  1  0.12670000  0.45490000  0.04970000  1.0 -0.0721278708
F  F11  1  0.45490000  0.12670000  0.36870000  1.0 -0.0721278708
F  F12  1  0.36870000  0.04970000  0.45490000  1.0 -0.0721278708
F  F13  1  0.87330000  0.95030000  0.54510000  1.0 -0.0721278708
F  F14  1  0.95030000  0.87330000  0.63130000  1.0 -0.0721278708
F  F15  1  0.63130000  0.54510000  0.95030000  1.0 -0.0721278708
F  F16  1  0.54510000  0.63130000  0.87330000  1.0 -0.0721278708
F  F17  1  0.63130000  0.87330000  0.54510000  1.0 -0.0721278708
F  F18  1  0.54510000  0.95030000  0.63130000  1.0 -0.0721278708
F  F19  1  0.87330000  0.63130000  0.95030000  1.0 -0.0721278708
F  F20  1  0.95030000  0.54510000  0.87330000  1.0 -0.0721278708
F  F21  1  0.95030000  0.63130000  0.54510000  1.0 -0.0721278708
F  F22  1  0.87330000  0.54510000  0.63130000  1.0 -0.0721278708
F  F23  1  0.54510000  0.87330000  0.95030000  1.0 -0.0721278708
F  F24  1  0.63130000  0.95030000  0.87330000  1.0 -0.0721278708
F  F25  1  0.87330000  0.95030000  0.63130000  1.0 -0.0721278708
F  F26  1  0.95030000  0.87330000  0.54510000  1.0 -0.0721278708
F  F27  1  0.63130000  0.54510000  0.87330000  1.0 -0.0721278708
F  F28  1  0.54510000  0.63130000  0.95030000  1.0 -0.0721278708
F  F29  1  0.63130000  0.87330000  0.95030000  1.0 -0.0721278708
F  F30  1  0.54510000  0.95030000  0.87330000  1.0 -0.0721278708
F  F31  1  0.87330000  0.63130000  0.54510000  1.0 -0.0721278708
F  F32  1  0.95030000  0.54510000  0.63130000  1.0 -0.0721278708
F  F33  1  0.95030000  0.63130000  0.87330000  1.0 -0.0721278708
F  F34  1  0.87330000  0.54510000  0.95030000  1.0 -0.0721278708
F  F35  1  0.54510000  0.87330000  0.63130000  1.0 -0.0721278708
F  F36  1  0.63130000  0.95030000  0.54510000  1.0 -0.0721278708
F  F37  1  0.12670000  0.04970000  0.45490000  1.0 -0.0721278708
F  F38  1  0.04970000  0.12670000  0.36870000  1.0 -0.0721278708
F  F39  1  0.36870000  0.45490000  0.04970000  1.0 -0.0721278708
F  F40  1  0.45490000  0.36870000  0.12670000  1.0 -0.0721278708
F  F41  1  0.36870000  0.12670000  0.45490000  1.0 -0.0721278708
F  F42  1  0.45490000  0.04970000  0.36870000  1.0 -0.0721278708
F  F43  1  0.12670000  0.36870000  0.04970000  1.0 -0.0721278708
F  F44  1  0.04970000  0.45490000  0.12670000  1.0 -0.0721278708
F  F45  1  0.04970000  0.36870000  0.45490000  1.0 -0.0721278708
F  F46  1  0.12670000  0.45490000  0.36870000  1.0 -0.0721278708
F  F47  1  0.45490000  0.12670000  0.04970000  1.0 -0.0721278708
F  F48  1  0.36870000  0.04970000  0.12670000  1.0 -0.0721278708
F  F49  1  0.22020000  0.04540000  0.32300000  1.0 -0.1056889327
F  F50  1  0.04540000  0.22020000  0.41140000  1.0 -0.1056889327
F  F51  1  0.32300000  0.41140000  0.22020000  1.0 -0.1056889327
F  F52  1  0.41140000  0.32300000  0.04540000  1.0 -0.1056889327
F  F53  1  0.32300000  0.22020000  0.04540000  1.0 -0.1056889327
F  F54  1  0.41140000  0.04540000  0.22020000  1.0 -0.0994848698
F  F55  1  0.22020000  0.32300000  0.41140000  1.0 -0.0994848698
F  F56  1  0.04540000  0.41140000  0.32300000  1.0 -0.1056889327
F  F57  1  0.04540000  0.32300000  0.22020000  1.0 -0.0994848698
F  F58  1  0.22020000  0.41140000  0.04540000  1.0 -0.1056889327
F  F59  1  0.41140000  0.22020000  0.32300000  1.0 -0.1056889327
F  F60  1  0.32300000  0.04540000  0.41140000  1.0 -0.1056889327
F  F61  1  0.77980000  0.95460000  0.58860000  1.0 -0.1056889327
F  F62  1  0.95460000  0.77980000  0.67700000  1.0 -0.1056889327
F  F63  1  0.67700000  0.58860000  0.95460000  1.0 -0.1056889327
F  F64  1  0.58860000  0.67700000  0.77980000  1.0 -0.0994848698
F  F65  1  0.67700000  0.77980000  0.58860000  1.0 -0.1056889327
F  F66  1  0.58860000  0.95460000  0.67700000  1.0 -0.0994848698
F  F67  1  0.77980000  0.67700000  0.95460000  1.0 -0.1056889327
F  F68  1  0.95460000  0.58860000  0.77980000  1.0 -0.1056889327
F  F69  1  0.95460000  0.67700000  0.58860000  1.0 -0.1056889327
F  F70  1  0.77980000  0.58860000  0.67700000  1.0 -0.0994848698
F  F71  1  0.58860000  0.77980000  0.95460000  1.0 -0.1056889327
F  F72  1  0.67700000  0.95460000  0.77980000  1.0 -0.0994848698
F  F73  1  0.77980000  0.95460000  0.67700000  1.0 -0.0994848698
F  F74  1  0.95460000  0.77980000  0.58860000  1.0 -0.1056889327
F  F75  1  0.67700000  0.58860000  0.77980000  1.0 -0.1056889327
F  F76  1  0.58860000  0.67700000  0.95460000  1.0 -0.1056889327
F  F77  1  0.67700000  0.77980000  0.95460000  1.0 -0.1056889327
F  F78  1  0.58860000  0.95460000  0.77980000  1.0 -0.0994848698
F  F79  1  0.77980000  0.67700000  0.58860000  1.0 -0.1056889327
F  F80  1  0.95460000  0.58860000  0.67700000  1.0 -0.0994848698
F  F81  1  0.95460000  0.67700000  0.77980000  1.0 -0.1056889327
F  F82  1  0.77980000  0.58860000  0.95460000  1.0 -0.1056889327
F  F83  1  0.58860000  0.77980000  0.67700000  1.0 -0.1056889327
F  F84  1  0.67700000  0.95460000  0.58860000  1.0 -0.0994848698
F  F85  1  0.22020000  0.04540000  0.41140000  1.0 -0.1056889327
F  F86  1  0.04540000  0.22020000  0.32300000  1.0 -0.1056889327
F  F87  1  0.32300000  0.41140000  0.04540000  1.0 -0.1056889327
F  F88  1  0.41140000  0.32300000  0.22020000  1.0 -0.0994848698
F  F89  1  0.32300000  0.22020000  0.41140000  1.0 -0.1056889327
F  F90  1  0.41140000  0.04540000  0.32300000  1.0 -0.0994848698
F  F91  1  0.22020000  0.32300000  0.04540000  1.0 -0.1056889327
F  F92  1  0.04540000  0.41140000  0.22020000  1.0 -0.1056889327
F  F93  1  0.04540000  0.32300000  0.41140000  1.0 -0.0994848698
F  F94  1  0.22020000  0.41140000  0.32300000  1.0 -0.1056889327
F  F95  1  0.41140000  0.22020000  0.04540000  1.0 -0.1056889327
F  F96  1  0.32300000  0.04540000  0.22020000  1.0 -0.1056889327
F  F97  1  0.25880000  0.90700000  0.45880000  1.0 -0.0994848698
F  F98  1  0.90700000  0.25880000  0.37540000  1.0 -0.0994848698
F  F99  1  0.45880000  0.37540000  0.25880000  1.0 -0.0994848698
F  F100  1  0.37540000  0.45880000  0.90700000  1.0 -0.0994848698
F  F101  1  0.45880000  0.25880000  0.90700000  1.0 -0.0994848698
F  F102  1  0.37540000  0.90700000  0.25880000  1.0 -0.0994848698
F  F103  1  0.25880000  0.45880000  0.37540000  1.0 -0.0994848698
F  F104  1  0.90700000  0.37540000  0.45880000  1.0 -0.0994848698
F  F105  1  0.90700000  0.45880000  0.25880000  1.0 -0.0994848698
F  F106  1  0.25880000  0.37540000  0.90700000  1.0 -0.0994848698
F  F107  1  0.37540000  0.25880000  0.45880000  1.0 -0.0994848698
F  F108  1  0.45880000  0.90700000  0.37540000  1.0 -0.0994848698
F  F109  1  0.74120000  0.09300000  0.62460000  1.0 -0.0994848698
F  F110  1  0.09300000  0.74120000  0.54120000  1.0 -0.0994848698
F  F111  1  0.54120000  0.62460000  0.09300000  1.0 -0.0994848698
F  F112  1  0.62460000  0.54120000  0.74120000  1.0 -0.0994848698
F  F113  1  0.54120000  0.74120000  0.62460000  1.0 -0.0994848698
F  F114  1  0.62460000  0.09300000  0.54120000  1.0 -0.0994848698
F  F115  1  0.74120000  0.54120000  0.09300000  1.0 -0.0994848698
F  F116  1  0.09300000  0.62460000  0.74120000  1.0 -0.0994848698
F  F117  1  0.09300000  0.54120000  0.62460000  1.0 -0.0994848698
F  F118  1  0.74120000  0.62460000  0.54120000  1.0 -0.0994848698
F  F119  1  0.62460000  0.74120000  0.09300000  1.0 -0.0994848698
F  F120  1  0.54120000  0.09300000  0.74120000  1.0 -0.0994848698
F  F121  1  0.74120000  0.09300000  0.54120000  1.0 -0.0994848698
F  F122  1  0.09300000  0.74120000  0.62460000  1.0 -0.0994848698
F  F123  1  0.54120000  0.62460000  0.74120000  1.0 -0.0994848698
F  F124  1  0.62460000  0.54120000  0.09300000  1.0 -0.0994848698
F  F125  1  0.54120000  0.74120000  0.09300000  1.0 -0.0994848698
F  F126  1  0.62460000  0.09300000  0.74120000  1.0 -0.0994848698
F  F127  1  0.74120000  0.54120000  0.62460000  1.0 -0.0994848698
F  F128  1  0.09300000  0.62460000  0.54120000  1.0 -0.0994848698
F  F129  1  0.09300000  0.54120000  0.74120000  1.0 -0.0994848698
F  F130  1  0.74120000  0.62460000  0.09300000  1.0 -0.0994848698
F  F131  1  0.62460000  0.74120000  0.54120000  1.0 -0.0994848698
F  F132  1  0.54120000  0.09300000  0.62460000  1.0 -0.0994848698
F  F133  1  0.25880000  0.90700000  0.37540000  1.0 -0.0994848698
F  F134  1  0.90700000  0.25880000  0.45880000  1.0 -0.0994848698
F  F135  1  0.45880000  0.37540000  0.90700000  1.0 -0.0994848698
F  F136  1  0.37540000  0.45880000  0.25880000  1.0 -0.0994848698
F  F137  1  0.45880000  0.25880000  0.37540000  1.0 -0.0994848698
F  F138  1  0.37540000  0.90700000  0.45880000  1.0 -0.0994848698
F  F139  1  0.25880000  0.45880000  0.90700000  1.0 -0.0994848698
F  F140  1  0.90700000  0.37540000  0.25880000  1.0 -0.0994848698
F  F141  1  0.90700000  0.45880000  0.37540000  1.0 -0.0994848698
F  F142  1  0.25880000  0.37540000  0.45880000  1.0 -0.0994848698
F  F143  1  0.37540000  0.25880000  0.90700000  1.0 -0.0994848698
F  F144  1  0.45880000  0.90700000  0.25880000  1.0 -0.0994848698
F  F145  1  0.16520000  0.91000000  0.50380000  1.0 -0.0901572388
F  F146  1  0.91000000  0.16520000  0.42100000  1.0 -0.0901572388
F  F147  1  0.50380000  0.42100000  0.16520000  1.0 -0.0901572388
F  F148  1  0.42100000  0.50380000  0.91000000  1.0 -0.0901572388
F  F149  1  0.50380000  0.16520000  0.91000000  1.0 -0.0901572388
F  F150  1  0.42100000  0.91000000  0.16520000  1.0 -0.0901572388
F  F151  1  0.16520000  0.50380000  0.42100000  1.0 -0.0901572388
F  F152  1  0.91000000  0.42100000  0.50380000  1.0 -0.0901572388
F  F153  1  0.91000000  0.50380000  0.16520000  1.0 -0.0901572388
F  F154  1  0.16520000  0.42100000  0.91000000  1.0 -0.0901572388
F  F155  1  0.42100000  0.16520000  0.50380000  1.0 -0.0901572388
F  F156  1  0.50380000  0.91000000  0.42100000  1.0 -0.0901572388
F  F157  1  0.83480000  0.09000000  0.57900000  1.0 -0.0901572388
F  F158  1  0.09000000  0.83480000  0.49620000  1.0 -0.0901572388
F  F159  1  0.49620000  0.57900000  0.09000000  1.0 -0.0901572388
F  F160  1  0.57900000  0.49620000  0.83480000  1.0 -0.0901572388
F  F161  1  0.49620000  0.83480000  0.57900000  1.0 -0.0901572388
F  F162  1  0.57900000  0.09000000  0.49620000  1.0 -0.0901572388
F  F163  1  0.83480000  0.49620000  0.09000000  1.0 -0.0901572388
F  F164  1  0.09000000  0.57900000  0.83480000  1.0 -0.0901572388
F  F165  1  0.09000000  0.49620000  0.57900000  1.0 -0.0901572388
F  F166  1  0.83480000  0.57900000  0.49620000  1.0 -0.0901572388
F  F167  1  0.57900000  0.83480000  0.09000000  1.0 -0.0901572388
F  F168  1  0.49620000  0.09000000  0.83480000  1.0 -0.0901572388
F  F169  1  0.83480000  0.09000000  0.49620000  1.0 -0.0901572388
F  F170  1  0.09000000  0.83480000  0.57900000  1.0 -0.0901572388
F  F171  1  0.49620000  0.57900000  0.83480000  1.0 -0.0901572388
F  F172  1  0.57900000  0.49620000  0.09000000  1.0 -0.0901572388
F  F173  1  0.49620000  0.83480000  0.09000000  1.0 -0.0901572388
F  F174  1  0.57900000  0.09000000  0.83480000  1.0 -0.0901572388
F  F175  1  0.83480000  0.49620000  0.57900000  1.0 -0.0901572388
F  F176  1  0.09000000  0.57900000  0.49620000  1.0 -0.0901572388
F  F177  1  0.09000000  0.49620000  0.83480000  1.0 -0.0901572388
F  F178  1  0.83480000  0.57900000  0.09000000  1.0 -0.0901572388
F  F179  1  0.57900000  0.83480000  0.49620000  1.0 -0.0901572388
F  F180  1  0.49620000  0.09000000  0.57900000  1.0 -0.0901572388
F  F181  1  0.16520000  0.91000000  0.42100000  1.0 -0.0901572388
F  F182  1  0.91000000  0.16520000  0.50380000  1.0 -0.0901572388
F  F183  1  0.50380000  0.42100000  0.91000000  1.0 -0.0901572388
F  F184  1  0.42100000  0.50380000  0.16520000  1.0 -0.0901572388
F  F185  1  0.50380000  0.16520000  0.42100000  1.0 -0.0901572388
F  F186  1  0.42100000  0.91000000  0.50380000  1.0 -0.0901572388
F  F187  1  0.16520000  0.50380000  0.91000000  1.0 -0.0901572388
F  F188  1  0.91000000  0.42100000  0.16520000  1.0 -0.0901572388
F  F189  1  0.91000000  0.50380000  0.42100000  1.0 -0.0901572388
F  F190  1  0.16520000  0.42100000  0.50380000  1.0 -0.0901572388
F  F191  1  0.42100000  0.16520000  0.91000000  1.0 -0.0901572388
F  F192  1  0.50380000  0.91000000  0.16520000  1.0 -0.0901572388
