# DDEC6 charges by PACMAN v1.1 (https://github.com/mtap-research/PACMAN-charge/)
data_LUXDUE_ion_pacman
_symmetry_space_group_name_H-M   'P 1'
_cell_length_a   18.36780000
_cell_length_b   18.36780000
_cell_length_c   18.36780000
_cell_angle_alpha   60.00000000
_cell_angle_beta   60.00000000
_cell_angle_gamma   60.00000000
_symmetry_Int_Tables_number   1
_chemical_formula_structural   Zn7H30C130(N7O5)6
_chemical_formula_sum   'Zn14 H60 C260 N84 O60'
_cell_volume   4381.83911473
_cell_formula_units_Z   2
loop_
 _symmetry_equiv_pos_site_id
 _symmetry_equiv_pos_as_xyz
  1  'x, y, z'
loop_
 _atom_site_type_symbol
 _atom_site_label
 _atom_site_symmetry_multiplicity
 _atom_site_fract_x
 _atom_site_fract_y
 _atom_site_fract_z
 _atom_site_occupancy
 _atom_site_charge
Zn  Zn1  1  0.12115000  0.63655000  0.12115000  1.0 0.7385604102
Zn  Zn2  1  0.63655000  0.12115000  0.12115000  1.0 0.7385604102
Zn  Zn3  1  0.12115000  0.12115000  0.12115000  1.0 0.7385604102
Zn  Zn4  1  0.12115000  0.12115000  0.63655000  1.0 0.7385604102
Zn  Zn5  1  0.87885000  0.36345000  0.87885000  1.0 0.7385604102
Zn  Zn6  1  0.36345000  0.87885000  0.87885000  1.0 0.7385604102
Zn  Zn7  1  0.87885000  0.87885000  0.87885000  1.0 0.7385604102
Zn  Zn8  1  0.87885000  0.87885000  0.36345000  1.0 0.7385604102
Zn  Zn9  1  0.00000000  0.50000000  0.00000000  1.0 0.7879274208
Zn  Zn10  1  0.50000000  0.00000000  0.50000000  1.0 0.7879274208
Zn  Zn11  1  0.00000000  0.00000000  0.50000000  1.0 0.7879274208
Zn  Zn12  1  0.50000000  0.50000000  0.00000000  1.0 0.7879274208
Zn  Zn13  1  0.50000000  0.00000000  0.00000000  1.0 0.7879274208
Zn  Zn14  1  0.00000000  0.50000000  0.50000000  1.0 0.7879274208
H  H1  1  0.03970000  0.82410000  0.96030000  1.0 0.0997478033
H  H2  1  0.82410000  0.03970000  0.17590000  1.0 0.0997478033
H  H3  1  0.96030000  0.17590000  0.03970000  1.0 0.0997478033
H  H4  1  0.17590000  0.96030000  0.82410000  1.0 0.0997478033
H  H5  1  0.96030000  0.03970000  0.82410000  1.0 0.0997478033
H  H6  1  0.17590000  0.82410000  0.03970000  1.0 0.0997478033
H  H7  1  0.03970000  0.96030000  0.17590000  1.0 0.0997478033
H  H8  1  0.82410000  0.17590000  0.96030000  1.0 0.0997478033
H  H9  1  0.82410000  0.96030000  0.03970000  1.0 0.0997478033
H  H10  1  0.03970000  0.17590000  0.82410000  1.0 0.0997478033
H  H11  1  0.17590000  0.03970000  0.96030000  1.0 0.0997478033
H  H12  1  0.96030000  0.82410000  0.17590000  1.0 0.0997478033
H  H13  1  0.56790000  0.72750000  0.94230000  1.0 0.3011443658
H  H14  1  0.72750000  0.76230000  0.94230000  1.0 0.3011443658
H  H15  1  0.76230000  0.56790000  0.94230000  1.0 0.3011443658
H  H16  1  0.61940000  0.63100000  0.94500000  1.0 0.3011443658
H  H17  1  0.63100000  0.80460000  0.94500000  1.0 0.3011443658
H  H18  1  0.80460000  0.61940000  0.94500000  1.0 0.3011443658
H  H19  1  0.72750000  0.56790000  0.76230000  1.0 0.3011443658
H  H20  1  0.76230000  0.72750000  0.56790000  1.0 0.3011443658
H  H21  1  0.56790000  0.76230000  0.72750000  1.0 0.3011443658
H  H22  1  0.63100000  0.61940000  0.80460000  1.0 0.3011443658
H  H23  1  0.80460000  0.63100000  0.61940000  1.0 0.3011443658
H  H24  1  0.61940000  0.80460000  0.63100000  1.0 0.3011443658
H  H25  1  0.94230000  0.76230000  0.56790000  1.0 0.3011443658
H  H26  1  0.94230000  0.56790000  0.72750000  1.0 0.3011443658
H  H27  1  0.94230000  0.72750000  0.76230000  1.0 0.3011443658
H  H28  1  0.94500000  0.80460000  0.61940000  1.0 0.3011443658
H  H29  1  0.94500000  0.61940000  0.63100000  1.0 0.3011443658
H  H30  1  0.94500000  0.63100000  0.80460000  1.0 0.3011443658
H  H31  1  0.76230000  0.94230000  0.72750000  1.0 0.3011443658
H  H32  1  0.56790000  0.94230000  0.76230000  1.0 0.3011443658
H  H33  1  0.72750000  0.94230000  0.56790000  1.0 0.3011443658
H  H34  1  0.80460000  0.94500000  0.63100000  1.0 0.3011443658
H  H35  1  0.61940000  0.94500000  0.80460000  1.0 0.3011443658
H  H36  1  0.63100000  0.94500000  0.61940000  1.0 0.3011443658
H  H37  1  0.43210000  0.27250000  0.05770000  1.0 0.3011443658
H  H38  1  0.27250000  0.23770000  0.05770000  1.0 0.3011443658
H  H39  1  0.23770000  0.43210000  0.05770000  1.0 0.3011443658
H  H40  1  0.38060000  0.36900000  0.05500000  1.0 0.3011443658
H  H41  1  0.36900000  0.19540000  0.05500000  1.0 0.3011443658
H  H42  1  0.19540000  0.38060000  0.05500000  1.0 0.3011443658
H  H43  1  0.27250000  0.43210000  0.23770000  1.0 0.3011443658
H  H44  1  0.23770000  0.27250000  0.43210000  1.0 0.3011443658
H  H45  1  0.43210000  0.23770000  0.27250000  1.0 0.3011443658
H  H46  1  0.36900000  0.38060000  0.19540000  1.0 0.3011443658
H  H47  1  0.19540000  0.36900000  0.38060000  1.0 0.3011443658
H  H48  1  0.38060000  0.19540000  0.36900000  1.0 0.3011443658
H  H49  1  0.05770000  0.23770000  0.43210000  1.0 0.3011443658
H  H50  1  0.05770000  0.43210000  0.27250000  1.0 0.3011443658
H  H51  1  0.05770000  0.27250000  0.23770000  1.0 0.3011443658
H  H52  1  0.05500000  0.19540000  0.38060000  1.0 0.3011443658
H  H53  1  0.05500000  0.38060000  0.36900000  1.0 0.3011443658
H  H54  1  0.05500000  0.36900000  0.19540000  1.0 0.3011443658
H  H55  1  0.23770000  0.05770000  0.27250000  1.0 0.3011443658
H  H56  1  0.43210000  0.05770000  0.23770000  1.0 0.3011443658
H  H57  1  0.27250000  0.05770000  0.43210000  1.0 0.3011443658
H  H58  1  0.19540000  0.05500000  0.36900000  1.0 0.3011443658
H  H59  1  0.38060000  0.05500000  0.19540000  1.0 0.3011443658
H  H60  1  0.36900000  0.05500000  0.38060000  1.0 0.3011443658
C  C1  1  0.01870000  0.77670000  0.98130000  1.0 0.1075423974
C  C2  1  0.77670000  0.01870000  0.22330000  1.0 0.1075423974
C  C3  1  0.98130000  0.22330000  0.01870000  1.0 0.1075423974
C  C4  1  0.22330000  0.98130000  0.77670000  1.0 0.1075423974
C  C5  1  0.98130000  0.01870000  0.77670000  1.0 0.1075423974
C  C6  1  0.22330000  0.77670000  0.01870000  1.0 0.1075423974
C  C7  1  0.01870000  0.98130000  0.22330000  1.0 0.1075423974
C  C8  1  0.77670000  0.22330000  0.98130000  1.0 0.1075423974
C  C9  1  0.77670000  0.98130000  0.01870000  1.0 0.1075423974
C  C10  1  0.01870000  0.22330000  0.77670000  1.0 0.1075423974
C  C11  1  0.22330000  0.01870000  0.98130000  1.0 0.1075423974
C  C12  1  0.98130000  0.77670000  0.22330000  1.0 0.1075423974
C  C13  1  0.00420000  0.64780000  0.04900000  1.0 -0.0022769056
C  C14  1  0.64780000  0.00420000  0.29900000  1.0 -0.0022769056
C  C15  1  0.04900000  0.29900000  0.00420000  1.0 -0.0022769056
C  C16  1  0.29900000  0.04900000  0.64780000  1.0 -0.0022769056
C  C17  1  0.04900000  0.00420000  0.64780000  1.0 -0.0022769056
C  C18  1  0.29900000  0.64780000  0.00420000  1.0 -0.0022769056
C  C19  1  0.00420000  0.04900000  0.29900000  1.0 -0.0022769056
C  C20  1  0.64780000  0.29900000  0.04900000  1.0 -0.0022769056
C  C21  1  0.64780000  0.04900000  0.00420000  1.0 -0.0022769056
C  C22  1  0.00420000  0.29900000  0.64780000  1.0 -0.0022769056
C  C23  1  0.29900000  0.00420000  0.04900000  1.0 -0.0022769056
C  C24  1  0.04900000  0.64780000  0.29900000  1.0 -0.0022769056
C  C25  1  0.99580000  0.35220000  0.95100000  1.0 -0.0022769056
C  C26  1  0.35220000  0.99580000  0.70100000  1.0 -0.0022769056
C  C27  1  0.95100000  0.70100000  0.99580000  1.0 -0.0022769056
C  C28  1  0.70100000  0.95100000  0.35220000  1.0 -0.0022769056
C  C29  1  0.95100000  0.99580000  0.35220000  1.0 -0.0022769056
C  C30  1  0.70100000  0.35220000  0.99580000  1.0 -0.0022769056
C  C31  1  0.99580000  0.95100000  0.70100000  1.0 -0.0022769056
C  C32  1  0.35220000  0.70100000  0.95100000  1.0 -0.0022769056
C  C33  1  0.35220000  0.95100000  0.99580000  1.0 -0.0022769056
C  C34  1  0.99580000  0.70100000  0.35220000  1.0 -0.0022769056
C  C35  1  0.70100000  0.99580000  0.95100000  1.0 -0.0022769056
C  C36  1  0.95100000  0.35220000  0.70100000  1.0 -0.0022769056
C  C37  1  0.02330000  0.55710000  0.11170000  1.0 0.4470986742
C  C38  1  0.55710000  0.02330000  0.30790000  1.0 0.4470986742
C  C39  1  0.11170000  0.30790000  0.02330000  1.0 0.4470986742
C  C40  1  0.30790000  0.11170000  0.55710000  1.0 0.4470986742
C  C41  1  0.11170000  0.02330000  0.55710000  1.0 0.4470986742
C  C42  1  0.30790000  0.55710000  0.02330000  1.0 0.4470986742
C  C43  1  0.02330000  0.11170000  0.30790000  1.0 0.4470986742
C  C44  1  0.55710000  0.30790000  0.11170000  1.0 0.4470986742
C  C45  1  0.55710000  0.11170000  0.02330000  1.0 0.4470986742
C  C46  1  0.02330000  0.30790000  0.55710000  1.0 0.4470986742
C  C47  1  0.30790000  0.02330000  0.11170000  1.0 0.4470986742
C  C48  1  0.11170000  0.55710000  0.30790000  1.0 0.4470986742
C  C49  1  0.97670000  0.44290000  0.88830000  1.0 0.4470986742
C  C50  1  0.44290000  0.97670000  0.69210000  1.0 0.4470986742
C  C51  1  0.88830000  0.69210000  0.97670000  1.0 0.4470986742
C  C52  1  0.69210000  0.88830000  0.44290000  1.0 0.4470986742
C  C53  1  0.88830000  0.97670000  0.44290000  1.0 0.4470986742
C  C54  1  0.69210000  0.44290000  0.97670000  1.0 0.4470986742
C  C55  1  0.97670000  0.88830000  0.69210000  1.0 0.4470986742
C  C56  1  0.44290000  0.69210000  0.88830000  1.0 0.4470986742
C  C57  1  0.44290000  0.88830000  0.97670000  1.0 0.4470986742
C  C58  1  0.97670000  0.69210000  0.44290000  1.0 0.4470986742
C  C59  1  0.69210000  0.97670000  0.88830000  1.0 0.4470986742
C  C60  1  0.88830000  0.44290000  0.69210000  1.0 0.4470986742
C  C61  1  0.15800000  0.54800000  0.84200000  1.0 0.0314362695
C  C62  1  0.54800000  0.15800000  0.45200000  1.0 0.0314362695
C  C63  1  0.84200000  0.45200000  0.15800000  1.0 0.0314362695
C  C64  1  0.45200000  0.84200000  0.54800000  1.0 0.0314362695
C  C65  1  0.84200000  0.15800000  0.54800000  1.0 0.0314362695
C  C66  1  0.45200000  0.54800000  0.15800000  1.0 0.0314362695
C  C67  1  0.15800000  0.84200000  0.45200000  1.0 0.0314362695
C  C68  1  0.54800000  0.45200000  0.84200000  1.0 0.0314362695
C  C69  1  0.54800000  0.84200000  0.15800000  1.0 0.0314362695
C  C70  1  0.15800000  0.45200000  0.54800000  1.0 0.0314362695
C  C71  1  0.45200000  0.15800000  0.84200000  1.0 0.0314362695
C  C72  1  0.84200000  0.54800000  0.45200000  1.0 0.0314362695
C  C73  1  0.10700000  0.58300000  0.84100000  1.0 0.0314362695
C  C74  1  0.58300000  0.10700000  0.46900000  1.0 0.0314362695
C  C75  1  0.84100000  0.46900000  0.10700000  1.0 0.0314362695
C  C76  1  0.46900000  0.84100000  0.58300000  1.0 0.0314362695
C  C77  1  0.84100000  0.10700000  0.58300000  1.0 0.0314362695
C  C78  1  0.46900000  0.58300000  0.10700000  1.0 0.0314362695
C  C79  1  0.10700000  0.84100000  0.46900000  1.0 0.0314362695
C  C80  1  0.58300000  0.46900000  0.84100000  1.0 0.0314362695
C  C81  1  0.58300000  0.84100000  0.10700000  1.0 0.0314362695
C  C82  1  0.10700000  0.46900000  0.58300000  1.0 0.0314362695
C  C83  1  0.46900000  0.10700000  0.84100000  1.0 0.0314362695
C  C84  1  0.84100000  0.58300000  0.46900000  1.0 0.0314362695
C  C85  1  0.89300000  0.41700000  0.15900000  1.0 0.0314362695
C  C86  1  0.41700000  0.89300000  0.53100000  1.0 0.0314362695
C  C87  1  0.15900000  0.53100000  0.89300000  1.0 0.0314362695
C  C88  1  0.53100000  0.15900000  0.41700000  1.0 0.0314362695
C  C89  1  0.15900000  0.89300000  0.41700000  1.0 0.0314362695
C  C90  1  0.53100000  0.41700000  0.89300000  1.0 0.0314362695
C  C91  1  0.89300000  0.15900000  0.53100000  1.0 0.0314362695
C  C92  1  0.41700000  0.53100000  0.15900000  1.0 0.0314362695
C  C93  1  0.41700000  0.15900000  0.89300000  1.0 0.0314362695
C  C94  1  0.89300000  0.53100000  0.41700000  1.0 0.0314362695
C  C95  1  0.53100000  0.89300000  0.15900000  1.0 0.0314362695
C  C96  1  0.15900000  0.41700000  0.53100000  1.0 0.0314362695
C  C97  1  0.15800000  0.58000000  0.88400000  1.0 0.0394691676
C  C98  1  0.58000000  0.15800000  0.37800000  1.0 0.0394691676
C  C99  1  0.88400000  0.37800000  0.15800000  1.0 0.0394691676
C  C100  1  0.37800000  0.88400000  0.58000000  1.0 0.0394691676
C  C101  1  0.88400000  0.15800000  0.58000000  1.0 0.0394691676
C  C102  1  0.37800000  0.58000000  0.15800000  1.0 0.0394691676
C  C103  1  0.15800000  0.88400000  0.37800000  1.0 0.0394691676
C  C104  1  0.58000000  0.37800000  0.88400000  1.0 0.0394691676
C  C105  1  0.58000000  0.88400000  0.15800000  1.0 0.0394691676
C  C106  1  0.15800000  0.37800000  0.58000000  1.0 0.0394691676
C  C107  1  0.37800000  0.15800000  0.88400000  1.0 0.0394691676
C  C108  1  0.88400000  0.58000000  0.37800000  1.0 0.0394691676
C  C109  1  0.84200000  0.42000000  0.11600000  1.0 0.0394691676
C  C110  1  0.42000000  0.84200000  0.62200000  1.0 0.0394691676
C  C111  1  0.11600000  0.62200000  0.84200000  1.0 0.0394691676
C  C112  1  0.62200000  0.11600000  0.42000000  1.0 0.0394691676
C  C113  1  0.11600000  0.84200000  0.42000000  1.0 0.0394691676
C  C114  1  0.62200000  0.42000000  0.84200000  1.0 0.0394691676
C  C115  1  0.84200000  0.11600000  0.62200000  1.0 0.0394691676
C  C116  1  0.42000000  0.62200000  0.11600000  1.0 0.0394691676
C  C117  1  0.42000000  0.11600000  0.84200000  1.0 0.0394691676
C  C118  1  0.84200000  0.62200000  0.42000000  1.0 0.0394691676
C  C119  1  0.62200000  0.84200000  0.11600000  1.0 0.0394691676
C  C120  1  0.11600000  0.42000000  0.62200000  1.0 0.0394691676
C  C121  1  0.23400000  0.63200000  0.84200000  1.0 -0.0296314556
C  C122  1  0.63200000  0.23400000  0.29200000  1.0 -0.0296314556
C  C123  1  0.84200000  0.29200000  0.23400000  1.0 -0.0296314556
C  C124  1  0.29200000  0.84200000  0.63200000  1.0 -0.0296314556
C  C125  1  0.84200000  0.23400000  0.63200000  1.0 -0.0296314556
C  C126  1  0.29200000  0.63200000  0.23400000  1.0 -0.0296314556
C  C127  1  0.23400000  0.84200000  0.29200000  1.0 -0.0296314556
C  C128  1  0.63200000  0.29200000  0.84200000  1.0 -0.0296314556
C  C129  1  0.63200000  0.84200000  0.23400000  1.0 -0.0296314556
C  C130  1  0.23400000  0.29200000  0.63200000  1.0 -0.0296314556
C  C131  1  0.29200000  0.23400000  0.84200000  1.0 -0.0296314556
C  C132  1  0.84200000  0.63200000  0.29200000  1.0 -0.0296314556
C  C133  1  0.76600000  0.36800000  0.15800000  1.0 -0.0296314556
C  C134  1  0.36800000  0.76600000  0.70800000  1.0 -0.0296314556
C  C135  1  0.15800000  0.70800000  0.76600000  1.0 -0.0296314556
C  C136  1  0.70800000  0.15800000  0.36800000  1.0 -0.0296314556
C  C137  1  0.15800000  0.76600000  0.36800000  1.0 -0.0296314556
C  C138  1  0.70800000  0.36800000  0.76600000  1.0 -0.0296314556
C  C139  1  0.76600000  0.15800000  0.70800000  1.0 -0.0296314556
C  C140  1  0.36800000  0.70800000  0.15800000  1.0 -0.0296314556
C  C141  1  0.36800000  0.15800000  0.76600000  1.0 -0.0296314556
C  C142  1  0.76600000  0.70800000  0.36800000  1.0 -0.0296314556
C  C143  1  0.70800000  0.76600000  0.15800000  1.0 -0.0296314556
C  C144  1  0.15800000  0.36800000  0.70800000  1.0 -0.0296314556
C  C145  1  0.30900000  0.54900000  0.71900000  1.0 0.0197469093
C  C146  1  0.54900000  0.30900000  0.42300000  1.0 0.0197469093
C  C147  1  0.71900000  0.42300000  0.30900000  1.0 0.0197469093
C  C148  1  0.42300000  0.71900000  0.54900000  1.0 0.0197469093
C  C149  1  0.71900000  0.30900000  0.54900000  1.0 0.0197469093
C  C150  1  0.42300000  0.54900000  0.30900000  1.0 0.0197469093
C  C151  1  0.30900000  0.71900000  0.42300000  1.0 0.0197469093
C  C152  1  0.54900000  0.42300000  0.71900000  1.0 0.0197469093
C  C153  1  0.54900000  0.71900000  0.30900000  1.0 0.0197469093
C  C154  1  0.30900000  0.42300000  0.54900000  1.0 0.0197469093
C  C155  1  0.42300000  0.30900000  0.71900000  1.0 0.0197469093
C  C156  1  0.71900000  0.54900000  0.42300000  1.0 0.0197469093
C  C157  1  0.69100000  0.45100000  0.28100000  1.0 0.0197469093
C  C158  1  0.45100000  0.69100000  0.57700000  1.0 0.0197469093
C  C159  1  0.28100000  0.57700000  0.69100000  1.0 0.0197469093
C  C160  1  0.57700000  0.28100000  0.45100000  1.0 0.0197469093
C  C161  1  0.28100000  0.69100000  0.45100000  1.0 0.0197469093
C  C162  1  0.57700000  0.45100000  0.69100000  1.0 0.0197469093
C  C163  1  0.69100000  0.28100000  0.57700000  1.0 0.0197469093
C  C164  1  0.45100000  0.57700000  0.28100000  1.0 0.0197469093
C  C165  1  0.45100000  0.28100000  0.69100000  1.0 0.0197469093
C  C166  1  0.69100000  0.57700000  0.45100000  1.0 0.0197469093
C  C167  1  0.57700000  0.69100000  0.28100000  1.0 0.0197469093
C  C168  1  0.28100000  0.45100000  0.57700000  1.0 0.0197469093
C  C169  1  0.30890000  0.54470000  0.82010000  1.0 -0.0582660891
C  C170  1  0.54470000  0.30890000  0.32630000  1.0 -0.0582660891
C  C171  1  0.82010000  0.32630000  0.30890000  1.0 -0.0582660891
C  C172  1  0.32630000  0.82010000  0.54470000  1.0 -0.0582660891
C  C173  1  0.82010000  0.30890000  0.54470000  1.0 -0.0582660891
C  C174  1  0.32630000  0.54470000  0.30890000  1.0 -0.0582660891
C  C175  1  0.30890000  0.82010000  0.32630000  1.0 -0.0582660891
C  C176  1  0.54470000  0.32630000  0.82010000  1.0 -0.0582660891
C  C177  1  0.54470000  0.82010000  0.30890000  1.0 -0.0582660891
C  C178  1  0.30890000  0.32630000  0.54470000  1.0 -0.0582660891
C  C179  1  0.32630000  0.30890000  0.82010000  1.0 -0.0582660891
C  C180  1  0.82010000  0.54470000  0.32630000  1.0 -0.0582660891
C  C181  1  0.69110000  0.45530000  0.17990000  1.0 -0.0582660891
C  C182  1  0.45530000  0.69110000  0.67370000  1.0 -0.0582660891
C  C183  1  0.17990000  0.67370000  0.69110000  1.0 -0.0582660891
C  C184  1  0.67370000  0.17990000  0.45530000  1.0 -0.0582660891
C  C185  1  0.17990000  0.69110000  0.45530000  1.0 -0.0582660891
C  C186  1  0.67370000  0.45530000  0.69110000  1.0 -0.0582660891
C  C187  1  0.69110000  0.17990000  0.67370000  1.0 -0.0582660891
C  C188  1  0.45530000  0.67370000  0.17990000  1.0 -0.0582660891
C  C189  1  0.45530000  0.17990000  0.69110000  1.0 -0.0582660891
C  C190  1  0.69110000  0.67370000  0.45530000  1.0 -0.0582660891
C  C191  1  0.67370000  0.69110000  0.17990000  1.0 -0.0582660891
C  C192  1  0.17990000  0.45530000  0.67370000  1.0 -0.0582660891
C  C193  1  0.18300000  0.66900000  0.81700000  1.0 0.0314362695
C  C194  1  0.66900000  0.18300000  0.33100000  1.0 0.0314362695
C  C195  1  0.81700000  0.33100000  0.18300000  1.0 0.0314362695
C  C196  1  0.33100000  0.81700000  0.66900000  1.0 0.0314362695
C  C197  1  0.81700000  0.18300000  0.66900000  1.0 0.0314362695
C  C198  1  0.33100000  0.66900000  0.18300000  1.0 0.0314362695
C  C199  1  0.18300000  0.81700000  0.33100000  1.0 0.0314362695
C  C200  1  0.66900000  0.33100000  0.81700000  1.0 0.0314362695
C  C201  1  0.66900000  0.81700000  0.18300000  1.0 0.0314362695
C  C202  1  0.18300000  0.33100000  0.66900000  1.0 0.0314362695
C  C203  1  0.33100000  0.18300000  0.81700000  1.0 0.0314362695
C  C204  1  0.81700000  0.66900000  0.33100000  1.0 0.0314362695
C  C205  1  0.14000000  0.66800000  0.77400000  1.0 -0.0108138067
C  C206  1  0.66800000  0.14000000  0.41800000  1.0 -0.0108138067
C  C207  1  0.77400000  0.41800000  0.14000000  1.0 -0.0108138067
C  C208  1  0.41800000  0.77400000  0.66800000  1.0 -0.0108138067
C  C209  1  0.77400000  0.14000000  0.66800000  1.0 -0.0108138067
C  C210  1  0.41800000  0.66800000  0.14000000  1.0 -0.0108138067
C  C211  1  0.14000000  0.77400000  0.41800000  1.0 -0.0108138067
C  C212  1  0.66800000  0.41800000  0.77400000  1.0 -0.0108138067
C  C213  1  0.66800000  0.77400000  0.14000000  1.0 -0.0108138067
C  C214  1  0.14000000  0.41800000  0.66800000  1.0 -0.0108138067
C  C215  1  0.41800000  0.14000000  0.77400000  1.0 -0.0108138067
C  C216  1  0.77400000  0.66800000  0.41800000  1.0 -0.0108138067
C  C217  1  0.86000000  0.33200000  0.22600000  1.0 -0.0108138067
C  C218  1  0.33200000  0.86000000  0.58200000  1.0 -0.0108138067
C  C219  1  0.22600000  0.58200000  0.86000000  1.0 -0.0108138067
C  C220  1  0.58200000  0.22600000  0.33200000  1.0 -0.0108138067
C  C221  1  0.22600000  0.86000000  0.33200000  1.0 -0.0108138067
C  C222  1  0.58200000  0.33200000  0.86000000  1.0 -0.0108138067
C  C223  1  0.86000000  0.22600000  0.58200000  1.0 -0.0108138067
C  C224  1  0.33200000  0.58200000  0.22600000  1.0 -0.0108138067
C  C225  1  0.33200000  0.22600000  0.86000000  1.0 -0.0108138067
C  C226  1  0.86000000  0.58200000  0.33200000  1.0 -0.0108138067
C  C227  1  0.58200000  0.86000000  0.22600000  1.0 -0.0108138067
C  C228  1  0.22600000  0.33200000  0.58200000  1.0 -0.0108138067
C  C229  1  0.35700000  0.52900000  0.74300000  1.0 -0.0296314556
C  C230  1  0.52900000  0.35700000  0.37100000  1.0 -0.0296314556
C  C231  1  0.74300000  0.37100000  0.35700000  1.0 -0.0296314556
C  C232  1  0.37100000  0.74300000  0.52900000  1.0 -0.0296314556
C  C233  1  0.74300000  0.35700000  0.52900000  1.0 -0.0296314556
C  C234  1  0.37100000  0.52900000  0.35700000  1.0 -0.0296314556
C  C235  1  0.35700000  0.74300000  0.37100000  1.0 -0.0296314556
C  C236  1  0.52900000  0.37100000  0.74300000  1.0 -0.0296314556
C  C237  1  0.52900000  0.74300000  0.35700000  1.0 -0.0296314556
C  C238  1  0.35700000  0.37100000  0.52900000  1.0 -0.0296314556
C  C239  1  0.37100000  0.35700000  0.74300000  1.0 -0.0296314556
C  C240  1  0.74300000  0.52900000  0.37100000  1.0 -0.0296314556
C  C241  1  0.64300000  0.47100000  0.25700000  1.0 -0.0296314556
C  C242  1  0.47100000  0.64300000  0.62900000  1.0 -0.0296314556
C  C243  1  0.25700000  0.62900000  0.64300000  1.0 -0.0296314556
C  C244  1  0.62900000  0.25700000  0.47100000  1.0 -0.0296314556
C  C245  1  0.25700000  0.64300000  0.47100000  1.0 -0.0296314556
C  C246  1  0.62900000  0.47100000  0.64300000  1.0 -0.0296314556
C  C247  1  0.64300000  0.25700000  0.62900000  1.0 -0.0296314556
C  C248  1  0.47100000  0.62900000  0.25700000  1.0 -0.0296314556
C  C249  1  0.47100000  0.25700000  0.64300000  1.0 -0.0296314556
C  C250  1  0.64300000  0.62900000  0.47100000  1.0 -0.0296314556
C  C251  1  0.62900000  0.64300000  0.25700000  1.0 -0.0296314556
C  C252  1  0.25700000  0.47100000  0.62900000  1.0 -0.0296314556
C  C253  1  0.68490000  0.68490000  0.94530000  1.0 0.5038794149
C  C254  1  0.68490000  0.68490000  0.68490000  1.0 0.5038794149
C  C255  1  0.94530000  0.68490000  0.68490000  1.0 0.5038794149
C  C256  1  0.68490000  0.94530000  0.68490000  1.0 0.5038794149
C  C257  1  0.31510000  0.31510000  0.05470000  1.0 0.5038794149
C  C258  1  0.31510000  0.31510000  0.31510000  1.0 0.5038794149
C  C259  1  0.05470000  0.31510000  0.31510000  1.0 0.5038794149
C  C260  1  0.31510000  0.05470000  0.31510000  1.0 0.5038794149
N  N1  1  0.04580000  0.69760000  0.04020000  1.0 -0.3008930193
N  N2  1  0.69760000  0.04580000  0.21640000  1.0 -0.3008930193
N  N3  1  0.04020000  0.21640000  0.04580000  1.0 -0.3008930193
N  N4  1  0.21640000  0.04020000  0.69760000  1.0 -0.3008930193
N  N5  1  0.04020000  0.04580000  0.69760000  1.0 -0.3008930193
N  N6  1  0.21640000  0.69760000  0.04580000  1.0 -0.3008930193
N  N7  1  0.04580000  0.04020000  0.21640000  1.0 -0.3008930193
N  N8  1  0.69760000  0.21640000  0.04020000  1.0 -0.3008930193
N  N9  1  0.69760000  0.04020000  0.04580000  1.0 -0.3008930193
N  N10  1  0.04580000  0.21640000  0.69760000  1.0 -0.3008930193
N  N11  1  0.21640000  0.04580000  0.04020000  1.0 -0.3008930193
N  N12  1  0.04020000  0.69760000  0.21640000  1.0 -0.3008930193
N  N13  1  0.95420000  0.30240000  0.95980000  1.0 -0.3008930193
N  N14  1  0.30240000  0.95420000  0.78360000  1.0 -0.3008930193
N  N15  1  0.95980000  0.78360000  0.95420000  1.0 -0.3008930193
N  N16  1  0.78360000  0.95980000  0.30240000  1.0 -0.3008930193
N  N17  1  0.95980000  0.95420000  0.30240000  1.0 -0.3008930193
N  N18  1  0.78360000  0.30240000  0.95420000  1.0 -0.3008930193
N  N19  1  0.95420000  0.95980000  0.78360000  1.0 -0.3008930193
N  N20  1  0.30240000  0.78360000  0.95980000  1.0 -0.3008930193
N  N21  1  0.30240000  0.95980000  0.95420000  1.0 -0.3008930193
N  N22  1  0.95420000  0.78360000  0.30240000  1.0 -0.3008930193
N  N23  1  0.78360000  0.95420000  0.95980000  1.0 -0.3008930193
N  N24  1  0.95980000  0.30240000  0.78360000  1.0 -0.3008930193
N  N25  1  0.21200000  0.60400000  0.78800000  1.0 0.0997478033
N  N26  1  0.60400000  0.21200000  0.39600000  1.0 0.0997478033
N  N27  1  0.78800000  0.39600000  0.21200000  1.0 0.0997478033
N  N28  1  0.39600000  0.78800000  0.60400000  1.0 0.0997478033
N  N29  1  0.78800000  0.21200000  0.60400000  1.0 0.0997478033
N  N30  1  0.39600000  0.60400000  0.21200000  1.0 0.0997478033
N  N31  1  0.21200000  0.78800000  0.39600000  1.0 0.0997478033
N  N32  1  0.60400000  0.39600000  0.78800000  1.0 0.0997478033
N  N33  1  0.60400000  0.78800000  0.21200000  1.0 0.0997478033
N  N34  1  0.21200000  0.39600000  0.60400000  1.0 0.0997478033
N  N35  1  0.39600000  0.21200000  0.78800000  1.0 0.0997478033
N  N36  1  0.78800000  0.60400000  0.39600000  1.0 0.0997478033
N  N37  1  0.15600000  0.63800000  0.77400000  1.0 0.0079929527
N  N38  1  0.63800000  0.15600000  0.43200000  1.0 0.0079929527
N  N39  1  0.77400000  0.43200000  0.15600000  1.0 0.0079929527
N  N40  1  0.43200000  0.77400000  0.63800000  1.0 0.0079929527
N  N41  1  0.77400000  0.15600000  0.63800000  1.0 0.0079929527
N  N42  1  0.43200000  0.63800000  0.15600000  1.0 0.0079929527
N  N43  1  0.15600000  0.77400000  0.43200000  1.0 0.0079929527
N  N44  1  0.63800000  0.43200000  0.77400000  1.0 0.0079929527
N  N45  1  0.63800000  0.77400000  0.15600000  1.0 0.0079929527
N  N46  1  0.15600000  0.43200000  0.63800000  1.0 0.0079929527
N  N47  1  0.43200000  0.15600000  0.77400000  1.0 0.0079929527
N  N48  1  0.77400000  0.63800000  0.43200000  1.0 0.0079929527
N  N49  1  0.84400000  0.36200000  0.22600000  1.0 0.0079929527
N  N50  1  0.36200000  0.84400000  0.56800000  1.0 0.0079929527
N  N51  1  0.22600000  0.56800000  0.84400000  1.0 0.0079929527
N  N52  1  0.56800000  0.22600000  0.36200000  1.0 0.0079929527
N  N53  1  0.22600000  0.84400000  0.36200000  1.0 0.0079929527
N  N54  1  0.56800000  0.36200000  0.84400000  1.0 0.0079929527
N  N55  1  0.84400000  0.22600000  0.56800000  1.0 0.0079929527
N  N56  1  0.36200000  0.56800000  0.22600000  1.0 0.0079929527
N  N57  1  0.36200000  0.22600000  0.84400000  1.0 0.0079929527
N  N58  1  0.84400000  0.56800000  0.36200000  1.0 0.0079929527
N  N59  1  0.56800000  0.84400000  0.22600000  1.0 0.0079929527
N  N60  1  0.22600000  0.36200000  0.56800000  1.0 0.0079929527
N  N61  1  0.61660000  0.68080000  0.94400000  1.0 -0.5914635392
N  N62  1  0.68080000  0.75860000  0.94400000  1.0 -0.5914635392
N  N63  1  0.75860000  0.61660000  0.94400000  1.0 -0.5914635392
N  N64  1  0.68080000  0.61660000  0.75860000  1.0 -0.5914635392
N  N65  1  0.75860000  0.68080000  0.61660000  1.0 -0.5914635392
N  N66  1  0.61660000  0.75860000  0.68080000  1.0 -0.5914635392
N  N67  1  0.94400000  0.75860000  0.61660000  1.0 -0.5914635392
N  N68  1  0.94400000  0.61660000  0.68080000  1.0 -0.5914635392
N  N69  1  0.94400000  0.68080000  0.75860000  1.0 -0.5914635392
N  N70  1  0.75860000  0.94400000  0.68080000  1.0 -0.5914635392
N  N71  1  0.61660000  0.94400000  0.75860000  1.0 -0.5914635392
N  N72  1  0.68080000  0.94400000  0.61660000  1.0 -0.5914635392
N  N73  1  0.38340000  0.31920000  0.05600000  1.0 -0.5914635392
N  N74  1  0.31920000  0.24140000  0.05600000  1.0 -0.5914635392
N  N75  1  0.24140000  0.38340000  0.05600000  1.0 -0.5914635392
N  N76  1  0.31920000  0.38340000  0.24140000  1.0 -0.5914635392
N  N77  1  0.24140000  0.31920000  0.38340000  1.0 -0.5914635392
N  N78  1  0.38340000  0.24140000  0.31920000  1.0 -0.5914635392
N  N79  1  0.05600000  0.24140000  0.38340000  1.0 -0.5914635392
N  N80  1  0.05600000  0.38340000  0.31920000  1.0 -0.5914635392
N  N81  1  0.05600000  0.31920000  0.24140000  1.0 -0.5914635392
N  N82  1  0.24140000  0.05600000  0.31920000  1.0 -0.5914635392
N  N83  1  0.38340000  0.05600000  0.24140000  1.0 -0.5914635392
N  N84  1  0.31920000  0.05600000  0.38340000  1.0 -0.5914635392
O  O1  1  0.06180000  0.53620000  0.16140000  1.0 -0.3995688688
O  O2  1  0.53620000  0.06180000  0.24060000  1.0 -0.3995688688
O  O3  1  0.16140000  0.24060000  0.06180000  1.0 -0.3995688688
O  O4  1  0.24060000  0.16140000  0.53620000  1.0 -0.3995688688
O  O5  1  0.16140000  0.06180000  0.53620000  1.0 -0.3995688688
O  O6  1  0.24060000  0.53620000  0.06180000  1.0 -0.3995688688
O  O7  1  0.06180000  0.16140000  0.24060000  1.0 -0.3995688688
O  O8  1  0.53620000  0.24060000  0.16140000  1.0 -0.3995688688
O  O9  1  0.53620000  0.16140000  0.06180000  1.0 -0.3995688688
O  O10  1  0.06180000  0.24060000  0.53620000  1.0 -0.3995688688
O  O11  1  0.24060000  0.06180000  0.16140000  1.0 -0.3995688688
O  O12  1  0.16140000  0.53620000  0.24060000  1.0 -0.3995688688
O  O13  1  0.93820000  0.46380000  0.83860000  1.0 -0.3995688688
O  O14  1  0.46380000  0.93820000  0.75940000  1.0 -0.3995688688
O  O15  1  0.83860000  0.75940000  0.93820000  1.0 -0.3995688688
O  O16  1  0.75940000  0.83860000  0.46380000  1.0 -0.3995688688
O  O17  1  0.83860000  0.93820000  0.46380000  1.0 -0.3995688688
O  O18  1  0.75940000  0.46380000  0.93820000  1.0 -0.3995688688
O  O19  1  0.93820000  0.83860000  0.75940000  1.0 -0.3995688688
O  O20  1  0.46380000  0.75940000  0.83860000  1.0 -0.3995688688
O  O21  1  0.46380000  0.83860000  0.93820000  1.0 -0.3995688688
O  O22  1  0.93820000  0.75940000  0.46380000  1.0 -0.3995688688
O  O23  1  0.75940000  0.93820000  0.83860000  1.0 -0.3995688688
O  O24  1  0.83860000  0.46380000  0.75940000  1.0 -0.3995688688
O  O25  1  0.00010000  0.50510000  0.11030000  1.0 -0.4692678918
O  O26  1  0.50510000  0.00010000  0.38450000  1.0 -0.4692678918
O  O27  1  0.11030000  0.38450000  0.00010000  1.0 -0.4692678918
O  O28  1  0.38450000  0.11030000  0.50510000  1.0 -0.4692678918
O  O29  1  0.11030000  0.00010000  0.50510000  1.0 -0.4692678918
O  O30  1  0.38450000  0.50510000  0.00010000  1.0 -0.4692678918
O  O31  1  0.00010000  0.11030000  0.38450000  1.0 -0.4692678918
O  O32  1  0.50510000  0.38450000  0.11030000  1.0 -0.4692678918
O  O33  1  0.50510000  0.11030000  0.00010000  1.0 -0.4692678918
O  O34  1  0.00010000  0.38450000  0.50510000  1.0 -0.4692678918
O  O35  1  0.38450000  0.00010000  0.11030000  1.0 -0.4692678918
O  O36  1  0.11030000  0.50510000  0.38450000  1.0 -0.4692678918
O  O37  1  0.99990000  0.49490000  0.88970000  1.0 -0.4692678918
O  O38  1  0.49490000  0.99990000  0.61550000  1.0 -0.4692678918
O  O39  1  0.88970000  0.61550000  0.99990000  1.0 -0.4692678918
O  O40  1  0.61550000  0.88970000  0.49490000  1.0 -0.4692678918
O  O41  1  0.88970000  0.99990000  0.49490000  1.0 -0.4692678918
O  O42  1  0.61550000  0.49490000  0.99990000  1.0 -0.4692678918
O  O43  1  0.99990000  0.88970000  0.61550000  1.0 -0.4692678918
O  O44  1  0.49490000  0.61550000  0.88970000  1.0 -0.4692678918
O  O45  1  0.49490000  0.88970000  0.99990000  1.0 -0.4692678918
O  O46  1  0.99990000  0.61550000  0.49490000  1.0 -0.4692678918
O  O47  1  0.61550000  0.99990000  0.88970000  1.0 -0.4692678918
O  O48  1  0.88970000  0.49490000  0.61550000  1.0 -0.4692678918
O  O49  1  0.09510000  0.56230000  0.90490000  1.0 -0.1044129518
O  O50  1  0.56230000  0.09510000  0.43770000  1.0 -0.1044129518
O  O51  1  0.90490000  0.43770000  0.09510000  1.0 -0.1044129518
O  O52  1  0.43770000  0.90490000  0.56230000  1.0 -0.1044129518
O  O53  1  0.90490000  0.09510000  0.56230000  1.0 -0.1055761409
O  O54  1  0.43770000  0.56230000  0.09510000  1.0 -0.1044129518
O  O55  1  0.09510000  0.90490000  0.43770000  1.0 -0.1044129518
O  O56  1  0.56230000  0.43770000  0.90490000  1.0 -0.1044129518
O  O57  1  0.56230000  0.90490000  0.09510000  1.0 -0.1044129518
O  O58  1  0.09510000  0.43770000  0.56230000  1.0 -0.1044129518
O  O59  1  0.43770000  0.09510000  0.90490000  1.0 -0.1055761409
O  O60  1  0.90490000  0.56230000  0.43770000  1.0 -0.1044129518
