# DDEC6 charges by PACMAN v1.1 (https://github.com/mtap-research/PACMAN-charge/)
data_LUXFOA_ion_pacman
_symmetry_space_group_name_H-M   'P 1'
_cell_length_a   18.59050000
_cell_length_b   18.59050000
_cell_length_c   18.59050000
_cell_angle_alpha   60.00000000
_cell_angle_beta   60.00000000
_cell_angle_gamma   60.00000000
_symmetry_Int_Tables_number   1
_chemical_formula_structural   Mn7H30C76(N7O5)6
_chemical_formula_sum   'Mn14 H60 C152 N84 O60'
_cell_volume   4543.16190004
_cell_formula_units_Z   2
loop_
 _symmetry_equiv_pos_site_id
 _symmetry_equiv_pos_as_xyz
  1  'x, y, z'
loop_
 _atom_site_type_symbol
 _atom_site_label
 _atom_site_symmetry_multiplicity
 _atom_site_fract_x
 _atom_site_fract_y
 _atom_site_fract_z
 _atom_site_occupancy
 _atom_site_charge
Mn  Mn1  1  0.37585000  0.87245000  0.37585000  1.0 0.807196886
Mn  Mn2  1  0.87245000  0.37585000  0.37585000  1.0 0.807196886
Mn  Mn3  1  0.37585000  0.37585000  0.37585000  1.0 0.807196886
Mn  Mn4  1  0.37585000  0.37585000  0.87245000  1.0 0.807196886
Mn  Mn5  1  0.62415000  0.12755000  0.62415000  1.0 0.807196886
Mn  Mn6  1  0.12755000  0.62415000  0.62415000  1.0 0.807196886
Mn  Mn7  1  0.62415000  0.62415000  0.62415000  1.0 0.807196886
Mn  Mn8  1  0.62415000  0.62415000  0.12755000  1.0 0.807196886
Mn  Mn9  1  0.00000000  0.00000000  0.50000000  1.0 0.8882831565
Mn  Mn10  1  0.50000000  0.50000000  0.00000000  1.0 0.8882831565
Mn  Mn11  1  0.50000000  0.00000000  0.00000000  1.0 0.8882831565
Mn  Mn12  1  0.00000000  0.50000000  0.50000000  1.0 0.8882831565
Mn  Mn13  1  0.00000000  0.50000000  0.00000000  1.0 0.8882831565
Mn  Mn14  1  0.50000000  0.00000000  0.50000000  1.0 0.8882831565
H  H1  1  0.32210000  0.67790000  0.53150000  1.0 0.0915760871
H  H2  1  0.67790000  0.32210000  0.46850000  1.0 0.0915760871
H  H3  1  0.53150000  0.46850000  0.32210000  1.0 0.0915760871
H  H4  1  0.46850000  0.53150000  0.67790000  1.0 0.0915760871
H  H5  1  0.53150000  0.32210000  0.67790000  1.0 0.0915760871
H  H6  1  0.46850000  0.67790000  0.32210000  1.0 0.0915760871
H  H7  1  0.32210000  0.53150000  0.46850000  1.0 0.0915760871
H  H8  1  0.67790000  0.46850000  0.53150000  1.0 0.0915760871
H  H9  1  0.67790000  0.53150000  0.32210000  1.0 0.0915760871
H  H10  1  0.32210000  0.46850000  0.67790000  1.0 0.0915760871
H  H11  1  0.46850000  0.32210000  0.53150000  1.0 0.0915760871
H  H12  1  0.53150000  0.67790000  0.46850000  1.0 0.0915760871
H  H13  1  0.87990000  0.55190000  0.87150000  1.0 0.2801440067
H  H14  1  0.69670000  0.55190000  0.87990000  1.0 0.2801440067
H  H15  1  0.87150000  0.55190000  0.69670000  1.0 0.2801440067
H  H16  1  0.93280000  0.55360000  0.77660000  1.0 0.2912875842
H  H17  1  0.73700000  0.55360000  0.93280000  1.0 0.2912875842
H  H18  1  0.77660000  0.55360000  0.73700000  1.0 0.2912875842
H  H19  1  0.55190000  0.87990000  0.69670000  1.0 0.2801440067
H  H20  1  0.55190000  0.69670000  0.87150000  1.0 0.2801440067
H  H21  1  0.55190000  0.87150000  0.87990000  1.0 0.2801440067
H  H22  1  0.55360000  0.93280000  0.73700000  1.0 0.2912875842
H  H23  1  0.55360000  0.73700000  0.77660000  1.0 0.2912875842
H  H24  1  0.55360000  0.77660000  0.93280000  1.0 0.2912875842
H  H25  1  0.87150000  0.69670000  0.87990000  1.0 0.2801440067
H  H26  1  0.87990000  0.87150000  0.69670000  1.0 0.2801440067
H  H27  1  0.69670000  0.87990000  0.87150000  1.0 0.2801440067
H  H28  1  0.77660000  0.73700000  0.93280000  1.0 0.2912875842
H  H29  1  0.93280000  0.77660000  0.73700000  1.0 0.2912875842
H  H30  1  0.73700000  0.93280000  0.77660000  1.0 0.2912875842
H  H31  1  0.69670000  0.87150000  0.55190000  1.0 0.2801440067
H  H32  1  0.87150000  0.87990000  0.55190000  1.0 0.2801440067
H  H33  1  0.87990000  0.69670000  0.55190000  1.0 0.2801440067
H  H34  1  0.73700000  0.77660000  0.55360000  1.0 0.2912875842
H  H35  1  0.77660000  0.93280000  0.55360000  1.0 0.2912875842
H  H36  1  0.93280000  0.73700000  0.55360000  1.0 0.2912875842
H  H37  1  0.12010000  0.44810000  0.12850000  1.0 0.2801440067
H  H38  1  0.30330000  0.44810000  0.12010000  1.0 0.2801440067
H  H39  1  0.12850000  0.44810000  0.30330000  1.0 0.2801440067
H  H40  1  0.06720000  0.44640000  0.22340000  1.0 0.2912875842
H  H41  1  0.26300000  0.44640000  0.06720000  1.0 0.2912875842
H  H42  1  0.22340000  0.44640000  0.26300000  1.0 0.2912875842
H  H43  1  0.44810000  0.12010000  0.30330000  1.0 0.2801440067
H  H44  1  0.44810000  0.30330000  0.12850000  1.0 0.2801440067
H  H45  1  0.44810000  0.12850000  0.12010000  1.0 0.2801440067
H  H46  1  0.44640000  0.06720000  0.26300000  1.0 0.2912875842
H  H47  1  0.44640000  0.26300000  0.22340000  1.0 0.2912875842
H  H48  1  0.44640000  0.22340000  0.06720000  1.0 0.2912875842
H  H49  1  0.12850000  0.30330000  0.12010000  1.0 0.2801440067
H  H50  1  0.12010000  0.12850000  0.30330000  1.0 0.2801440067
H  H51  1  0.30330000  0.12010000  0.12850000  1.0 0.2801440067
H  H52  1  0.22340000  0.26300000  0.06720000  1.0 0.2912875842
H  H53  1  0.06720000  0.22340000  0.26300000  1.0 0.2912875842
H  H54  1  0.26300000  0.06720000  0.22340000  1.0 0.2912875842
H  H55  1  0.30330000  0.12850000  0.44810000  1.0 0.2801440067
H  H56  1  0.12850000  0.12010000  0.44810000  1.0 0.2801440067
H  H57  1  0.12010000  0.30330000  0.44810000  1.0 0.2801440067
H  H58  1  0.26300000  0.22340000  0.44640000  1.0 0.2912875842
H  H59  1  0.22340000  0.06720000  0.44640000  1.0 0.2912875842
H  H60  1  0.06720000  0.26300000  0.44640000  1.0 0.2912875842
C  C1  1  0.27480000  0.72520000  0.51200000  1.0 0.1219305775
C  C2  1  0.72520000  0.27480000  0.48800000  1.0 0.1219305775
C  C3  1  0.51200000  0.48800000  0.27480000  1.0 0.1219305775
C  C4  1  0.48800000  0.51200000  0.72520000  1.0 0.1219305775
C  C5  1  0.51200000  0.27480000  0.72520000  1.0 0.1219305775
C  C6  1  0.48800000  0.72520000  0.27480000  1.0 0.1219305775
C  C7  1  0.27480000  0.51200000  0.48800000  1.0 0.1219305775
C  C8  1  0.72520000  0.48800000  0.51200000  1.0 0.1219305775
C  C9  1  0.72520000  0.51200000  0.27480000  1.0 0.1219305775
C  C10  1  0.27480000  0.48800000  0.72520000  1.0 0.1219305775
C  C11  1  0.48800000  0.27480000  0.51200000  1.0 0.1219305775
C  C12  1  0.51200000  0.72520000  0.48800000  1.0 0.1219305775
C  C13  1  0.20050000  0.85170000  0.44910000  1.0 -0.0151911718
C  C14  1  0.85170000  0.20050000  0.49870000  1.0 -0.0151911718
C  C15  1  0.44910000  0.49870000  0.20050000  1.0 -0.0151911718
C  C16  1  0.49870000  0.44910000  0.85170000  1.0 -0.0151911718
C  C17  1  0.44910000  0.20050000  0.85170000  1.0 -0.0151911718
C  C18  1  0.49870000  0.85170000  0.20050000  1.0 -0.0151911718
C  C19  1  0.20050000  0.44910000  0.49870000  1.0 -0.0151911718
C  C20  1  0.85170000  0.49870000  0.44910000  1.0 -0.0151911718
C  C21  1  0.85170000  0.44910000  0.20050000  1.0 -0.0151911718
C  C22  1  0.20050000  0.49870000  0.85170000  1.0 -0.0151911718
C  C23  1  0.49870000  0.20050000  0.44910000  1.0 -0.0151911718
C  C24  1  0.44910000  0.85170000  0.49870000  1.0 -0.0151911718
C  C25  1  0.79950000  0.14830000  0.55090000  1.0 -0.0151911718
C  C26  1  0.14830000  0.79950000  0.50130000  1.0 -0.0151911718
C  C27  1  0.55090000  0.50130000  0.79950000  1.0 -0.0151911718
C  C28  1  0.50130000  0.55090000  0.14830000  1.0 -0.0151911718
C  C29  1  0.55090000  0.79950000  0.14830000  1.0 -0.0151911718
C  C30  1  0.50130000  0.14830000  0.79950000  1.0 -0.0151911718
C  C31  1  0.79950000  0.55090000  0.50130000  1.0 -0.0151911718
C  C32  1  0.14830000  0.50130000  0.55090000  1.0 -0.0151911718
C  C33  1  0.14830000  0.55090000  0.79950000  1.0 -0.0151911718
C  C34  1  0.79950000  0.50130000  0.14830000  1.0 -0.0151911718
C  C35  1  0.50130000  0.79950000  0.55090000  1.0 -0.0151911718
C  C36  1  0.55090000  0.14830000  0.50130000  1.0 -0.0151911718
C  C37  1  0.18810000  0.94310000  0.38850000  1.0 0.490612515
C  C38  1  0.94310000  0.18810000  0.48030000  1.0 0.490612515
C  C39  1  0.38850000  0.48030000  0.18810000  1.0 0.490612515
C  C40  1  0.48030000  0.38850000  0.94310000  1.0 0.490612515
C  C41  1  0.38850000  0.18810000  0.94310000  1.0 0.490612515
C  C42  1  0.48030000  0.94310000  0.18810000  1.0 0.490612515
C  C43  1  0.18810000  0.38850000  0.48030000  1.0 0.490612515
C  C44  1  0.94310000  0.48030000  0.38850000  1.0 0.490612515
C  C45  1  0.94310000  0.38850000  0.18810000  1.0 0.490612515
C  C46  1  0.18810000  0.48030000  0.94310000  1.0 0.490612515
C  C47  1  0.48030000  0.18810000  0.38850000  1.0 0.490612515
C  C48  1  0.38850000  0.94310000  0.48030000  1.0 0.490612515
C  C49  1  0.81190000  0.05690000  0.61150000  1.0 0.490612515
C  C50  1  0.05690000  0.81190000  0.51970000  1.0 0.490612515
C  C51  1  0.61150000  0.51970000  0.81190000  1.0 0.490612515
C  C52  1  0.51970000  0.61150000  0.05690000  1.0 0.490612515
C  C53  1  0.61150000  0.81190000  0.05690000  1.0 0.490612515
C  C54  1  0.51970000  0.05690000  0.81190000  1.0 0.490612515
C  C55  1  0.81190000  0.61150000  0.51970000  1.0 0.490612515
C  C56  1  0.05690000  0.51970000  0.61150000  1.0 0.490612515
C  C57  1  0.05690000  0.61150000  0.81190000  1.0 0.490612515
C  C58  1  0.81190000  0.51970000  0.05690000  1.0 0.490612515
C  C59  1  0.51970000  0.81190000  0.61150000  1.0 0.490612515
C  C60  1  0.61150000  0.05690000  0.51970000  1.0 0.490612515
C  C61  1  0.95150000  0.04850000  0.34450000  1.0 -0.0388484979
C  C62  1  0.04850000  0.95150000  0.65550000  1.0 -0.0388484979
C  C63  1  0.34450000  0.65550000  0.95150000  1.0 -0.0388484979
C  C64  1  0.65550000  0.34450000  0.04850000  1.0 -0.0388484979
C  C65  1  0.34450000  0.95150000  0.04850000  1.0 -0.0388484979
C  C66  1  0.65550000  0.04850000  0.95150000  1.0 -0.0388484979
C  C67  1  0.95150000  0.34450000  0.65550000  1.0 -0.0388484979
C  C68  1  0.04850000  0.65550000  0.34450000  1.0 -0.0388484979
C  C69  1  0.04850000  0.34450000  0.95150000  1.0 -0.0388484979
C  C70  1  0.95150000  0.65550000  0.04850000  1.0 -0.0388484979
C  C71  1  0.65550000  0.95150000  0.34450000  1.0 -0.0388484979
C  C72  1  0.34450000  0.04850000  0.65550000  1.0 -0.0388484979
C  C73  1  0.82240000  0.17760000  0.32380000  1.0 0.1010859747
C  C74  1  0.17760000  0.82240000  0.67620000  1.0 0.1010859747
C  C75  1  0.32380000  0.67620000  0.82240000  1.0 0.1010859747
C  C76  1  0.67620000  0.32380000  0.17760000  1.0 0.1010859747
C  C77  1  0.32380000  0.82240000  0.17760000  1.0 0.1010859747
C  C78  1  0.67620000  0.17760000  0.82240000  1.0 0.1010859747
C  C79  1  0.82240000  0.32380000  0.67620000  1.0 0.1010859747
C  C80  1  0.17760000  0.67620000  0.32380000  1.0 0.1010859747
C  C81  1  0.17760000  0.32380000  0.82240000  1.0 0.1010859747
C  C82  1  0.82240000  0.67620000  0.17760000  1.0 0.1010859747
C  C83  1  0.67620000  0.82240000  0.32380000  1.0 0.1010859747
C  C84  1  0.32380000  0.17760000  0.67620000  1.0 0.1010859747
C  C85  1  0.93800000  0.06200000  0.21200000  1.0 0.2631756795
C  C86  1  0.06200000  0.93800000  0.78800000  1.0 0.2631756795
C  C87  1  0.21200000  0.78800000  0.93800000  1.0 0.2631756795
C  C88  1  0.78800000  0.21200000  0.06200000  1.0 0.2631756795
C  C89  1  0.21200000  0.93800000  0.06200000  1.0 0.2631756795
C  C90  1  0.78800000  0.06200000  0.93800000  1.0 0.2631756795
C  C91  1  0.93800000  0.21200000  0.78800000  1.0 0.2631756795
C  C92  1  0.06200000  0.78800000  0.21200000  1.0 0.2631756795
C  C93  1  0.06200000  0.21200000  0.93800000  1.0 0.2631756795
C  C94  1  0.93800000  0.78800000  0.06200000  1.0 0.2631756795
C  C95  1  0.78800000  0.93800000  0.21200000  1.0 0.2631756795
C  C96  1  0.21200000  0.06200000  0.78800000  1.0 0.2631756795
C  C97  1  0.91300000  0.12900000  0.34500000  1.0 0.0915760871
C  C98  1  0.12900000  0.91300000  0.61300000  1.0 0.1010859747
C  C99  1  0.34500000  0.61300000  0.91300000  1.0 0.0915760871
C  C100  1  0.61300000  0.34500000  0.12900000  1.0 0.0915760871
C  C101  1  0.34500000  0.91300000  0.12900000  1.0 0.0915760871
C  C102  1  0.61300000  0.12900000  0.91300000  1.0 0.0915760871
C  C103  1  0.91300000  0.34500000  0.61300000  1.0 0.0915760871
C  C104  1  0.12900000  0.61300000  0.34500000  1.0 0.0915760871
C  C105  1  0.12900000  0.34500000  0.91300000  1.0 0.0915760871
C  C106  1  0.91300000  0.61300000  0.12900000  1.0 0.0915760871
C  C107  1  0.61300000  0.91300000  0.34500000  1.0 0.0915760871
C  C108  1  0.34500000  0.12900000  0.61300000  1.0 0.0915760871
C  C109  1  0.08700000  0.87100000  0.65500000  1.0 0.0915760871
C  C110  1  0.87100000  0.08700000  0.38700000  1.0 0.0915760871
C  C111  1  0.65500000  0.38700000  0.08700000  1.0 0.0915760871
C  C112  1  0.38700000  0.65500000  0.87100000  1.0 0.0915760871
C  C113  1  0.65500000  0.08700000  0.87100000  1.0 0.0915760871
C  C114  1  0.38700000  0.87100000  0.08700000  1.0 0.0915760871
C  C115  1  0.08700000  0.65500000  0.38700000  1.0 0.0915760871
C  C116  1  0.87100000  0.38700000  0.65500000  1.0 0.0915760871
C  C117  1  0.87100000  0.65500000  0.08700000  1.0 0.0915760871
C  C118  1  0.08700000  0.38700000  0.87100000  1.0 0.0915760871
C  C119  1  0.38700000  0.08700000  0.65500000  1.0 0.0915760871
C  C120  1  0.65500000  0.87100000  0.38700000  1.0 0.0915760871
C  C121  1  0.79800000  0.16000000  0.34200000  1.0 -0.0278651667
C  C122  1  0.16000000  0.79800000  0.70000000  1.0 -0.0278651667
C  C123  1  0.34200000  0.70000000  0.79800000  1.0 -0.0278651667
C  C124  1  0.70000000  0.34200000  0.16000000  1.0 -0.0278651667
C  C125  1  0.34200000  0.79800000  0.16000000  1.0 -0.0278651667
C  C126  1  0.70000000  0.16000000  0.79800000  1.0 -0.0278651667
C  C127  1  0.79800000  0.34200000  0.70000000  1.0 -0.0278651667
C  C128  1  0.16000000  0.70000000  0.34200000  1.0 -0.0278651667
C  C129  1  0.16000000  0.34200000  0.79800000  1.0 -0.0278651667
C  C130  1  0.79800000  0.70000000  0.16000000  1.0 -0.0278651667
C  C131  1  0.70000000  0.79800000  0.34200000  1.0 -0.0278651667
C  C132  1  0.34200000  0.16000000  0.70000000  1.0 -0.0278651667
C  C133  1  0.20200000  0.84000000  0.65800000  1.0 -0.0278651667
C  C134  1  0.84000000  0.20200000  0.30000000  1.0 -0.0278651667
C  C135  1  0.65800000  0.30000000  0.20200000  1.0 -0.0278651667
C  C136  1  0.30000000  0.65800000  0.84000000  1.0 -0.0278651667
C  C137  1  0.65800000  0.20200000  0.84000000  1.0 -0.0278651667
C  C138  1  0.30000000  0.84000000  0.20200000  1.0 -0.0278651667
C  C139  1  0.20200000  0.65800000  0.30000000  1.0 -0.0278651667
C  C140  1  0.84000000  0.30000000  0.65800000  1.0 -0.0278651667
C  C141  1  0.84000000  0.65800000  0.20200000  1.0 -0.0278651667
C  C142  1  0.20200000  0.30000000  0.84000000  1.0 -0.0278651667
C  C143  1  0.30000000  0.20200000  0.65800000  1.0 -0.0278651667
C  C144  1  0.65800000  0.84000000  0.30000000  1.0 -0.0278651667
C  C145  1  0.81540000  0.55380000  0.81540000  1.0 0.5420376591
C  C146  1  0.55380000  0.81540000  0.81540000  1.0 0.5420376591
C  C147  1  0.81540000  0.81540000  0.81540000  1.0 0.5420376591
C  C148  1  0.81540000  0.81540000  0.55380000  1.0 0.5420376591
C  C149  1  0.18460000  0.44620000  0.18460000  1.0 0.5420376591
C  C150  1  0.44620000  0.18460000  0.18460000  1.0 0.5420376591
C  C151  1  0.18460000  0.18460000  0.18460000  1.0 0.5420376591
C  C152  1  0.18460000  0.18460000  0.44620000  1.0 0.5420376591
N  N1  1  0.28350000  0.80270000  0.45470000  1.0 -0.3376463421
N  N2  1  0.80270000  0.28350000  0.45910000  1.0 -0.3376463421
N  N3  1  0.45470000  0.45910000  0.28350000  1.0 -0.3376463421
N  N4  1  0.45910000  0.45470000  0.80270000  1.0 -0.3376463421
N  N5  1  0.45470000  0.28350000  0.80270000  1.0 -0.3376463421
N  N6  1  0.45910000  0.80270000  0.28350000  1.0 -0.3376463421
N  N7  1  0.28350000  0.45470000  0.45910000  1.0 -0.3376463421
N  N8  1  0.80270000  0.45910000  0.45470000  1.0 -0.3376463421
N  N9  1  0.80270000  0.45470000  0.28350000  1.0 -0.3376463421
N  N10  1  0.28350000  0.45910000  0.80270000  1.0 -0.3376463421
N  N11  1  0.45910000  0.28350000  0.45470000  1.0 -0.3376463421
N  N12  1  0.45470000  0.80270000  0.45910000  1.0 -0.3376463421
N  N13  1  0.71650000  0.19730000  0.54530000  1.0 -0.3376463421
N  N14  1  0.19730000  0.71650000  0.54090000  1.0 -0.3376463421
N  N15  1  0.54530000  0.54090000  0.71650000  1.0 -0.3376463421
N  N16  1  0.54090000  0.54530000  0.19730000  1.0 -0.3376463421
N  N17  1  0.54530000  0.71650000  0.19730000  1.0 -0.3376463421
N  N18  1  0.54090000  0.19730000  0.71650000  1.0 -0.3376463421
N  N19  1  0.71650000  0.54530000  0.54090000  1.0 -0.3376463421
N  N20  1  0.19730000  0.54090000  0.54530000  1.0 -0.3376463421
N  N21  1  0.19730000  0.54530000  0.71650000  1.0 -0.3376463421
N  N22  1  0.71650000  0.54090000  0.19730000  1.0 -0.3376463421
N  N23  1  0.54090000  0.71650000  0.54530000  1.0 -0.3376463421
N  N24  1  0.54530000  0.19730000  0.54090000  1.0 -0.3376463421
N  N25  1  0.90160000  0.09840000  0.29040000  1.0 0.1910301901
N  N26  1  0.09840000  0.90160000  0.70960000  1.0 0.1910301901
N  N27  1  0.29040000  0.70960000  0.90160000  1.0 0.1910301901
N  N28  1  0.70960000  0.29040000  0.09840000  1.0 0.1910301901
N  N29  1  0.29040000  0.90160000  0.09840000  1.0 0.1910301901
N  N30  1  0.70960000  0.09840000  0.90160000  1.0 0.1910301901
N  N31  1  0.90160000  0.29040000  0.70960000  1.0 0.1910301901
N  N32  1  0.09840000  0.70960000  0.29040000  1.0 0.1910301901
N  N33  1  0.09840000  0.29040000  0.90160000  1.0 0.1910301901
N  N34  1  0.90160000  0.70960000  0.09840000  1.0 0.1910301901
N  N35  1  0.70960000  0.90160000  0.29040000  1.0 0.1910301901
N  N36  1  0.29040000  0.09840000  0.70960000  1.0 0.1910301901
N  N37  1  0.84200000  0.08600000  0.34400000  1.0 -0.1384826035
N  N38  1  0.08600000  0.84200000  0.72800000  1.0 -0.1384826035
N  N39  1  0.34400000  0.72800000  0.84200000  1.0 -0.1384826035
N  N40  1  0.72800000  0.34400000  0.08600000  1.0 -0.1384826035
N  N41  1  0.34400000  0.84200000  0.08600000  1.0 -0.1384826035
N  N42  1  0.72800000  0.08600000  0.84200000  1.0 -0.1384826035
N  N43  1  0.84200000  0.34400000  0.72800000  1.0 -0.1384826035
N  N44  1  0.08600000  0.72800000  0.34400000  1.0 -0.1384826035
N  N45  1  0.08600000  0.34400000  0.84200000  1.0 -0.1384826035
N  N46  1  0.84200000  0.72800000  0.08600000  1.0 -0.1384826035
N  N47  1  0.72800000  0.84200000  0.34400000  1.0 -0.1384826035
N  N48  1  0.34400000  0.08600000  0.72800000  1.0 -0.1384826035
N  N49  1  0.15800000  0.91400000  0.65600000  1.0 -0.1384826035
N  N50  1  0.91400000  0.15800000  0.27200000  1.0 -0.1384826035
N  N51  1  0.65600000  0.27200000  0.15800000  1.0 -0.1384826035
N  N52  1  0.27200000  0.65600000  0.91400000  1.0 -0.1384826035
N  N53  1  0.65600000  0.15800000  0.91400000  1.0 -0.1384826035
N  N54  1  0.27200000  0.91400000  0.15800000  1.0 -0.1384826035
N  N55  1  0.15800000  0.65600000  0.27200000  1.0 -0.1384826035
N  N56  1  0.91400000  0.27200000  0.65600000  1.0 -0.1384826035
N  N57  1  0.91400000  0.65600000  0.15800000  1.0 -0.1384826035
N  N58  1  0.15800000  0.27200000  0.91400000  1.0 -0.1384826035
N  N59  1  0.27200000  0.15800000  0.65600000  1.0 -0.1384826035
N  N60  1  0.65600000  0.91400000  0.27200000  1.0 -0.1384826035
N  N61  1  0.88360000  0.55300000  0.82200000  1.0 -0.627814178
N  N62  1  0.74140000  0.55300000  0.88360000  1.0 -0.627814178
N  N63  1  0.82200000  0.55300000  0.74140000  1.0 -0.627814178
N  N64  1  0.55300000  0.88360000  0.74140000  1.0 -0.627814178
N  N65  1  0.55300000  0.74140000  0.82200000  1.0 -0.627814178
N  N66  1  0.55300000  0.82200000  0.88360000  1.0 -0.627814178
N  N67  1  0.82200000  0.74140000  0.88360000  1.0 -0.627814178
N  N68  1  0.88360000  0.82200000  0.74140000  1.0 -0.627814178
N  N69  1  0.74140000  0.88360000  0.82200000  1.0 -0.627814178
N  N70  1  0.74140000  0.82200000  0.55300000  1.0 -0.627814178
N  N71  1  0.82200000  0.88360000  0.55300000  1.0 -0.627814178
N  N72  1  0.88360000  0.74140000  0.55300000  1.0 -0.627814178
N  N73  1  0.11640000  0.44700000  0.17800000  1.0 -0.627814178
N  N74  1  0.25860000  0.44700000  0.11640000  1.0 -0.627814178
N  N75  1  0.17800000  0.44700000  0.25860000  1.0 -0.627814178
N  N76  1  0.44700000  0.11640000  0.25860000  1.0 -0.627814178
N  N77  1  0.44700000  0.25860000  0.17800000  1.0 -0.627814178
N  N78  1  0.44700000  0.17800000  0.11640000  1.0 -0.627814178
N  N79  1  0.17800000  0.25860000  0.11640000  1.0 -0.627814178
N  N80  1  0.11640000  0.17800000  0.25860000  1.0 -0.627814178
N  N81  1  0.25860000  0.11640000  0.17800000  1.0 -0.627814178
N  N82  1  0.25860000  0.17800000  0.44700000  1.0 -0.627814178
N  N83  1  0.17800000  0.11640000  0.44700000  1.0 -0.627814178
N  N84  1  0.11640000  0.25860000  0.44700000  1.0 -0.627814178
O  O1  1  0.25720000  0.96420000  0.33980000  1.0 -0.4532427968
O  O2  1  0.96420000  0.25720000  0.43880000  1.0 -0.4532427968
O  O3  1  0.33980000  0.43880000  0.25720000  1.0 -0.4532427968
O  O4  1  0.43880000  0.33980000  0.96420000  1.0 -0.4532427968
O  O5  1  0.33980000  0.25720000  0.96420000  1.0 -0.4532427968
O  O6  1  0.43880000  0.96420000  0.25720000  1.0 -0.4532427968
O  O7  1  0.25720000  0.33980000  0.43880000  1.0 -0.4532427968
O  O8  1  0.96420000  0.43880000  0.33980000  1.0 -0.4532427968
O  O9  1  0.96420000  0.33980000  0.25720000  1.0 -0.4532427968
O  O10  1  0.25720000  0.43880000  0.96420000  1.0 -0.4532427968
O  O11  1  0.43880000  0.25720000  0.33980000  1.0 -0.4532427968
O  O12  1  0.33980000  0.96420000  0.43880000  1.0 -0.4532427968
O  O13  1  0.74280000  0.03580000  0.66020000  1.0 -0.4532427968
O  O14  1  0.03580000  0.74280000  0.56120000  1.0 -0.4532427968
O  O15  1  0.66020000  0.56120000  0.74280000  1.0 -0.4532427968
O  O16  1  0.56120000  0.66020000  0.03580000  1.0 -0.4532427968
O  O17  1  0.66020000  0.74280000  0.03580000  1.0 -0.4532427968
O  O18  1  0.56120000  0.03580000  0.74280000  1.0 -0.4532427968
O  O19  1  0.74280000  0.66020000  0.56120000  1.0 -0.4532427968
O  O20  1  0.03580000  0.56120000  0.66020000  1.0 -0.4532427968
O  O21  1  0.03580000  0.66020000  0.74280000  1.0 -0.4532427968
O  O22  1  0.74280000  0.56120000  0.03580000  1.0 -0.4532427968
O  O23  1  0.56120000  0.74280000  0.66020000  1.0 -0.4532427968
O  O24  1  0.66020000  0.03580000  0.56120000  1.0 -0.4532427968
O  O25  1  0.11340000  0.99680000  0.38620000  1.0 -0.4946882197
O  O26  1  0.99680000  0.11340000  0.50360000  1.0 -0.4946882197
O  O27  1  0.38620000  0.50360000  0.11340000  1.0 -0.4946882197
O  O28  1  0.50360000  0.38620000  0.99680000  1.0 -0.4946882197
O  O29  1  0.38620000  0.11340000  0.99680000  1.0 -0.4946882197
O  O30  1  0.50360000  0.99680000  0.11340000  1.0 -0.4946882197
O  O31  1  0.11340000  0.38620000  0.50360000  1.0 -0.4946882197
O  O32  1  0.99680000  0.50360000  0.38620000  1.0 -0.4946882197
O  O33  1  0.99680000  0.38620000  0.11340000  1.0 -0.4946882197
O  O34  1  0.11340000  0.50360000  0.99680000  1.0 -0.4946882197
O  O35  1  0.50360000  0.11340000  0.38620000  1.0 -0.4946882197
O  O36  1  0.38620000  0.99680000  0.50360000  1.0 -0.4946882197
O  O37  1  0.88660000  0.00320000  0.61380000  1.0 -0.4946882197
O  O38  1  0.00320000  0.88660000  0.49640000  1.0 -0.4946882197
O  O39  1  0.61380000  0.49640000  0.88660000  1.0 -0.4946882197
O  O40  1  0.49640000  0.61380000  0.00320000  1.0 -0.4946882197
O  O41  1  0.61380000  0.88660000  0.00320000  1.0 -0.4946882197
O  O42  1  0.49640000  0.00320000  0.88660000  1.0 -0.4952353307
O  O43  1  0.88660000  0.61380000  0.49640000  1.0 -0.4946882197
O  O44  1  0.00320000  0.49640000  0.61380000  1.0 -0.4946882197
O  O45  1  0.00320000  0.61380000  0.88660000  1.0 -0.4952353307
O  O46  1  0.88660000  0.49640000  0.00320000  1.0 -0.4946882197
O  O47  1  0.49640000  0.88660000  0.61380000  1.0 -0.4946882197
O  O48  1  0.61380000  0.00320000  0.49640000  1.0 -0.4946882197
O  O49  1  0.93150000  0.06850000  0.40570000  1.0 -0.1916620203
O  O50  1  0.06850000  0.93150000  0.59430000  1.0 -0.1916620203
O  O51  1  0.40570000  0.59430000  0.93150000  1.0 -0.1916620203
O  O52  1  0.59430000  0.40570000  0.06850000  1.0 -0.1916620203
O  O53  1  0.40570000  0.93150000  0.06850000  1.0 -0.1916620203
O  O54  1  0.59430000  0.06850000  0.93150000  1.0 -0.1916620203
O  O55  1  0.93150000  0.40570000  0.59430000  1.0 -0.1916620203
O  O56  1  0.06850000  0.59430000  0.40570000  1.0 -0.1916620203
O  O57  1  0.06850000  0.40570000  0.93150000  1.0 -0.1916620203
O  O58  1  0.93150000  0.59430000  0.06850000  1.0 -0.1916620203
O  O59  1  0.59430000  0.93150000  0.40570000  1.0 -0.1916620203
O  O60  1  0.40570000  0.06850000  0.59430000  1.0 -0.1916620203
