# DDEC6 charges by PACMAN v1.1 (https://github.com/mtap-research/PACMAN-charge/)
data_LUXFEQ_FSR_pacman
_symmetry_space_group_name_H-M   'P 1'
_cell_length_a   26.83280000
_cell_length_b   26.83280000
_cell_length_c   26.83280000
_cell_angle_alpha   98.44030000
_cell_angle_beta   98.44030000
_cell_angle_gamma   98.44030000
_symmetry_Int_Tables_number   1
_chemical_formula_structural   Na4Cd4H10C30N12O29
_chemical_formula_sum   'Na24 Cd24 H60 C180 N72 O174'
_cell_volume   18621.55790398
_cell_formula_units_Z   6
loop_
 _symmetry_equiv_pos_site_id
 _symmetry_equiv_pos_as_xyz
  1  'x, y, z'
loop_
 _atom_site_type_symbol
 _atom_site_label
 _atom_site_symmetry_multiplicity
 _atom_site_fract_x
 _atom_site_fract_y
 _atom_site_fract_z
 _atom_site_occupancy
 _atom_site_charge
Na  Na1  1  0.34930000  0.93850000  0.67280000  1.0 0.9188296043
Na  Na2  1  0.93850000  0.67280000  0.34930000  1.0 0.9188296043
Na  Na3  1  0.67280000  0.34930000  0.93850000  1.0 0.9188296043
Na  Na4  1  0.65070000  0.32720000  0.06150000  1.0 0.9284780797
Na  Na5  1  0.06150000  0.65070000  0.32720000  1.0 0.9188296043
Na  Na6  1  0.32720000  0.06150000  0.65070000  1.0 0.9188296043
Na  Na7  1  0.65070000  0.06150000  0.32720000  1.0 0.9284780797
Na  Na8  1  0.06150000  0.32720000  0.65070000  1.0 0.9188296043
Na  Na9  1  0.32720000  0.65070000  0.06150000  1.0 0.9188296043
Na  Na10  1  0.34930000  0.67280000  0.93850000  1.0 0.9284780797
Na  Na11  1  0.93850000  0.34930000  0.67280000  1.0 0.9188296043
Na  Na12  1  0.67280000  0.93850000  0.34930000  1.0 0.9188296043
Na  Na13  1  0.32790000  0.16070000  0.73750000  1.0 0.9802108384
Na  Na14  1  0.16070000  0.73750000  0.32790000  1.0 0.9802108384
Na  Na15  1  0.73750000  0.32790000  0.16070000  1.0 0.9802108384
Na  Na16  1  0.67210000  0.26250000  0.83930000  1.0 1.0064998047
Na  Na17  1  0.83930000  0.67210000  0.26250000  1.0 1.0064998047
Na  Na18  1  0.26250000  0.83930000  0.67210000  1.0 1.0064998047
Na  Na19  1  0.67210000  0.83930000  0.26250000  1.0 0.9802108384
Na  Na20  1  0.83930000  0.26250000  0.67210000  1.0 0.9802108384
Na  Na21  1  0.26250000  0.67210000  0.83930000  1.0 0.9802108384
Na  Na22  1  0.32790000  0.73750000  0.16070000  1.0 0.9802108384
Na  Na23  1  0.16070000  0.32790000  0.73750000  1.0 0.9802108384
Na  Na24  1  0.73750000  0.16070000  0.32790000  1.0 0.9802108384
Cd  Cd1  1  0.34532000  0.13408000  0.96945000  1.0 0.8593840278
Cd  Cd2  1  0.13408000  0.96945000  0.34532000  1.0 0.8593840278
Cd  Cd3  1  0.96945000  0.34532000  0.13408000  1.0 0.8593840278
Cd  Cd4  1  0.65468000  0.03055000  0.86592000  1.0 0.8593840278
Cd  Cd5  1  0.86592000  0.65468000  0.03055000  1.0 0.8593840278
Cd  Cd6  1  0.03055000  0.86592000  0.65468000  1.0 0.8593840278
Cd  Cd7  1  0.65468000  0.86592000  0.03055000  1.0 0.8593840278
Cd  Cd8  1  0.86592000  0.03055000  0.65468000  1.0 0.8593840278
Cd  Cd9  1  0.03055000  0.65468000  0.86592000  1.0 0.8593840278
Cd  Cd10  1  0.34532000  0.96945000  0.13408000  1.0 0.8593840278
Cd  Cd11  1  0.13408000  0.34532000  0.96945000  1.0 0.8593840278
Cd  Cd12  1  0.96945000  0.13408000  0.34532000  1.0 0.8593840278
Cd  Cd13  1  0.40378000  0.95799000  0.79527000  1.0 0.8203704533
Cd  Cd14  1  0.95799000  0.79527000  0.40378000  1.0 0.8203704533
Cd  Cd15  1  0.79527000  0.40378000  0.95799000  1.0 0.8203704533
Cd  Cd16  1  0.59622000  0.20473000  0.04201000  1.0 0.8203704533
Cd  Cd17  1  0.04201000  0.59622000  0.20473000  1.0 0.8203704533
Cd  Cd18  1  0.20473000  0.04201000  0.59622000  1.0 0.8203704533
Cd  Cd19  1  0.59622000  0.04201000  0.20473000  1.0 0.8203704533
Cd  Cd20  1  0.04201000  0.20473000  0.59622000  1.0 0.8203704533
Cd  Cd21  1  0.20473000  0.59622000  0.04201000  1.0 0.8203704533
Cd  Cd22  1  0.40378000  0.79527000  0.95799000  1.0 0.8203704533
Cd  Cd23  1  0.95799000  0.40378000  0.79527000  1.0 0.8203704533
Cd  Cd24  1  0.79527000  0.95799000  0.40378000  1.0 0.8203704533
H  H1  1  0.39530000  0.04470000  0.04470000  1.0 0.1089442229
H  H2  1  0.04470000  0.04470000  0.39530000  1.0 0.1089442229
H  H3  1  0.04470000  0.39530000  0.04470000  1.0 0.1089442229
H  H4  1  0.60470000  0.95530000  0.95530000  1.0 0.1089442229
H  H5  1  0.95530000  0.60470000  0.95530000  1.0 0.1089442229
H  H6  1  0.95530000  0.95530000  0.60470000  1.0 0.1089442229
H  H7  1  0.39820000  0.02430000  0.92210000  1.0 0.1004073113
H  H8  1  0.02430000  0.92210000  0.39820000  1.0 0.1004073113
H  H9  1  0.92210000  0.39820000  0.02430000  1.0 0.1004073113
H  H10  1  0.60180000  0.07790000  0.97570000  1.0 0.1004073113
H  H11  1  0.97570000  0.60180000  0.07790000  1.0 0.1004073113
H  H12  1  0.07790000  0.97570000  0.60180000  1.0 0.1004073113
H  H13  1  0.60180000  0.97570000  0.07790000  1.0 0.1004073113
H  H14  1  0.97570000  0.07790000  0.60180000  1.0 0.1004073113
H  H15  1  0.07790000  0.60180000  0.97570000  1.0 0.1004073113
H  H16  1  0.39820000  0.92210000  0.02430000  1.0 0.1004073113
H  H17  1  0.02430000  0.39820000  0.92210000  1.0 0.1004073113
H  H18  1  0.92210000  0.02430000  0.39820000  1.0 0.1004073113
H  H19  1  0.47750000  0.11990000  0.99740000  1.0 0.1089442229
H  H20  1  0.11990000  0.99740000  0.47750000  1.0 0.1089442229
H  H21  1  0.99740000  0.47750000  0.11990000  1.0 0.1089442229
H  H22  1  0.52250000  0.00260000  0.88010000  1.0 0.1089442229
H  H23  1  0.88010000  0.52250000  0.00260000  1.0 0.1089442229
H  H24  1  0.00260000  0.88010000  0.52250000  1.0 0.1089442229
H  H25  1  0.52250000  0.88010000  0.00260000  1.0 0.1089442229
H  H26  1  0.88010000  0.00260000  0.52250000  1.0 0.1089442229
H  H27  1  0.00260000  0.52250000  0.88010000  1.0 0.1089442229
H  H28  1  0.47750000  0.99740000  0.11990000  1.0 0.1089442229
H  H29  1  0.11990000  0.47750000  0.99740000  1.0 0.1089442229
H  H30  1  0.99740000  0.11990000  0.47750000  1.0 0.1089442229
H  H31  1  0.44140000  0.90840000  0.90840000  1.0 0.1174459683
H  H32  1  0.90840000  0.90840000  0.44140000  1.0 0.1174459683
H  H33  1  0.90840000  0.44140000  0.90840000  1.0 0.1174459683
H  H34  1  0.55860000  0.09160000  0.09160000  1.0 0.1174459683
H  H35  1  0.09160000  0.55860000  0.09160000  1.0 0.1174459683
H  H36  1  0.09160000  0.09160000  0.55860000  1.0 0.1174459683
H  H37  1  0.21400000  0.05990000  0.05990000  1.0 0.4355761783
H  H38  1  0.05990000  0.05990000  0.21400000  1.0 0.4242165463
H  H39  1  0.05990000  0.21400000  0.05990000  1.0 0.4355761783
H  H40  1  0.78600000  0.94010000  0.94010000  1.0 0.4327743555
H  H41  1  0.94010000  0.78600000  0.94010000  1.0 0.4327743555
H  H42  1  0.94010000  0.94010000  0.78600000  1.0 0.4327743555
H  H43  1  0.54130000  0.95210000  0.68050000  1.0 0.3999862217
H  H44  1  0.95210000  0.68050000  0.54130000  1.0 0.4074120796
H  H45  1  0.68050000  0.54130000  0.95210000  1.0 0.4074120796
H  H46  1  0.45870000  0.31950000  0.04790000  1.0 0.3999862217
H  H47  1  0.04790000  0.45870000  0.31950000  1.0 0.3999862217
H  H48  1  0.31950000  0.04790000  0.45870000  1.0 0.3999862217
H  H49  1  0.45870000  0.04790000  0.31950000  1.0 0.3999862217
H  H50  1  0.04790000  0.31950000  0.45870000  1.0 0.3999862217
H  H51  1  0.31950000  0.45870000  0.04790000  1.0 0.3999862217
H  H52  1  0.54130000  0.68050000  0.95210000  1.0 0.3999862217
H  H53  1  0.95210000  0.54130000  0.68050000  1.0 0.4074120796
H  H54  1  0.68050000  0.95210000  0.54130000  1.0 0.3999862217
H  H55  1  0.29670000  0.79000000  0.78990000  1.0 0.4327743555
H  H56  1  0.79000000  0.78990000  0.29670000  1.0 0.4327743555
H  H57  1  0.78990000  0.29670000  0.79000000  1.0 0.4355761783
H  H58  1  0.70330000  0.21010000  0.21000000  1.0 0.4327743555
H  H59  1  0.21000000  0.70330000  0.21010000  1.0 0.4327743555
H  H60  1  0.21010000  0.21000000  0.70330000  1.0 0.4355761783
C  C1  1  0.36140000  0.04860000  0.04860000  1.0 0.1595180583
C  C2  1  0.04860000  0.04860000  0.36140000  1.0 0.1595180583
C  C3  1  0.04860000  0.36140000  0.04860000  1.0 0.1595180583
C  C4  1  0.63860000  0.95140000  0.95140000  1.0 0.1595180583
C  C5  1  0.95140000  0.63860000  0.95140000  1.0 0.1595180583
C  C6  1  0.95140000  0.95140000  0.63860000  1.0 0.1595180583
C  C7  1  0.28930000  0.07290000  0.04000000  1.0 -0.002307008
C  C8  1  0.07290000  0.04000000  0.28930000  1.0 0.0006207552
C  C9  1  0.04000000  0.28930000  0.07290000  1.0 -0.002307008
C  C10  1  0.71070000  0.96000000  0.92710000  1.0 -0.002307008
C  C11  1  0.92710000  0.71070000  0.96000000  1.0 0.0006207552
C  C12  1  0.96000000  0.92710000  0.71070000  1.0 -0.002307008
C  C13  1  0.71070000  0.92710000  0.96000000  1.0 -0.002307008
C  C14  1  0.92710000  0.96000000  0.71070000  1.0 -0.002307008
C  C15  1  0.96000000  0.71070000  0.92710000  1.0 0.0006207552
C  C16  1  0.28930000  0.04000000  0.07290000  1.0 0.0006207552
C  C17  1  0.07290000  0.28930000  0.04000000  1.0 0.0006207552
C  C18  1  0.04000000  0.07290000  0.28930000  1.0 0.0006207552
C  C19  1  0.25170000  0.10000000  0.01840000  1.0 0.5297103948
C  C20  1  0.10000000  0.01840000  0.25170000  1.0 0.5297103948
C  C21  1  0.01840000  0.25170000  0.10000000  1.0 0.5297103948
C  C22  1  0.74830000  0.98160000  0.90000000  1.0 0.5297103948
C  C23  1  0.90000000  0.74830000  0.98160000  1.0 0.5297103948
C  C24  1  0.98160000  0.90000000  0.74830000  1.0 0.5297103948
C  C25  1  0.74830000  0.90000000  0.98160000  1.0 0.5297103948
C  C26  1  0.90000000  0.98160000  0.74830000  1.0 0.5297103948
C  C27  1  0.98160000  0.74830000  0.90000000  1.0 0.5297103948
C  C28  1  0.25170000  0.01840000  0.10000000  1.0 0.5297103948
C  C29  1  0.10000000  0.25170000  0.01840000  1.0 0.5297103948
C  C30  1  0.01840000  0.10000000  0.25170000  1.0 0.5297103948
C  C31  1  0.38470000  0.04060000  0.89530000  1.0 0.1729032387
C  C32  1  0.04060000  0.89530000  0.38470000  1.0 0.1729032387
C  C33  1  0.89530000  0.38470000  0.04060000  1.0 0.1729032387
C  C34  1  0.61530000  0.10470000  0.95940000  1.0 0.1729032387
C  C35  1  0.95940000  0.61530000  0.10470000  1.0 0.1729032387
C  C36  1  0.10470000  0.95940000  0.61530000  1.0 0.1729032387
C  C37  1  0.61530000  0.95940000  0.10470000  1.0 0.1729032387
C  C38  1  0.95940000  0.10470000  0.61530000  1.0 0.1729032387
C  C39  1  0.10470000  0.61530000  0.95940000  1.0 0.1729032387
C  C40  1  0.38470000  0.89530000  0.04060000  1.0 0.1729032387
C  C41  1  0.04060000  0.38470000  0.89530000  1.0 0.1729032387
C  C42  1  0.89530000  0.04060000  0.38470000  1.0 0.1729032387
C  C43  1  0.34750000  0.09230000  0.85530000  1.0 0.0162308576
C  C44  1  0.09230000  0.85530000  0.34750000  1.0 0.0162308576
C  C45  1  0.85530000  0.34750000  0.09230000  1.0 0.0142204584
C  C46  1  0.65250000  0.14470000  0.90770000  1.0 0.0162308576
C  C47  1  0.90770000  0.65250000  0.14470000  1.0 0.0162308576
C  C48  1  0.14470000  0.90770000  0.65250000  1.0 0.0162308576
C  C49  1  0.65250000  0.90770000  0.14470000  1.0 0.0162308576
C  C50  1  0.90770000  0.14470000  0.65250000  1.0 0.0162308576
C  C51  1  0.14470000  0.65250000  0.90770000  1.0 0.0162308576
C  C52  1  0.34750000  0.85530000  0.09230000  1.0 0.0162308576
C  C53  1  0.09230000  0.34750000  0.85530000  1.0 0.0162308576
C  C54  1  0.85530000  0.09230000  0.34750000  1.0 0.0162308576
C  C55  1  0.36200000  0.05570000  0.82040000  1.0 -0.002307008
C  C56  1  0.05570000  0.82040000  0.36200000  1.0 -0.002307008
C  C57  1  0.82040000  0.36200000  0.05570000  1.0 -0.002307008
C  C58  1  0.63800000  0.17960000  0.94430000  1.0 -0.002307008
C  C59  1  0.94430000  0.63800000  0.17960000  1.0 -0.002307008
C  C60  1  0.17960000  0.94430000  0.63800000  1.0 -0.002307008
C  C61  1  0.63800000  0.94430000  0.17960000  1.0 -0.002307008
C  C62  1  0.94430000  0.17960000  0.63800000  1.0 -0.002307008
C  C63  1  0.17960000  0.63800000  0.94430000  1.0 -0.002307008
C  C64  1  0.36200000  0.82040000  0.05570000  1.0 -0.002307008
C  C65  1  0.05570000  0.36200000  0.82040000  1.0 -0.002307008
C  C66  1  0.82040000  0.05570000  0.36200000  1.0 -0.002307008
C  C67  1  0.35450000  0.04860000  0.76450000  1.0 0.6087073958
C  C68  1  0.04860000  0.76450000  0.35450000  1.0 0.6087073958
C  C69  1  0.76450000  0.35450000  0.04860000  1.0 0.6087073958
C  C70  1  0.64550000  0.23550000  0.95140000  1.0 0.6087073958
C  C71  1  0.95140000  0.64550000  0.23550000  1.0 0.6087073958
C  C72  1  0.23550000  0.95140000  0.64550000  1.0 0.6087073958
C  C73  1  0.64550000  0.95140000  0.23550000  1.0 0.6087073958
C  C74  1  0.95140000  0.23550000  0.64550000  1.0 0.6087073958
C  C75  1  0.23550000  0.64550000  0.95140000  1.0 0.6087073958
C  C76  1  0.35450000  0.76450000  0.04860000  1.0 0.6087073958
C  C77  1  0.04860000  0.35450000  0.76450000  1.0 0.6087073958
C  C78  1  0.76450000  0.04860000  0.35450000  1.0 0.6087073958
C  C79  1  0.31970000  0.13580000  0.85310000  1.0 0.5772766994
C  C80  1  0.13580000  0.85310000  0.31970000  1.0 0.5772766994
C  C81  1  0.85310000  0.31970000  0.13580000  1.0 0.5772766994
C  C82  1  0.68030000  0.14690000  0.86420000  1.0 0.5772766994
C  C83  1  0.86420000  0.68030000  0.14690000  1.0 0.5772766994
C  C84  1  0.14690000  0.86420000  0.68030000  1.0 0.5772766994
C  C85  1  0.68030000  0.86420000  0.14690000  1.0 0.5772766994
C  C86  1  0.86420000  0.14690000  0.68030000  1.0 0.5772766994
C  C87  1  0.14690000  0.68030000  0.86420000  1.0 0.5772766994
C  C88  1  0.31970000  0.85310000  0.13580000  1.0 0.5772766994
C  C89  1  0.13580000  0.31970000  0.85310000  1.0 0.5772766994
C  C90  1  0.85310000  0.13580000  0.31970000  1.0 0.5772766994
C  C91  1  0.47250000  0.15410000  0.00720000  1.0 0.1595180583
C  C92  1  0.15410000  0.00720000  0.47250000  1.0 0.1595180583
C  C93  1  0.00720000  0.47250000  0.15410000  1.0 0.1595180583
C  C94  1  0.52750000  0.99280000  0.84590000  1.0 0.1595180583
C  C95  1  0.84590000  0.52750000  0.99280000  1.0 0.1595180583
C  C96  1  0.99280000  0.84590000  0.52750000  1.0 0.1595180583
C  C97  1  0.52750000  0.84590000  0.99280000  1.0 0.1595180583
C  C98  1  0.84590000  0.99280000  0.52750000  1.0 0.1595180583
C  C99  1  0.99280000  0.52750000  0.84590000  1.0 0.1595180583
C  C100  1  0.47250000  0.00720000  0.15410000  1.0 0.1595180583
C  C101  1  0.15410000  0.47250000  0.00720000  1.0 0.1595180583
C  C102  1  0.00720000  0.15410000  0.47250000  1.0 0.1595180583
C  C103  1  0.49000000  0.23600000  0.03650000  1.0 -0.0368148264
C  C104  1  0.23600000  0.03650000  0.49000000  1.0 -0.0368148264
C  C105  1  0.03650000  0.49000000  0.23600000  1.0 -0.0368148264
C  C106  1  0.51000000  0.96350000  0.76400000  1.0 -0.0368148264
C  C107  1  0.76400000  0.51000000  0.96350000  1.0 -0.0368148264
C  C108  1  0.96350000  0.76400000  0.51000000  1.0 -0.0368148264
C  C109  1  0.51000000  0.76400000  0.96350000  1.0 -0.0368148264
C  C110  1  0.76400000  0.96350000  0.51000000  1.0 -0.0368148264
C  C111  1  0.96350000  0.51000000  0.76400000  1.0 -0.0368148264
C  C112  1  0.49000000  0.03650000  0.23600000  1.0 -0.0368148264
C  C113  1  0.23600000  0.49000000  0.03650000  1.0 -0.0368148264
C  C114  1  0.03650000  0.23600000  0.49000000  1.0 -0.0368148264
C  C115  1  0.43730000  0.21970000  0.02120000  1.0 0.0573887792
C  C116  1  0.21970000  0.02120000  0.43730000  1.0 0.0573887792
C  C117  1  0.02120000  0.43730000  0.21970000  1.0 0.0573887792
C  C118  1  0.56270000  0.97880000  0.78030000  1.0 0.0573887792
C  C119  1  0.78030000  0.56270000  0.97880000  1.0 0.0573887792
C  C120  1  0.97880000  0.78030000  0.56270000  1.0 0.0573887792
C  C121  1  0.56270000  0.78030000  0.97880000  1.0 0.0573887792
C  C122  1  0.78030000  0.97880000  0.56270000  1.0 0.0573887792
C  C123  1  0.97880000  0.56270000  0.78030000  1.0 0.0573887792
C  C124  1  0.43730000  0.02120000  0.21970000  1.0 0.0573887792
C  C125  1  0.21970000  0.43730000  0.02120000  1.0 0.0573887792
C  C126  1  0.02120000  0.21970000  0.43730000  1.0 0.0573887792
C  C127  1  0.39100000  0.24540000  0.02050000  1.0 0.5643583844
C  C128  1  0.24540000  0.02050000  0.39100000  1.0 0.5643583844
C  C129  1  0.02050000  0.39100000  0.24540000  1.0 0.5643583844
C  C130  1  0.60900000  0.97950000  0.75460000  1.0 0.5643583844
C  C131  1  0.75460000  0.60900000  0.97950000  1.0 0.5657962935
C  C132  1  0.97950000  0.75460000  0.60900000  1.0 0.5657962935
C  C133  1  0.60900000  0.75460000  0.97950000  1.0 0.5643583844
C  C134  1  0.75460000  0.97950000  0.60900000  1.0 0.5643583844
C  C135  1  0.97950000  0.60900000  0.75460000  1.0 0.5657962935
C  C136  1  0.39100000  0.02050000  0.24540000  1.0 0.5643583844
C  C137  1  0.24540000  0.39100000  0.02050000  1.0 0.5643583844
C  C138  1  0.02050000  0.24540000  0.39100000  1.0 0.5643583844
C  C139  1  0.52050000  0.28460000  0.05880000  1.0 0.598152059
C  C140  1  0.28460000  0.05880000  0.52050000  1.0 0.598152059
C  C141  1  0.05880000  0.52050000  0.28460000  1.0 0.598152059
C  C142  1  0.47950000  0.94120000  0.71540000  1.0 0.598152059
C  C143  1  0.71540000  0.47950000  0.94120000  1.0 0.598152059
C  C144  1  0.94120000  0.71540000  0.47950000  1.0 0.598152059
C  C145  1  0.47950000  0.71540000  0.94120000  1.0 0.598152059
C  C146  1  0.71540000  0.94120000  0.47950000  1.0 0.598152059
C  C147  1  0.94120000  0.47950000  0.71540000  1.0 0.598152059
C  C148  1  0.52050000  0.05880000  0.28460000  1.0 0.598152059
C  C149  1  0.28460000  0.52050000  0.05880000  1.0 0.598152059
C  C150  1  0.05880000  0.28460000  0.52050000  1.0 0.598152059
C  C151  1  0.41370000  0.88610000  0.88610000  1.0 0.1595180583
C  C152  1  0.88610000  0.88610000  0.41370000  1.0 0.1595180583
C  C153  1  0.88610000  0.41370000  0.88610000  1.0 0.1595180583
C  C154  1  0.58630000  0.11390000  0.11390000  1.0 0.1595180583
C  C155  1  0.11390000  0.58630000  0.11390000  1.0 0.1595180583
C  C156  1  0.11390000  0.11390000  0.58630000  1.0 0.1595180583
C  C157  1  0.32810000  0.85500000  0.76880000  1.0 0.5421093679
C  C158  1  0.85500000  0.76880000  0.32810000  1.0 0.5421093679
C  C159  1  0.76880000  0.32810000  0.85500000  1.0 0.5421093679
C  C160  1  0.67190000  0.23120000  0.14500000  1.0 0.5421093679
C  C161  1  0.14500000  0.67190000  0.23120000  1.0 0.5421093679
C  C162  1  0.23120000  0.14500000  0.67190000  1.0 0.5421093679
C  C163  1  0.67190000  0.14500000  0.23120000  1.0 0.5421093679
C  C164  1  0.14500000  0.23120000  0.67190000  1.0 0.5421093679
C  C165  1  0.23120000  0.67190000  0.14500000  1.0 0.5421093679
C  C166  1  0.32810000  0.76880000  0.85500000  1.0 0.5421093679
C  C167  1  0.85500000  0.32810000  0.76880000  1.0 0.5421093679
C  C168  1  0.76880000  0.85500000  0.32810000  1.0 0.5421093679
C  C169  1  0.35850000  0.85590000  0.82150000  1.0 0.0380245188
C  C170  1  0.85590000  0.82150000  0.35850000  1.0 0.0380245188
C  C171  1  0.82150000  0.35850000  0.85590000  1.0 0.0380245188
C  C172  1  0.64150000  0.17850000  0.14410000  1.0 0.0380245188
C  C173  1  0.14410000  0.64150000  0.17850000  1.0 0.0380245188
C  C174  1  0.17850000  0.14410000  0.64150000  1.0 0.0380245188
C  C175  1  0.64150000  0.14410000  0.17850000  1.0 0.0380245188
C  C176  1  0.14410000  0.17850000  0.64150000  1.0 0.0380245188
C  C177  1  0.17850000  0.64150000  0.14410000  1.0 0.0380245188
C  C178  1  0.35850000  0.82150000  0.85590000  1.0 0.0380245188
C  C179  1  0.85590000  0.35850000  0.82150000  1.0 0.0380245188
C  C180  1  0.82150000  0.85590000  0.35850000  1.0 0.0380245188
N  N1  1  0.33450000  0.07940000  0.02400000  1.0 -0.2709012241
N  N2  1  0.07940000  0.02400000  0.33450000  1.0 -0.2709012241
N  N3  1  0.02400000  0.33450000  0.07940000  1.0 -0.2709012241
N  N4  1  0.66550000  0.97600000  0.92060000  1.0 -0.2709012241
N  N5  1  0.92060000  0.66550000  0.97600000  1.0 -0.2709012241
N  N6  1  0.97600000  0.92060000  0.66550000  1.0 -0.2709012241
N  N7  1  0.66550000  0.92060000  0.97600000  1.0 -0.2709012241
N  N8  1  0.92060000  0.97600000  0.66550000  1.0 -0.2709012241
N  N9  1  0.97600000  0.66550000  0.92060000  1.0 -0.2709012241
N  N10  1  0.33450000  0.02400000  0.07940000  1.0 -0.2709012241
N  N11  1  0.07940000  0.33450000  0.02400000  1.0 -0.2709012241
N  N12  1  0.02400000  0.07940000  0.33450000  1.0 -0.2709012241
N  N13  1  0.36410000  0.08110000  0.90300000  1.0 -0.3010515197
N  N14  1  0.08110000  0.90300000  0.36410000  1.0 -0.3010515197
N  N15  1  0.90300000  0.36410000  0.08110000  1.0 -0.3010515197
N  N16  1  0.63590000  0.09700000  0.91890000  1.0 -0.3010515197
N  N17  1  0.91890000  0.63590000  0.09700000  1.0 -0.3010515197
N  N18  1  0.09700000  0.91890000  0.63590000  1.0 -0.3010515197
N  N19  1  0.63590000  0.91890000  0.09700000  1.0 -0.3010515197
N  N20  1  0.91890000  0.09700000  0.63590000  1.0 -0.3010515197
N  N21  1  0.09700000  0.63590000  0.91890000  1.0 -0.3010515197
N  N22  1  0.36410000  0.90300000  0.08110000  1.0 -0.3010515197
N  N23  1  0.08110000  0.36410000  0.90300000  1.0 -0.3010515197
N  N24  1  0.90300000  0.08110000  0.36410000  1.0 -0.3010515197
N  N25  1  0.38510000  0.02370000  0.84580000  1.0 -0.3158582513
N  N26  1  0.02370000  0.84580000  0.38510000  1.0 -0.3158582513
N  N27  1  0.84580000  0.38510000  0.02370000  1.0 -0.3158582513
N  N28  1  0.61490000  0.15420000  0.97630000  1.0 -0.3145852907
N  N29  1  0.97630000  0.61490000  0.15420000  1.0 -0.3158582513
N  N30  1  0.15420000  0.97630000  0.61490000  1.0 -0.3145852907
N  N31  1  0.61490000  0.97630000  0.15420000  1.0 -0.3158582513
N  N32  1  0.97630000  0.15420000  0.61490000  1.0 -0.3145852907
N  N33  1  0.15420000  0.61490000  0.97630000  1.0 -0.3145852907
N  N34  1  0.38510000  0.84580000  0.02370000  1.0 -0.3158582513
N  N35  1  0.02370000  0.38510000  0.84580000  1.0 -0.3145852907
N  N36  1  0.84580000  0.02370000  0.38510000  1.0 -0.3158582513
N  N37  1  0.51110000  0.19330000  0.02630000  1.0 -0.2765721305
N  N38  1  0.19330000  0.02630000  0.51110000  1.0 -0.2765721305
N  N39  1  0.02630000  0.51110000  0.19330000  1.0 -0.2765721305
N  N40  1  0.48890000  0.97370000  0.80670000  1.0 -0.2765721305
N  N41  1  0.80670000  0.48890000  0.97370000  1.0 -0.2765721305
N  N42  1  0.97370000  0.80670000  0.48890000  1.0 -0.2765721305
N  N43  1  0.48890000  0.80670000  0.97370000  1.0 -0.2765721305
N  N44  1  0.80670000  0.97370000  0.48890000  1.0 -0.2765721305
N  N45  1  0.97370000  0.48890000  0.80670000  1.0 -0.2765721305
N  N46  1  0.51110000  0.02630000  0.19330000  1.0 -0.2765721305
N  N47  1  0.19330000  0.51110000  0.02630000  1.0 -0.2765721305
N  N48  1  0.02630000  0.19330000  0.51110000  1.0 -0.2765721305
N  N49  1  0.42630000  0.16820000  0.00330000  1.0 -0.3158582513
N  N50  1  0.16820000  0.00330000  0.42630000  1.0 -0.3158582513
N  N51  1  0.00330000  0.42630000  0.16820000  1.0 -0.3158582513
N  N52  1  0.57370000  0.99670000  0.83180000  1.0 -0.3158582513
N  N53  1  0.83180000  0.57370000  0.99670000  1.0 -0.3145852907
N  N54  1  0.99670000  0.83180000  0.57370000  1.0 -0.3158582513
N  N55  1  0.57370000  0.83180000  0.99670000  1.0 -0.3158582513
N  N56  1  0.83180000  0.99670000  0.57370000  1.0 -0.3158582513
N  N57  1  0.99670000  0.57370000  0.83180000  1.0 -0.3145852907
N  N58  1  0.42630000  0.00330000  0.16820000  1.0 -0.3158582513
N  N59  1  0.16820000  0.42630000  0.00330000  1.0 -0.3158582513
N  N60  1  0.00330000  0.16820000  0.42630000  1.0 -0.3158582513
N  N61  1  0.39290000  0.89660000  0.84210000  1.0 -0.2709012241
N  N62  1  0.89660000  0.84210000  0.39290000  1.0 -0.2709012241
N  N63  1  0.84210000  0.39290000  0.89660000  1.0 -0.2709012241
N  N64  1  0.60710000  0.15790000  0.10340000  1.0 -0.2709012241
N  N65  1  0.10340000  0.60710000  0.15790000  1.0 -0.2709012241
N  N66  1  0.15790000  0.10340000  0.60710000  1.0 -0.2709012241
N  N67  1  0.60710000  0.10340000  0.15790000  1.0 -0.2709012241
N  N68  1  0.10340000  0.15790000  0.60710000  1.0 -0.2709012241
N  N69  1  0.15790000  0.60710000  0.10340000  1.0 -0.2709012241
N  N70  1  0.39290000  0.84210000  0.89660000  1.0 -0.2709012241
N  N71  1  0.89660000  0.39290000  0.84210000  1.0 -0.2709012241
N  N72  1  0.84210000  0.89660000  0.39290000  1.0 -0.2709012241
O  O1  1  0.25990000  0.12930000  0.98690000  1.0 -0.3808788258
O  O2  1  0.12930000  0.98690000  0.25990000  1.0 -0.3808788258
O  O3  1  0.98690000  0.25990000  0.12930000  1.0 -0.3808788258
O  O4  1  0.74010000  0.01310000  0.87070000  1.0 -0.3808788258
O  O5  1  0.87070000  0.74010000  0.01310000  1.0 -0.3808788258
O  O6  1  0.01310000  0.87070000  0.74010000  1.0 -0.3808788258
O  O7  1  0.74010000  0.87070000  0.01310000  1.0 -0.3808788258
O  O8  1  0.87070000  0.01310000  0.74010000  1.0 -0.3808788258
O  O9  1  0.01310000  0.74010000  0.87070000  1.0 -0.3808788258
O  O10  1  0.25990000  0.98690000  0.12930000  1.0 -0.3808788258
O  O11  1  0.12930000  0.25990000  0.98690000  1.0 -0.3808788258
O  O12  1  0.98690000  0.12930000  0.25990000  1.0 -0.3808788258
O  O13  1  0.20660000  0.09520000  0.03320000  1.0 -0.4722180484
O  O14  1  0.09520000  0.03320000  0.20660000  1.0 -0.479874939
O  O15  1  0.03320000  0.20660000  0.09520000  1.0 -0.479874939
O  O16  1  0.79340000  0.96680000  0.90480000  1.0 -0.479874939
O  O17  1  0.90480000  0.79340000  0.96680000  1.0 -0.4722180484
O  O18  1  0.96680000  0.90480000  0.79340000  1.0 -0.479874939
O  O19  1  0.79340000  0.90480000  0.96680000  1.0 -0.479874939
O  O20  1  0.90480000  0.96680000  0.79340000  1.0 -0.4722180484
O  O21  1  0.96680000  0.79340000  0.90480000  1.0 -0.4722180484
O  O22  1  0.20660000  0.03320000  0.09520000  1.0 -0.479874939
O  O23  1  0.09520000  0.20660000  0.03320000  1.0 -0.479874939
O  O24  1  0.03320000  0.09520000  0.20660000  1.0 -0.479874939
O  O25  1  0.36470000  0.00610000  0.74310000  1.0 -0.5559584363
O  O26  1  0.00610000  0.74310000  0.36470000  1.0 -0.5559584363
O  O27  1  0.74310000  0.36470000  0.00610000  1.0 -0.5559584363
O  O28  1  0.63530000  0.25690000  0.99390000  1.0 -0.5559584363
O  O29  1  0.99390000  0.63530000  0.25690000  1.0 -0.5559584363
O  O30  1  0.25690000  0.99390000  0.63530000  1.0 -0.5559584363
O  O31  1  0.63530000  0.99390000  0.25690000  1.0 -0.5559584363
O  O32  1  0.99390000  0.25690000  0.63530000  1.0 -0.5559584363
O  O33  1  0.25690000  0.63530000  0.99390000  1.0 -0.5505318069
O  O34  1  0.36470000  0.74310000  0.00610000  1.0 -0.5505318069
O  O35  1  0.00610000  0.36470000  0.74310000  1.0 -0.5559584363
O  O36  1  0.74310000  0.00610000  0.36470000  1.0 -0.5559584363
O  O37  1  0.34160000  0.08050000  0.73770000  1.0 -0.5987907839
O  O38  1  0.08050000  0.73770000  0.34160000  1.0 -0.5987907839
O  O39  1  0.73770000  0.34160000  0.08050000  1.0 -0.5987907839
O  O40  1  0.65840000  0.26230000  0.91950000  1.0 -0.5987907839
O  O41  1  0.91950000  0.65840000  0.26230000  1.0 -0.5987907839
O  O42  1  0.26230000  0.91950000  0.65840000  1.0 -0.5987907839
O  O43  1  0.65840000  0.91950000  0.26230000  1.0 -0.5987907839
O  O44  1  0.91950000  0.26230000  0.65840000  1.0 -0.5987907839
O  O45  1  0.26230000  0.65840000  0.91950000  1.0 -0.5987907839
O  O46  1  0.34160000  0.73770000  0.08050000  1.0 -0.5987907839
O  O47  1  0.08050000  0.34160000  0.73770000  1.0 -0.5987907839
O  O48  1  0.73770000  0.08050000  0.34160000  1.0 -0.5987907839
O  O49  1  0.31200000  0.15850000  0.89540000  1.0 -0.4722180484
O  O50  1  0.15850000  0.89540000  0.31200000  1.0 -0.4722180484
O  O51  1  0.89540000  0.31200000  0.15850000  1.0 -0.4722180484
O  O52  1  0.68800000  0.10460000  0.84150000  1.0 -0.4722180484
O  O53  1  0.84150000  0.68800000  0.10460000  1.0 -0.4722180484
O  O54  1  0.10460000  0.84150000  0.68800000  1.0 -0.4722180484
O  O55  1  0.68800000  0.84150000  0.10460000  1.0 -0.4722180484
O  O56  1  0.84150000  0.10460000  0.68800000  1.0 -0.4722180484
O  O57  1  0.10460000  0.68800000  0.84150000  1.0 -0.4722180484
O  O58  1  0.31200000  0.89540000  0.15850000  1.0 -0.4722180484
O  O59  1  0.15850000  0.31200000  0.89540000  1.0 -0.4722180484
O  O60  1  0.89540000  0.15850000  0.31200000  1.0 -0.4722180484
O  O61  1  0.30520000  0.14850000  0.81230000  1.0 -0.5505318069
O  O62  1  0.14850000  0.81230000  0.30520000  1.0 -0.5391200867
O  O63  1  0.81230000  0.30520000  0.14850000  1.0 -0.5505318069
O  O64  1  0.69480000  0.18770000  0.85150000  1.0 -0.5391200867
O  O65  1  0.85150000  0.69480000  0.18770000  1.0 -0.5505318069
O  O66  1  0.18770000  0.85150000  0.69480000  1.0 -0.5391200867
O  O67  1  0.69480000  0.85150000  0.18770000  1.0 -0.5505318069
O  O68  1  0.85150000  0.18770000  0.69480000  1.0 -0.5391200867
O  O69  1  0.18770000  0.69480000  0.85150000  1.0 -0.5505318069
O  O70  1  0.30520000  0.81230000  0.14850000  1.0 -0.5505318069
O  O71  1  0.14850000  0.30520000  0.81230000  1.0 -0.5391200867
O  O72  1  0.81230000  0.14850000  0.30520000  1.0 -0.5505318069
O  O73  1  0.34990000  0.22200000  0.00340000  1.0 -0.3613776116
O  O74  1  0.22200000  0.00340000  0.34990000  1.0 -0.3613776116
O  O75  1  0.00340000  0.34990000  0.22200000  1.0 -0.3613776116
O  O76  1  0.65010000  0.99660000  0.77800000  1.0 -0.3613776116
O  O77  1  0.77800000  0.65010000  0.99660000  1.0 -0.3613776116
O  O78  1  0.99660000  0.77800000  0.65010000  1.0 -0.3613776116
O  O79  1  0.65010000  0.77800000  0.99660000  1.0 -0.3613776116
O  O80  1  0.77800000  0.99660000  0.65010000  1.0 -0.3613776116
O  O81  1  0.99660000  0.65010000  0.77800000  1.0 -0.3613776116
O  O82  1  0.34990000  0.00340000  0.22200000  1.0 -0.3613776116
O  O83  1  0.22200000  0.34990000  0.00340000  1.0 -0.3613776116
O  O84  1  0.00340000  0.22200000  0.34990000  1.0 -0.3613776116
O  O85  1  0.40600000  0.29560000  0.04080000  1.0 -0.5325906243
O  O86  1  0.29560000  0.04080000  0.40600000  1.0 -0.5391200867
O  O87  1  0.04080000  0.40600000  0.29560000  1.0 -0.5391200867
O  O88  1  0.59400000  0.95920000  0.70440000  1.0 -0.5391200867
O  O89  1  0.70440000  0.59400000  0.95920000  1.0 -0.5325906243
O  O90  1  0.95920000  0.70440000  0.59400000  1.0 -0.5325906243
O  O91  1  0.59400000  0.70440000  0.95920000  1.0 -0.5391200867
O  O92  1  0.70440000  0.95920000  0.59400000  1.0 -0.5391200867
O  O93  1  0.95920000  0.59400000  0.70440000  1.0 -0.5325906243
O  O94  1  0.40600000  0.04080000  0.29560000  1.0 -0.5391200867
O  O95  1  0.29560000  0.40600000  0.04080000  1.0 -0.5391200867
O  O96  1  0.04080000  0.29560000  0.40600000  1.0 -0.5391200867
O  O97  1  0.56910000  0.28780000  0.06730000  1.0 -0.5391200867
O  O98  1  0.28780000  0.06730000  0.56910000  1.0 -0.5391200867
O  O99  1  0.06730000  0.56910000  0.28780000  1.0 -0.5391200867
O  O100  1  0.43090000  0.93270000  0.71220000  1.0 -0.5391200867
O  O101  1  0.71220000  0.43090000  0.93270000  1.0 -0.5391200867
O  O102  1  0.93270000  0.71220000  0.43090000  1.0 -0.5325906243
O  O103  1  0.43090000  0.71220000  0.93270000  1.0 -0.5391200867
O  O104  1  0.71220000  0.93270000  0.43090000  1.0 -0.5391200867
O  O105  1  0.93270000  0.43090000  0.71220000  1.0 -0.5325906243
O  O106  1  0.56910000  0.06730000  0.28780000  1.0 -0.5391200867
O  O107  1  0.28780000  0.56910000  0.06730000  1.0 -0.5325906243
O  O108  1  0.06730000  0.28780000  0.56910000  1.0 -0.5391200867
O  O109  1  0.49790000  0.32280000  0.06750000  1.0 -0.479874939
O  O110  1  0.32280000  0.06750000  0.49790000  1.0 -0.4722180484
O  O111  1  0.06750000  0.49790000  0.32280000  1.0 -0.4722180484
O  O112  1  0.50210000  0.93250000  0.67720000  1.0 -0.479874939
O  O113  1  0.67720000  0.50210000  0.93250000  1.0 -0.4867382868
O  O114  1  0.93250000  0.67720000  0.50210000  1.0 -0.479874939
O  O115  1  0.50210000  0.67720000  0.93250000  1.0 -0.479874939
O  O116  1  0.67720000  0.93250000  0.50210000  1.0 -0.4722180484
O  O117  1  0.93250000  0.50210000  0.67720000  1.0 -0.479874939
O  O118  1  0.49790000  0.06750000  0.32280000  1.0 -0.4722180484
O  O119  1  0.32280000  0.49790000  0.06750000  1.0 -0.479874939
O  O120  1  0.06750000  0.32280000  0.49790000  1.0 -0.479874939
O  O121  1  0.33630000  0.88960000  0.74670000  1.0 -0.4428144766
O  O122  1  0.88960000  0.74670000  0.33630000  1.0 -0.4428144766
O  O123  1  0.74670000  0.33630000  0.88960000  1.0 -0.4428144766
O  O124  1  0.66370000  0.25330000  0.11040000  1.0 -0.4428144766
O  O125  1  0.11040000  0.66370000  0.25330000  1.0 -0.4428144766
O  O126  1  0.25330000  0.11040000  0.66370000  1.0 -0.4428144766
O  O127  1  0.66370000  0.11040000  0.25330000  1.0 -0.4428144766
O  O128  1  0.11040000  0.25330000  0.66370000  1.0 -0.4428144766
O  O129  1  0.25330000  0.66370000  0.11040000  1.0 -0.4428144766
O  O130  1  0.33630000  0.74670000  0.88960000  1.0 -0.4428144766
O  O131  1  0.88960000  0.33630000  0.74670000  1.0 -0.4428144766
O  O132  1  0.74670000  0.88960000  0.33630000  1.0 -0.4428144766
O  O133  1  0.29270000  0.81270000  0.75170000  1.0 -0.5505318069
O  O134  1  0.81270000  0.75170000  0.29270000  1.0 -0.5505318069
O  O135  1  0.75170000  0.29270000  0.81270000  1.0 -0.5505318069
O  O136  1  0.70730000  0.24830000  0.18730000  1.0 -0.5505318069
O  O137  1  0.18730000  0.70730000  0.24830000  1.0 -0.5505318069
O  O138  1  0.24830000  0.18730000  0.70730000  1.0 -0.5505318069
O  O139  1  0.70730000  0.18730000  0.24830000  1.0 -0.5505318069
O  O140  1  0.18730000  0.24830000  0.70730000  1.0 -0.5505318069
O  O141  1  0.24830000  0.70730000  0.18730000  1.0 -0.5505318069
O  O142  1  0.29270000  0.75170000  0.81270000  1.0 -0.5505318069
O  O143  1  0.81270000  0.29270000  0.75170000  1.0 -0.5505318069
O  O144  1  0.75170000  0.81270000  0.29270000  1.0 -0.5505318069
O  O145  1  0.37785000  0.00000000  0.62215000  1.0 -0.5987907839
O  O146  1  0.00000000  0.62215000  0.37785000  1.0 -0.6071404242
O  O147  1  0.62215000  0.37785000  0.00000000  1.0 -0.6071404242
O  O148  1  0.62215000  0.00000000  0.37785000  1.0 -0.5987907839
O  O149  1  0.00000000  0.37785000  0.62215000  1.0 -0.6071404242
O  O150  1  0.37785000  0.62215000  0.00000000  1.0 -0.5987907839
O  O151  1  0.33710000  0.85120000  0.63010000  1.0 -0.5987907839
O  O152  1  0.85120000  0.63010000  0.33710000  1.0 -0.5833542569
O  O153  1  0.63010000  0.33710000  0.85120000  1.0 -0.5883507851
O  O154  1  0.66290000  0.36990000  0.14880000  1.0 -0.5883507851
O  O155  1  0.14880000  0.66290000  0.36990000  1.0 -0.5883507851
O  O156  1  0.36990000  0.14880000  0.66290000  1.0 -0.5883507851
O  O157  1  0.66290000  0.14880000  0.36990000  1.0 -0.5987907839
O  O158  1  0.14880000  0.36990000  0.66290000  1.0 -0.5883507851
O  O159  1  0.36990000  0.66290000  0.14880000  1.0 -0.5987907839
O  O160  1  0.33710000  0.63010000  0.85120000  1.0 -0.5883507851
O  O161  1  0.85120000  0.33710000  0.63010000  1.0 -0.5833542569
O  O162  1  0.63010000  0.85120000  0.33710000  1.0 -0.5987907839
O  O163  1  0.39200000  0.22300000  0.79500000  1.0 -0.1568239851
O  O164  1  0.22300000  0.79500000  0.39200000  1.0 -0.1495695882
O  O165  1  0.79500000  0.39200000  0.22300000  1.0 -0.1568239851
O  O166  1  0.60800000  0.20500000  0.77700000  1.0 -0.1495695882
O  O167  1  0.77700000  0.60800000  0.20500000  1.0 -0.1495695882
O  O168  1  0.20500000  0.77700000  0.60800000  1.0 -0.1495695882
O  O169  1  0.60800000  0.77700000  0.20500000  1.0 -0.1413034124
O  O170  1  0.77700000  0.20500000  0.60800000  1.0 -0.1568239851
O  O171  1  0.20500000  0.60800000  0.77700000  1.0 -0.1413034124
O  O172  1  0.39200000  0.79500000  0.22300000  1.0 -0.1413034124
O  O173  1  0.22300000  0.39200000  0.79500000  1.0 -0.1495695882
O  O174  1  0.79500000  0.22300000  0.39200000  1.0 -0.1495695882
