# DDEC6 charges by PACMAN v1.1 (https://github.com/mtap-research/PACMAN-charge/)
data_LUYVAD_FSR_pacman
_symmetry_space_group_name_H-M   'P 1'
_cell_length_a   13.49850000
_cell_length_b   13.49850000
_cell_length_c   18.12000000
_cell_angle_alpha   90.00000000
_cell_angle_beta   90.00000000
_cell_angle_gamma   120.00000000
_symmetry_Int_Tables_number   1
_chemical_formula_structural   V4P7H13O27
_chemical_formula_sum   'V16 P28 H52 O108'
_cell_volume   2859.30080660
_cell_formula_units_Z   4
loop_
 _symmetry_equiv_pos_site_id
 _symmetry_equiv_pos_as_xyz
  1  'x, y, z'
loop_
 _atom_site_type_symbol
 _atom_site_label
 _atom_site_symmetry_multiplicity
 _atom_site_fract_x
 _atom_site_fract_y
 _atom_site_fract_z
 _atom_site_occupancy
 _atom_site_charge
V  V1  1  0.00000000  0.00000000  0.00000000  1.0 1.7886497918
V  V2  1  0.00000000  0.00000000  0.50000000  1.0 1.7886497918
V  V3  1  0.00000000  0.00000000  0.75000000  1.0 1.779484028
V  V4  1  0.00000000  0.00000000  0.25000000  1.0 1.779484028
V  V5  1  0.29214000  0.43297000  0.95846000  1.0 1.7083172643
V  V6  1  0.56703000  0.85917000  0.95846000  1.0 1.7083172643
V  V7  1  0.14083000  0.70786000  0.95846000  1.0 1.7083172643
V  V8  1  0.43297000  0.29214000  0.54154000  1.0 1.7083172643
V  V9  1  0.85917000  0.56703000  0.54154000  1.0 1.7083172643
V  V10  1  0.70786000  0.14083000  0.54154000  1.0 1.7083172643
V  V11  1  0.70786000  0.56703000  0.04154000  1.0 1.7083172643
V  V12  1  0.43297000  0.14083000  0.04154000  1.0 1.7083172643
V  V13  1  0.85917000  0.29214000  0.04154000  1.0 1.7083172643
V  V14  1  0.56703000  0.70786000  0.45846000  1.0 1.7083172643
V  V15  1  0.14083000  0.43297000  0.45846000  1.0 1.7083172643
V  V16  1  0.29214000  0.85917000  0.45846000  1.0 1.7083172643
P  P1  1  0.16065000  0.18634000  0.87084000  1.0 1.127679402
P  P2  1  0.81366000  0.97431000  0.87084000  1.0 1.127679402
P  P3  1  0.02569000  0.83935000  0.87084000  1.0 1.127679402
P  P4  1  0.18634000  0.16065000  0.62916000  1.0 1.127679402
P  P5  1  0.97431000  0.81366000  0.62916000  1.0 1.127679402
P  P6  1  0.83935000  0.02569000  0.62916000  1.0 1.127679402
P  P7  1  0.83935000  0.81366000  0.12916000  1.0 1.127679402
P  P8  1  0.18634000  0.02569000  0.12916000  1.0 1.127679402
P  P9  1  0.97431000  0.16065000  0.12916000  1.0 1.127679402
P  P10  1  0.81366000  0.83935000  0.37084000  1.0 1.127679402
P  P11  1  0.02569000  0.18634000  0.37084000  1.0 1.127679402
P  P12  1  0.16065000  0.97431000  0.37084000  1.0 1.127679402
P  P13  1  0.50385000  0.63115000  0.05342000  1.0 1.5602981194
P  P14  1  0.36885000  0.87270000  0.05342000  1.0 1.5602981194
P  P15  1  0.12730000  0.49615000  0.05342000  1.0 1.5602981194
P  P16  1  0.63115000  0.50385000  0.44658000  1.0 1.5602981194
P  P17  1  0.87270000  0.36885000  0.44658000  1.0 1.5602981194
P  P18  1  0.49615000  0.12730000  0.44658000  1.0 1.5602981194
P  P19  1  0.49615000  0.36885000  0.94658000  1.0 1.5602981194
P  P20  1  0.63115000  0.12730000  0.94658000  1.0 1.5602981194
P  P21  1  0.87270000  0.50385000  0.94658000  1.0 1.5602981194
P  P22  1  0.36885000  0.49615000  0.55342000  1.0 1.5602981194
P  P23  1  0.12730000  0.63115000  0.55342000  1.0 1.5602981194
P  P24  1  0.50385000  0.87270000  0.55342000  1.0 1.5602981194
P  P25  1  0.33333333  0.66666667  0.86158000  1.0 1.1893263403
P  P26  1  0.66666667  0.33333333  0.63842000  1.0 1.1893263403
P  P27  1  0.66666667  0.33333333  0.13842000  1.0 1.1893263403
P  P28  1  0.33333333  0.66666667  0.36158000  1.0 1.1893263403
H  H1  1  0.25000000  0.25900000  0.00200000  1.0 0.3987217192
H  H2  1  0.74100000  0.99100000  0.00200000  1.0 0.3987217192
H  H3  1  0.00900000  0.75000000  0.00200000  1.0 0.3987217192
H  H4  1  0.25900000  0.25000000  0.49800000  1.0 0.3987217192
H  H5  1  0.99100000  0.74100000  0.49800000  1.0 0.3987217192
H  H6  1  0.75000000  0.00900000  0.49800000  1.0 0.3987217192
H  H7  1  0.75000000  0.74100000  0.99800000  1.0 0.3987217192
H  H8  1  0.25900000  0.00900000  0.99800000  1.0 0.3987217192
H  H9  1  0.99100000  0.25000000  0.99800000  1.0 0.3987217192
H  H10  1  0.74100000  0.75000000  0.50200000  1.0 0.3987217192
H  H11  1  0.00900000  0.25900000  0.50200000  1.0 0.3987217192
H  H12  1  0.25000000  0.99100000  0.50200000  1.0 0.3987217192
H  H13  1  0.25400000  0.38000000  0.03800000  1.0 0.3371225068
H  H14  1  0.62000000  0.87400000  0.03800000  1.0 0.3371225068
H  H15  1  0.12600000  0.74600000  0.03800000  1.0 0.3371225068
H  H16  1  0.38000000  0.25400000  0.46200000  1.0 0.3371225068
H  H17  1  0.87400000  0.62000000  0.46200000  1.0 0.3371225068
H  H18  1  0.74600000  0.12600000  0.46200000  1.0 0.3371225068
H  H19  1  0.74600000  0.62000000  0.96200000  1.0 0.3371225068
H  H20  1  0.38000000  0.12600000  0.96200000  1.0 0.3371225068
H  H21  1  0.87400000  0.25400000  0.96200000  1.0 0.3371225068
H  H22  1  0.62000000  0.74600000  0.53800000  1.0 0.3371225068
H  H23  1  0.12600000  0.38000000  0.53800000  1.0 0.3371225068
H  H24  1  0.25400000  0.87400000  0.53800000  1.0 0.3371225068
H  H25  1  0.22900000  0.19300000  0.84710000  1.0 0.0722322588
H  H26  1  0.80700000  0.03600000  0.84710000  1.0 0.0722322588
H  H27  1  0.96400000  0.77100000  0.84710000  1.0 0.0722322588
H  H28  1  0.19300000  0.22900000  0.65290000  1.0 0.0722322588
H  H29  1  0.03600000  0.80700000  0.65290000  1.0 0.0722322588
H  H30  1  0.77100000  0.96400000  0.65290000  1.0 0.0722322588
H  H31  1  0.77100000  0.80700000  0.15290000  1.0 0.0722322588
H  H32  1  0.19300000  0.96400000  0.15290000  1.0 0.0722322588
H  H33  1  0.03600000  0.22900000  0.15290000  1.0 0.0722322588
H  H34  1  0.80700000  0.77100000  0.34710000  1.0 0.0722322588
H  H35  1  0.96400000  0.19300000  0.34710000  1.0 0.0722322588
H  H36  1  0.22900000  0.03600000  0.34710000  1.0 0.0722322588
H  H37  1  0.33333333  0.66666667  0.80750000  1.0 0.0401303489
H  H38  1  0.66666667  0.33333333  0.69250000  1.0 0.0401303489
H  H39  1  0.66666667  0.33333333  0.19250000  1.0 0.0401303489
H  H40  1  0.33333333  0.66666667  0.30750000  1.0 0.0401303489
H  H41  1  0.44280000  0.65700000  0.14550000  1.0 0.3893053699
H  H42  1  0.34300000  0.78580000  0.14550000  1.0 0.3893053699
H  H43  1  0.21420000  0.55720000  0.14550000  1.0 0.3893053699
H  H44  1  0.65700000  0.44280000  0.35450000  1.0 0.3893053699
H  H45  1  0.78580000  0.34300000  0.35450000  1.0 0.3893053699
H  H46  1  0.55720000  0.21420000  0.35450000  1.0 0.3893053699
H  H47  1  0.55720000  0.34300000  0.85450000  1.0 0.3893053699
H  H48  1  0.65700000  0.21420000  0.85450000  1.0 0.3893053699
H  H49  1  0.78580000  0.44280000  0.85450000  1.0 0.3893053699
H  H50  1  0.34300000  0.55720000  0.64550000  1.0 0.3893053699
H  H51  1  0.21420000  0.65700000  0.64550000  1.0 0.3893053699
H  H52  1  0.44280000  0.78580000  0.64550000  1.0 0.3893053699
O  O1  1  0.13470000  0.10830000  0.93808000  1.0 -0.7307183153
O  O2  1  0.89170000  0.02640000  0.93808000  1.0 -0.7307183153
O  O3  1  0.97360000  0.86530000  0.93808000  1.0 -0.7307183153
O  O4  1  0.10830000  0.13470000  0.56192000  1.0 -0.7307183153
O  O5  1  0.02640000  0.89170000  0.56192000  1.0 -0.7307183153
O  O6  1  0.86530000  0.97360000  0.56192000  1.0 -0.7307183153
O  O7  1  0.86530000  0.89170000  0.06192000  1.0 -0.7307183153
O  O8  1  0.10830000  0.97360000  0.06192000  1.0 -0.7307183153
O  O9  1  0.02640000  0.13470000  0.06192000  1.0 -0.7307183153
O  O10  1  0.89170000  0.86530000  0.43808000  1.0 -0.7307183153
O  O11  1  0.97360000  0.10830000  0.43808000  1.0 -0.7307183153
O  O12  1  0.13470000  0.02640000  0.43808000  1.0 -0.7307183153
O  O13  1  0.06640000  0.14080000  0.81289000  1.0 -0.7307183153
O  O14  1  0.85920000  0.92560000  0.81289000  1.0 -0.7307183153
O  O15  1  0.07440000  0.93360000  0.81289000  1.0 -0.7307183153
O  O16  1  0.14080000  0.06640000  0.68711000  1.0 -0.7307183153
O  O17  1  0.92560000  0.85920000  0.68711000  1.0 -0.7307183153
O  O18  1  0.93360000  0.07440000  0.68711000  1.0 -0.7307183153
O  O19  1  0.93360000  0.85920000  0.18711000  1.0 -0.7307183153
O  O20  1  0.14080000  0.07440000  0.18711000  1.0 -0.7307183153
O  O21  1  0.92560000  0.06640000  0.18711000  1.0 -0.7307183153
O  O22  1  0.85920000  0.93360000  0.31289000  1.0 -0.7307183153
O  O23  1  0.07440000  0.14080000  0.31289000  1.0 -0.7307183153
O  O24  1  0.06640000  0.92560000  0.31289000  1.0 -0.7307183153
O  O25  1  0.38030000  0.54680000  0.03508000  1.0 -0.815865403
O  O26  1  0.45320000  0.83350000  0.03508000  1.0 -0.809772798
O  O27  1  0.16650000  0.61970000  0.03508000  1.0 -0.809772798
O  O28  1  0.54680000  0.38030000  0.46492000  1.0 -0.809772798
O  O29  1  0.83350000  0.45320000  0.46492000  1.0 -0.809772798
O  O30  1  0.61970000  0.16650000  0.46492000  1.0 -0.809772798
O  O31  1  0.61970000  0.45320000  0.96492000  1.0 -0.809772798
O  O32  1  0.54680000  0.16650000  0.96492000  1.0 -0.809772798
O  O33  1  0.83350000  0.38030000  0.96492000  1.0 -0.809772798
O  O34  1  0.45320000  0.61970000  0.53508000  1.0 -0.815865403
O  O35  1  0.16650000  0.54680000  0.53508000  1.0 -0.815865403
O  O36  1  0.38030000  0.83350000  0.53508000  1.0 -0.815865403
O  O37  1  0.18900000  0.30690000  0.89239000  1.0 -0.6969569133
O  O38  1  0.69310000  0.88210000  0.89239000  1.0 -0.6969569133
O  O39  1  0.11790000  0.81100000  0.89239000  1.0 -0.6969569133
O  O40  1  0.30690000  0.18900000  0.60761000  1.0 -0.6969569133
O  O41  1  0.88210000  0.69310000  0.60761000  1.0 -0.6969569133
O  O42  1  0.81100000  0.11790000  0.60761000  1.0 -0.6969569133
O  O43  1  0.81100000  0.69310000  0.10761000  1.0 -0.6969569133
O  O44  1  0.30690000  0.11790000  0.10761000  1.0 -0.6969569133
O  O45  1  0.88210000  0.18900000  0.10761000  1.0 -0.6969569133
O  O46  1  0.69310000  0.81100000  0.39239000  1.0 -0.6969569133
O  O47  1  0.11790000  0.30690000  0.39239000  1.0 -0.6969569133
O  O48  1  0.18900000  0.88210000  0.39239000  1.0 -0.6969569133
O  O49  1  0.32680000  0.55170000  0.88225000  1.0 -0.7087314334
O  O50  1  0.44830000  0.77510000  0.88225000  1.0 -0.7087314334
O  O51  1  0.22490000  0.67320000  0.88225000  1.0 -0.7087314334
O  O52  1  0.55170000  0.32680000  0.61775000  1.0 -0.7087314334
O  O53  1  0.77510000  0.44830000  0.61775000  1.0 -0.7087314334
O  O54  1  0.67320000  0.22490000  0.61775000  1.0 -0.7087314334
O  O55  1  0.67320000  0.44830000  0.11775000  1.0 -0.7087314334
O  O56  1  0.55170000  0.22490000  0.11775000  1.0 -0.7087314334
O  O57  1  0.77510000  0.32680000  0.11775000  1.0 -0.7087314334
O  O58  1  0.44830000  0.67320000  0.38225000  1.0 -0.7087314334
O  O59  1  0.22490000  0.55170000  0.38225000  1.0 -0.7087314334
O  O60  1  0.32680000  0.77510000  0.38225000  1.0 -0.7087314334
O  O61  1  0.57110000  0.57340000  0.07552000  1.0 -0.809772798
O  O62  1  0.42660000  0.99770000  0.07552000  1.0 -0.809772798
O  O63  1  0.00230000  0.42890000  0.07552000  1.0 -0.809772798
O  O64  1  0.57340000  0.57110000  0.42448000  1.0 -0.809772798
O  O65  1  0.99770000  0.42660000  0.42448000  1.0 -0.809772798
O  O66  1  0.42890000  0.00230000  0.42448000  1.0 -0.809772798
O  O67  1  0.42890000  0.42660000  0.92448000  1.0 -0.809772798
O  O68  1  0.57340000  0.00230000  0.92448000  1.0 -0.809772798
O  O69  1  0.99770000  0.57110000  0.92448000  1.0 -0.809772798
O  O70  1  0.42660000  0.42890000  0.57552000  1.0 -0.809772798
O  O71  1  0.00230000  0.57340000  0.57552000  1.0 -0.809772798
O  O72  1  0.57110000  0.99770000  0.57552000  1.0 -0.809772798
O  O73  1  0.56500000  0.71710000  0.99164000  1.0 -0.7792421288
O  O74  1  0.28290000  0.84790000  0.99164000  1.0 -0.7792421288
O  O75  1  0.15210000  0.43500000  0.99164000  1.0 -0.7792421288
O  O76  1  0.71710000  0.56500000  0.50836000  1.0 -0.7792421288
O  O77  1  0.84790000  0.28290000  0.50836000  1.0 -0.7792421288
O  O78  1  0.43500000  0.15210000  0.50836000  1.0 -0.7792421288
O  O79  1  0.43500000  0.28290000  0.00836000  1.0 -0.7792421288
O  O80  1  0.71710000  0.15210000  0.00836000  1.0 -0.7792421288
O  O81  1  0.84790000  0.56500000  0.00836000  1.0 -0.7792421288
O  O82  1  0.28290000  0.43500000  0.49164000  1.0 -0.7792421288
O  O83  1  0.15210000  0.71710000  0.49164000  1.0 -0.7792421288
O  O84  1  0.56500000  0.84790000  0.49164000  1.0 -0.7792421288
O  O85  1  0.25600000  0.31090000  0.04097000  1.0 -0.7307183153
O  O86  1  0.68910000  0.94510000  0.04097000  1.0 -0.7307183153
O  O87  1  0.05490000  0.74400000  0.04097000  1.0 -0.7307183153
O  O88  1  0.31090000  0.25600000  0.45903000  1.0 -0.7307183153
O  O89  1  0.94510000  0.68910000  0.45903000  1.0 -0.7307183153
O  O90  1  0.74400000  0.05490000  0.45903000  1.0 -0.7307183153
O  O91  1  0.74400000  0.68910000  0.95903000  1.0 -0.7307183153
O  O92  1  0.31090000  0.05490000  0.95903000  1.0 -0.7307183153
O  O93  1  0.94510000  0.25600000  0.95903000  1.0 -0.7307183153
O  O94  1  0.68910000  0.74400000  0.54097000  1.0 -0.7307183153
O  O95  1  0.05490000  0.31090000  0.54097000  1.0 -0.7307183153
O  O96  1  0.25600000  0.94510000  0.54097000  1.0 -0.7307183153
O  O97  1  0.50080000  0.69740000  0.12150000  1.0 -0.5995226211
O  O98  1  0.30260000  0.80340000  0.12150000  1.0 -0.5995226211
O  O99  1  0.19660000  0.49920000  0.12150000  1.0 -0.5995226211
O  O100  1  0.69740000  0.50080000  0.37850000  1.0 -0.5995226211
O  O101  1  0.80340000  0.30260000  0.37850000  1.0 -0.5995226211
O  O102  1  0.49920000  0.19660000  0.37850000  1.0 -0.5995226211
O  O103  1  0.49920000  0.30260000  0.87850000  1.0 -0.5995226211
O  O104  1  0.69740000  0.19660000  0.87850000  1.0 -0.5995226211
O  O105  1  0.80340000  0.50080000  0.87850000  1.0 -0.5995226211
O  O106  1  0.30260000  0.49920000  0.62150000  1.0 -0.5995226211
O  O107  1  0.19660000  0.69740000  0.62150000  1.0 -0.5995226211
O  O108  1  0.50080000  0.80340000  0.62150000  1.0 -0.5995226211
