# DDEC6 charges by PACMAN v1.1 (https://github.com/mtap-research/PACMAN-charge/)
data_MACHIJ_ASR_pacman
_symmetry_space_group_name_H-M   'P 1'
_cell_length_a   26.05500000
_cell_length_b   26.05500000
_cell_length_c   35.84200000
_cell_angle_alpha   90.00000000
_cell_angle_beta   90.00000000
_cell_angle_gamma   120.00000000
_symmetry_Int_Tables_number   1
_chemical_formula_structural   Zn5H30C50O19
_chemical_formula_sum   'Zn60 H360 C600 O228'
_cell_volume   21071.96431743
_cell_formula_units_Z   12
loop_
 _symmetry_equiv_pos_site_id
 _symmetry_equiv_pos_as_xyz
  1  'x, y, z'
loop_
 _atom_site_type_symbol
 _atom_site_label
 _atom_site_symmetry_multiplicity
 _atom_site_fract_x
 _atom_site_fract_y
 _atom_site_fract_z
 _atom_site_occupancy
 _atom_site_charge
Zn  Zn1  1  0.00000000  0.33990000  0.06270000  1.0 0.9608283357
Zn  Zn2  1  0.66010000  0.66010000  0.06270000  1.0 0.9608283357
Zn  Zn3  1  0.33990000  0.00000000  0.06270000  1.0 0.9608283357
Zn  Zn4  1  0.00000000  0.66010000  0.56270000  1.0 0.9608283357
Zn  Zn5  1  0.33990000  0.33990000  0.56270000  1.0 0.9608283357
Zn  Zn6  1  0.66010000  0.00000000  0.56270000  1.0 0.9608283357
Zn  Zn7  1  0.33990000  0.00000000  0.43730000  1.0 0.9608283357
Zn  Zn8  1  0.66010000  0.66010000  0.43730000  1.0 0.9608283357
Zn  Zn9  1  0.00000000  0.33990000  0.43730000  1.0 0.9608283357
Zn  Zn10  1  0.66010000  0.00000000  0.93730000  1.0 0.9608283357
Zn  Zn11  1  0.33990000  0.33990000  0.93730000  1.0 0.9608283357
Zn  Zn12  1  0.00000000  0.66010000  0.93730000  1.0 0.9608283357
Zn  Zn13  1  0.13915000  0.45430000  0.05512000  1.0 0.8531797296
Zn  Zn14  1  0.54570000  0.68485000  0.05512000  1.0 0.8531797296
Zn  Zn15  1  0.31515000  0.86085000  0.05512000  1.0 0.8531797296
Zn  Zn16  1  0.86085000  0.54570000  0.55512000  1.0 0.8531797296
Zn  Zn17  1  0.45430000  0.31515000  0.55512000  1.0 0.8531797296
Zn  Zn18  1  0.68485000  0.13915000  0.55512000  1.0 0.8531797296
Zn  Zn19  1  0.45430000  0.13915000  0.44488000  1.0 0.8531797296
Zn  Zn20  1  0.68485000  0.54570000  0.44488000  1.0 0.8531797296
Zn  Zn21  1  0.86085000  0.31515000  0.44488000  1.0 0.8531797296
Zn  Zn22  1  0.54570000  0.86085000  0.94488000  1.0 0.8531797296
Zn  Zn23  1  0.31515000  0.45430000  0.94488000  1.0 0.8531797296
Zn  Zn24  1  0.13915000  0.68485000  0.94488000  1.0 0.8531797296
Zn  Zn25  1  0.86085000  0.54570000  0.94488000  1.0 0.8531797296
Zn  Zn26  1  0.45430000  0.31515000  0.94488000  1.0 0.8531797296
Zn  Zn27  1  0.68485000  0.13915000  0.94488000  1.0 0.8531797296
Zn  Zn28  1  0.13915000  0.45430000  0.44488000  1.0 0.8531797296
Zn  Zn29  1  0.54570000  0.68485000  0.44488000  1.0 0.8531797296
Zn  Zn30  1  0.31515000  0.86085000  0.44488000  1.0 0.8531797296
Zn  Zn31  1  0.54570000  0.86085000  0.55512000  1.0 0.8531797296
Zn  Zn32  1  0.31515000  0.45430000  0.55512000  1.0 0.8531797296
Zn  Zn33  1  0.13915000  0.68485000  0.55512000  1.0 0.8531797296
Zn  Zn34  1  0.45430000  0.13915000  0.05512000  1.0 0.8531797296
Zn  Zn35  1  0.68485000  0.54570000  0.05512000  1.0 0.8531797296
Zn  Zn36  1  0.86085000  0.31515000  0.05512000  1.0 0.8531797296
Zn  Zn37  1  0.25515000  0.58825000  0.03514000  1.0 0.8056546416
Zn  Zn38  1  0.41175000  0.66690000  0.03514000  1.0 0.8056546416
Zn  Zn39  1  0.33310000  0.74485000  0.03514000  1.0 0.8056546416
Zn  Zn40  1  0.74485000  0.41175000  0.53514000  1.0 0.8056546416
Zn  Zn41  1  0.58825000  0.33310000  0.53514000  1.0 0.8056546416
Zn  Zn42  1  0.66690000  0.25515000  0.53514000  1.0 0.8056546416
Zn  Zn43  1  0.58825000  0.25515000  0.46486000  1.0 0.8056546416
Zn  Zn44  1  0.66690000  0.41175000  0.46486000  1.0 0.8056546416
Zn  Zn45  1  0.74485000  0.33310000  0.46486000  1.0 0.8056546416
Zn  Zn46  1  0.41175000  0.74485000  0.96486000  1.0 0.8056546416
Zn  Zn47  1  0.33310000  0.58825000  0.96486000  1.0 0.8056546416
Zn  Zn48  1  0.25515000  0.66690000  0.96486000  1.0 0.8056546416
Zn  Zn49  1  0.74485000  0.41175000  0.96486000  1.0 0.8056546416
Zn  Zn50  1  0.58825000  0.33310000  0.96486000  1.0 0.8056546416
Zn  Zn51  1  0.66690000  0.25515000  0.96486000  1.0 0.8056546416
Zn  Zn52  1  0.25515000  0.58825000  0.46486000  1.0 0.8056546416
Zn  Zn53  1  0.41175000  0.66690000  0.46486000  1.0 0.8056546416
Zn  Zn54  1  0.33310000  0.74485000  0.46486000  1.0 0.8056546416
Zn  Zn55  1  0.41175000  0.74485000  0.53514000  1.0 0.8056546416
Zn  Zn56  1  0.33310000  0.58825000  0.53514000  1.0 0.8056546416
Zn  Zn57  1  0.25515000  0.66690000  0.53514000  1.0 0.8056546416
Zn  Zn58  1  0.58825000  0.25515000  0.03514000  1.0 0.8056546416
Zn  Zn59  1  0.66690000  0.41175000  0.03514000  1.0 0.8056546416
Zn  Zn60  1  0.74485000  0.33310000  0.03514000  1.0 0.8056546416
H  H1  1  0.22540000  0.35080000  0.04300000  1.0 0.1284406816
H  H2  1  0.64920000  0.87460000  0.04300000  1.0 0.1284406816
H  H3  1  0.12540000  0.77460000  0.04300000  1.0 0.1284406816
H  H4  1  0.77460000  0.64920000  0.54300000  1.0 0.1284406816
H  H5  1  0.35080000  0.12540000  0.54300000  1.0 0.1284406816
H  H6  1  0.87460000  0.22540000  0.54300000  1.0 0.1284406816
H  H7  1  0.35080000  0.22540000  0.45700000  1.0 0.1284406816
H  H8  1  0.87460000  0.64920000  0.45700000  1.0 0.1284406816
H  H9  1  0.77460000  0.12540000  0.45700000  1.0 0.1284406816
H  H10  1  0.64920000  0.77460000  0.95700000  1.0 0.1284406816
H  H11  1  0.12540000  0.35080000  0.95700000  1.0 0.1284406816
H  H12  1  0.22540000  0.87460000  0.95700000  1.0 0.1284406816
H  H13  1  0.77460000  0.64920000  0.95700000  1.0 0.1284406816
H  H14  1  0.35080000  0.12540000  0.95700000  1.0 0.1284406816
H  H15  1  0.87460000  0.22540000  0.95700000  1.0 0.1284406816
H  H16  1  0.22540000  0.35080000  0.45700000  1.0 0.1284406816
H  H17  1  0.64920000  0.87460000  0.45700000  1.0 0.1284406816
H  H18  1  0.12540000  0.77460000  0.45700000  1.0 0.1284406816
H  H19  1  0.64920000  0.77460000  0.54300000  1.0 0.1284406816
H  H20  1  0.12540000  0.35080000  0.54300000  1.0 0.1284406816
H  H21  1  0.22540000  0.87460000  0.54300000  1.0 0.1284406816
H  H22  1  0.35080000  0.22540000  0.04300000  1.0 0.1284406816
H  H23  1  0.87460000  0.64920000  0.04300000  1.0 0.1284406816
H  H24  1  0.77460000  0.12540000  0.04300000  1.0 0.1284406816
H  H25  1  0.05650000  0.21790000  0.05440000  1.0 0.118540397
H  H26  1  0.78210000  0.83860000  0.05440000  1.0 0.118540397
H  H27  1  0.16140000  0.94350000  0.05440000  1.0 0.118540397
H  H28  1  0.94350000  0.78210000  0.55440000  1.0 0.118540397
H  H29  1  0.21790000  0.16140000  0.55440000  1.0 0.118540397
H  H30  1  0.83860000  0.05650000  0.55440000  1.0 0.118540397
H  H31  1  0.21790000  0.05650000  0.44560000  1.0 0.118540397
H  H32  1  0.83860000  0.78210000  0.44560000  1.0 0.118540397
H  H33  1  0.94350000  0.16140000  0.44560000  1.0 0.118540397
H  H34  1  0.78210000  0.94350000  0.94560000  1.0 0.118540397
H  H35  1  0.16140000  0.21790000  0.94560000  1.0 0.118540397
H  H36  1  0.05650000  0.83860000  0.94560000  1.0 0.118540397
H  H37  1  0.94350000  0.78210000  0.94560000  1.0 0.118540397
H  H38  1  0.21790000  0.16140000  0.94560000  1.0 0.118540397
H  H39  1  0.83860000  0.05650000  0.94560000  1.0 0.118540397
H  H40  1  0.05650000  0.21790000  0.44560000  1.0 0.118540397
H  H41  1  0.78210000  0.83860000  0.44560000  1.0 0.118540397
H  H42  1  0.16140000  0.94350000  0.44560000  1.0 0.118540397
H  H43  1  0.78210000  0.94350000  0.55440000  1.0 0.118540397
H  H44  1  0.16140000  0.21790000  0.55440000  1.0 0.118540397
H  H45  1  0.05650000  0.83860000  0.55440000  1.0 0.118540397
H  H46  1  0.21790000  0.05650000  0.05440000  1.0 0.118540397
H  H47  1  0.83860000  0.78210000  0.05440000  1.0 0.118540397
H  H48  1  0.94350000  0.16140000  0.05440000  1.0 0.118540397
H  H49  1  0.08820000  0.14760000  0.05160000  1.0 0.118540397
H  H50  1  0.85240000  0.94060000  0.05160000  1.0 0.118540397
H  H51  1  0.05940000  0.91180000  0.05160000  1.0 0.118540397
H  H52  1  0.91180000  0.85240000  0.55160000  1.0 0.118540397
H  H53  1  0.14760000  0.05940000  0.55160000  1.0 0.118540397
H  H54  1  0.94060000  0.08820000  0.55160000  1.0 0.118540397
H  H55  1  0.14760000  0.08820000  0.44840000  1.0 0.118540397
H  H56  1  0.94060000  0.85240000  0.44840000  1.0 0.118540397
H  H57  1  0.91180000  0.05940000  0.44840000  1.0 0.118540397
H  H58  1  0.85240000  0.91180000  0.94840000  1.0 0.118540397
H  H59  1  0.05940000  0.14760000  0.94840000  1.0 0.118540397
H  H60  1  0.08820000  0.94060000  0.94840000  1.0 0.118540397
H  H61  1  0.91180000  0.85240000  0.94840000  1.0 0.118540397
H  H62  1  0.14760000  0.05940000  0.94840000  1.0 0.118540397
H  H63  1  0.94060000  0.08820000  0.94840000  1.0 0.118540397
H  H64  1  0.08820000  0.14760000  0.44840000  1.0 0.118540397
H  H65  1  0.85240000  0.94060000  0.44840000  1.0 0.118540397
H  H66  1  0.05940000  0.91180000  0.44840000  1.0 0.118540397
H  H67  1  0.85240000  0.91180000  0.55160000  1.0 0.118540397
H  H68  1  0.05940000  0.14760000  0.55160000  1.0 0.118540397
H  H69  1  0.08820000  0.94060000  0.55160000  1.0 0.118540397
H  H70  1  0.14760000  0.08820000  0.05160000  1.0 0.118540397
H  H71  1  0.94060000  0.85240000  0.05160000  1.0 0.118540397
H  H72  1  0.91180000  0.05940000  0.05160000  1.0 0.118540397
H  H73  1  0.16130000  0.47150000  0.16920000  1.0 0.0895689829
H  H74  1  0.52850000  0.68980000  0.16920000  1.0 0.0895689829
H  H75  1  0.31020000  0.83870000  0.16920000  1.0 0.0895689829
H  H76  1  0.83870000  0.52850000  0.66920000  1.0 0.0895689829
H  H77  1  0.47150000  0.31020000  0.66920000  1.0 0.0895689829
H  H78  1  0.68980000  0.16130000  0.66920000  1.0 0.0895689829
H  H79  1  0.47150000  0.16130000  0.33080000  1.0 0.0895689829
H  H80  1  0.68980000  0.52850000  0.33080000  1.0 0.0895689829
H  H81  1  0.83870000  0.31020000  0.33080000  1.0 0.0895689829
H  H82  1  0.52850000  0.83870000  0.83080000  1.0 0.0895689829
H  H83  1  0.31020000  0.47150000  0.83080000  1.0 0.0895689829
H  H84  1  0.16130000  0.68980000  0.83080000  1.0 0.0895689829
H  H85  1  0.83870000  0.52850000  0.83080000  1.0 0.0895689829
H  H86  1  0.47150000  0.31020000  0.83080000  1.0 0.0895689829
H  H87  1  0.68980000  0.16130000  0.83080000  1.0 0.0895689829
H  H88  1  0.16130000  0.47150000  0.33080000  1.0 0.0895689829
H  H89  1  0.52850000  0.68980000  0.33080000  1.0 0.0895689829
H  H90  1  0.31020000  0.83870000  0.33080000  1.0 0.0895689829
H  H91  1  0.52850000  0.83870000  0.66920000  1.0 0.0895689829
H  H92  1  0.31020000  0.47150000  0.66920000  1.0 0.0895689829
H  H93  1  0.16130000  0.68980000  0.66920000  1.0 0.0895689829
H  H94  1  0.47150000  0.16130000  0.16920000  1.0 0.0895689829
H  H95  1  0.68980000  0.52850000  0.16920000  1.0 0.0895689829
H  H96  1  0.83870000  0.31020000  0.16920000  1.0 0.0895689829
H  H97  1  0.25850000  0.67270000  0.21040000  1.0 0.118540397
H  H98  1  0.32730000  0.58580000  0.21040000  1.0 0.118540397
H  H99  1  0.41420000  0.74150000  0.21040000  1.0 0.118540397
H  H100  1  0.74150000  0.32730000  0.71040000  1.0 0.118540397
H  H101  1  0.67270000  0.41420000  0.71040000  1.0 0.118540397
H  H102  1  0.58580000  0.25850000  0.71040000  1.0 0.118540397
H  H103  1  0.67270000  0.25850000  0.28960000  1.0 0.118540397
H  H104  1  0.58580000  0.32730000  0.28960000  1.0 0.118540397
H  H105  1  0.74150000  0.41420000  0.28960000  1.0 0.118540397
H  H106  1  0.32730000  0.74150000  0.78960000  1.0 0.118540397
H  H107  1  0.41420000  0.67270000  0.78960000  1.0 0.118540397
H  H108  1  0.25850000  0.58580000  0.78960000  1.0 0.118540397
H  H109  1  0.74150000  0.32730000  0.78960000  1.0 0.118540397
H  H110  1  0.67270000  0.41420000  0.78960000  1.0 0.118540397
H  H111  1  0.58580000  0.25850000  0.78960000  1.0 0.118540397
H  H112  1  0.25850000  0.67270000  0.28960000  1.0 0.118540397
H  H113  1  0.32730000  0.58580000  0.28960000  1.0 0.118540397
H  H114  1  0.41420000  0.74150000  0.28960000  1.0 0.118540397
H  H115  1  0.32730000  0.74150000  0.71040000  1.0 0.118540397
H  H116  1  0.41420000  0.67270000  0.71040000  1.0 0.118540397
H  H117  1  0.25850000  0.58580000  0.71040000  1.0 0.118540397
H  H118  1  0.67270000  0.25850000  0.21040000  1.0 0.118540397
H  H119  1  0.58580000  0.32730000  0.21040000  1.0 0.118540397
H  H120  1  0.74150000  0.41420000  0.21040000  1.0 0.118540397
H  H121  1  0.25380000  0.64820000  0.14670000  1.0 0.0827972885
H  H122  1  0.35180000  0.60560000  0.14670000  1.0 0.0827972885
H  H123  1  0.39440000  0.74620000  0.14670000  1.0 0.0827972885
H  H124  1  0.74620000  0.35180000  0.64670000  1.0 0.0827972885
H  H125  1  0.64820000  0.39440000  0.64670000  1.0 0.0827972885
H  H126  1  0.60560000  0.25380000  0.64670000  1.0 0.0827972885
H  H127  1  0.64820000  0.25380000  0.35330000  1.0 0.0827972885
H  H128  1  0.60560000  0.35180000  0.35330000  1.0 0.0827972885
H  H129  1  0.74620000  0.39440000  0.35330000  1.0 0.0827972885
H  H130  1  0.35180000  0.74620000  0.85330000  1.0 0.0827972885
H  H131  1  0.39440000  0.64820000  0.85330000  1.0 0.0827972885
H  H132  1  0.25380000  0.60560000  0.85330000  1.0 0.0827972885
H  H133  1  0.74620000  0.35180000  0.85330000  1.0 0.0827972885
H  H134  1  0.64820000  0.39440000  0.85330000  1.0 0.0827972885
H  H135  1  0.60560000  0.25380000  0.85330000  1.0 0.0827972885
H  H136  1  0.25380000  0.64820000  0.35330000  1.0 0.0827972885
H  H137  1  0.35180000  0.60560000  0.35330000  1.0 0.0827972885
H  H138  1  0.39440000  0.74620000  0.35330000  1.0 0.0827972885
H  H139  1  0.35180000  0.74620000  0.64670000  1.0 0.0827972885
H  H140  1  0.39440000  0.64820000  0.64670000  1.0 0.0827972885
H  H141  1  0.25380000  0.60560000  0.64670000  1.0 0.0827972885
H  H142  1  0.64820000  0.25380000  0.14670000  1.0 0.0827972885
H  H143  1  0.60560000  0.35180000  0.14670000  1.0 0.0827972885
H  H144  1  0.74620000  0.39440000  0.14670000  1.0 0.0827972885
H  H145  1  0.17080000  0.46720000  0.97770000  1.0 0.1005501296
H  H146  1  0.53280000  0.70360000  0.97770000  1.0 0.1005501296
H  H147  1  0.29640000  0.82920000  0.97770000  1.0 0.1005501296
H  H148  1  0.82920000  0.53280000  0.47770000  1.0 0.1005501296
H  H149  1  0.46720000  0.29640000  0.47770000  1.0 0.1005501296
H  H150  1  0.70360000  0.17080000  0.47770000  1.0 0.1005501296
H  H151  1  0.46720000  0.17080000  0.52230000  1.0 0.1005501296
H  H152  1  0.70360000  0.53280000  0.52230000  1.0 0.1005501296
H  H153  1  0.82920000  0.29640000  0.52230000  1.0 0.1005501296
H  H154  1  0.53280000  0.82920000  0.02230000  1.0 0.1005501296
H  H155  1  0.29640000  0.46720000  0.02230000  1.0 0.1005501296
H  H156  1  0.17080000  0.70360000  0.02230000  1.0 0.1005501296
H  H157  1  0.82920000  0.53280000  0.02230000  1.0 0.1005501296
H  H158  1  0.46720000  0.29640000  0.02230000  1.0 0.1005501296
H  H159  1  0.70360000  0.17080000  0.02230000  1.0 0.1005501296
H  H160  1  0.17080000  0.46720000  0.52230000  1.0 0.1005501296
H  H161  1  0.53280000  0.70360000  0.52230000  1.0 0.1005501296
H  H162  1  0.29640000  0.82920000  0.52230000  1.0 0.1005501296
H  H163  1  0.53280000  0.82920000  0.47770000  1.0 0.1005501296
H  H164  1  0.29640000  0.46720000  0.47770000  1.0 0.1005501296
H  H165  1  0.17080000  0.70360000  0.47770000  1.0 0.1005501296
H  H166  1  0.46720000  0.17080000  0.97770000  1.0 0.1005501296
H  H167  1  0.70360000  0.53280000  0.97770000  1.0 0.1005501296
H  H168  1  0.82920000  0.29640000  0.97770000  1.0 0.1005501296
H  H169  1  0.13410000  0.49930000  0.97790000  1.0 0.0895689829
H  H170  1  0.50070000  0.63480000  0.97790000  1.0 0.0895689829
H  H171  1  0.36520000  0.86590000  0.97790000  1.0 0.0895689829
H  H172  1  0.86590000  0.50070000  0.47790000  1.0 0.0895689829
H  H173  1  0.49930000  0.36520000  0.47790000  1.0 0.0895689829
H  H174  1  0.63480000  0.13410000  0.47790000  1.0 0.0895689829
H  H175  1  0.49930000  0.13410000  0.52210000  1.0 0.0895689829
H  H176  1  0.63480000  0.50070000  0.52210000  1.0 0.0895689829
H  H177  1  0.86590000  0.36520000  0.52210000  1.0 0.0895689829
H  H178  1  0.50070000  0.86590000  0.02210000  1.0 0.0895689829
H  H179  1  0.36520000  0.49930000  0.02210000  1.0 0.0895689829
H  H180  1  0.13410000  0.63480000  0.02210000  1.0 0.0895689829
H  H181  1  0.86590000  0.50070000  0.02210000  1.0 0.0895689829
H  H182  1  0.49930000  0.36520000  0.02210000  1.0 0.0895689829
H  H183  1  0.63480000  0.13410000  0.02210000  1.0 0.0895689829
H  H184  1  0.13410000  0.49930000  0.52210000  1.0 0.0895689829
H  H185  1  0.50070000  0.63480000  0.52210000  1.0 0.0895689829
H  H186  1  0.36520000  0.86590000  0.52210000  1.0 0.0895689829
H  H187  1  0.50070000  0.86590000  0.47790000  1.0 0.0895689829
H  H188  1  0.36520000  0.49930000  0.47790000  1.0 0.0895689829
H  H189  1  0.13410000  0.63480000  0.47790000  1.0 0.0895689829
H  H190  1  0.49930000  0.13410000  0.97790000  1.0 0.0895689829
H  H191  1  0.63480000  0.50070000  0.97790000  1.0 0.0895689829
H  H192  1  0.86590000  0.36520000  0.97790000  1.0 0.0895689829
H  H193  1  0.18540000  0.55430000  0.94020000  1.0 0.1005501296
H  H194  1  0.44570000  0.63110000  0.94020000  1.0 0.1005501296
H  H195  1  0.36890000  0.81460000  0.94020000  1.0 0.1005501296
H  H196  1  0.81460000  0.44570000  0.44020000  1.0 0.1005501296
H  H197  1  0.55430000  0.36890000  0.44020000  1.0 0.1005501296
H  H198  1  0.63110000  0.18540000  0.44020000  1.0 0.1005501296
H  H199  1  0.55430000  0.18540000  0.55980000  1.0 0.1005501296
H  H200  1  0.63110000  0.44570000  0.55980000  1.0 0.1005501296
H  H201  1  0.81460000  0.36890000  0.55980000  1.0 0.1005501296
H  H202  1  0.44570000  0.81460000  0.05980000  1.0 0.1005501296
H  H203  1  0.36890000  0.55430000  0.05980000  1.0 0.1005501296
H  H204  1  0.18540000  0.63110000  0.05980000  1.0 0.1005501296
H  H205  1  0.81460000  0.44570000  0.05980000  1.0 0.1005501296
H  H206  1  0.55430000  0.36890000  0.05980000  1.0 0.1005501296
H  H207  1  0.63110000  0.18540000  0.05980000  1.0 0.1005501296
H  H208  1  0.18540000  0.55430000  0.55980000  1.0 0.1005501296
H  H209  1  0.44570000  0.63110000  0.55980000  1.0 0.1005501296
H  H210  1  0.36890000  0.81460000  0.55980000  1.0 0.1005501296
H  H211  1  0.44570000  0.81460000  0.44020000  1.0 0.1005501296
H  H212  1  0.36890000  0.55430000  0.44020000  1.0 0.1005501296
H  H213  1  0.18540000  0.63110000  0.44020000  1.0 0.1005501296
H  H214  1  0.55430000  0.18540000  0.94020000  1.0 0.1005501296
H  H215  1  0.63110000  0.44570000  0.94020000  1.0 0.1005501296
H  H216  1  0.81460000  0.36890000  0.94020000  1.0 0.1005501296
H  H217  1  0.22080000  0.52030000  0.93890000  1.0 0.1005501296
H  H218  1  0.47970000  0.70050000  0.93890000  1.0 0.1005501296
H  H219  1  0.29950000  0.77920000  0.93890000  1.0 0.1005501296
H  H220  1  0.77920000  0.47970000  0.43890000  1.0 0.1005501296
H  H221  1  0.52030000  0.29950000  0.43890000  1.0 0.1005501296
H  H222  1  0.70050000  0.22080000  0.43890000  1.0 0.1005501296
H  H223  1  0.52030000  0.22080000  0.56110000  1.0 0.1005501296
H  H224  1  0.70050000  0.47970000  0.56110000  1.0 0.1005501296
H  H225  1  0.77920000  0.29950000  0.56110000  1.0 0.1005501296
H  H226  1  0.47970000  0.77920000  0.06110000  1.0 0.1005501296
H  H227  1  0.29950000  0.52030000  0.06110000  1.0 0.1005501296
H  H228  1  0.22080000  0.70050000  0.06110000  1.0 0.1005501296
H  H229  1  0.77920000  0.47970000  0.06110000  1.0 0.1005501296
H  H230  1  0.52030000  0.29950000  0.06110000  1.0 0.1005501296
H  H231  1  0.70050000  0.22080000  0.06110000  1.0 0.1005501296
H  H232  1  0.22080000  0.52030000  0.56110000  1.0 0.1005501296
H  H233  1  0.47970000  0.70050000  0.56110000  1.0 0.1005501296
H  H234  1  0.29950000  0.77920000  0.56110000  1.0 0.1005501296
H  H235  1  0.47970000  0.77920000  0.43890000  1.0 0.1005501296
H  H236  1  0.29950000  0.52030000  0.43890000  1.0 0.1005501296
H  H237  1  0.22080000  0.70050000  0.43890000  1.0 0.1005501296
H  H238  1  0.52030000  0.22080000  0.93890000  1.0 0.1005501296
H  H239  1  0.70050000  0.47970000  0.93890000  1.0 0.1005501296
H  H240  1  0.77920000  0.29950000  0.93890000  1.0 0.1005501296
H  H241  1  0.04430000  0.47300000  0.01570000  1.0 0.1005501296
H  H242  1  0.52700000  0.57130000  0.01570000  1.0 0.1005501296
H  H243  1  0.42870000  0.95570000  0.01570000  1.0 0.1005501296
H  H244  1  0.95570000  0.52700000  0.51570000  1.0 0.1005501296
H  H245  1  0.47300000  0.42870000  0.51570000  1.0 0.1005501296
H  H246  1  0.57130000  0.04430000  0.51570000  1.0 0.1005501296
H  H247  1  0.47300000  0.04430000  0.48430000  1.0 0.1005501296
H  H248  1  0.57130000  0.52700000  0.48430000  1.0 0.1005501296
H  H249  1  0.95570000  0.42870000  0.48430000  1.0 0.1005501296
H  H250  1  0.52700000  0.95570000  0.98430000  1.0 0.1005501296
H  H251  1  0.42870000  0.47300000  0.98430000  1.0 0.1005501296
H  H252  1  0.04430000  0.57130000  0.98430000  1.0 0.1005501296
H  H253  1  0.95570000  0.52700000  0.98430000  1.0 0.1005501296
H  H254  1  0.47300000  0.42870000  0.98430000  1.0 0.1005501296
H  H255  1  0.57130000  0.04430000  0.98430000  1.0 0.1005501296
H  H256  1  0.04430000  0.47300000  0.48430000  1.0 0.1005501296
H  H257  1  0.52700000  0.57130000  0.48430000  1.0 0.1005501296
H  H258  1  0.42870000  0.95570000  0.48430000  1.0 0.1005501296
H  H259  1  0.52700000  0.95570000  0.51570000  1.0 0.1005501296
H  H260  1  0.42870000  0.47300000  0.51570000  1.0 0.1005501296
H  H261  1  0.04430000  0.57130000  0.51570000  1.0 0.1005501296
H  H262  1  0.47300000  0.04430000  0.01570000  1.0 0.1005501296
H  H263  1  0.57130000  0.52700000  0.01570000  1.0 0.1005501296
H  H264  1  0.95570000  0.42870000  0.01570000  1.0 0.1005501296
H  H265  1  0.04430000  0.49020000  0.05750000  1.0 0.1085919114
H  H266  1  0.50980000  0.55410000  0.05750000  1.0 0.1085919114
H  H267  1  0.44590000  0.95570000  0.05750000  1.0 0.1085919114
H  H268  1  0.95570000  0.50980000  0.55750000  1.0 0.1085919114
H  H269  1  0.49020000  0.44590000  0.55750000  1.0 0.1085919114
H  H270  1  0.55410000  0.04430000  0.55750000  1.0 0.1085919114
H  H271  1  0.49020000  0.04430000  0.44250000  1.0 0.1085919114
H  H272  1  0.55410000  0.50980000  0.44250000  1.0 0.1085919114
H  H273  1  0.95570000  0.44590000  0.44250000  1.0 0.1085919114
H  H274  1  0.50980000  0.95570000  0.94250000  1.0 0.1085919114
H  H275  1  0.44590000  0.49020000  0.94250000  1.0 0.1085919114
H  H276  1  0.04430000  0.55410000  0.94250000  1.0 0.1085919114
H  H277  1  0.95570000  0.50980000  0.94250000  1.0 0.1085919114
H  H278  1  0.49020000  0.44590000  0.94250000  1.0 0.1085919114
H  H279  1  0.55410000  0.04430000  0.94250000  1.0 0.1085919114
H  H280  1  0.04430000  0.49020000  0.44250000  1.0 0.1085919114
H  H281  1  0.50980000  0.55410000  0.44250000  1.0 0.1085919114
H  H282  1  0.44590000  0.95570000  0.44250000  1.0 0.1085919114
H  H283  1  0.50980000  0.95570000  0.55750000  1.0 0.1085919114
H  H284  1  0.44590000  0.49020000  0.55750000  1.0 0.1085919114
H  H285  1  0.04430000  0.55410000  0.55750000  1.0 0.1085919114
H  H286  1  0.49020000  0.04430000  0.05750000  1.0 0.1085919114
H  H287  1  0.55410000  0.50980000  0.05750000  1.0 0.1085919114
H  H288  1  0.95570000  0.44590000  0.05750000  1.0 0.1085919114
H  H289  1  0.15100000  0.49370000  0.17510000  1.0 0.0895689829
H  H290  1  0.50630000  0.65730000  0.17510000  1.0 0.0895689829
H  H291  1  0.34270000  0.84900000  0.17510000  1.0 0.0895689829
H  H292  1  0.84900000  0.50630000  0.67510000  1.0 0.0895689829
H  H293  1  0.49370000  0.34270000  0.67510000  1.0 0.0895689829
H  H294  1  0.65730000  0.15100000  0.67510000  1.0 0.0895689829
H  H295  1  0.49370000  0.15100000  0.32490000  1.0 0.0895689829
H  H296  1  0.65730000  0.50630000  0.32490000  1.0 0.0895689829
H  H297  1  0.84900000  0.34270000  0.32490000  1.0 0.0895689829
H  H298  1  0.50630000  0.84900000  0.82490000  1.0 0.0827972885
H  H299  1  0.34270000  0.49370000  0.82490000  1.0 0.0827972885
H  H300  1  0.15100000  0.65730000  0.82490000  1.0 0.0895689829
H  H301  1  0.84900000  0.50630000  0.82490000  1.0 0.0827972885
H  H302  1  0.49370000  0.34270000  0.82490000  1.0 0.0827972885
H  H303  1  0.65730000  0.15100000  0.82490000  1.0 0.0827972885
H  H304  1  0.15100000  0.49370000  0.32490000  1.0 0.0895689829
H  H305  1  0.50630000  0.65730000  0.32490000  1.0 0.0895689829
H  H306  1  0.34270000  0.84900000  0.32490000  1.0 0.0895689829
H  H307  1  0.50630000  0.84900000  0.67510000  1.0 0.0895689829
H  H308  1  0.34270000  0.49370000  0.67510000  1.0 0.0895689829
H  H309  1  0.15100000  0.65730000  0.67510000  1.0 0.0895689829
H  H310  1  0.49370000  0.15100000  0.17510000  1.0 0.0895689829
H  H311  1  0.65730000  0.50630000  0.17510000  1.0 0.0895689829
H  H312  1  0.84900000  0.34270000  0.17510000  1.0 0.0895689829
H  H313  1  0.34480000  0.60130000  0.21050000  1.0 0.118540397
H  H314  1  0.39870000  0.74350000  0.21050000  1.0 0.118540397
H  H315  1  0.25650000  0.65520000  0.21050000  1.0 0.118540397
H  H316  1  0.65520000  0.39870000  0.71050000  1.0 0.118540397
H  H317  1  0.60130000  0.25650000  0.71050000  1.0 0.118540397
H  H318  1  0.74350000  0.34480000  0.71050000  1.0 0.118540397
H  H319  1  0.60130000  0.34480000  0.28950000  1.0 0.118540397
H  H320  1  0.74350000  0.39870000  0.28950000  1.0 0.118540397
H  H321  1  0.65520000  0.25650000  0.28950000  1.0 0.118540397
H  H322  1  0.39870000  0.65520000  0.78950000  1.0 0.118540397
H  H323  1  0.25650000  0.60130000  0.78950000  1.0 0.118540397
H  H324  1  0.34480000  0.74350000  0.78950000  1.0 0.118540397
H  H325  1  0.65520000  0.39870000  0.78950000  1.0 0.118540397
H  H326  1  0.60130000  0.25650000  0.78950000  1.0 0.118540397
H  H327  1  0.74350000  0.34480000  0.78950000  1.0 0.118540397
H  H328  1  0.34480000  0.60130000  0.28950000  1.0 0.118540397
H  H329  1  0.39870000  0.74350000  0.28950000  1.0 0.118540397
H  H330  1  0.25650000  0.65520000  0.28950000  1.0 0.118540397
H  H331  1  0.39870000  0.65520000  0.71050000  1.0 0.118540397
H  H332  1  0.25650000  0.60130000  0.71050000  1.0 0.118540397
H  H333  1  0.34480000  0.74350000  0.71050000  1.0 0.118540397
H  H334  1  0.60130000  0.34480000  0.21050000  1.0 0.118540397
H  H335  1  0.74350000  0.39870000  0.21050000  1.0 0.118540397
H  H336  1  0.65520000  0.25650000  0.21050000  1.0 0.118540397
H  H337  1  0.32120000  0.59010000  0.14700000  1.0 0.0827972885
H  H338  1  0.40990000  0.73110000  0.14700000  1.0 0.0827972885
H  H339  1  0.26890000  0.67880000  0.14700000  1.0 0.0827972885
H  H340  1  0.67880000  0.40990000  0.64700000  1.0 0.0827972885
H  H341  1  0.59010000  0.26890000  0.64700000  1.0 0.0827972885
H  H342  1  0.73110000  0.32120000  0.64700000  1.0 0.0827972885
H  H343  1  0.59010000  0.32120000  0.35300000  1.0 0.0827972885
H  H344  1  0.73110000  0.40990000  0.35300000  1.0 0.0827972885
H  H345  1  0.67880000  0.26890000  0.35300000  1.0 0.0827972885
H  H346  1  0.40990000  0.67880000  0.85300000  1.0 0.0827972885
H  H347  1  0.26890000  0.59010000  0.85300000  1.0 0.0827972885
H  H348  1  0.32120000  0.73110000  0.85300000  1.0 0.0827972885
H  H349  1  0.67880000  0.40990000  0.85300000  1.0 0.0827972885
H  H350  1  0.59010000  0.26890000  0.85300000  1.0 0.0827972885
H  H351  1  0.73110000  0.32120000  0.85300000  1.0 0.0827972885
H  H352  1  0.32120000  0.59010000  0.35300000  1.0 0.0827972885
H  H353  1  0.40990000  0.73110000  0.35300000  1.0 0.0827972885
H  H354  1  0.26890000  0.67880000  0.35300000  1.0 0.0827972885
H  H355  1  0.40990000  0.67880000  0.64700000  1.0 0.0827972885
H  H356  1  0.26890000  0.59010000  0.64700000  1.0 0.0827972885
H  H357  1  0.32120000  0.73110000  0.64700000  1.0 0.0827972885
H  H358  1  0.59010000  0.32120000  0.14700000  1.0 0.0827972885
H  H359  1  0.73110000  0.40990000  0.14700000  1.0 0.0827972885
H  H360  1  0.67880000  0.26890000  0.14700000  1.0 0.0827972885
C  C1  1  0.11580000  0.33430000  0.05135000  1.0 0.5900704306
C  C2  1  0.66570000  0.78150000  0.05135000  1.0 0.5900704306
C  C3  1  0.21850000  0.88420000  0.05135000  1.0 0.5900704306
C  C4  1  0.88420000  0.66570000  0.55135000  1.0 0.5900704306
C  C5  1  0.33430000  0.21850000  0.55135000  1.0 0.5900704306
C  C6  1  0.78150000  0.11580000  0.55135000  1.0 0.5900704306
C  C7  1  0.33430000  0.11580000  0.44865000  1.0 0.5900704306
C  C8  1  0.78150000  0.66570000  0.44865000  1.0 0.5900704306
C  C9  1  0.88420000  0.21850000  0.44865000  1.0 0.5900704306
C  C10  1  0.66570000  0.88420000  0.94865000  1.0 0.5900704306
C  C11  1  0.21850000  0.33430000  0.94865000  1.0 0.5900704306
C  C12  1  0.11580000  0.78150000  0.94865000  1.0 0.5900704306
C  C13  1  0.88420000  0.66570000  0.94865000  1.0 0.5900704306
C  C14  1  0.33430000  0.21850000  0.94865000  1.0 0.5900704306
C  C15  1  0.78150000  0.11580000  0.94865000  1.0 0.5900704306
C  C16  1  0.11580000  0.33430000  0.44865000  1.0 0.5900704306
C  C17  1  0.66570000  0.78150000  0.44865000  1.0 0.5900704306
C  C18  1  0.21850000  0.88420000  0.44865000  1.0 0.5900704306
C  C19  1  0.66570000  0.88420000  0.55135000  1.0 0.5900704306
C  C20  1  0.21850000  0.33430000  0.55135000  1.0 0.5900704306
C  C21  1  0.11580000  0.78150000  0.55135000  1.0 0.5900704306
C  C22  1  0.33430000  0.11580000  0.05135000  1.0 0.5900704306
C  C23  1  0.78150000  0.66570000  0.05135000  1.0 0.5900704306
C  C24  1  0.88420000  0.21850000  0.05135000  1.0 0.5900704306
C  C25  1  0.13760000  0.29100000  0.04855000  1.0 -0.0388525795
C  C26  1  0.70900000  0.84660000  0.04855000  1.0 -0.0388525795
C  C27  1  0.15340000  0.86240000  0.04855000  1.0 -0.0388525795
C  C28  1  0.86240000  0.70900000  0.54855000  1.0 -0.0388525795
C  C29  1  0.29100000  0.15340000  0.54855000  1.0 -0.0388525795
C  C30  1  0.84660000  0.13760000  0.54855000  1.0 -0.0388525795
C  C31  1  0.29100000  0.13760000  0.45145000  1.0 -0.0388525795
C  C32  1  0.84660000  0.70900000  0.45145000  1.0 -0.0388525795
C  C33  1  0.86240000  0.15340000  0.45145000  1.0 -0.0388525795
C  C34  1  0.70900000  0.86240000  0.95145000  1.0 -0.0388525795
C  C35  1  0.15340000  0.29100000  0.95145000  1.0 -0.0388525795
C  C36  1  0.13760000  0.84660000  0.95145000  1.0 -0.0388525795
C  C37  1  0.86240000  0.70900000  0.95145000  1.0 -0.0388525795
C  C38  1  0.29100000  0.15340000  0.95145000  1.0 -0.0388525795
C  C39  1  0.84660000  0.13760000  0.95145000  1.0 -0.0388525795
C  C40  1  0.13760000  0.29100000  0.45145000  1.0 -0.0388525795
C  C41  1  0.70900000  0.84660000  0.45145000  1.0 -0.0388525795
C  C42  1  0.15340000  0.86240000  0.45145000  1.0 -0.0388525795
C  C43  1  0.70900000  0.86240000  0.54855000  1.0 -0.0388525795
C  C44  1  0.15340000  0.29100000  0.54855000  1.0 -0.0388525795
C  C45  1  0.13760000  0.84660000  0.54855000  1.0 -0.0388525795
C  C46  1  0.29100000  0.13760000  0.04855000  1.0 -0.0388525795
C  C47  1  0.84660000  0.70900000  0.04855000  1.0 -0.0388525795
C  C48  1  0.86240000  0.15340000  0.04855000  1.0 -0.0388525795
C  C49  1  0.19800000  0.31060000  0.04477000  1.0 -0.1007793935
C  C50  1  0.68940000  0.88740000  0.04477000  1.0 -0.1007793935
C  C51  1  0.11260000  0.80200000  0.04477000  1.0 -0.1007793935
C  C52  1  0.80200000  0.68940000  0.54477000  1.0 -0.1007793935
C  C53  1  0.31060000  0.11260000  0.54477000  1.0 -0.1007793935
C  C54  1  0.88740000  0.19800000  0.54477000  1.0 -0.1007793935
C  C55  1  0.31060000  0.19800000  0.45523000  1.0 -0.1007793935
C  C56  1  0.88740000  0.68940000  0.45523000  1.0 -0.1007793935
C  C57  1  0.80200000  0.11260000  0.45523000  1.0 -0.1007793935
C  C58  1  0.68940000  0.80200000  0.95523000  1.0 -0.1007793935
C  C59  1  0.11260000  0.31060000  0.95523000  1.0 -0.1007793935
C  C60  1  0.19800000  0.88740000  0.95523000  1.0 -0.1007793935
C  C61  1  0.80200000  0.68940000  0.95523000  1.0 -0.1007793935
C  C62  1  0.31060000  0.11260000  0.95523000  1.0 -0.1007793935
C  C63  1  0.88740000  0.19800000  0.95523000  1.0 -0.1007793935
C  C64  1  0.19800000  0.31060000  0.45523000  1.0 -0.1007793935
C  C65  1  0.68940000  0.88740000  0.45523000  1.0 -0.1007793935
C  C66  1  0.11260000  0.80200000  0.45523000  1.0 -0.1007793935
C  C67  1  0.68940000  0.80200000  0.54477000  1.0 -0.1007793935
C  C68  1  0.11260000  0.31060000  0.54477000  1.0 -0.1007793935
C  C69  1  0.19800000  0.88740000  0.54477000  1.0 -0.1007793935
C  C70  1  0.31060000  0.19800000  0.04477000  1.0 -0.1007793935
C  C71  1  0.88740000  0.68940000  0.04477000  1.0 -0.1007793935
C  C72  1  0.80200000  0.11260000  0.04477000  1.0 -0.1007793935
C  C73  1  0.09660000  0.23040000  0.05160000  1.0 -0.0910538425
C  C74  1  0.76960000  0.86620000  0.05160000  1.0 -0.0910538425
C  C75  1  0.13380000  0.90340000  0.05160000  1.0 -0.0910538425
C  C76  1  0.90340000  0.76960000  0.55160000  1.0 -0.0910538425
C  C77  1  0.23040000  0.13380000  0.55160000  1.0 -0.0910538425
C  C78  1  0.86620000  0.09660000  0.55160000  1.0 -0.0910538425
C  C79  1  0.23040000  0.09660000  0.44840000  1.0 -0.0910538425
C  C80  1  0.86620000  0.76960000  0.44840000  1.0 -0.0910538425
C  C81  1  0.90340000  0.13380000  0.44840000  1.0 -0.0910538425
C  C82  1  0.76960000  0.90340000  0.94840000  1.0 -0.0910538425
C  C83  1  0.13380000  0.23040000  0.94840000  1.0 -0.0910538425
C  C84  1  0.09660000  0.86620000  0.94840000  1.0 -0.0910538425
C  C85  1  0.90340000  0.76960000  0.94840000  1.0 -0.0910538425
C  C86  1  0.23040000  0.13380000  0.94840000  1.0 -0.0910538425
C  C87  1  0.86620000  0.09660000  0.94840000  1.0 -0.0910538425
C  C88  1  0.09660000  0.23040000  0.44840000  1.0 -0.0910538425
C  C89  1  0.76960000  0.86620000  0.44840000  1.0 -0.0910538425
C  C90  1  0.13380000  0.90340000  0.44840000  1.0 -0.0910538425
C  C91  1  0.76960000  0.90340000  0.55160000  1.0 -0.0910538425
C  C92  1  0.13380000  0.23040000  0.55160000  1.0 -0.0910538425
C  C93  1  0.09660000  0.86620000  0.55160000  1.0 -0.0910538425
C  C94  1  0.23040000  0.09660000  0.05160000  1.0 -0.0910538425
C  C95  1  0.86620000  0.76960000  0.05160000  1.0 -0.0910538425
C  C96  1  0.90340000  0.13380000  0.05160000  1.0 -0.0910538425
C  C97  1  0.21630000  0.26880000  0.04380000  1.0 -0.0507303327
C  C98  1  0.73120000  0.94750000  0.04380000  1.0 -0.0507303327
C  C99  1  0.05250000  0.78370000  0.04380000  1.0 -0.0507303327
C  C100  1  0.78370000  0.73120000  0.54380000  1.0 -0.0507303327
C  C101  1  0.26880000  0.05250000  0.54380000  1.0 -0.0507303327
C  C102  1  0.94750000  0.21630000  0.54380000  1.0 -0.0507303327
C  C103  1  0.26880000  0.21630000  0.45620000  1.0 -0.0507303327
C  C104  1  0.94750000  0.73120000  0.45620000  1.0 -0.0507303327
C  C105  1  0.78370000  0.05250000  0.45620000  1.0 -0.0507303327
C  C106  1  0.73120000  0.78370000  0.95620000  1.0 -0.0507303327
C  C107  1  0.05250000  0.26880000  0.95620000  1.0 -0.0507303327
C  C108  1  0.21630000  0.94750000  0.95620000  1.0 -0.0507303327
C  C109  1  0.78370000  0.73120000  0.95620000  1.0 -0.0507303327
C  C110  1  0.26880000  0.05250000  0.95620000  1.0 -0.0507303327
C  C111  1  0.94750000  0.21630000  0.95620000  1.0 -0.0507303327
C  C112  1  0.21630000  0.26880000  0.45620000  1.0 -0.0507303327
C  C113  1  0.73120000  0.94750000  0.45620000  1.0 -0.0507303327
C  C114  1  0.05250000  0.78370000  0.45620000  1.0 -0.0507303327
C  C115  1  0.73120000  0.78370000  0.54380000  1.0 -0.0507303327
C  C116  1  0.05250000  0.26880000  0.54380000  1.0 -0.0507303327
C  C117  1  0.21630000  0.94750000  0.54380000  1.0 -0.0507303327
C  C118  1  0.26880000  0.21630000  0.04380000  1.0 -0.0507303327
C  C119  1  0.94750000  0.73120000  0.04380000  1.0 -0.0507303327
C  C120  1  0.78370000  0.05250000  0.04380000  1.0 -0.0507303327
C  C121  1  0.11530000  0.18800000  0.05030000  1.0 -0.1512878695
C  C122  1  0.81200000  0.92730000  0.05030000  1.0 -0.1512878695
C  C123  1  0.07270000  0.88470000  0.05030000  1.0 -0.1512878695
C  C124  1  0.88470000  0.81200000  0.55030000  1.0 -0.1512878695
C  C125  1  0.18800000  0.07270000  0.55030000  1.0 -0.1512878695
C  C126  1  0.92730000  0.11530000  0.55030000  1.0 -0.1512878695
C  C127  1  0.18800000  0.11530000  0.44970000  1.0 -0.1512878695
C  C128  1  0.92730000  0.81200000  0.44970000  1.0 -0.1512878695
C  C129  1  0.88470000  0.07270000  0.44970000  1.0 -0.1512878695
C  C130  1  0.81200000  0.88470000  0.94970000  1.0 -0.1512878695
C  C131  1  0.07270000  0.18800000  0.94970000  1.0 -0.1512878695
C  C132  1  0.11530000  0.92730000  0.94970000  1.0 -0.1512878695
C  C133  1  0.88470000  0.81200000  0.94970000  1.0 -0.1512878695
C  C134  1  0.18800000  0.07270000  0.94970000  1.0 -0.1512878695
C  C135  1  0.92730000  0.11530000  0.94970000  1.0 -0.1512878695
C  C136  1  0.11530000  0.18800000  0.44970000  1.0 -0.1512878695
C  C137  1  0.81200000  0.92730000  0.44970000  1.0 -0.1512878695
C  C138  1  0.07270000  0.88470000  0.44970000  1.0 -0.1512878695
C  C139  1  0.81200000  0.88470000  0.55030000  1.0 -0.1512878695
C  C140  1  0.07270000  0.18800000  0.55030000  1.0 -0.1512878695
C  C141  1  0.11530000  0.92730000  0.55030000  1.0 -0.1512878695
C  C142  1  0.18800000  0.11530000  0.05030000  1.0 -0.1512878695
C  C143  1  0.92730000  0.81200000  0.05030000  1.0 -0.1512878695
C  C144  1  0.88470000  0.07270000  0.05030000  1.0 -0.1512878695
C  C145  1  0.17530000  0.20890000  0.04700000  1.0 0.0390628478
C  C146  1  0.79110000  0.96640000  0.04700000  1.0 0.0390628478
C  C147  1  0.03360000  0.82470000  0.04700000  1.0 0.0390628478
C  C148  1  0.82470000  0.79110000  0.54700000  1.0 0.0390628478
C  C149  1  0.20890000  0.03360000  0.54700000  1.0 0.0390628478
C  C150  1  0.96640000  0.17530000  0.54700000  1.0 0.0390628478
C  C151  1  0.20890000  0.17530000  0.45300000  1.0 0.0390628478
C  C152  1  0.96640000  0.79110000  0.45300000  1.0 0.0390628478
C  C153  1  0.82470000  0.03360000  0.45300000  1.0 0.0390628478
C  C154  1  0.79110000  0.82470000  0.95300000  1.0 0.0390628478
C  C155  1  0.03360000  0.20890000  0.95300000  1.0 0.0390628478
C  C156  1  0.17530000  0.96640000  0.95300000  1.0 0.0390628478
C  C157  1  0.82470000  0.79110000  0.95300000  1.0 0.0390628478
C  C158  1  0.20890000  0.03360000  0.95300000  1.0 0.0390628478
C  C159  1  0.96640000  0.17530000  0.95300000  1.0 0.0390628478
C  C160  1  0.17530000  0.20890000  0.45300000  1.0 0.0390628478
C  C161  1  0.79110000  0.96640000  0.45300000  1.0 0.0390628478
C  C162  1  0.03360000  0.82470000  0.45300000  1.0 0.0390628478
C  C163  1  0.79110000  0.82470000  0.54700000  1.0 0.0390628478
C  C164  1  0.03360000  0.20890000  0.54700000  1.0 0.0390628478
C  C165  1  0.17530000  0.96640000  0.54700000  1.0 0.0390628478
C  C166  1  0.20890000  0.17530000  0.04700000  1.0 0.0390628478
C  C167  1  0.96640000  0.79110000  0.04700000  1.0 0.0390628478
C  C168  1  0.82470000  0.03360000  0.04700000  1.0 0.0390628478
C  C169  1  0.27770000  0.27770000  0.04170000  1.0 0.3502715296
C  C170  1  0.72230000  0.00000000  0.04170000  1.0 0.3502715296
C  C171  1  0.00000000  0.72230000  0.04170000  1.0 0.3502715296
C  C172  1  0.72230000  0.72230000  0.54170000  1.0 0.3502715296
C  C173  1  0.27770000  0.00000000  0.54170000  1.0 0.3502715296
C  C174  1  0.00000000  0.27770000  0.54170000  1.0 0.3502715296
C  C175  1  0.27770000  0.27770000  0.45830000  1.0 0.3502715296
C  C176  1  0.00000000  0.72230000  0.45830000  1.0 0.3502715296
C  C177  1  0.72230000  0.00000000  0.45830000  1.0 0.3502715296
C  C178  1  0.72230000  0.72230000  0.95830000  1.0 0.3502715296
C  C179  1  0.00000000  0.27770000  0.95830000  1.0 0.3502715296
C  C180  1  0.27770000  0.00000000  0.95830000  1.0 0.3502715296
C  C181  1  0.20340000  0.54410000  0.11430000  1.0 0.2606990503
C  C182  1  0.45590000  0.65930000  0.11430000  1.0 0.2606990503
C  C183  1  0.34070000  0.79660000  0.11430000  1.0 0.2606990503
C  C184  1  0.79660000  0.45590000  0.61430000  1.0 0.2606990503
C  C185  1  0.54410000  0.34070000  0.61430000  1.0 0.2606990503
C  C186  1  0.65930000  0.20340000  0.61430000  1.0 0.2606990503
C  C187  1  0.54410000  0.20340000  0.38570000  1.0 0.2606990503
C  C188  1  0.65930000  0.45590000  0.38570000  1.0 0.2606990503
C  C189  1  0.79660000  0.34070000  0.38570000  1.0 0.2606990503
C  C190  1  0.45590000  0.79660000  0.88570000  1.0 0.2606990503
C  C191  1  0.34070000  0.54410000  0.88570000  1.0 0.2606990503
C  C192  1  0.20340000  0.65930000  0.88570000  1.0 0.2606990503
C  C193  1  0.79660000  0.45590000  0.88570000  1.0 0.2606990503
C  C194  1  0.54410000  0.34070000  0.88570000  1.0 0.2606990503
C  C195  1  0.65930000  0.20340000  0.88570000  1.0 0.2606990503
C  C196  1  0.20340000  0.54410000  0.38570000  1.0 0.2606990503
C  C197  1  0.45590000  0.65930000  0.38570000  1.0 0.2606990503
C  C198  1  0.34070000  0.79660000  0.38570000  1.0 0.2606990503
C  C199  1  0.45590000  0.79660000  0.61430000  1.0 0.2606990503
C  C200  1  0.34070000  0.54410000  0.61430000  1.0 0.2606990503
C  C201  1  0.20340000  0.65930000  0.61430000  1.0 0.2606990503
C  C202  1  0.54410000  0.20340000  0.11430000  1.0 0.2606990503
C  C203  1  0.65930000  0.45590000  0.11430000  1.0 0.2606990503
C  C204  1  0.79660000  0.34070000  0.11430000  1.0 0.2606990503
C  C205  1  0.20800000  0.56000000  0.15410000  1.0 0.0133970089
C  C206  1  0.44000000  0.64800000  0.15410000  1.0 0.0133970089
C  C207  1  0.35200000  0.79200000  0.15410000  1.0 0.0133970089
C  C208  1  0.79200000  0.44000000  0.65410000  1.0 0.0133970089
C  C209  1  0.56000000  0.35200000  0.65410000  1.0 0.0133970089
C  C210  1  0.64800000  0.20800000  0.65410000  1.0 0.0133970089
C  C211  1  0.56000000  0.20800000  0.34590000  1.0 0.0133970089
C  C212  1  0.64800000  0.44000000  0.34590000  1.0 0.0133970089
C  C213  1  0.79200000  0.35200000  0.34590000  1.0 0.0133970089
C  C214  1  0.44000000  0.79200000  0.84590000  1.0 0.0133970089
C  C215  1  0.35200000  0.56000000  0.84590000  1.0 0.0133970089
C  C216  1  0.20800000  0.64800000  0.84590000  1.0 0.0133970089
C  C217  1  0.79200000  0.44000000  0.84590000  1.0 0.0133970089
C  C218  1  0.56000000  0.35200000  0.84590000  1.0 0.0133970089
C  C219  1  0.64800000  0.20800000  0.84590000  1.0 0.0133970089
C  C220  1  0.20800000  0.56000000  0.34590000  1.0 0.0133970089
C  C221  1  0.44000000  0.64800000  0.34590000  1.0 0.0133970089
C  C222  1  0.35200000  0.79200000  0.34590000  1.0 0.0133970089
C  C223  1  0.44000000  0.79200000  0.65410000  1.0 0.0133970089
C  C224  1  0.35200000  0.56000000  0.65410000  1.0 0.0133970089
C  C225  1  0.20800000  0.64800000  0.65410000  1.0 0.0133970089
C  C226  1  0.56000000  0.20800000  0.15410000  1.0 0.0133970089
C  C227  1  0.64800000  0.44000000  0.15410000  1.0 0.0133970089
C  C228  1  0.79200000  0.35200000  0.15410000  1.0 0.0133970089
C  C229  1  0.18100000  0.51060000  0.17740000  1.0 -0.0722269968
C  C230  1  0.48940000  0.67040000  0.17740000  1.0 -0.0722269968
C  C231  1  0.32960000  0.81900000  0.17740000  1.0 -0.0722269968
C  C232  1  0.81900000  0.48940000  0.67740000  1.0 -0.0722269968
C  C233  1  0.51060000  0.32960000  0.67740000  1.0 -0.0722269968
C  C234  1  0.67040000  0.18100000  0.67740000  1.0 -0.0722269968
C  C235  1  0.51060000  0.18100000  0.32260000  1.0 -0.0722269968
C  C236  1  0.67040000  0.48940000  0.32260000  1.0 -0.0722269968
C  C237  1  0.81900000  0.32960000  0.32260000  1.0 -0.0722269968
C  C238  1  0.48940000  0.81900000  0.82260000  1.0 -0.0722269968
C  C239  1  0.32960000  0.51060000  0.82260000  1.0 -0.0722269968
C  C240  1  0.18100000  0.67040000  0.82260000  1.0 -0.0722269968
C  C241  1  0.81900000  0.48940000  0.82260000  1.0 -0.0722269968
C  C242  1  0.51060000  0.32960000  0.82260000  1.0 -0.0722269968
C  C243  1  0.67040000  0.18100000  0.82260000  1.0 -0.0722269968
C  C244  1  0.18100000  0.51060000  0.32260000  1.0 -0.0722269968
C  C245  1  0.48940000  0.67040000  0.32260000  1.0 -0.0722269968
C  C246  1  0.32960000  0.81900000  0.32260000  1.0 -0.0722269968
C  C247  1  0.48940000  0.81900000  0.67740000  1.0 -0.0722269968
C  C248  1  0.32960000  0.51060000  0.67740000  1.0 -0.0722269968
C  C249  1  0.18100000  0.67040000  0.67740000  1.0 -0.0722269968
C  C250  1  0.51060000  0.18100000  0.17740000  1.0 -0.0722269968
C  C251  1  0.67040000  0.48940000  0.17740000  1.0 -0.0722269968
C  C252  1  0.81900000  0.32960000  0.17740000  1.0 -0.0722269968
C  C253  1  0.18770000  0.52800000  0.21520000  1.0 -0.0183385689
C  C254  1  0.47200000  0.65970000  0.21520000  1.0 -0.0183385689
C  C255  1  0.34030000  0.81230000  0.21520000  1.0 -0.0183385689
C  C256  1  0.81230000  0.47200000  0.71520000  1.0 -0.0183385689
C  C257  1  0.52800000  0.34030000  0.71520000  1.0 -0.0183385689
C  C258  1  0.65970000  0.18770000  0.71520000  1.0 -0.0183385689
C  C259  1  0.52800000  0.18770000  0.28480000  1.0 -0.0183385689
C  C260  1  0.65970000  0.47200000  0.28480000  1.0 -0.0183385689
C  C261  1  0.81230000  0.34030000  0.28480000  1.0 -0.0183385689
C  C262  1  0.47200000  0.81230000  0.78480000  1.0 -0.0183385689
C  C263  1  0.34030000  0.52800000  0.78480000  1.0 -0.0183385689
C  C264  1  0.18770000  0.65970000  0.78480000  1.0 -0.0183385689
C  C265  1  0.81230000  0.47200000  0.78480000  1.0 -0.0183385689
C  C266  1  0.52800000  0.34030000  0.78480000  1.0 -0.0183385689
C  C267  1  0.65970000  0.18770000  0.78480000  1.0 -0.0183385689
C  C268  1  0.18770000  0.52800000  0.28480000  1.0 -0.0183385689
C  C269  1  0.47200000  0.65970000  0.28480000  1.0 -0.0183385689
C  C270  1  0.34030000  0.81230000  0.28480000  1.0 -0.0183385689
C  C271  1  0.47200000  0.81230000  0.71520000  1.0 -0.0183385689
C  C272  1  0.34030000  0.52800000  0.71520000  1.0 -0.0183385689
C  C273  1  0.18770000  0.65970000  0.71520000  1.0 -0.0183385689
C  C274  1  0.52800000  0.18770000  0.21520000  1.0 -0.0183385689
C  C275  1  0.65970000  0.47200000  0.21520000  1.0 -0.0183385689
C  C276  1  0.81230000  0.34030000  0.21520000  1.0 -0.0183385689
C  C277  1  0.21480000  0.58510000  0.22910000  1.0 -0.0035042994
C  C278  1  0.41490000  0.62970000  0.22910000  1.0 -0.0035042994
C  C279  1  0.37030000  0.78520000  0.22910000  1.0 -0.0035042994
C  C280  1  0.78520000  0.41490000  0.72910000  1.0 -0.0035042994
C  C281  1  0.58510000  0.37030000  0.72910000  1.0 -0.0035042994
C  C282  1  0.62970000  0.21480000  0.72910000  1.0 -0.0035042994
C  C283  1  0.58510000  0.21480000  0.27090000  1.0 -0.0035042994
C  C284  1  0.62970000  0.41490000  0.27090000  1.0 -0.0035042994
C  C285  1  0.78520000  0.37030000  0.27090000  1.0 -0.0035042994
C  C286  1  0.41490000  0.78520000  0.77090000  1.0 -0.0035042994
C  C287  1  0.37030000  0.58510000  0.77090000  1.0 -0.0035042994
C  C288  1  0.21480000  0.62970000  0.77090000  1.0 -0.0035042994
C  C289  1  0.78520000  0.41490000  0.77090000  1.0 -0.0035042994
C  C290  1  0.58510000  0.37030000  0.77090000  1.0 -0.0035042994
C  C291  1  0.62970000  0.21480000  0.77090000  1.0 -0.0035042994
C  C292  1  0.21480000  0.58510000  0.27090000  1.0 -0.0035042994
C  C293  1  0.41490000  0.62970000  0.27090000  1.0 -0.0035042994
C  C294  1  0.37030000  0.78520000  0.27090000  1.0 -0.0035042994
C  C295  1  0.41490000  0.78520000  0.72910000  1.0 -0.0035042994
C  C296  1  0.37030000  0.58510000  0.72910000  1.0 -0.0035042994
C  C297  1  0.21480000  0.62970000  0.72910000  1.0 -0.0035042994
C  C298  1  0.58510000  0.21480000  0.22910000  1.0 -0.0035042994
C  C299  1  0.62970000  0.41490000  0.22910000  1.0 -0.0035042994
C  C300  1  0.78520000  0.37030000  0.22910000  1.0 -0.0035042994
C  C301  1  0.24040000  0.63350000  0.20260000  1.0 -0.0910538425
C  C302  1  0.36650000  0.60690000  0.20260000  1.0 -0.0910538425
C  C303  1  0.39310000  0.75960000  0.20260000  1.0 -0.0910538425
C  C304  1  0.75960000  0.36650000  0.70260000  1.0 -0.0910538425
C  C305  1  0.63350000  0.39310000  0.70260000  1.0 -0.0910538425
C  C306  1  0.60690000  0.24040000  0.70260000  1.0 -0.0910538425
C  C307  1  0.63350000  0.24040000  0.29740000  1.0 -0.0910538425
C  C308  1  0.60690000  0.36650000  0.29740000  1.0 -0.0910538425
C  C309  1  0.75960000  0.39310000  0.29740000  1.0 -0.0910538425
C  C310  1  0.36650000  0.75960000  0.79740000  1.0 -0.0910538425
C  C311  1  0.39310000  0.63350000  0.79740000  1.0 -0.0910538425
C  C312  1  0.24040000  0.60690000  0.79740000  1.0 -0.0910538425
C  C313  1  0.75960000  0.36650000  0.79740000  1.0 -0.0910538425
C  C314  1  0.63350000  0.39310000  0.79740000  1.0 -0.0910538425
C  C315  1  0.60690000  0.24040000  0.79740000  1.0 -0.0910538425
C  C316  1  0.24040000  0.63350000  0.29740000  1.0 -0.0910538425
C  C317  1  0.36650000  0.60690000  0.29740000  1.0 -0.0910538425
C  C318  1  0.39310000  0.75960000  0.29740000  1.0 -0.0910538425
C  C319  1  0.36650000  0.75960000  0.70260000  1.0 -0.0910538425
C  C320  1  0.39310000  0.63350000  0.70260000  1.0 -0.0910538425
C  C321  1  0.24040000  0.60690000  0.70260000  1.0 -0.0910538425
C  C322  1  0.63350000  0.24040000  0.20260000  1.0 -0.0910538425
C  C323  1  0.60690000  0.36650000  0.20260000  1.0 -0.0910538425
C  C324  1  0.75960000  0.39310000  0.20260000  1.0 -0.0910538425
C  C325  1  0.23680000  0.61850000  0.16460000  1.0 -0.1935122953
C  C326  1  0.38150000  0.61830000  0.16460000  1.0 -0.1935122953
C  C327  1  0.38170000  0.76320000  0.16460000  1.0 -0.1935122953
C  C328  1  0.76320000  0.38150000  0.66460000  1.0 -0.1935122953
C  C329  1  0.61850000  0.38170000  0.66460000  1.0 -0.1935122953
C  C330  1  0.61830000  0.23680000  0.66460000  1.0 -0.1935122953
C  C331  1  0.61850000  0.23680000  0.33540000  1.0 -0.1935122953
C  C332  1  0.61830000  0.38150000  0.33540000  1.0 -0.1935122953
C  C333  1  0.76320000  0.38170000  0.33540000  1.0 -0.1935122953
C  C334  1  0.38150000  0.76320000  0.83540000  1.0 -0.1935122953
C  C335  1  0.38170000  0.61850000  0.83540000  1.0 -0.1935122953
C  C336  1  0.23680000  0.61830000  0.83540000  1.0 -0.1935122953
C  C337  1  0.76320000  0.38150000  0.83540000  1.0 -0.1935122953
C  C338  1  0.61850000  0.38170000  0.83540000  1.0 -0.1935122953
C  C339  1  0.61830000  0.23680000  0.83540000  1.0 -0.1935122953
C  C340  1  0.23680000  0.61850000  0.33540000  1.0 -0.1935122953
C  C341  1  0.38150000  0.61830000  0.33540000  1.0 -0.1935122953
C  C342  1  0.38170000  0.76320000  0.33540000  1.0 -0.1935122953
C  C343  1  0.38150000  0.76320000  0.66460000  1.0 -0.1935122953
C  C344  1  0.38170000  0.61850000  0.66460000  1.0 -0.1935122953
C  C345  1  0.23680000  0.61830000  0.66460000  1.0 -0.1935122953
C  C346  1  0.61850000  0.23680000  0.16460000  1.0 -0.1935122953
C  C347  1  0.61830000  0.38150000  0.16460000  1.0 -0.1935122953
C  C348  1  0.76320000  0.38170000  0.16460000  1.0 -0.1935122953
C  C349  1  0.16360000  0.48740000  0.25000000  1.0 0.2006271845
C  C350  1  0.51260000  0.67620000  0.25000000  1.0 0.2006271845
C  C351  1  0.32380000  0.83640000  0.25000000  1.0 0.2006271845
C  C352  1  0.83640000  0.51260000  0.75000000  1.0 0.2006271845
C  C353  1  0.48740000  0.32380000  0.75000000  1.0 0.2006271845
C  C354  1  0.67620000  0.16360000  0.75000000  1.0 0.2006271845
C  C355  1  0.48740000  0.16360000  0.25000000  1.0 0.2006271845
C  C356  1  0.67620000  0.51260000  0.25000000  1.0 0.2006271845
C  C357  1  0.83640000  0.32380000  0.25000000  1.0 0.2006271845
C  C358  1  0.51260000  0.83640000  0.75000000  1.0 0.2006271845
C  C359  1  0.32380000  0.48740000  0.75000000  1.0 0.2006271845
C  C360  1  0.16360000  0.67620000  0.75000000  1.0 0.2006271845
C  C361  1  0.17340000  0.50520000  0.98234000  1.0 -0.0183385689
C  C362  1  0.49480000  0.66820000  0.98234000  1.0 -0.0183385689
C  C363  1  0.33180000  0.82660000  0.98234000  1.0 -0.0183385689
C  C364  1  0.82660000  0.49480000  0.48234000  1.0 -0.0183385689
C  C365  1  0.50520000  0.33180000  0.48234000  1.0 -0.0183385689
C  C366  1  0.66820000  0.17340000  0.48234000  1.0 -0.0183385689
C  C367  1  0.50520000  0.17340000  0.51766000  1.0 -0.0183385689
C  C368  1  0.66820000  0.49480000  0.51766000  1.0 -0.0183385689
C  C369  1  0.82660000  0.33180000  0.51766000  1.0 -0.0183385689
C  C370  1  0.49480000  0.82660000  0.01766000  1.0 -0.0183385689
C  C371  1  0.33180000  0.50520000  0.01766000  1.0 -0.0183385689
C  C372  1  0.17340000  0.66820000  0.01766000  1.0 -0.0183385689
C  C373  1  0.82660000  0.49480000  0.01766000  1.0 -0.0183385689
C  C374  1  0.50520000  0.33180000  0.01766000  1.0 -0.0183385689
C  C375  1  0.66820000  0.17340000  0.01766000  1.0 -0.0183385689
C  C376  1  0.17340000  0.50520000  0.51766000  1.0 -0.0183385689
C  C377  1  0.49480000  0.66820000  0.51766000  1.0 -0.0183385689
C  C378  1  0.33180000  0.82660000  0.51766000  1.0 -0.0183385689
C  C379  1  0.49480000  0.82660000  0.48234000  1.0 -0.0183385689
C  C380  1  0.33180000  0.50520000  0.48234000  1.0 -0.0183385689
C  C381  1  0.17340000  0.66820000  0.48234000  1.0 -0.0183385689
C  C382  1  0.50520000  0.17340000  0.98234000  1.0 -0.0183385689
C  C383  1  0.66820000  0.49480000  0.98234000  1.0 -0.0183385689
C  C384  1  0.82660000  0.33180000  0.98234000  1.0 -0.0183385689
C  C385  1  0.20850000  0.54200000  0.95505000  1.0 -0.117334574
C  C386  1  0.45800000  0.66650000  0.95505000  1.0 -0.117334574
C  C387  1  0.33350000  0.79150000  0.95505000  1.0 -0.117334574
C  C388  1  0.79150000  0.45800000  0.45505000  1.0 -0.117334574
C  C389  1  0.54200000  0.33350000  0.45505000  1.0 -0.117334574
C  C390  1  0.66650000  0.20850000  0.45505000  1.0 -0.117334574
C  C391  1  0.54200000  0.20850000  0.54495000  1.0 -0.117334574
C  C392  1  0.66650000  0.45800000  0.54495000  1.0 -0.117334574
C  C393  1  0.79150000  0.33350000  0.54495000  1.0 -0.117334574
C  C394  1  0.45800000  0.79150000  0.04495000  1.0 -0.117334574
C  C395  1  0.33350000  0.54200000  0.04495000  1.0 -0.117334574
C  C396  1  0.20850000  0.66650000  0.04495000  1.0 -0.117334574
C  C397  1  0.79150000  0.45800000  0.04495000  1.0 -0.117334574
C  C398  1  0.54200000  0.33350000  0.04495000  1.0 -0.117334574
C  C399  1  0.66650000  0.20850000  0.04495000  1.0 -0.117334574
C  C400  1  0.20850000  0.54200000  0.54495000  1.0 -0.117334574
C  C401  1  0.45800000  0.66650000  0.54495000  1.0 -0.117334574
C  C402  1  0.33350000  0.79150000  0.54495000  1.0 -0.117334574
C  C403  1  0.45800000  0.79150000  0.45505000  1.0 -0.117334574
C  C404  1  0.33350000  0.54200000  0.45505000  1.0 -0.117334574
C  C405  1  0.20850000  0.66650000  0.45505000  1.0 -0.117334574
C  C406  1  0.54200000  0.20850000  0.95505000  1.0 -0.117334574
C  C407  1  0.66650000  0.45800000  0.95505000  1.0 -0.117334574
C  C408  1  0.79150000  0.33350000  0.95505000  1.0 -0.117334574
C  C409  1  0.03070000  0.45700000  0.04050000  1.0 -0.0388525795
C  C410  1  0.54300000  0.57370000  0.04050000  1.0 -0.0388525795
C  C411  1  0.42630000  0.96930000  0.04050000  1.0 -0.0388525795
C  C412  1  0.96930000  0.54300000  0.54050000  1.0 -0.0388525795
C  C413  1  0.45700000  0.42630000  0.54050000  1.0 -0.0388525795
C  C414  1  0.57370000  0.03070000  0.54050000  1.0 -0.0388525795
C  C415  1  0.45700000  0.03070000  0.45950000  1.0 -0.0388525795
C  C416  1  0.57370000  0.54300000  0.45950000  1.0 -0.0388525795
C  C417  1  0.96930000  0.42630000  0.45950000  1.0 -0.0388525795
C  C418  1  0.54300000  0.96930000  0.95950000  1.0 -0.0388525795
C  C419  1  0.42630000  0.45700000  0.95950000  1.0 -0.0388525795
C  C420  1  0.03070000  0.57370000  0.95950000  1.0 -0.0388525795
C  C421  1  0.96930000  0.54300000  0.95950000  1.0 -0.0388525795
C  C422  1  0.45700000  0.42630000  0.95950000  1.0 -0.0388525795
C  C423  1  0.57370000  0.03070000  0.95950000  1.0 -0.0388525795
C  C424  1  0.03070000  0.45700000  0.45950000  1.0 -0.0388525795
C  C425  1  0.54300000  0.57370000  0.45950000  1.0 -0.0388525795
C  C426  1  0.42630000  0.96930000  0.45950000  1.0 -0.0388525795
C  C427  1  0.54300000  0.96930000  0.54050000  1.0 -0.0388525795
C  C428  1  0.42630000  0.45700000  0.54050000  1.0 -0.0388525795
C  C429  1  0.03070000  0.57370000  0.54050000  1.0 -0.0388525795
C  C430  1  0.45700000  0.03070000  0.04050000  1.0 -0.0388525795
C  C431  1  0.57370000  0.54300000  0.04050000  1.0 -0.0388525795
C  C432  1  0.96930000  0.42630000  0.04050000  1.0 -0.0388525795
C  C433  1  0.21890000  0.53180000  0.11100000  1.0 0.2721523112
C  C434  1  0.46820000  0.68710000  0.11100000  1.0 0.2721523112
C  C435  1  0.31290000  0.78110000  0.11100000  1.0 0.2721523112
C  C436  1  0.78110000  0.46820000  0.61100000  1.0 0.2721523112
C  C437  1  0.53180000  0.31290000  0.61100000  1.0 0.2721523112
C  C438  1  0.68710000  0.21890000  0.61100000  1.0 0.2721523112
C  C439  1  0.53180000  0.21890000  0.38900000  1.0 0.2721523112
C  C440  1  0.68710000  0.46820000  0.38900000  1.0 0.2721523112
C  C441  1  0.78110000  0.31290000  0.38900000  1.0 0.2721523112
C  C442  1  0.46820000  0.78110000  0.88900000  1.0 0.2721523112
C  C443  1  0.31290000  0.53180000  0.88900000  1.0 0.2721523112
C  C444  1  0.21890000  0.68710000  0.88900000  1.0 0.2721523112
C  C445  1  0.78110000  0.46820000  0.88900000  1.0 0.2721523112
C  C446  1  0.53180000  0.31290000  0.88900000  1.0 0.2721523112
C  C447  1  0.68710000  0.21890000  0.88900000  1.0 0.2721523112
C  C448  1  0.21890000  0.53180000  0.38900000  1.0 0.2721523112
C  C449  1  0.46820000  0.68710000  0.38900000  1.0 0.2721523112
C  C450  1  0.31290000  0.78110000  0.38900000  1.0 0.2721523112
C  C451  1  0.46820000  0.78110000  0.61100000  1.0 0.2721523112
C  C452  1  0.31290000  0.53180000  0.61100000  1.0 0.2721523112
C  C453  1  0.21890000  0.68710000  0.61100000  1.0 0.2721523112
C  C454  1  0.53180000  0.21890000  0.11100000  1.0 0.2721523112
C  C455  1  0.68710000  0.46820000  0.11100000  1.0 0.2721523112
C  C456  1  0.78110000  0.31290000  0.11100000  1.0 0.2721523112
C  C457  1  0.23420000  0.53640000  0.15370000  1.0 0.0338252178
C  C458  1  0.46360000  0.69780000  0.15370000  1.0 0.0338252178
C  C459  1  0.30220000  0.76580000  0.15370000  1.0 0.0338252178
C  C460  1  0.76580000  0.46360000  0.65370000  1.0 0.0338252178
C  C461  1  0.53640000  0.30220000  0.65370000  1.0 0.0338252178
C  C462  1  0.69780000  0.23420000  0.65370000  1.0 0.0338252178
C  C463  1  0.53640000  0.23420000  0.34630000  1.0 0.0338252178
C  C464  1  0.69780000  0.46360000  0.34630000  1.0 0.0338252178
C  C465  1  0.76580000  0.30220000  0.34630000  1.0 0.0338252178
C  C466  1  0.46360000  0.76580000  0.84630000  1.0 0.0338252178
C  C467  1  0.30220000  0.53640000  0.84630000  1.0 0.0338252178
C  C468  1  0.23420000  0.69780000  0.84630000  1.0 0.0338252178
C  C469  1  0.76580000  0.46360000  0.84630000  1.0 0.0338252178
C  C470  1  0.53640000  0.30220000  0.84630000  1.0 0.0338252178
C  C471  1  0.69780000  0.23420000  0.84630000  1.0 0.0338252178
C  C472  1  0.23420000  0.53640000  0.34630000  1.0 0.0338252178
C  C473  1  0.46360000  0.69780000  0.34630000  1.0 0.0338252178
C  C474  1  0.30220000  0.76580000  0.34630000  1.0 0.0338252178
C  C475  1  0.46360000  0.76580000  0.65370000  1.0 0.0338252178
C  C476  1  0.30220000  0.53640000  0.65370000  1.0 0.0338252178
C  C477  1  0.23420000  0.69780000  0.65370000  1.0 0.0338252178
C  C478  1  0.53640000  0.23420000  0.15370000  1.0 0.0338252178
C  C479  1  0.69780000  0.46360000  0.15370000  1.0 0.0338252178
C  C480  1  0.76580000  0.30220000  0.15370000  1.0 0.0338252178
C  C481  1  0.19000000  0.51160000  0.18250000  1.0 -0.0814913241
C  C482  1  0.48840000  0.67840000  0.18250000  1.0 -0.0814913241
C  C483  1  0.32160000  0.81000000  0.18250000  1.0 -0.0814913241
C  C484  1  0.81000000  0.48840000  0.68250000  1.0 -0.0814913241
C  C485  1  0.51160000  0.32160000  0.68250000  1.0 -0.0814913241
C  C486  1  0.67840000  0.19000000  0.68250000  1.0 -0.0814913241
C  C487  1  0.51160000  0.19000000  0.31750000  1.0 -0.0814913241
C  C488  1  0.67840000  0.48840000  0.31750000  1.0 -0.0814913241
C  C489  1  0.81000000  0.32160000  0.31750000  1.0 -0.0814913241
C  C490  1  0.48840000  0.81000000  0.81750000  1.0 -0.0814913241
C  C491  1  0.32160000  0.51160000  0.81750000  1.0 -0.0814913241
C  C492  1  0.19000000  0.67840000  0.81750000  1.0 -0.0814913241
C  C493  1  0.81000000  0.48840000  0.81750000  1.0 -0.0814913241
C  C494  1  0.51160000  0.32160000  0.81750000  1.0 -0.0814913241
C  C495  1  0.67840000  0.19000000  0.81750000  1.0 -0.0814913241
C  C496  1  0.19000000  0.51160000  0.31750000  1.0 -0.0814913241
C  C497  1  0.48840000  0.67840000  0.31750000  1.0 -0.0814913241
C  C498  1  0.32160000  0.81000000  0.31750000  1.0 -0.0814913241
C  C499  1  0.48840000  0.81000000  0.68250000  1.0 -0.0814913241
C  C500  1  0.32160000  0.51160000  0.68250000  1.0 -0.0814913241
C  C501  1  0.19000000  0.67840000  0.68250000  1.0 -0.0814913241
C  C502  1  0.51160000  0.19000000  0.18250000  1.0 -0.0814913241
C  C503  1  0.67840000  0.48840000  0.18250000  1.0 -0.0814913241
C  C504  1  0.81000000  0.32160000  0.18250000  1.0 -0.0814913241
C  C505  1  0.20140000  0.51170000  0.22070000  1.0 -0.0116261438
C  C506  1  0.48830000  0.68970000  0.22070000  1.0 -0.0116261438
C  C507  1  0.31030000  0.79860000  0.22070000  1.0 -0.0116261438
C  C508  1  0.79860000  0.48830000  0.72070000  1.0 -0.0116261438
C  C509  1  0.51170000  0.31030000  0.72070000  1.0 -0.0116261438
C  C510  1  0.68970000  0.20140000  0.72070000  1.0 -0.0116261438
C  C511  1  0.51170000  0.20140000  0.27930000  1.0 -0.0116261438
C  C512  1  0.68970000  0.48830000  0.27930000  1.0 -0.0116261438
C  C513  1  0.79860000  0.31030000  0.27930000  1.0 -0.0116261438
C  C514  1  0.48830000  0.79860000  0.77930000  1.0 -0.0116261438
C  C515  1  0.31030000  0.51170000  0.77930000  1.0 -0.0116261438
C  C516  1  0.20140000  0.68970000  0.77930000  1.0 -0.0116261438
C  C517  1  0.79860000  0.48830000  0.77930000  1.0 -0.0116261438
C  C518  1  0.51170000  0.31030000  0.77930000  1.0 -0.0116261438
C  C519  1  0.68970000  0.20140000  0.77930000  1.0 -0.0116261438
C  C520  1  0.20140000  0.51170000  0.27930000  1.0 -0.0116261438
C  C521  1  0.48830000  0.68970000  0.27930000  1.0 -0.0116261438
C  C522  1  0.31030000  0.79860000  0.27930000  1.0 -0.0116261438
C  C523  1  0.48830000  0.79860000  0.72070000  1.0 -0.0116261438
C  C524  1  0.31030000  0.51170000  0.72070000  1.0 -0.0116261438
C  C525  1  0.20140000  0.68970000  0.72070000  1.0 -0.0116261438
C  C526  1  0.51170000  0.20140000  0.22070000  1.0 -0.0116261438
C  C527  1  0.68970000  0.48830000  0.22070000  1.0 -0.0116261438
C  C528  1  0.79860000  0.31030000  0.22070000  1.0 -0.0116261438
C  C529  1  0.26210000  0.54680000  0.22950000  1.0 -0.0183385689
C  C530  1  0.45320000  0.71530000  0.22950000  1.0 -0.0183385689
C  C531  1  0.28470000  0.73790000  0.22950000  1.0 -0.0183385689
C  C532  1  0.73790000  0.45320000  0.72950000  1.0 -0.0183385689
C  C533  1  0.54680000  0.28470000  0.72950000  1.0 -0.0183385689
C  C534  1  0.71530000  0.26210000  0.72950000  1.0 -0.0183385689
C  C535  1  0.54680000  0.26210000  0.27050000  1.0 -0.0183385689
C  C536  1  0.71530000  0.45320000  0.27050000  1.0 -0.0183385689
C  C537  1  0.73790000  0.28470000  0.27050000  1.0 -0.0183385689
C  C538  1  0.45320000  0.73790000  0.77050000  1.0 -0.0183385689
C  C539  1  0.28470000  0.54680000  0.77050000  1.0 -0.0183385689
C  C540  1  0.26210000  0.71530000  0.77050000  1.0 -0.0183385689
C  C541  1  0.73790000  0.45320000  0.77050000  1.0 -0.0183385689
C  C542  1  0.54680000  0.28470000  0.77050000  1.0 -0.0183385689
C  C543  1  0.71530000  0.26210000  0.77050000  1.0 -0.0183385689
C  C544  1  0.26210000  0.54680000  0.27050000  1.0 -0.0183385689
C  C545  1  0.45320000  0.71530000  0.27050000  1.0 -0.0183385689
C  C546  1  0.28470000  0.73790000  0.27050000  1.0 -0.0183385689
C  C547  1  0.45320000  0.73790000  0.72950000  1.0 -0.0183385689
C  C548  1  0.28470000  0.54680000  0.72950000  1.0 -0.0183385689
C  C549  1  0.26210000  0.71530000  0.72950000  1.0 -0.0183385689
C  C550  1  0.54680000  0.26210000  0.22950000  1.0 -0.0183385689
C  C551  1  0.71530000  0.45320000  0.22950000  1.0 -0.0183385689
C  C552  1  0.73790000  0.28470000  0.22950000  1.0 -0.0183385689
C  C553  1  0.30570000  0.57690000  0.20300000  1.0 -0.1007793935
C  C554  1  0.42310000  0.72880000  0.20300000  1.0 -0.1007793935
C  C555  1  0.27120000  0.69430000  0.20300000  1.0 -0.1007793935
C  C556  1  0.69430000  0.42310000  0.70300000  1.0 -0.1007793935
C  C557  1  0.57690000  0.27120000  0.70300000  1.0 -0.1007793935
C  C558  1  0.72880000  0.30570000  0.70300000  1.0 -0.1007793935
C  C559  1  0.57690000  0.30570000  0.29700000  1.0 -0.1007793935
C  C560  1  0.72880000  0.42310000  0.29700000  1.0 -0.1007793935
C  C561  1  0.69430000  0.27120000  0.29700000  1.0 -0.1007793935
C  C562  1  0.42310000  0.69430000  0.79700000  1.0 -0.1007793935
C  C563  1  0.27120000  0.57690000  0.79700000  1.0 -0.1007793935
C  C564  1  0.30570000  0.72880000  0.79700000  1.0 -0.1007793935
C  C565  1  0.69430000  0.42310000  0.79700000  1.0 -0.1007793935
C  C566  1  0.57690000  0.27120000  0.79700000  1.0 -0.1007793935
C  C567  1  0.72880000  0.30570000  0.79700000  1.0 -0.1007793935
C  C568  1  0.30570000  0.57690000  0.29700000  1.0 -0.1007793935
C  C569  1  0.42310000  0.72880000  0.29700000  1.0 -0.1007793935
C  C570  1  0.27120000  0.69430000  0.29700000  1.0 -0.1007793935
C  C571  1  0.42310000  0.69430000  0.70300000  1.0 -0.1007793935
C  C572  1  0.27120000  0.57690000  0.70300000  1.0 -0.1007793935
C  C573  1  0.30570000  0.72880000  0.70300000  1.0 -0.1007793935
C  C574  1  0.57690000  0.30570000  0.20300000  1.0 -0.1007793935
C  C575  1  0.72880000  0.42310000  0.20300000  1.0 -0.1007793935
C  C576  1  0.69430000  0.27120000  0.20300000  1.0 -0.1007793935
C  C577  1  0.29150000  0.57070000  0.16470000  1.0 -0.1951994793
C  C578  1  0.42930000  0.72080000  0.16470000  1.0 -0.1951994793
C  C579  1  0.27920000  0.70850000  0.16470000  1.0 -0.1951994793
C  C580  1  0.70850000  0.42930000  0.66470000  1.0 -0.1951994793
C  C581  1  0.57070000  0.27920000  0.66470000  1.0 -0.1951994793
C  C582  1  0.72080000  0.29150000  0.66470000  1.0 -0.1951994793
C  C583  1  0.57070000  0.29150000  0.33530000  1.0 -0.1951994793
C  C584  1  0.72080000  0.42930000  0.33530000  1.0 -0.1951994793
C  C585  1  0.70850000  0.27920000  0.33530000  1.0 -0.1951994793
C  C586  1  0.42930000  0.70850000  0.83530000  1.0 -0.1951994793
C  C587  1  0.27920000  0.57070000  0.83530000  1.0 -0.1951994793
C  C588  1  0.29150000  0.72080000  0.83530000  1.0 -0.1951994793
C  C589  1  0.70850000  0.42930000  0.83530000  1.0 -0.1951994793
C  C590  1  0.57070000  0.27920000  0.83530000  1.0 -0.1951994793
C  C591  1  0.72080000  0.29150000  0.83530000  1.0 -0.1951994793
C  C592  1  0.29150000  0.57070000  0.33530000  1.0 -0.1951994793
C  C593  1  0.42930000  0.72080000  0.33530000  1.0 -0.1951994793
C  C594  1  0.27920000  0.70850000  0.33530000  1.0 -0.1951994793
C  C595  1  0.42930000  0.70850000  0.66470000  1.0 -0.1951994793
C  C596  1  0.27920000  0.57070000  0.66470000  1.0 -0.1951994793
C  C597  1  0.29150000  0.72080000  0.66470000  1.0 -0.1951994793
C  C598  1  0.57070000  0.29150000  0.16470000  1.0 -0.1951994793
C  C599  1  0.72080000  0.42930000  0.16470000  1.0 -0.1951994793
C  C600  1  0.70850000  0.27920000  0.16470000  1.0 -0.1951994793
O  O1  1  0.06110000  0.31410000  0.05312000  1.0 -0.5699502984
O  O2  1  0.68590000  0.74700000  0.05312000  1.0 -0.5699502984
O  O3  1  0.25300000  0.93890000  0.05312000  1.0 -0.5699502984
O  O4  1  0.93890000  0.68590000  0.55312000  1.0 -0.5699502984
O  O5  1  0.31410000  0.25300000  0.55312000  1.0 -0.5699502984
O  O6  1  0.74700000  0.06110000  0.55312000  1.0 -0.5699502984
O  O7  1  0.31410000  0.06110000  0.44688000  1.0 -0.5699502984
O  O8  1  0.74700000  0.68590000  0.44688000  1.0 -0.5699502984
O  O9  1  0.93890000  0.25300000  0.44688000  1.0 -0.5699502984
O  O10  1  0.68590000  0.93890000  0.94688000  1.0 -0.5699502984
O  O11  1  0.25300000  0.31410000  0.94688000  1.0 -0.5699502984
O  O12  1  0.06110000  0.74700000  0.94688000  1.0 -0.5699502984
O  O13  1  0.93890000  0.68590000  0.94688000  1.0 -0.5699502984
O  O14  1  0.31410000  0.25300000  0.94688000  1.0 -0.5699502984
O  O15  1  0.74700000  0.06110000  0.94688000  1.0 -0.5699502984
O  O16  1  0.06110000  0.31410000  0.44688000  1.0 -0.5699502984
O  O17  1  0.68590000  0.74700000  0.44688000  1.0 -0.5699502984
O  O18  1  0.25300000  0.93890000  0.44688000  1.0 -0.5699502984
O  O19  1  0.68590000  0.93890000  0.55312000  1.0 -0.5699502984
O  O20  1  0.25300000  0.31410000  0.55312000  1.0 -0.5699502984
O  O21  1  0.06110000  0.74700000  0.55312000  1.0 -0.5699502984
O  O22  1  0.31410000  0.06110000  0.05312000  1.0 -0.5699502984
O  O23  1  0.74700000  0.68590000  0.05312000  1.0 -0.5699502984
O  O24  1  0.93890000  0.25300000  0.05312000  1.0 -0.5699502984
O  O25  1  0.15494000  0.38861000  0.05141000  1.0 -0.5506903687
O  O26  1  0.61139000  0.76633000  0.05141000  1.0 -0.5506903687
O  O27  1  0.23367000  0.84506000  0.05141000  1.0 -0.5506903687
O  O28  1  0.84506000  0.61139000  0.55141000  1.0 -0.5506903687
O  O29  1  0.38861000  0.23367000  0.55141000  1.0 -0.5506903687
O  O30  1  0.76633000  0.15494000  0.55141000  1.0 -0.5506903687
O  O31  1  0.38861000  0.15494000  0.44859000  1.0 -0.5506903687
O  O32  1  0.76633000  0.61139000  0.44859000  1.0 -0.5506903687
O  O33  1  0.84506000  0.23367000  0.44859000  1.0 -0.5506903687
O  O34  1  0.61139000  0.84506000  0.94859000  1.0 -0.5506903687
O  O35  1  0.23367000  0.38861000  0.94859000  1.0 -0.5506903687
O  O36  1  0.15494000  0.76633000  0.94859000  1.0 -0.5506903687
O  O37  1  0.84506000  0.61139000  0.94859000  1.0 -0.5506903687
O  O38  1  0.38861000  0.23367000  0.94859000  1.0 -0.5506903687
O  O39  1  0.76633000  0.15494000  0.94859000  1.0 -0.5506903687
O  O40  1  0.15494000  0.38861000  0.44859000  1.0 -0.5506903687
O  O41  1  0.61139000  0.76633000  0.44859000  1.0 -0.5506903687
O  O42  1  0.23367000  0.84506000  0.44859000  1.0 -0.5506903687
O  O43  1  0.61139000  0.84506000  0.55141000  1.0 -0.5506903687
O  O44  1  0.23367000  0.38861000  0.55141000  1.0 -0.5506903687
O  O45  1  0.15494000  0.76633000  0.55141000  1.0 -0.5506903687
O  O46  1  0.38861000  0.15494000  0.05141000  1.0 -0.5506903687
O  O47  1  0.76633000  0.61139000  0.05141000  1.0 -0.5506903687
O  O48  1  0.84506000  0.23367000  0.05141000  1.0 -0.5506903687
O  O49  1  0.32340000  0.32340000  0.03820000  1.0 -0.3729499922
O  O50  1  0.67660000  0.00000000  0.03820000  1.0 -0.3729499922
O  O51  1  0.00000000  0.67660000  0.03820000  1.0 -0.375241139
O  O52  1  0.67660000  0.67660000  0.53820000  1.0 -0.3729499922
O  O53  1  0.32340000  0.00000000  0.53820000  1.0 -0.3729499922
O  O54  1  0.00000000  0.32340000  0.53820000  1.0 -0.375241139
O  O55  1  0.32340000  0.32340000  0.46180000  1.0 -0.3729499922
O  O56  1  0.00000000  0.67660000  0.46180000  1.0 -0.375241139
O  O57  1  0.67660000  0.00000000  0.46180000  1.0 -0.3729499922
O  O58  1  0.67660000  0.67660000  0.96180000  1.0 -0.3729499922
O  O59  1  0.00000000  0.32340000  0.96180000  1.0 -0.375241139
O  O60  1  0.32340000  0.00000000  0.96180000  1.0 -0.3729499922
O  O61  1  0.23150000  0.58490000  0.09060000  1.0 -0.1512878695
O  O62  1  0.41510000  0.64660000  0.09060000  1.0 -0.1512878695
O  O63  1  0.35340000  0.76850000  0.09060000  1.0 -0.1512878695
O  O64  1  0.76850000  0.41510000  0.59060000  1.0 -0.1512878695
O  O65  1  0.58490000  0.35340000  0.59060000  1.0 -0.1512878695
O  O66  1  0.64660000  0.23150000  0.59060000  1.0 -0.1512878695
O  O67  1  0.58490000  0.23150000  0.40940000  1.0 -0.1512878695
O  O68  1  0.64660000  0.41510000  0.40940000  1.0 -0.1512878695
O  O69  1  0.76850000  0.35340000  0.40940000  1.0 -0.1512878695
O  O70  1  0.41510000  0.76850000  0.90940000  1.0 -0.1512878695
O  O71  1  0.35340000  0.58490000  0.90940000  1.0 -0.1512878695
O  O72  1  0.23150000  0.64660000  0.90940000  1.0 -0.1512878695
O  O73  1  0.76850000  0.41510000  0.90940000  1.0 -0.1512878695
O  O74  1  0.58490000  0.35340000  0.90940000  1.0 -0.1512878695
O  O75  1  0.64660000  0.23150000  0.90940000  1.0 -0.1512878695
O  O76  1  0.23150000  0.58490000  0.40940000  1.0 -0.1512878695
O  O77  1  0.41510000  0.64660000  0.40940000  1.0 -0.1512878695
O  O78  1  0.35340000  0.76850000  0.40940000  1.0 -0.1512878695
O  O79  1  0.41510000  0.76850000  0.59060000  1.0 -0.1512878695
O  O80  1  0.35340000  0.58490000  0.59060000  1.0 -0.1512878695
O  O81  1  0.23150000  0.64660000  0.59060000  1.0 -0.1512878695
O  O82  1  0.58490000  0.23150000  0.09060000  1.0 -0.1512878695
O  O83  1  0.64660000  0.41510000  0.09060000  1.0 -0.1512878695
O  O84  1  0.76850000  0.35340000  0.09060000  1.0 -0.1512878695
O  O85  1  0.13930000  0.43100000  0.25000000  1.0 -0.117334574
O  O86  1  0.56900000  0.70830000  0.25000000  1.0 -0.117334574
O  O87  1  0.29170000  0.86070000  0.25000000  1.0 -0.117334574
O  O88  1  0.86070000  0.56900000  0.75000000  1.0 -0.117334574
O  O89  1  0.43100000  0.29170000  0.75000000  1.0 -0.117334574
O  O90  1  0.70830000  0.13930000  0.75000000  1.0 -0.117334574
O  O91  1  0.43100000  0.13930000  0.25000000  1.0 -0.117334574
O  O92  1  0.70830000  0.56900000  0.25000000  1.0 -0.117334574
O  O93  1  0.86070000  0.29170000  0.25000000  1.0 -0.117334574
O  O94  1  0.56900000  0.86070000  0.75000000  1.0 -0.117334574
O  O95  1  0.29170000  0.43100000  0.75000000  1.0 -0.117334574
O  O96  1  0.13930000  0.70830000  0.75000000  1.0 -0.117334574
O  O97  1  0.16870000  0.48920000  0.10409000  1.0 -0.3984446447
O  O98  1  0.51080000  0.67950000  0.10409000  1.0 -0.3984446447
O  O99  1  0.32050000  0.83130000  0.10409000  1.0 -0.3984446447
O  O100  1  0.83130000  0.51080000  0.60409000  1.0 -0.3984446447
O  O101  1  0.48920000  0.32050000  0.60409000  1.0 -0.3984446447
O  O102  1  0.67950000  0.16870000  0.60409000  1.0 -0.3984446447
O  O103  1  0.48920000  0.16870000  0.39591000  1.0 -0.3984446447
O  O104  1  0.67950000  0.51080000  0.39591000  1.0 -0.3984446447
O  O105  1  0.83130000  0.32050000  0.39591000  1.0 -0.3984446447
O  O106  1  0.51080000  0.83130000  0.89591000  1.0 -0.3984446447
O  O107  1  0.32050000  0.48920000  0.89591000  1.0 -0.3984446447
O  O108  1  0.16870000  0.67950000  0.89591000  1.0 -0.3984446447
O  O109  1  0.83130000  0.51080000  0.89591000  1.0 -0.3984446447
O  O110  1  0.48920000  0.32050000  0.89591000  1.0 -0.3984446447
O  O111  1  0.67950000  0.16870000  0.89591000  1.0 -0.3984446447
O  O112  1  0.16870000  0.48920000  0.39591000  1.0 -0.3984446447
O  O113  1  0.51080000  0.67950000  0.39591000  1.0 -0.3984446447
O  O114  1  0.32050000  0.83130000  0.39591000  1.0 -0.3984446447
O  O115  1  0.51080000  0.83130000  0.60409000  1.0 -0.3984446447
O  O116  1  0.32050000  0.48920000  0.60409000  1.0 -0.3984446447
O  O117  1  0.16870000  0.67950000  0.60409000  1.0 -0.3984446447
O  O118  1  0.48920000  0.16870000  0.10409000  1.0 -0.3984446447
O  O119  1  0.67950000  0.51080000  0.10409000  1.0 -0.3984446447
O  O120  1  0.83130000  0.32050000  0.10409000  1.0 -0.3984446447
O  O121  1  0.18386000  0.51582000  0.01968000  1.0 -0.5506903687
O  O122  1  0.48418000  0.66804000  0.01968000  1.0 -0.5506903687
O  O123  1  0.33196000  0.81614000  0.01968000  1.0 -0.5506903687
O  O124  1  0.81614000  0.48418000  0.51968000  1.0 -0.5506903687
O  O125  1  0.51582000  0.33196000  0.51968000  1.0 -0.5506903687
O  O126  1  0.66804000  0.18386000  0.51968000  1.0 -0.5506903687
O  O127  1  0.51582000  0.18386000  0.48032000  1.0 -0.5506903687
O  O128  1  0.66804000  0.48418000  0.48032000  1.0 -0.5506903687
O  O129  1  0.81614000  0.33196000  0.48032000  1.0 -0.5506903687
O  O130  1  0.48418000  0.81614000  0.98032000  1.0 -0.5506903687
O  O131  1  0.33196000  0.51582000  0.98032000  1.0 -0.5506903687
O  O132  1  0.18386000  0.66804000  0.98032000  1.0 -0.5506903687
O  O133  1  0.81614000  0.48418000  0.98032000  1.0 -0.5506903687
O  O134  1  0.51582000  0.33196000  0.98032000  1.0 -0.5506903687
O  O135  1  0.66804000  0.18386000  0.98032000  1.0 -0.5506903687
O  O136  1  0.18386000  0.51582000  0.48032000  1.0 -0.5506903687
O  O137  1  0.48418000  0.66804000  0.48032000  1.0 -0.5506903687
O  O138  1  0.33196000  0.81614000  0.48032000  1.0 -0.5506903687
O  O139  1  0.48418000  0.81614000  0.51968000  1.0 -0.5506903687
O  O140  1  0.33196000  0.51582000  0.51968000  1.0 -0.5506903687
O  O141  1  0.18386000  0.66804000  0.51968000  1.0 -0.5506903687
O  O142  1  0.51582000  0.18386000  0.01968000  1.0 -0.5506903687
O  O143  1  0.66804000  0.48418000  0.01968000  1.0 -0.5506903687
O  O144  1  0.81614000  0.33196000  0.01968000  1.0 -0.5506903687
O  O145  1  0.26127000  0.59490000  0.96888000  1.0 -0.5861947322
O  O146  1  0.40510000  0.66637000  0.96888000  1.0 -0.5861947322
O  O147  1  0.33363000  0.73873000  0.96888000  1.0 -0.5861947322
O  O148  1  0.73873000  0.40510000  0.46888000  1.0 -0.5861947322
O  O149  1  0.59490000  0.33363000  0.46888000  1.0 -0.5861947322
O  O150  1  0.66637000  0.26127000  0.46888000  1.0 -0.5861947322
O  O151  1  0.59490000  0.26127000  0.53112000  1.0 -0.5861947322
O  O152  1  0.66637000  0.40510000  0.53112000  1.0 -0.5861947322
O  O153  1  0.73873000  0.33363000  0.53112000  1.0 -0.5861947322
O  O154  1  0.40510000  0.73873000  0.03112000  1.0 -0.5861947322
O  O155  1  0.33363000  0.59490000  0.03112000  1.0 -0.5861947322
O  O156  1  0.26127000  0.66637000  0.03112000  1.0 -0.5861947322
O  O157  1  0.73873000  0.40510000  0.03112000  1.0 -0.5861947322
O  O158  1  0.59490000  0.33363000  0.03112000  1.0 -0.5861947322
O  O159  1  0.66637000  0.26127000  0.03112000  1.0 -0.5861947322
O  O160  1  0.26127000  0.59490000  0.53112000  1.0 -0.5861947322
O  O161  1  0.40510000  0.66637000  0.53112000  1.0 -0.5861947322
O  O162  1  0.33363000  0.73873000  0.53112000  1.0 -0.5861947322
O  O163  1  0.40510000  0.73873000  0.46888000  1.0 -0.5861947322
O  O164  1  0.33363000  0.59490000  0.46888000  1.0 -0.5861947322
O  O165  1  0.26127000  0.66637000  0.46888000  1.0 -0.5861947322
O  O166  1  0.59490000  0.26127000  0.96888000  1.0 -0.5861947322
O  O167  1  0.66637000  0.40510000  0.96888000  1.0 -0.5861947322
O  O168  1  0.73873000  0.33363000  0.96888000  1.0 -0.5861947322
O  O169  1  0.05678000  0.42424000  0.05048000  1.0 -0.5217407081
O  O170  1  0.57576000  0.63254000  0.05048000  1.0 -0.5217407081
O  O171  1  0.36746000  0.94322000  0.05048000  1.0 -0.5217407081
O  O172  1  0.94322000  0.57576000  0.55048000  1.0 -0.5217407081
O  O173  1  0.42424000  0.36746000  0.55048000  1.0 -0.5217407081
O  O174  1  0.63254000  0.05678000  0.55048000  1.0 -0.5217407081
O  O175  1  0.42424000  0.05678000  0.44952000  1.0 -0.5217407081
O  O176  1  0.63254000  0.57576000  0.44952000  1.0 -0.5217407081
O  O177  1  0.94322000  0.36746000  0.44952000  1.0 -0.5217407081
O  O178  1  0.57576000  0.94322000  0.94952000  1.0 -0.5217407081
O  O179  1  0.36746000  0.42424000  0.94952000  1.0 -0.5217407081
O  O180  1  0.05678000  0.63254000  0.94952000  1.0 -0.5217407081
O  O181  1  0.94322000  0.57576000  0.94952000  1.0 -0.5217407081
O  O182  1  0.42424000  0.36746000  0.94952000  1.0 -0.5217407081
O  O183  1  0.63254000  0.05678000  0.94952000  1.0 -0.5217407081
O  O184  1  0.05678000  0.42424000  0.44952000  1.0 -0.5217407081
O  O185  1  0.57576000  0.63254000  0.44952000  1.0 -0.5217407081
O  O186  1  0.36746000  0.94322000  0.44952000  1.0 -0.5217407081
O  O187  1  0.57576000  0.94322000  0.55048000  1.0 -0.5217407081
O  O188  1  0.36746000  0.42424000  0.55048000  1.0 -0.5217407081
O  O189  1  0.05678000  0.63254000  0.55048000  1.0 -0.5217407081
O  O190  1  0.42424000  0.05678000  0.05048000  1.0 -0.5217407081
O  O191  1  0.63254000  0.57576000  0.05048000  1.0 -0.5217407081
O  O192  1  0.94322000  0.36746000  0.05048000  1.0 -0.5217407081
O  O193  1  0.25600000  0.56560000  0.09120000  1.0 -0.1129345954
O  O194  1  0.43440000  0.69040000  0.09120000  1.0 -0.1129345954
O  O195  1  0.30960000  0.74400000  0.09120000  1.0 -0.1129345954
O  O196  1  0.74400000  0.43440000  0.59120000  1.0 -0.1129345954
O  O197  1  0.56560000  0.30960000  0.59120000  1.0 -0.1129345954
O  O198  1  0.69040000  0.25600000  0.59120000  1.0 -0.1129345954
O  O199  1  0.56560000  0.25600000  0.40880000  1.0 -0.1129345954
O  O200  1  0.69040000  0.43440000  0.40880000  1.0 -0.117334574
O  O201  1  0.74400000  0.30960000  0.40880000  1.0 -0.117334574
O  O202  1  0.43440000  0.74400000  0.90880000  1.0 -0.1129345954
O  O203  1  0.30960000  0.56560000  0.90880000  1.0 -0.1129345954
O  O204  1  0.25600000  0.69040000  0.90880000  1.0 -0.1129345954
O  O205  1  0.74400000  0.43440000  0.90880000  1.0 -0.1129345954
O  O206  1  0.56560000  0.30960000  0.90880000  1.0 -0.1129345954
O  O207  1  0.69040000  0.25600000  0.90880000  1.0 -0.1129345954
O  O208  1  0.25600000  0.56560000  0.40880000  1.0 -0.1129345954
O  O209  1  0.43440000  0.69040000  0.40880000  1.0 -0.1129345954
O  O210  1  0.30960000  0.74400000  0.40880000  1.0 -0.1129345954
O  O211  1  0.43440000  0.74400000  0.59120000  1.0 -0.1129345954
O  O212  1  0.30960000  0.56560000  0.59120000  1.0 -0.1129345954
O  O213  1  0.25600000  0.69040000  0.59120000  1.0 -0.1129345954
O  O214  1  0.56560000  0.25600000  0.09120000  1.0 -0.1129345954
O  O215  1  0.69040000  0.43440000  0.09120000  1.0 -0.1129345954
O  O216  1  0.74400000  0.30960000  0.09120000  1.0 -0.1129345954
O  O217  1  0.10890000  0.45150000  0.25000000  1.0 -0.1781303482
O  O218  1  0.54850000  0.65740000  0.25000000  1.0 -0.1781303482
O  O219  1  0.34260000  0.89110000  0.25000000  1.0 -0.1781303482
O  O220  1  0.89110000  0.54850000  0.75000000  1.0 -0.1781303482
O  O221  1  0.45150000  0.34260000  0.75000000  1.0 -0.1781303482
O  O222  1  0.65740000  0.10890000  0.75000000  1.0 -0.1781303482
O  O223  1  0.45150000  0.10890000  0.25000000  1.0 -0.1781303482
O  O224  1  0.65740000  0.54850000  0.25000000  1.0 -0.1781303482
O  O225  1  0.89110000  0.34260000  0.25000000  1.0 -0.1781303482
O  O226  1  0.54850000  0.89110000  0.75000000  1.0 -0.1781303482
O  O227  1  0.34260000  0.45150000  0.75000000  1.0 -0.1781303482
O  O228  1  0.10890000  0.65740000  0.75000000  1.0 -0.1781303482
