# DDEC6 charges by PACMAN v1.1 (https://github.com/mtap-research/PACMAN-charge/)
data_MAFFUW_ASR_pacman
_symmetry_space_group_name_H-M   'P 1'
_cell_length_a   18.68070000
_cell_length_b   25.87570000
_cell_length_c   34.36240000
_cell_angle_alpha   90.00000000
_cell_angle_beta   90.00000000
_cell_angle_gamma   90.00000000
_symmetry_Int_Tables_number   1
_chemical_formula_structural   Cu6H76C91(NO18)2
_chemical_formula_sum   'Cu24 H304 C364 N8 O144'
_cell_volume   16609.96595655
_cell_formula_units_Z   4
loop_
 _symmetry_equiv_pos_site_id
 _symmetry_equiv_pos_as_xyz
  1  'x, y, z'
loop_
 _atom_site_type_symbol
 _atom_site_label
 _atom_site_symmetry_multiplicity
 _atom_site_fract_x
 _atom_site_fract_y
 _atom_site_fract_z
 _atom_site_occupancy
 _atom_site_charge
Cu  Cu1  1  0.75000000  0.95891000  0.15003000  1.0 0.7994370467
Cu  Cu2  1  0.25000000  0.45891000  0.34997000  1.0 0.7994370467
Cu  Cu3  1  0.75000000  0.54109000  0.65003000  1.0 0.7994370467
Cu  Cu4  1  0.25000000  0.04109000  0.84997000  1.0 0.7994370467
Cu  Cu5  1  0.75000000  0.96060000  0.07238000  1.0 0.6509440846
Cu  Cu6  1  0.25000000  0.46060000  0.42762000  1.0 0.6509440846
Cu  Cu7  1  0.75000000  0.53940000  0.57238000  1.0 0.6509440846
Cu  Cu8  1  0.25000000  0.03940000  0.92762000  1.0 0.6509440846
Cu  Cu9  1  0.03468000  0.66759000  0.22642000  1.0 0.8354974992
Cu  Cu10  1  0.96532000  0.16759000  0.27358000  1.0 0.8354974992
Cu  Cu11  1  0.46532000  0.83241000  0.72642000  1.0 0.8354974992
Cu  Cu12  1  0.53468000  0.33241000  0.77358000  1.0 0.8354974992
Cu  Cu13  1  0.96532000  0.33241000  0.77358000  1.0 0.8354974992
Cu  Cu14  1  0.03468000  0.83241000  0.72642000  1.0 0.8354974992
Cu  Cu15  1  0.53468000  0.16759000  0.27358000  1.0 0.8354974992
Cu  Cu16  1  0.46532000  0.66759000  0.22642000  1.0 0.8354974992
Cu  Cu17  1  0.96321000  0.74258000  0.26451000  1.0 0.8580325849
Cu  Cu18  1  0.03679000  0.24258000  0.23549000  1.0 0.8580325849
Cu  Cu19  1  0.53679000  0.75742000  0.76451000  1.0 0.8580325849
Cu  Cu20  1  0.46321000  0.25742000  0.73549000  1.0 0.8580325849
Cu  Cu21  1  0.03679000  0.25742000  0.73549000  1.0 0.8580325849
Cu  Cu22  1  0.96321000  0.75742000  0.76451000  1.0 0.8580325849
Cu  Cu23  1  0.46321000  0.24258000  0.23549000  1.0 0.8580325849
Cu  Cu24  1  0.53679000  0.74258000  0.26451000  1.0 0.8580325849
H  H1  1  0.89410000  0.83520000  0.17090000  1.0 0.1216048238
H  H2  1  0.10590000  0.33520000  0.32910000  1.0 0.1216048238
H  H3  1  0.60590000  0.66480000  0.67090000  1.0 0.1216048238
H  H4  1  0.39410000  0.16480000  0.82910000  1.0 0.1216048238
H  H5  1  0.10590000  0.16480000  0.82910000  1.0 0.1216048238
H  H6  1  0.89410000  0.66480000  0.67090000  1.0 0.1216048238
H  H7  1  0.39410000  0.33520000  0.32910000  1.0 0.1216048238
H  H8  1  0.60590000  0.83520000  0.17090000  1.0 0.1216048238
H  H9  1  0.01850000  0.73240000  0.11080000  1.0 0.0926093466
H  H10  1  0.98150000  0.23240000  0.38920000  1.0 0.0926093466
H  H11  1  0.48150000  0.76760000  0.61080000  1.0 0.0926093466
H  H12  1  0.51850000  0.26760000  0.88920000  1.0 0.0926093466
H  H13  1  0.98150000  0.26760000  0.88920000  1.0 0.0926093466
H  H14  1  0.01850000  0.76760000  0.61080000  1.0 0.0926093466
H  H15  1  0.51850000  0.23240000  0.38920000  1.0 0.0926093466
H  H16  1  0.48150000  0.73240000  0.11080000  1.0 0.0926093466
H  H17  1  0.99470000  0.82420000  0.01680000  1.0 0.0926093466
H  H18  1  0.00530000  0.32420000  0.48320000  1.0 0.0926093466
H  H19  1  0.50530000  0.67580000  0.51680000  1.0 0.0926093466
H  H20  1  0.49470000  0.17580000  0.98320000  1.0 0.1015283457
H  H21  1  0.00530000  0.17580000  0.98320000  1.0 0.1015283457
H  H22  1  0.99470000  0.67580000  0.51680000  1.0 0.0926093466
H  H23  1  0.49470000  0.32420000  0.48320000  1.0 0.0926093466
H  H24  1  0.50530000  0.82420000  0.01680000  1.0 0.0926093466
H  H25  1  0.02970000  0.77590000  0.99460000  1.0 0.1086549346
H  H26  1  0.97030000  0.27590000  0.50540000  1.0 0.1086549346
H  H27  1  0.47030000  0.72410000  0.49460000  1.0 0.1086549346
H  H28  1  0.52970000  0.22410000  0.00540000  1.0 0.1086549346
H  H29  1  0.97030000  0.22410000  0.00540000  1.0 0.1086549346
H  H30  1  0.02970000  0.72410000  0.49460000  1.0 0.1086549346
H  H31  1  0.52970000  0.27590000  0.50540000  1.0 0.1086549346
H  H32  1  0.47030000  0.77590000  0.99460000  1.0 0.1086549346
H  H33  1  0.90790000  0.74730000  0.98270000  1.0 0.0811708258
H  H34  1  0.09210000  0.24730000  0.51730000  1.0 0.0701929914
H  H35  1  0.59210000  0.75270000  0.48270000  1.0 0.0701929914
H  H36  1  0.40790000  0.25270000  0.01730000  1.0 0.0701929914
H  H37  1  0.09210000  0.25270000  0.01730000  1.0 0.0701929914
H  H38  1  0.90790000  0.75270000  0.48270000  1.0 0.0701929914
H  H39  1  0.40790000  0.24730000  0.51730000  1.0 0.0701929914
H  H40  1  0.59210000  0.74730000  0.98270000  1.0 0.0701929914
H  H41  1  0.88380000  0.80430000  0.99580000  1.0 0.0597620222
H  H42  1  0.11620000  0.30430000  0.50420000  1.0 0.0597620222
H  H43  1  0.61620000  0.69570000  0.49580000  1.0 0.0597620222
H  H44  1  0.38380000  0.19570000  0.00420000  1.0 0.0597620222
H  H45  1  0.11620000  0.19570000  0.00420000  1.0 0.0597620222
H  H46  1  0.88380000  0.69570000  0.49580000  1.0 0.0597620222
H  H47  1  0.38380000  0.30430000  0.50420000  1.0 0.0597620222
H  H48  1  0.61620000  0.80430000  0.99580000  1.0 0.0597620222
H  H49  1  0.89610000  0.81080000  0.92960000  1.0 0.0597620222
H  H50  1  0.10390000  0.31080000  0.57040000  1.0 0.0597620222
H  H51  1  0.60390000  0.68920000  0.42960000  1.0 0.0597620222
H  H52  1  0.39610000  0.18920000  0.07040000  1.0 0.0597620222
H  H53  1  0.10390000  0.18920000  0.07040000  1.0 0.0597620222
H  H54  1  0.89610000  0.68920000  0.42960000  1.0 0.0597620222
H  H55  1  0.39610000  0.31080000  0.57040000  1.0 0.0597620222
H  H56  1  0.60390000  0.81080000  0.92960000  1.0 0.0597620222
H  H57  1  0.96940000  0.77830000  0.92970000  1.0 0.0701929914
H  H58  1  0.03060000  0.27830000  0.57030000  1.0 0.0701929914
H  H59  1  0.53060000  0.72170000  0.42970000  1.0 0.0701929914
H  H60  1  0.46940000  0.22170000  0.07030000  1.0 0.0701929914
H  H61  1  0.03060000  0.22170000  0.07030000  1.0 0.0701929914
H  H62  1  0.96940000  0.72170000  0.42970000  1.0 0.0701929914
H  H63  1  0.46940000  0.27830000  0.57030000  1.0 0.0701929914
H  H64  1  0.53060000  0.77830000  0.92970000  1.0 0.0701929914
H  H65  1  0.07410000  0.92590000  0.94120000  1.0 0.0811708258
H  H66  1  0.92590000  0.42590000  0.55880000  1.0 0.0811708258
H  H67  1  0.42590000  0.57410000  0.44120000  1.0 0.0811708258
H  H68  1  0.57410000  0.07410000  0.05880000  1.0 0.0811708258
H  H69  1  0.92590000  0.07410000  0.05880000  1.0 0.0811708258
H  H70  1  0.07410000  0.57410000  0.44120000  1.0 0.0811708258
H  H71  1  0.57410000  0.42590000  0.55880000  1.0 0.0811708258
H  H72  1  0.42590000  0.92590000  0.94120000  1.0 0.0811708258
H  H73  1  0.12030000  0.91340000  0.82790000  1.0 0.1086549346
H  H74  1  0.87970000  0.41340000  0.67210000  1.0 0.1086549346
H  H75  1  0.37970000  0.58660000  0.32790000  1.0 0.1086549346
H  H76  1  0.62030000  0.08660000  0.17210000  1.0 0.1086549346
H  H77  1  0.87970000  0.08660000  0.17210000  1.0 0.1086549346
H  H78  1  0.12030000  0.58660000  0.32790000  1.0 0.1086549346
H  H79  1  0.62030000  0.41340000  0.67210000  1.0 0.1086549346
H  H80  1  0.37970000  0.91340000  0.82790000  1.0 0.1086549346
H  H81  1  0.96210000  0.82630000  0.87460000  1.0 0.0926093466
H  H82  1  0.03790000  0.32630000  0.62540000  1.0 0.0926093466
H  H83  1  0.53790000  0.67370000  0.37460000  1.0 0.0926093466
H  H84  1  0.46210000  0.17370000  0.12540000  1.0 0.0926093466
H  H85  1  0.03790000  0.17370000  0.12540000  1.0 0.0926093466
H  H86  1  0.96210000  0.67370000  0.37460000  1.0 0.0926093466
H  H87  1  0.46210000  0.32630000  0.62540000  1.0 0.0926093466
H  H88  1  0.53790000  0.82630000  0.87460000  1.0 0.0926093466
H  H89  1  0.90050000  0.84260000  0.05190000  1.0 0.0701929914
H  H90  1  0.09950000  0.34260000  0.44810000  1.0 0.0701929914
H  H91  1  0.59950000  0.65740000  0.55190000  1.0 0.0701929914
H  H92  1  0.40050000  0.15740000  0.94810000  1.0 0.0701929914
H  H93  1  0.09950000  0.15740000  0.94810000  1.0 0.0701929914
H  H94  1  0.90050000  0.65740000  0.55190000  1.0 0.0701929914
H  H95  1  0.40050000  0.34260000  0.44810000  1.0 0.0701929914
H  H96  1  0.59950000  0.84260000  0.05190000  1.0 0.0701929914
H  H97  1  0.75000000  0.68060000  0.25180000  1.0 0.1347371049
H  H98  1  0.25000000  0.18060000  0.24820000  1.0 0.1347371049
H  H99  1  0.75000000  0.81940000  0.75180000  1.0 0.1347371049
H  H100  1  0.25000000  0.31940000  0.74820000  1.0 0.1347371049
H  H101  1  0.85910000  0.56990000  0.19590000  1.0 0.1492192473
H  H102  1  0.14090000  0.06990000  0.30410000  1.0 0.1492192473
H  H103  1  0.64090000  0.93010000  0.69590000  1.0 0.1492192473
H  H104  1  0.35910000  0.43010000  0.80410000  1.0 0.1492192473
H  H105  1  0.14090000  0.43010000  0.80410000  1.0 0.1492192473
H  H106  1  0.85910000  0.93010000  0.69590000  1.0 0.1492192473
H  H107  1  0.35910000  0.06990000  0.30410000  1.0 0.1492192473
H  H108  1  0.64090000  0.56990000  0.19590000  1.0 0.1492192473
H  H109  1  0.85620000  0.33380000  0.20690000  1.0 0.1492192473
H  H110  1  0.14380000  0.83380000  0.29310000  1.0 0.1492192473
H  H111  1  0.64380000  0.16620000  0.70690000  1.0 0.1492192473
H  H112  1  0.35620000  0.66620000  0.79310000  1.0 0.1492192473
H  H113  1  0.14380000  0.66620000  0.79310000  1.0 0.1492192473
H  H114  1  0.85620000  0.16620000  0.70690000  1.0 0.1492192473
H  H115  1  0.35620000  0.83380000  0.29310000  1.0 0.1492192473
H  H116  1  0.64380000  0.33380000  0.20690000  1.0 0.1492192473
H  H117  1  0.75000000  0.22300000  0.26420000  1.0 0.1383349717
H  H118  1  0.25000000  0.72300000  0.23580000  1.0 0.1383349717
H  H119  1  0.75000000  0.27700000  0.76420000  1.0 0.1383349717
H  H120  1  0.25000000  0.77700000  0.73580000  1.0 0.1383349717
H  H121  1  0.77040000  0.89140000  0.00510000  1.0 0.0512810617
H  H122  1  0.22960000  0.39140000  0.49490000  1.0 0.0512810617
H  H123  1  0.72960000  0.60860000  0.50510000  1.0 0.0512810617
H  H124  1  0.27040000  0.10860000  0.99490000  1.0 0.0512810617
H  H125  1  0.22960000  0.10860000  0.99490000  1.0 0.0512810617
H  H126  1  0.77040000  0.60860000  0.50510000  1.0 0.0512810617
H  H127  1  0.27040000  0.39140000  0.49490000  1.0 0.0512810617
H  H128  1  0.72960000  0.89140000  0.00510000  1.0 0.0512810617
H  H129  1  0.72960000  0.03930000  0.00200000  1.0 0.0512810617
H  H130  1  0.27040000  0.53930000  0.49800000  1.0 0.0597620222
H  H131  1  0.77040000  0.46070000  0.50200000  1.0 0.0597620222
H  H132  1  0.22960000  0.96070000  0.99800000  1.0 0.0597620222
H  H133  1  0.27040000  0.96070000  0.99800000  1.0 0.0597620222
H  H134  1  0.72960000  0.46070000  0.50200000  1.0 0.0597620222
H  H135  1  0.22960000  0.53930000  0.49800000  1.0 0.0597620222
H  H136  1  0.77040000  0.03930000  0.00200000  1.0 0.0512810617
H  H137  1  0.72960000  0.03400000  0.93540000  1.0 0.0597620222
H  H138  1  0.27040000  0.53400000  0.56460000  1.0 0.0597620222
H  H139  1  0.77040000  0.46600000  0.43540000  1.0 0.0597620222
H  H140  1  0.22960000  0.96600000  0.06460000  1.0 0.0597620222
H  H141  1  0.27040000  0.96600000  0.06460000  1.0 0.0597620222
H  H142  1  0.72960000  0.46600000  0.43540000  1.0 0.0597620222
H  H143  1  0.22960000  0.53400000  0.56460000  1.0 0.0597620222
H  H144  1  0.77040000  0.03400000  0.93540000  1.0 0.0597620222
H  H145  1  0.77040000  0.96440000  0.89990000  1.0 0.0597620222
H  H146  1  0.22960000  0.46440000  0.60010000  1.0 0.0597620222
H  H147  1  0.72960000  0.53560000  0.39990000  1.0 0.0597620222
H  H148  1  0.27040000  0.03560000  0.10010000  1.0 0.0597620222
H  H149  1  0.22960000  0.03560000  0.10010000  1.0 0.0597620222
H  H150  1  0.77040000  0.53560000  0.39990000  1.0 0.0597620222
H  H151  1  0.27040000  0.46440000  0.60010000  1.0 0.0597620222
H  H152  1  0.72960000  0.96440000  0.89990000  1.0 0.0597620222
H  H153  1  0.77040000  0.88200000  0.93950000  1.0 0.0512810617
H  H154  1  0.22960000  0.38200000  0.56050000  1.0 0.0512810617
H  H155  1  0.72960000  0.61800000  0.43950000  1.0 0.0512810617
H  H156  1  0.27040000  0.11800000  0.06050000  1.0 0.0512810617
H  H157  1  0.22960000  0.11800000  0.06050000  1.0 0.0512810617
H  H158  1  0.77040000  0.61800000  0.43950000  1.0 0.0512810617
H  H159  1  0.27040000  0.38200000  0.56050000  1.0 0.0512810617
H  H160  1  0.72960000  0.88200000  0.93950000  1.0 0.0512810617
H  H161  1  0.71220000  0.42800000  0.11620000  1.0 0.0512810617
H  H162  1  0.28780000  0.92800000  0.38380000  1.0 0.0512810617
H  H163  1  0.78780000  0.07200000  0.61620000  1.0 0.0512810617
H  H164  1  0.21220000  0.57200000  0.88380000  1.0 0.0512810617
H  H165  1  0.28780000  0.57200000  0.88380000  1.0 0.0512810617
H  H166  1  0.71220000  0.07200000  0.61620000  1.0 0.0512810617
H  H167  1  0.21220000  0.92800000  0.38380000  1.0 0.0512810617
H  H168  1  0.78780000  0.42800000  0.11620000  1.0 0.0512810617
H  H169  1  0.78670000  0.45760000  0.11310000  1.0 0.0512810617
H  H170  1  0.21330000  0.95760000  0.38690000  1.0 0.0512810617
H  H171  1  0.71330000  0.04240000  0.61310000  1.0 0.0512810617
H  H172  1  0.28670000  0.54240000  0.88690000  1.0 0.0512810617
H  H173  1  0.21330000  0.54240000  0.88690000  1.0 0.0512810617
H  H174  1  0.78670000  0.04240000  0.61310000  1.0 0.0512810617
H  H175  1  0.28670000  0.95760000  0.38690000  1.0 0.0512810617
H  H176  1  0.71330000  0.45760000  0.11310000  1.0 0.0512810617
H  H177  1  0.69880000  0.51460000  0.13010000  1.0 0.0113050125
H  H178  1  0.30120000  0.01460000  0.36990000  1.0 0.0113050125
H  H179  1  0.80120000  0.98540000  0.63010000  1.0 0.0211642377
H  H180  1  0.19880000  0.48540000  0.86990000  1.0 0.0113050125
H  H181  1  0.30120000  0.48540000  0.86990000  1.0 0.0113050125
H  H182  1  0.69880000  0.98540000  0.63010000  1.0 0.0211642377
H  H183  1  0.19880000  0.01460000  0.36990000  1.0 0.0113050125
H  H184  1  0.80120000  0.51460000  0.13010000  1.0 0.0113050125
H  H185  1  0.67770000  0.48020000  0.16720000  1.0 0.0701929914
H  H186  1  0.32230000  0.98020000  0.33280000  1.0 0.0701929914
H  H187  1  0.82230000  0.01980000  0.66720000  1.0 0.0701929914
H  H188  1  0.17770000  0.51980000  0.83280000  1.0 0.0701929914
H  H189  1  0.32230000  0.51980000  0.83280000  1.0 0.0701929914
H  H190  1  0.67770000  0.01980000  0.66720000  1.0 0.0701929914
H  H191  1  0.17770000  0.98020000  0.33280000  1.0 0.0701929914
H  H192  1  0.82230000  0.48020000  0.16720000  1.0 0.0701929914
H  H193  1  0.82160000  0.42050000  0.17370000  1.0 0.1086549346
H  H194  1  0.17840000  0.92050000  0.32630000  1.0 0.1086549346
H  H195  1  0.67840000  0.07950000  0.67370000  1.0 0.1086549346
H  H196  1  0.32160000  0.57950000  0.82630000  1.0 0.1216048238
H  H197  1  0.17840000  0.57950000  0.82630000  1.0 0.1216048238
H  H198  1  0.82160000  0.07950000  0.67370000  1.0 0.1086549346
H  H199  1  0.32160000  0.92050000  0.32630000  1.0 0.1086549346
H  H200  1  0.67840000  0.42050000  0.17370000  1.0 0.1086549346
H  H201  1  0.80510000  0.37700000  0.14120000  1.0 0.0404098892
H  H202  1  0.19490000  0.87700000  0.35880000  1.0 0.0404098892
H  H203  1  0.69490000  0.12300000  0.64120000  1.0 0.0404098892
H  H204  1  0.30510000  0.62300000  0.85880000  1.0 0.0404098892
H  H205  1  0.19490000  0.62300000  0.85880000  1.0 0.0404098892
H  H206  1  0.80510000  0.12300000  0.64120000  1.0 0.0404098892
H  H207  1  0.30510000  0.87700000  0.35880000  1.0 0.0404098892
H  H208  1  0.69490000  0.37700000  0.14120000  1.0 0.0404098892
H  H209  1  0.55050000  0.79440000  0.93300000  1.0 0.0926093466
H  H210  1  0.44950000  0.29440000  0.56700000  1.0 0.0926093466
H  H211  1  0.94950000  0.70560000  0.43300000  1.0 0.0926093466
H  H212  1  0.05050000  0.20560000  0.06700000  1.0 0.0926093466
H  H213  1  0.44950000  0.20560000  0.06700000  1.0 0.0926093466
H  H214  1  0.55050000  0.70560000  0.43300000  1.0 0.0926093466
H  H215  1  0.05050000  0.29440000  0.56700000  1.0 0.0926093466
H  H216  1  0.94950000  0.79440000  0.93300000  1.0 0.0926093466
H  H217  1  0.48710000  0.75260000  0.92940000  1.0 0.0701929914
H  H218  1  0.51290000  0.25260000  0.57060000  1.0 0.0701929914
H  H219  1  0.01290000  0.74740000  0.42940000  1.0 0.0701929914
H  H220  1  0.98710000  0.24740000  0.07060000  1.0 0.0701929914
H  H221  1  0.51290000  0.24740000  0.07060000  1.0 0.0701929914
H  H222  1  0.48710000  0.74740000  0.42940000  1.0 0.0701929914
H  H223  1  0.98710000  0.25260000  0.57060000  1.0 0.0701929914
H  H224  1  0.01290000  0.75260000  0.92940000  1.0 0.0701929914
H  H225  1  0.37540000  0.90000000  0.94290000  1.0 0.0811708258
H  H226  1  0.62460000  0.40000000  0.55710000  1.0 0.0811708258
H  H227  1  0.12460000  0.60000000  0.44290000  1.0 0.0811708258
H  H228  1  0.87540000  0.10000000  0.05710000  1.0 0.0811708258
H  H229  1  0.62460000  0.10000000  0.05710000  1.0 0.0811708258
H  H230  1  0.37540000  0.60000000  0.44290000  1.0 0.0811708258
H  H231  1  0.87540000  0.40000000  0.55710000  1.0 0.0811708258
H  H232  1  0.12460000  0.90000000  0.94290000  1.0 0.0811708258
H  H233  1  0.42200000  0.93540000  0.82900000  1.0 0.1015283457
H  H234  1  0.57800000  0.43540000  0.67100000  1.0 0.1015283457
H  H235  1  0.07800000  0.56460000  0.32900000  1.0 0.1015283457
H  H236  1  0.92200000  0.06460000  0.17100000  1.0 0.1015283457
H  H237  1  0.57800000  0.06460000  0.17100000  1.0 0.1015283457
H  H238  1  0.42200000  0.56460000  0.32900000  1.0 0.1015283457
H  H239  1  0.92200000  0.43540000  0.67100000  1.0 0.1015283457
H  H240  1  0.07800000  0.93540000  0.82900000  1.0 0.1015283457
H  H241  1  0.48780000  0.80150000  0.87490000  1.0 0.0811708258
H  H242  1  0.51220000  0.30150000  0.62510000  1.0 0.0811708258
H  H243  1  0.01220000  0.69850000  0.37490000  1.0 0.0811708258
H  H244  1  0.98780000  0.19850000  0.12510000  1.0 0.0811708258
H  H245  1  0.51220000  0.19850000  0.12510000  1.0 0.0811708258
H  H246  1  0.48780000  0.69850000  0.37490000  1.0 0.0811708258
H  H247  1  0.98780000  0.30150000  0.62510000  1.0 0.0811708258
H  H248  1  0.01220000  0.80150000  0.87490000  1.0 0.0811708258
H  H249  1  0.57090000  0.77030000  0.99380000  1.0 0.0701929914
H  H250  1  0.42910000  0.27030000  0.50620000  1.0 0.0701929914
H  H251  1  0.92910000  0.72970000  0.49380000  1.0 0.0701929914
H  H252  1  0.07090000  0.22970000  0.00620000  1.0 0.0701929914
H  H253  1  0.42910000  0.22970000  0.00620000  1.0 0.0701929914
H  H254  1  0.57090000  0.72970000  0.49380000  1.0 0.0701929914
H  H255  1  0.07090000  0.27030000  0.50620000  1.0 0.0701929914
H  H256  1  0.92910000  0.77030000  0.99380000  1.0 0.0701929914
H  H257  1  0.51010000  0.72660000  0.98950000  1.0 0.0811708258
H  H258  1  0.48990000  0.22660000  0.51050000  1.0 0.0811708258
H  H259  1  0.98990000  0.77340000  0.48950000  1.0 0.0811708258
H  H260  1  0.01010000  0.27340000  0.01050000  1.0 0.0811708258
H  H261  1  0.48990000  0.27340000  0.01050000  1.0 0.0811708258
H  H262  1  0.51010000  0.77340000  0.48950000  1.0 0.0811708258
H  H263  1  0.01010000  0.22660000  0.51050000  1.0 0.0811708258
H  H264  1  0.98990000  0.72660000  0.98950000  1.0 0.0811708258
H  H265  1  0.62040000  0.82240000  0.16580000  1.0 0.1216048238
H  H266  1  0.37960000  0.32240000  0.33420000  1.0 0.1216048238
H  H267  1  0.87960000  0.67760000  0.66580000  1.0 0.1216048238
H  H268  1  0.12040000  0.17760000  0.83420000  1.0 0.1216048238
H  H269  1  0.37960000  0.17760000  0.83420000  1.0 0.1216048238
H  H270  1  0.62040000  0.67760000  0.66580000  1.0 0.1216048238
H  H271  1  0.12040000  0.32240000  0.33420000  1.0 0.1216048238
H  H272  1  0.87960000  0.82240000  0.16580000  1.0 0.1216048238
H  H273  1  0.45570000  0.74440000  0.11710000  1.0 0.0811708258
H  H274  1  0.54430000  0.24440000  0.38290000  1.0 0.0811708258
H  H275  1  0.04430000  0.75560000  0.61710000  1.0 0.0811708258
H  H276  1  0.95570000  0.25560000  0.88290000  1.0 0.0811708258
H  H277  1  0.54430000  0.25560000  0.88290000  1.0 0.0811708258
H  H278  1  0.45570000  0.75560000  0.61710000  1.0 0.0811708258
H  H279  1  0.95570000  0.24440000  0.38290000  1.0 0.0811708258
H  H280  1  0.04430000  0.74440000  0.11710000  1.0 0.0811708258
H  H281  1  0.56720000  0.85250000  0.05780000  1.0 0.0811708258
H  H282  1  0.43280000  0.35250000  0.44220000  1.0 0.0811708258
H  H283  1  0.93280000  0.64750000  0.55780000  1.0 0.0811708258
H  H284  1  0.06720000  0.14750000  0.94220000  1.0 0.0811708258
H  H285  1  0.43280000  0.14750000  0.94220000  1.0 0.0811708258
H  H286  1  0.56720000  0.64750000  0.55780000  1.0 0.0811708258
H  H287  1  0.06720000  0.35250000  0.44220000  1.0 0.0811708258
H  H288  1  0.93280000  0.85250000  0.05780000  1.0 0.0811708258
H  H289  1  0.48570000  0.83270000  0.01430000  1.0 0.0597620222
H  H290  1  0.51430000  0.33270000  0.48570000  1.0 0.0597620222
H  H291  1  0.01430000  0.66730000  0.51430000  1.0 0.0597620222
H  H292  1  0.98570000  0.16730000  0.98570000  1.0 0.0597620222
H  H293  1  0.51430000  0.16730000  0.98570000  1.0 0.0597620222
H  H294  1  0.48570000  0.66730000  0.51430000  1.0 0.0597620222
H  H295  1  0.98570000  0.33270000  0.48570000  1.0 0.0597620222
H  H296  1  0.01430000  0.83270000  0.01430000  1.0 0.0597620222
H  H297  1  0.41990000  0.79540000  0.00270000  1.0 0.0512810617
H  H298  1  0.58010000  0.29540000  0.49730000  1.0 0.0512810617
H  H299  1  0.08010000  0.70460000  0.50270000  1.0 0.0512810617
H  H300  1  0.91990000  0.20460000  0.99730000  1.0 0.0512810617
H  H301  1  0.58010000  0.20460000  0.99730000  1.0 0.0512810617
H  H302  1  0.41990000  0.70460000  0.50270000  1.0 0.0512810617
H  H303  1  0.91990000  0.29540000  0.49730000  1.0 0.0512810617
H  H304  1  0.08010000  0.79540000  0.00270000  1.0 0.0512810617
C  C1  1  0.83870000  0.89160000  0.11070000  1.0 0.465655566
C  C2  1  0.16130000  0.39160000  0.38930000  1.0 0.465655566
C  C3  1  0.66130000  0.60840000  0.61070000  1.0 0.465655566
C  C4  1  0.33870000  0.10840000  0.88930000  1.0 0.465655566
C  C5  1  0.16130000  0.10840000  0.88930000  1.0 0.465655566
C  C6  1  0.83870000  0.60840000  0.61070000  1.0 0.465655566
C  C7  1  0.33870000  0.39160000  0.38930000  1.0 0.465655566
C  C8  1  0.66130000  0.89160000  0.11070000  1.0 0.465655566
C  C9  1  0.89050000  0.84550000  0.11140000  1.0 0.0701929914
C  C10  1  0.10950000  0.34550000  0.38860000  1.0 0.0701929914
C  C11  1  0.60950000  0.65450000  0.61140000  1.0 0.0701929914
C  C12  1  0.39050000  0.15450000  0.88860000  1.0 0.0701929914
C  C13  1  0.10950000  0.15450000  0.88860000  1.0 0.0701929914
C  C14  1  0.89050000  0.65450000  0.61140000  1.0 0.0701929914
C  C15  1  0.39050000  0.34550000  0.38860000  1.0 0.0701929914
C  C16  1  0.60950000  0.84550000  0.11140000  1.0 0.0701929914
C  C17  1  0.96070000  0.78000000  0.14640000  1.0 0.0404098892
C  C18  1  0.03930000  0.28000000  0.35360000  1.0 0.0404098892
C  C19  1  0.53930000  0.72000000  0.64640000  1.0 0.0404098892
C  C20  1  0.46070000  0.22000000  0.85360000  1.0 0.0404098892
C  C21  1  0.03930000  0.22000000  0.85360000  1.0 0.0404098892
C  C22  1  0.96070000  0.72000000  0.64640000  1.0 0.0404098892
C  C23  1  0.46070000  0.28000000  0.35360000  1.0 0.0404098892
C  C24  1  0.53930000  0.78000000  0.14640000  1.0 0.0404098892
C  C25  1  0.98050000  0.75580000  0.18490000  1.0 0.5099185414
C  C26  1  0.01950000  0.25580000  0.31510000  1.0 0.5099185414
C  C27  1  0.51950000  0.74420000  0.68490000  1.0 0.5099185414
C  C28  1  0.48050000  0.24420000  0.81510000  1.0 0.5099185414
C  C29  1  0.01950000  0.24420000  0.81510000  1.0 0.5099185414
C  C30  1  0.98050000  0.74420000  0.68490000  1.0 0.5099185414
C  C31  1  0.48050000  0.25580000  0.31510000  1.0 0.5099185414
C  C32  1  0.51950000  0.75580000  0.18490000  1.0 0.5099185414
C  C33  1  0.91200000  0.82240000  0.14690000  1.0 -0.2667955824
C  C34  1  0.08800000  0.32240000  0.35310000  1.0 -0.2667955824
C  C35  1  0.58800000  0.67760000  0.64690000  1.0 -0.2667955824
C  C36  1  0.41200000  0.17760000  0.85310000  1.0 -0.2667955824
C  C37  1  0.08800000  0.17760000  0.85310000  1.0 -0.2667955824
C  C38  1  0.91200000  0.67760000  0.64690000  1.0 -0.2667955824
C  C39  1  0.41200000  0.32240000  0.35310000  1.0 -0.2667955824
C  C40  1  0.58800000  0.82240000  0.14690000  1.0 -0.2667955824
C  C41  1  0.98600000  0.76060000  0.11100000  1.0 -0.1087340085
C  C42  1  0.01400000  0.26060000  0.38900000  1.0 -0.1087340085
C  C43  1  0.51400000  0.73940000  0.61100000  1.0 -0.1087340085
C  C44  1  0.48600000  0.23940000  0.88900000  1.0 -0.1087340085
C  C45  1  0.01400000  0.23940000  0.88900000  1.0 -0.1087340085
C  C46  1  0.98600000  0.73940000  0.61100000  1.0 -0.1087340085
C  C47  1  0.48600000  0.26060000  0.38900000  1.0 -0.1087340085
C  C48  1  0.51400000  0.76060000  0.11100000  1.0 -0.1087340085
C  C49  1  0.98710000  0.78770000  0.00930000  1.0 -0.0023950629
C  C50  1  0.01290000  0.28770000  0.49070000  1.0 -0.0023950629
C  C51  1  0.51290000  0.71230000  0.50930000  1.0 -0.0023950629
C  C52  1  0.48710000  0.21230000  0.99070000  1.0 -0.0023950629
C  C53  1  0.01290000  0.21230000  0.99070000  1.0 -0.0023950629
C  C54  1  0.98710000  0.71230000  0.50930000  1.0 -0.0023950629
C  C55  1  0.48710000  0.28770000  0.49070000  1.0 -0.0023950629
C  C56  1  0.51290000  0.78770000  0.00930000  1.0 -0.0023950629
C  C57  1  0.92340000  0.78380000  0.98440000  1.0 -0.1815030389
C  C58  1  0.07660000  0.28380000  0.51560000  1.0 -0.1815030389
C  C59  1  0.57660000  0.71620000  0.48440000  1.0 -0.1815030389
C  C60  1  0.42340000  0.21620000  0.01560000  1.0 -0.1815030389
C  C61  1  0.07660000  0.21620000  0.01560000  1.0 -0.1815030389
C  C62  1  0.92340000  0.71620000  0.48440000  1.0 -0.1815030389
C  C63  1  0.42340000  0.28380000  0.51560000  1.0 -0.1815030389
C  C64  1  0.57660000  0.78380000  0.98440000  1.0 -0.1815030389
C  C65  1  0.94070000  0.80400000  0.94420000  1.0 -0.0883394309
C  C66  1  0.05930000  0.30400000  0.55580000  1.0 -0.0883394309
C  C67  1  0.55930000  0.69600000  0.44420000  1.0 -0.0883394309
C  C68  1  0.44070000  0.19600000  0.05580000  1.0 -0.0883394309
C  C69  1  0.05930000  0.19600000  0.05580000  1.0 -0.0883394309
C  C70  1  0.94070000  0.69600000  0.44420000  1.0 -0.0883394309
C  C71  1  0.44070000  0.30400000  0.55580000  1.0 -0.0883394309
C  C72  1  0.55930000  0.80400000  0.94420000  1.0 -0.0883394309
C  C73  1  0.01310000  0.87440000  0.91320000  1.0 0.0811708258
C  C74  1  0.98690000  0.37440000  0.58680000  1.0 0.0811708258
C  C75  1  0.48690000  0.62560000  0.41320000  1.0 0.0811708258
C  C76  1  0.51310000  0.12560000  0.08680000  1.0 0.0811708258
C  C77  1  0.98690000  0.12560000  0.08680000  1.0 0.0811708258
C  C78  1  0.01310000  0.62560000  0.41320000  1.0 0.0811708258
C  C79  1  0.51310000  0.37440000  0.58680000  1.0 0.0811708258
C  C80  1  0.48690000  0.87440000  0.91320000  1.0 0.0811708258
C  C81  1  0.06570000  0.91090000  0.91640000  1.0 -0.08116906
C  C82  1  0.93430000  0.41090000  0.58360000  1.0 -0.08116906
C  C83  1  0.43430000  0.58910000  0.41640000  1.0 -0.08116906
C  C84  1  0.56570000  0.08910000  0.08360000  1.0 -0.08116906
C  C85  1  0.93430000  0.08910000  0.08360000  1.0 -0.08116906
C  C86  1  0.06570000  0.58910000  0.41640000  1.0 -0.08116906
C  C87  1  0.56570000  0.41090000  0.58360000  1.0 -0.08116906
C  C88  1  0.43430000  0.91090000  0.91640000  1.0 -0.08116906
C  C89  1  0.09280000  0.90370000  0.85000000  1.0 -0.1187015722
C  C90  1  0.90720000  0.40370000  0.65000000  1.0 -0.1187015722
C  C91  1  0.40720000  0.59630000  0.35000000  1.0 -0.1187015722
C  C92  1  0.59280000  0.09630000  0.15000000  1.0 -0.1187015722
C  C93  1  0.90720000  0.09630000  0.15000000  1.0 -0.1187015722
C  C94  1  0.09280000  0.59630000  0.35000000  1.0 -0.1187015722
C  C95  1  0.59280000  0.40370000  0.65000000  1.0 -0.1187015722
C  C96  1  0.40720000  0.90370000  0.85000000  1.0 -0.1187015722
C  C97  1  0.99880000  0.85150000  0.87730000  1.0 -0.1087340085
C  C98  1  0.00120000  0.35150000  0.62270000  1.0 -0.1087340085
C  C99  1  0.50120000  0.64850000  0.37730000  1.0 -0.1087340085
C  C100  1  0.49880000  0.14850000  0.12270000  1.0 -0.1087340085
C  C101  1  0.00120000  0.14850000  0.12270000  1.0 -0.1087340085
C  C102  1  0.99880000  0.64850000  0.37730000  1.0 -0.1087340085
C  C103  1  0.49880000  0.35150000  0.62270000  1.0 -0.1087340085
C  C104  1  0.50120000  0.85150000  0.87730000  1.0 -0.1087340085
C  C105  1  0.96240000  0.78470000  0.07630000  1.0 0.1216048238
C  C106  1  0.03760000  0.28470000  0.42370000  1.0 0.1216048238
C  C107  1  0.53760000  0.71530000  0.57630000  1.0 0.1216048238
C  C108  1  0.46240000  0.21530000  0.92370000  1.0 0.1216048238
C  C109  1  0.03760000  0.21530000  0.92370000  1.0 0.1216048238
C  C110  1  0.96240000  0.71530000  0.57630000  1.0 0.1216048238
C  C111  1  0.46240000  0.28470000  0.42370000  1.0 0.1216048238
C  C112  1  0.53760000  0.78470000  0.07630000  1.0 0.1216048238
C  C113  1  0.91500000  0.82720000  0.07570000  1.0 -0.100124937
C  C114  1  0.08500000  0.32720000  0.42430000  1.0 -0.100124937
C  C115  1  0.58500000  0.67280000  0.57570000  1.0 -0.100124937
C  C116  1  0.41500000  0.17280000  0.92430000  1.0 -0.100124937
C  C117  1  0.08500000  0.17280000  0.92430000  1.0 -0.100124937
C  C118  1  0.91500000  0.67280000  0.57570000  1.0 -0.100124937
C  C119  1  0.41500000  0.32720000  0.42430000  1.0 -0.100124937
C  C120  1  0.58500000  0.82720000  0.07570000  1.0 -0.100124937
C  C121  1  0.10780000  0.92740000  0.88520000  1.0 0.0211642377
C  C122  1  0.89220000  0.42740000  0.61480000  1.0 0.0211642377
C  C123  1  0.39220000  0.57260000  0.38520000  1.0 0.0211642377
C  C124  1  0.60780000  0.07260000  0.11480000  1.0 0.0211642377
C  C125  1  0.89220000  0.07260000  0.11480000  1.0 0.0211642377
C  C126  1  0.10780000  0.57260000  0.38520000  1.0 0.0211642377
C  C127  1  0.60780000  0.42740000  0.61480000  1.0 0.0211642377
C  C128  1  0.39220000  0.92740000  0.88520000  1.0 0.0211642377
C  C129  1  0.03970000  0.86660000  0.84540000  1.0 -0.008439536
C  C130  1  0.96030000  0.36660000  0.65460000  1.0 -0.008439536
C  C131  1  0.46030000  0.63340000  0.34540000  1.0 -0.008439536
C  C132  1  0.53970000  0.13340000  0.15460000  1.0 -0.008439536
C  C133  1  0.96030000  0.13340000  0.15460000  1.0 -0.008439536
C  C134  1  0.03970000  0.63340000  0.34540000  1.0 -0.008439536
C  C135  1  0.53970000  0.36660000  0.65460000  1.0 -0.008439536
C  C136  1  0.46030000  0.86660000  0.84540000  1.0 -0.008439536
C  C137  1  0.02440000  0.84160000  0.80590000  1.0 0.5099185414
C  C138  1  0.97560000  0.34160000  0.69410000  1.0 0.5099185414
C  C139  1  0.47560000  0.65840000  0.30590000  1.0 0.5099185414
C  C140  1  0.52440000  0.15840000  0.19410000  1.0 0.5099185414
C  C141  1  0.97560000  0.15840000  0.19410000  1.0 0.5099185414
C  C142  1  0.02440000  0.65840000  0.30590000  1.0 0.5099185414
C  C143  1  0.52440000  0.34160000  0.69410000  1.0 0.5099185414
C  C144  1  0.47560000  0.84160000  0.80590000  1.0 0.5099185414
C  C145  1  0.16490000  0.97000000  0.88620000  1.0 0.4763411737
C  C146  1  0.83510000  0.47000000  0.61380000  1.0 0.4763411737
C  C147  1  0.33510000  0.53000000  0.38620000  1.0 0.4763411737
C  C148  1  0.66490000  0.03000000  0.11380000  1.0 0.4763411737
C  C149  1  0.83510000  0.03000000  0.11380000  1.0 0.4763411737
C  C150  1  0.16490000  0.53000000  0.38620000  1.0 0.4763411737
C  C151  1  0.66490000  0.47000000  0.61380000  1.0 0.4763411737
C  C152  1  0.33510000  0.97000000  0.88620000  1.0 0.4763411737
C  C153  1  0.88640000  0.65740000  0.23140000  1.0 0.5523022271
C  C154  1  0.11360000  0.15740000  0.26860000  1.0 0.5523022271
C  C155  1  0.61360000  0.84260000  0.73140000  1.0 0.5523022271
C  C156  1  0.38640000  0.34260000  0.76860000  1.0 0.5523022271
C  C157  1  0.11360000  0.34260000  0.76860000  1.0 0.5523022271
C  C158  1  0.88640000  0.84260000  0.73140000  1.0 0.5523022271
C  C159  1  0.38640000  0.15740000  0.26860000  1.0 0.5523022271
C  C160  1  0.61360000  0.65740000  0.23140000  1.0 0.5523022271
C  C161  1  0.81680000  0.63220000  0.22370000  1.0 -0.008439536
C  C162  1  0.18320000  0.13220000  0.27630000  1.0 -0.008439536
C  C163  1  0.68320000  0.86780000  0.72370000  1.0 -0.008439536
C  C164  1  0.31680000  0.36780000  0.77630000  1.0 -0.008439536
C  C165  1  0.18320000  0.36780000  0.77630000  1.0 -0.008439536
C  C166  1  0.81680000  0.86780000  0.72370000  1.0 -0.008439536
C  C167  1  0.31680000  0.13220000  0.27630000  1.0 -0.008439536
C  C168  1  0.68320000  0.63220000  0.22370000  1.0 -0.008439536
C  C169  1  0.75000000  0.65150000  0.23490000  1.0 -0.1187015722
C  C170  1  0.25000000  0.15150000  0.26510000  1.0 -0.1187015722
C  C171  1  0.75000000  0.84850000  0.73490000  1.0 -0.1187015722
C  C172  1  0.25000000  0.34850000  0.76510000  1.0 -0.1187015722
C  C173  1  0.81580000  0.58570000  0.20410000  1.0 -0.287225961
C  C174  1  0.18420000  0.08570000  0.29590000  1.0 -0.287225961
C  C175  1  0.68420000  0.91430000  0.70410000  1.0 -0.287225961
C  C176  1  0.31580000  0.41430000  0.79590000  1.0 -0.287225961
C  C177  1  0.18420000  0.41430000  0.79590000  1.0 -0.287225961
C  C178  1  0.81580000  0.91430000  0.70410000  1.0 -0.287225961
C  C179  1  0.31580000  0.08570000  0.29590000  1.0 -0.287225961
C  C180  1  0.68420000  0.58570000  0.20410000  1.0 -0.287225961
C  C181  1  0.75000000  0.56220000  0.19660000  1.0 0.2536587499
C  C182  1  0.25000000  0.06220000  0.30340000  1.0 0.2536587499
C  C183  1  0.75000000  0.93780000  0.69660000  1.0 0.2536587499
C  C184  1  0.25000000  0.43780000  0.80340000  1.0 0.2536587499
C  C185  1  0.75000000  0.34320000  0.20110000  1.0 0.2243511982
C  C186  1  0.25000000  0.84320000  0.29890000  1.0 0.2243511982
C  C187  1  0.75000000  0.15680000  0.70110000  1.0 0.2243511982
C  C188  1  0.25000000  0.65680000  0.79890000  1.0 0.2243511982
C  C189  1  0.81180000  0.31820000  0.21340000  1.0 -0.3030401685
C  C190  1  0.18820000  0.81820000  0.28660000  1.0 -0.3030401685
C  C191  1  0.68820000  0.18180000  0.71340000  1.0 -0.3030401685
C  C192  1  0.31180000  0.68180000  0.78660000  1.0 -0.3030401685
C  C193  1  0.18820000  0.68180000  0.78660000  1.0 -0.3030401685
C  C194  1  0.81180000  0.18180000  0.71340000  1.0 -0.3030401685
C  C195  1  0.31180000  0.81820000  0.28660000  1.0 -0.3030401685
C  C196  1  0.68820000  0.31820000  0.21340000  1.0 -0.3030401685
C  C197  1  0.81453000  0.27280000  0.23430000  1.0 0.0211642377
C  C198  1  0.18547000  0.77280000  0.26570000  1.0 0.0211642377
C  C199  1  0.68547000  0.22720000  0.73430000  1.0 0.0211642377
C  C200  1  0.31453000  0.72720000  0.76570000  1.0 0.0211642377
C  C201  1  0.18547000  0.72720000  0.76570000  1.0 0.0211642377
C  C202  1  0.81453000  0.22720000  0.73430000  1.0 0.0211642377
C  C203  1  0.31453000  0.77280000  0.26570000  1.0 0.0211642377
C  C204  1  0.68547000  0.27280000  0.23430000  1.0 0.0211642377
C  C205  1  0.75000000  0.25170000  0.24700000  1.0 -0.1299376288
C  C206  1  0.25000000  0.75170000  0.25300000  1.0 -0.1299376288
C  C207  1  0.75000000  0.24830000  0.74700000  1.0 -0.1299376288
C  C208  1  0.25000000  0.74830000  0.75300000  1.0 -0.1299376288
C  C209  1  0.88520000  0.24760000  0.24403000  1.0 0.5523022271
C  C210  1  0.11480000  0.74760000  0.25597000  1.0 0.5523022271
C  C211  1  0.61480000  0.25240000  0.74403000  1.0 0.5523022271
C  C212  1  0.38520000  0.75240000  0.75597000  1.0 0.5523022271
C  C213  1  0.11480000  0.75240000  0.75597000  1.0 0.5523022271
C  C214  1  0.88520000  0.25240000  0.74403000  1.0 0.5523022271
C  C215  1  0.38520000  0.74760000  0.25597000  1.0 0.5523022271
C  C216  1  0.61480000  0.24760000  0.24403000  1.0 0.5523022271
C  C217  1  0.77040000  0.92250000  0.99039000  1.0 0.0307647904
C  C218  1  0.22960000  0.42250000  0.50961000  1.0 0.0307647904
C  C219  1  0.72960000  0.57750000  0.49039000  1.0 0.0307647904
C  C220  1  0.27040000  0.07750000  0.00961000  1.0 0.0307647904
C  C221  1  0.22960000  0.07750000  0.00961000  1.0 0.0307647904
C  C222  1  0.77040000  0.57750000  0.49039000  1.0 0.0307647904
C  C223  1  0.27040000  0.42250000  0.50961000  1.0 0.0307647904
C  C224  1  0.72960000  0.92250000  0.99039000  1.0 0.0307647904
C  C225  1  0.72960000  0.00670000  0.98931000  1.0 0.0307647904
C  C226  1  0.27040000  0.50670000  0.51069000  1.0 0.0307647904
C  C227  1  0.77040000  0.49330000  0.48931000  1.0 0.0307647904
C  C228  1  0.22960000  0.99330000  0.01069000  1.0 0.0307647904
C  C229  1  0.27040000  0.99330000  0.01069000  1.0 0.0307647904
C  C230  1  0.72960000  0.49330000  0.48931000  1.0 0.0307647904
C  C231  1  0.22960000  0.50670000  0.51069000  1.0 0.0307647904
C  C232  1  0.77040000  0.00670000  0.98931000  1.0 0.0307647904
C  C233  1  0.72960000  0.00190000  0.94896000  1.0 -0.0259691563
C  C234  1  0.27040000  0.50190000  0.55104000  1.0 -0.0259691563
C  C235  1  0.77040000  0.49810000  0.44896000  1.0 -0.0259691563
C  C236  1  0.22960000  0.99810000  0.05104000  1.0 -0.0259691563
C  C237  1  0.27040000  0.99810000  0.05104000  1.0 -0.0259691563
C  C238  1  0.72960000  0.49810000  0.44896000  1.0 -0.0259691563
C  C239  1  0.22960000  0.50190000  0.55104000  1.0 -0.0259691563
C  C240  1  0.77040000  0.00190000  0.94896000  1.0 -0.0259691563
C  C241  1  0.77040000  0.96330000  0.92751000  1.0 0.0036216423
C  C242  1  0.22960000  0.46330000  0.57249000  1.0 0.0036216423
C  C243  1  0.72960000  0.53670000  0.42751000  1.0 0.0036216423
C  C244  1  0.27040000  0.03670000  0.07249000  1.0 0.0036216423
C  C245  1  0.22960000  0.03670000  0.07249000  1.0 0.0036216423
C  C246  1  0.77040000  0.53670000  0.42751000  1.0 0.0036216423
C  C247  1  0.27040000  0.46330000  0.57249000  1.0 0.0036216423
C  C248  1  0.72960000  0.96330000  0.92751000  1.0 0.0036216423
C  C249  1  0.77040000  0.91540000  0.95103000  1.0 -0.08116906
C  C250  1  0.22960000  0.41540000  0.54897000  1.0 -0.08116906
C  C251  1  0.72960000  0.58460000  0.45103000  1.0 -0.08116906
C  C252  1  0.27040000  0.08460000  0.04897000  1.0 -0.08116906
C  C253  1  0.22960000  0.08460000  0.04897000  1.0 -0.08116906
C  C254  1  0.77040000  0.58460000  0.45103000  1.0 -0.08116906
C  C255  1  0.27040000  0.41540000  0.54897000  1.0 -0.08116906
C  C256  1  0.72960000  0.91540000  0.95103000  1.0 -0.08116906
C  C257  1  0.75000000  0.44520000  0.13170000  1.0 -0.1815030389
C  C258  1  0.25000000  0.94520000  0.36830000  1.0 -0.1815030389
C  C259  1  0.75000000  0.05480000  0.63170000  1.0 -0.1815030389
C  C260  1  0.25000000  0.55480000  0.86830000  1.0 -0.1815030389
C  C261  1  0.71780000  0.49090000  0.15020000  1.0 0.0211642377
C  C262  1  0.28220000  0.99090000  0.34980000  1.0 0.0211642377
C  C263  1  0.78220000  0.00910000  0.65020000  1.0 0.0211642377
C  C264  1  0.21780000  0.50910000  0.84980000  1.0 0.0211642377
C  C265  1  0.28220000  0.50910000  0.84980000  1.0 0.0211642377
C  C266  1  0.71780000  0.00910000  0.65020000  1.0 0.0211642377
C  C267  1  0.21780000  0.99090000  0.34980000  1.0 0.0211642377
C  C268  1  0.78220000  0.49090000  0.15020000  1.0 0.0211642377
C  C269  1  0.78410000  0.40530000  0.15690000  1.0 0.0113050125
C  C270  1  0.21590000  0.90530000  0.34310000  1.0 0.0113050125
C  C271  1  0.71590000  0.09470000  0.65690000  1.0 0.0113050125
C  C272  1  0.28410000  0.59470000  0.84310000  1.0 0.0113050125
C  C273  1  0.21590000  0.59470000  0.84310000  1.0 0.0113050125
C  C274  1  0.78410000  0.09470000  0.65690000  1.0 0.0113050125
C  C275  1  0.28410000  0.90530000  0.34310000  1.0 0.0113050125
C  C276  1  0.71590000  0.40530000  0.15690000  1.0 0.0113050125
C  C277  1  0.50600000  0.78150000  0.94520000  1.0 -0.0368124808
C  C278  1  0.49400000  0.28150000  0.55480000  1.0 -0.0368124808
C  C279  1  0.99400000  0.71850000  0.44520000  1.0 -0.0368124808
C  C280  1  0.00600000  0.21850000  0.05480000  1.0 -0.0368124808
C  C281  1  0.49400000  0.21850000  0.05480000  1.0 -0.0368124808
C  C282  1  0.50600000  0.71850000  0.44520000  1.0 -0.0368124808
C  C283  1  0.00600000  0.28150000  0.55480000  1.0 -0.0368124808
C  C284  1  0.99400000  0.78150000  0.94520000  1.0 -0.0368124808
C  C285  1  0.43260000  0.84560000  0.91310000  1.0 0.0701929914
C  C286  1  0.56740000  0.34560000  0.58690000  1.0 0.0701929914
C  C287  1  0.06740000  0.65440000  0.41310000  1.0 0.0701929914
C  C288  1  0.93260000  0.15440000  0.08690000  1.0 0.0701929914
C  C289  1  0.56740000  0.15440000  0.08690000  1.0 0.0701929914
C  C290  1  0.43260000  0.65440000  0.41310000  1.0 0.0701929914
C  C291  1  0.93260000  0.34560000  0.58690000  1.0 0.0701929914
C  C292  1  0.06740000  0.84560000  0.91310000  1.0 0.0701929914
C  C293  1  0.39660000  0.89170000  0.91850000  1.0 -0.100124937
C  C294  1  0.60340000  0.39170000  0.58150000  1.0 -0.0883394309
C  C295  1  0.10340000  0.60830000  0.41850000  1.0 -0.100124937
C  C296  1  0.89660000  0.10830000  0.08150000  1.0 -0.0883394309
C  C297  1  0.60340000  0.10830000  0.08150000  1.0 -0.0883394309
C  C298  1  0.39660000  0.60830000  0.41850000  1.0 -0.100124937
C  C299  1  0.89660000  0.39170000  0.58150000  1.0 -0.0883394309
C  C300  1  0.10340000  0.89170000  0.91850000  1.0 -0.100124937
C  C301  1  0.42470000  0.91240000  0.85050000  1.0 -0.1187015722
C  C302  1  0.57530000  0.41240000  0.64950000  1.0 -0.1187015722
C  C303  1  0.07530000  0.58760000  0.35050000  1.0 -0.1187015722
C  C304  1  0.92470000  0.08760000  0.14950000  1.0 -0.1187015722
C  C305  1  0.57530000  0.08760000  0.14950000  1.0 -0.1187015722
C  C306  1  0.42470000  0.58760000  0.35050000  1.0 -0.1187015722
C  C307  1  0.92470000  0.41240000  0.64950000  1.0 -0.1187015722
C  C308  1  0.07530000  0.91240000  0.85050000  1.0 -0.1187015722
C  C309  1  0.46350000  0.83350000  0.87750000  1.0 -0.0883394309
C  C310  1  0.53650000  0.33350000  0.62250000  1.0 -0.0883394309
C  C311  1  0.03650000  0.66650000  0.37750000  1.0 -0.0883394309
C  C312  1  0.96350000  0.16650000  0.12250000  1.0 -0.0883394309
C  C313  1  0.53650000  0.16650000  0.12250000  1.0 -0.0883394309
C  C314  1  0.46350000  0.66650000  0.37750000  1.0 -0.0883394309
C  C315  1  0.96350000  0.33350000  0.62250000  1.0 -0.0883394309
C  C316  1  0.03650000  0.83350000  0.87750000  1.0 -0.0883394309
C  C317  1  0.52000000  0.76390000  0.98670000  1.0 -0.100124937
C  C318  1  0.48000000  0.26390000  0.51330000  1.0 -0.1087340085
C  C319  1  0.98000000  0.73610000  0.48670000  1.0 -0.100124937
C  C320  1  0.02000000  0.23610000  0.01330000  1.0 -0.1087340085
C  C321  1  0.48000000  0.23610000  0.01330000  1.0 -0.1087340085
C  C322  1  0.52000000  0.73610000  0.48670000  1.0 -0.1087340085
C  C323  1  0.02000000  0.26390000  0.51330000  1.0 -0.1087340085
C  C324  1  0.98000000  0.76390000  0.98670000  1.0 -0.100124937
C  C325  1  0.59240000  0.81660000  0.14320000  1.0 -0.3030401685
C  C326  1  0.40760000  0.31660000  0.35680000  1.0 -0.3030401685
C  C327  1  0.90760000  0.68340000  0.64320000  1.0 -0.3030401685
C  C328  1  0.09240000  0.18340000  0.85680000  1.0 -0.3030401685
C  C329  1  0.40760000  0.18340000  0.85680000  1.0 -0.3030401685
C  C330  1  0.59240000  0.68340000  0.64320000  1.0 -0.3030401685
C  C331  1  0.09240000  0.31660000  0.35680000  1.0 -0.3030401685
C  C332  1  0.90760000  0.81660000  0.14320000  1.0 -0.3030401685
C  C333  1  0.49280000  0.76930000  0.11500000  1.0 -0.1087340085
C  C334  1  0.50720000  0.26930000  0.38500000  1.0 -0.1087340085
C  C335  1  0.00720000  0.73070000  0.61500000  1.0 -0.1087340085
C  C336  1  0.99280000  0.23070000  0.88500000  1.0 -0.1087340085
C  C337  1  0.50720000  0.23070000  0.88500000  1.0 -0.1087340085
C  C338  1  0.49280000  0.73070000  0.61500000  1.0 -0.1087340085
C  C339  1  0.99280000  0.26930000  0.38500000  1.0 -0.1087340085
C  C340  1  0.00720000  0.76930000  0.11500000  1.0 -0.1087340085
C  C341  1  0.50410000  0.79710000  0.08110000  1.0 0.0926093466
C  C342  1  0.49590000  0.29710000  0.41890000  1.0 0.0926093466
C  C343  1  0.99590000  0.70290000  0.58110000  1.0 0.0926093466
C  C344  1  0.00410000  0.20290000  0.91890000  1.0 0.0926093466
C  C345  1  0.49590000  0.20290000  0.91890000  1.0 0.0926093466
C  C346  1  0.50410000  0.70290000  0.58110000  1.0 0.0926093466
C  C347  1  0.00410000  0.29710000  0.41890000  1.0 0.0926093466
C  C348  1  0.99590000  0.79710000  0.08110000  1.0 0.0926093466
C  C349  1  0.56100000  0.83360000  0.08130000  1.0 -0.1187015722
C  C350  1  0.43900000  0.33360000  0.41870000  1.0 -0.1187015722
C  C351  1  0.93900000  0.66640000  0.58130000  1.0 -0.1187015722
C  C352  1  0.06100000  0.16640000  0.91870000  1.0 -0.1187015722
C  C353  1  0.43900000  0.16640000  0.91870000  1.0 -0.1187015722
C  C354  1  0.56100000  0.66640000  0.58130000  1.0 -0.1187015722
C  C355  1  0.06100000  0.33360000  0.41870000  1.0 -0.1187015722
C  C356  1  0.93900000  0.83360000  0.08130000  1.0 -0.1187015722
C  C357  1  0.46960000  0.79630000  0.01270000  1.0 -0.1087340085
C  C358  1  0.53040000  0.29630000  0.48730000  1.0 -0.1087340085
C  C359  1  0.03040000  0.70370000  0.51270000  1.0 -0.1087340085
C  C360  1  0.96960000  0.20370000  0.98730000  1.0 -0.1087340085
C  C361  1  0.53040000  0.20370000  0.98730000  1.0 -0.1087340085
C  C362  1  0.46960000  0.70370000  0.51270000  1.0 -0.1087340085
C  C363  1  0.96960000  0.29630000  0.48730000  1.0 -0.1087340085
C  C364  1  0.03040000  0.79630000  0.01270000  1.0 -0.1087340085
N  N1  1  0.72960000  0.96080000  0.00936000  1.0 -0.08116906
N  N2  1  0.27040000  0.46080000  0.49064000  1.0 -0.08116906
N  N3  1  0.77040000  0.53920000  0.50936000  1.0 -0.08116906
N  N4  1  0.22960000  0.03920000  0.99064000  1.0 -0.08116906
N  N5  1  0.27040000  0.03920000  0.99064000  1.0 -0.08116906
N  N6  1  0.72960000  0.53920000  0.50936000  1.0 -0.08116906
N  N7  1  0.22960000  0.46080000  0.49064000  1.0 -0.08116906
N  N8  1  0.77040000  0.96080000  0.00936000  1.0 -0.08116906
O  O1  1  0.01170000  0.71270000  0.18276000  1.0 -0.5076576861
O  O2  1  0.98830000  0.21270000  0.31724000  1.0 -0.504728704
O  O3  1  0.48830000  0.78730000  0.68276000  1.0 -0.5076576861
O  O4  1  0.51170000  0.28730000  0.81724000  1.0 -0.5076576861
O  O5  1  0.98830000  0.28730000  0.81724000  1.0 -0.5076576861
O  O6  1  0.01170000  0.78730000  0.68276000  1.0 -0.5076576861
O  O7  1  0.51170000  0.21270000  0.31724000  1.0 -0.5076576861
O  O8  1  0.48830000  0.71270000  0.18276000  1.0 -0.5076576861
O  O9  1  0.95460000  0.77580000  0.21390000  1.0 -0.4634411924
O  O10  1  0.04540000  0.27580000  0.28610000  1.0 -0.4634411924
O  O11  1  0.54540000  0.72420000  0.71390000  1.0 -0.4634411924
O  O12  1  0.45460000  0.22420000  0.78610000  1.0 -0.4634411924
O  O13  1  0.04540000  0.22420000  0.78610000  1.0 -0.4634411924
O  O14  1  0.95460000  0.72420000  0.71390000  1.0 -0.4634411924
O  O15  1  0.45460000  0.27580000  0.28610000  1.0 -0.4634411924
O  O16  1  0.54540000  0.77580000  0.21390000  1.0 -0.4634411924
O  O17  1  0.82500000  0.90640000  0.14405000  1.0 -0.4476991251
O  O18  1  0.17500000  0.40640000  0.35595000  1.0 -0.4476991251
O  O19  1  0.67500000  0.59360000  0.64405000  1.0 -0.4476991251
O  O20  1  0.32500000  0.09360000  0.85595000  1.0 -0.4476991251
O  O21  1  0.17500000  0.09360000  0.85595000  1.0 -0.4476991251
O  O22  1  0.82500000  0.59360000  0.64405000  1.0 -0.4476991251
O  O23  1  0.32500000  0.40640000  0.35595000  1.0 -0.4476991251
O  O24  1  0.67500000  0.90640000  0.14405000  1.0 -0.4476991251
O  O25  1  0.82260000  0.90700000  0.07866000  1.0 -0.4692348253
O  O26  1  0.17740000  0.40700000  0.42134000  1.0 -0.4692348253
O  O27  1  0.67740000  0.59300000  0.57866000  1.0 -0.4692348253
O  O28  1  0.32260000  0.09300000  0.92134000  1.0 -0.4692348253
O  O29  1  0.17740000  0.09300000  0.92134000  1.0 -0.4692348253
O  O30  1  0.82260000  0.59300000  0.57866000  1.0 -0.4692348253
O  O31  1  0.32260000  0.40700000  0.42134000  1.0 -0.4692348253
O  O32  1  0.67740000  0.90700000  0.07866000  1.0 -0.4692348253
O  O33  1  0.97870000  0.75720000  0.04300000  1.0 -0.100124937
O  O34  1  0.02130000  0.25720000  0.45700000  1.0 -0.100124937
O  O35  1  0.52130000  0.74280000  0.54300000  1.0 -0.100124937
O  O36  1  0.47870000  0.24280000  0.95700000  1.0 -0.100124937
O  O37  1  0.02130000  0.24280000  0.95700000  1.0 -0.100124937
O  O38  1  0.97870000  0.74280000  0.54300000  1.0 -0.100124937
O  O39  1  0.47870000  0.25720000  0.45700000  1.0 -0.100124937
O  O40  1  0.52130000  0.75720000  0.04300000  1.0 -0.100124937
O  O41  1  0.98180000  0.85230000  0.94910000  1.0 -0.1815030389
O  O42  1  0.01820000  0.35230000  0.55090000  1.0 -0.1815030389
O  O43  1  0.51820000  0.64770000  0.44910000  1.0 -0.1815030389
O  O44  1  0.48180000  0.14770000  0.05090000  1.0 -0.1815030389
O  O45  1  0.01820000  0.14770000  0.05090000  1.0 -0.1815030389
O  O46  1  0.98180000  0.64770000  0.44910000  1.0 -0.1815030389
O  O47  1  0.48180000  0.35230000  0.55090000  1.0 -0.1815030389
O  O48  1  0.51820000  0.85230000  0.94910000  1.0 -0.1815030389
O  O49  1  0.17750000  0.98630000  0.92058000  1.0 -0.5404485805
O  O50  1  0.82250000  0.48630000  0.57942000  1.0 -0.5404485805
O  O51  1  0.32250000  0.51370000  0.42058000  1.0 -0.5404485805
O  O52  1  0.67750000  0.01370000  0.07942000  1.0 -0.5404485805
O  O53  1  0.82250000  0.01370000  0.07942000  1.0 -0.5404485805
O  O54  1  0.17750000  0.51370000  0.42058000  1.0 -0.5404485805
O  O55  1  0.67750000  0.48630000  0.57942000  1.0 -0.5404485805
O  O56  1  0.32250000  0.98630000  0.92058000  1.0 -0.5404485805
O  O57  1  0.17770000  0.98800000  0.85515000  1.0 -0.4370626949
O  O58  1  0.82230000  0.48800000  0.64485000  1.0 -0.4370626949
O  O59  1  0.32230000  0.51200000  0.35515000  1.0 -0.4370626949
O  O60  1  0.67770000  0.01200000  0.14485000  1.0 -0.4370626949
O  O61  1  0.82230000  0.01200000  0.14485000  1.0 -0.4370626949
O  O62  1  0.17770000  0.51200000  0.35515000  1.0 -0.4370626949
O  O63  1  0.67770000  0.48800000  0.64485000  1.0 -0.4370626949
O  O64  1  0.32230000  0.98800000  0.85515000  1.0 -0.4370626949
O  O65  1  0.04330000  0.86440000  0.77720000  1.0 -0.4476991251
O  O66  1  0.95670000  0.36440000  0.72280000  1.0 -0.4476991251
O  O67  1  0.45670000  0.63560000  0.27720000  1.0 -0.4476991251
O  O68  1  0.54330000  0.13560000  0.22280000  1.0 -0.4476991251
O  O69  1  0.95670000  0.13560000  0.22280000  1.0 -0.4476991251
O  O70  1  0.04330000  0.63560000  0.27720000  1.0 -0.4476991251
O  O71  1  0.54330000  0.36440000  0.72280000  1.0 -0.4476991251
O  O72  1  0.45670000  0.86440000  0.77720000  1.0 -0.4476991251
O  O73  1  0.98270000  0.80310000  0.80848000  1.0 -0.5076576861
O  O74  1  0.01730000  0.30310000  0.69152000  1.0 -0.5076576861
O  O75  1  0.51730000  0.69690000  0.30848000  1.0 -0.5076576861
O  O76  1  0.48270000  0.19690000  0.19152000  1.0 -0.5076576861
O  O77  1  0.01730000  0.19690000  0.19152000  1.0 -0.5076576861
O  O78  1  0.98270000  0.69690000  0.30848000  1.0 -0.5076576861
O  O79  1  0.48270000  0.30310000  0.69152000  1.0 -0.5076576861
O  O80  1  0.51730000  0.80310000  0.80848000  1.0 -0.5076576861
O  O81  1  0.94150000  0.63550000  0.22090000  1.0 -0.482497453
O  O82  1  0.05850000  0.13550000  0.27910000  1.0 -0.482497453
O  O83  1  0.55850000  0.86450000  0.72090000  1.0 -0.482497453
O  O84  1  0.44150000  0.36450000  0.77910000  1.0 -0.482497453
O  O85  1  0.05850000  0.36450000  0.77910000  1.0 -0.482497453
O  O86  1  0.94150000  0.86450000  0.72090000  1.0 -0.482497453
O  O87  1  0.44150000  0.13550000  0.27910000  1.0 -0.482497453
O  O88  1  0.55850000  0.63550000  0.22090000  1.0 -0.482497453
O  O89  1  0.87790000  0.69940000  0.25250000  1.0 -0.5404485805
O  O90  1  0.12210000  0.19940000  0.24750000  1.0 -0.5404485805
O  O91  1  0.62210000  0.80060000  0.75250000  1.0 -0.5404485805
O  O92  1  0.37790000  0.30060000  0.74750000  1.0 -0.5404485805
O  O93  1  0.12210000  0.30060000  0.74750000  1.0 -0.5404485805
O  O94  1  0.87790000  0.80060000  0.75250000  1.0 -0.5404485805
O  O95  1  0.37790000  0.19940000  0.24750000  1.0 -0.5404485805
O  O96  1  0.62210000  0.69940000  0.25250000  1.0 -0.5404485805
O  O97  1  0.93950000  0.27200000  0.22970000  1.0 -0.5404485805
O  O98  1  0.06050000  0.77200000  0.27030000  1.0 -0.5404485805
O  O99  1  0.56050000  0.22800000  0.72970000  1.0 -0.5404485805
O  O100  1  0.43950000  0.72800000  0.77030000  1.0 -0.5404485805
O  O101  1  0.06050000  0.72800000  0.77030000  1.0 -0.5404485805
O  O102  1  0.93950000  0.22800000  0.72970000  1.0 -0.5404485805
O  O103  1  0.43950000  0.77200000  0.27030000  1.0 -0.5404485805
O  O104  1  0.56050000  0.27200000  0.22970000  1.0 -0.5404485805
O  O105  1  0.87860000  0.21000000  0.26360000  1.0 -0.4692348253
O  O106  1  0.12140000  0.71000000  0.23640000  1.0 -0.4692348253
O  O107  1  0.62140000  0.29000000  0.76360000  1.0 -0.4692348253
O  O108  1  0.37860000  0.79000000  0.73640000  1.0 -0.4692348253
O  O109  1  0.12140000  0.79000000  0.73640000  1.0 -0.4692348253
O  O110  1  0.87860000  0.29000000  0.76360000  1.0 -0.4692348253
O  O111  1  0.37860000  0.71000000  0.23640000  1.0 -0.4692348253
O  O112  1  0.62140000  0.21000000  0.26360000  1.0 -0.4692348253
O  O113  1  0.77370000  0.51740000  0.17360000  1.0 0.0307647904
O  O114  1  0.22630000  0.01740000  0.32640000  1.0 0.0307647904
O  O115  1  0.72630000  0.98260000  0.67360000  1.0 0.0307647904
O  O116  1  0.27370000  0.48260000  0.82640000  1.0 0.0307647904
O  O117  1  0.22630000  0.48260000  0.82640000  1.0 0.0307647904
O  O118  1  0.77370000  0.98260000  0.67360000  1.0 0.0307647904
O  O119  1  0.27370000  0.01740000  0.32640000  1.0 0.0307647904
O  O120  1  0.72630000  0.51740000  0.17360000  1.0 0.0307647904
O  O121  1  0.72360000  0.38710000  0.17980000  1.0 0.0404098892
O  O122  1  0.27640000  0.88710000  0.32020000  1.0 0.0404098892
O  O123  1  0.77640000  0.11290000  0.67980000  1.0 0.0404098892
O  O124  1  0.22360000  0.61290000  0.82020000  1.0 0.0404098892
O  O125  1  0.27640000  0.61290000  0.82020000  1.0 0.0404098892
O  O126  1  0.72360000  0.11290000  0.67980000  1.0 0.0404098892
O  O127  1  0.22360000  0.88710000  0.32020000  1.0 0.0404098892
O  O128  1  0.77640000  0.38710000  0.17980000  1.0 0.0404098892
O  O129  1  0.47430000  0.77140000  0.05020000  1.0 -0.0552109957
O  O130  1  0.52570000  0.27140000  0.44980000  1.0 -0.0552109957
O  O131  1  0.02570000  0.72860000  0.55020000  1.0 -0.0552109957
O  O132  1  0.97430000  0.22860000  0.94980000  1.0 -0.0547318526
O  O133  1  0.52570000  0.22860000  0.94980000  1.0 -0.0547318526
O  O134  1  0.47430000  0.72860000  0.55020000  1.0 -0.0552109957
O  O135  1  0.97430000  0.27140000  0.44980000  1.0 -0.0552109957
O  O136  1  0.02570000  0.77140000  0.05020000  1.0 -0.0552109957
O  O137  1  0.45330000  0.82270000  0.94820000  1.0 -0.1299376288
O  O138  1  0.54670000  0.32270000  0.55180000  1.0 -0.1299376288
O  O139  1  0.04670000  0.67730000  0.44820000  1.0 -0.1299376288
O  O140  1  0.95330000  0.17730000  0.05180000  1.0 -0.1299376288
O  O141  1  0.54670000  0.17730000  0.05180000  1.0 -0.1299376288
O  O142  1  0.45330000  0.67730000  0.44820000  1.0 -0.1299376288
O  O143  1  0.95330000  0.32270000  0.55180000  1.0 -0.1299376288
O  O144  1  0.04670000  0.82270000  0.94820000  1.0 -0.1299376288
