# DDEC6 charges by PACMAN v1.1 (https://github.com/mtap-research/PACMAN-charge/)
data_MAFMOY03_FSR_pacman
_symmetry_space_group_name_H-M   'P 1'
_cell_length_a   9.10200000
_cell_length_b   10.73900000
_cell_length_c   11.20900000
_cell_angle_alpha   115.32100000
_cell_angle_beta   97.68900000
_cell_angle_gamma   97.64100000
_symmetry_Int_Tables_number   1
_chemical_formula_structural   Zn3H16C24(N3O4)2
_chemical_formula_sum   'Zn3 H16 C24 N6 O8'
_cell_volume   959.09633367
_cell_formula_units_Z   1
loop_
 _symmetry_equiv_pos_site_id
 _symmetry_equiv_pos_as_xyz
  1  'x, y, z'
loop_
 _atom_site_type_symbol
 _atom_site_label
 _atom_site_symmetry_multiplicity
 _atom_site_fract_x
 _atom_site_fract_y
 _atom_site_fract_z
 _atom_site_occupancy
 _atom_site_charge
Zn  Zn1  1  0.82012000  0.88460000  0.88228000  1.0 0.6941841615
Zn  Zn2  1  0.17988000  0.11540000  0.11772000  1.0 0.6941841615
Zn  Zn3  1  0.50000000  0.00000000  0.00000000  1.0 0.79963807
H  H1  1  0.69136000  0.87740000  0.49743000  1.0 0.1198869383
H  H2  1  0.40947000  0.10225000  0.69114000  1.0 0.1198869383
H  H3  1  0.37402000  0.67266000  0.00822000  1.0 0.1198869383
H  H4  1  0.72938000  0.49500000  0.92464000  1.0 0.1198869383
H  H5  1  0.72353000  0.29185000  0.27904000  1.0 0.0797556786
H  H6  1  0.00145000  0.28638000  0.32574000  1.0 0.1000769751
H  H7  1  0.70665000  0.20844000  0.29506000  1.0 0.1000769751
H  H8  1  0.99962000  0.22276000  0.36152000  1.0 0.0797556786
H  H9  1  0.30864000  0.12260000  0.50257000  1.0 0.1198869383
H  H10  1  0.59053000  0.89775000  0.30886000  1.0 0.1198869383
H  H11  1  0.62598000  0.32734000  0.99178000  1.0 0.1198869383
H  H12  1  0.27062000  0.50500000  0.07536000  1.0 0.1198869383
H  H13  1  0.27647000  0.70815000  0.72096000  1.0 0.0797556786
H  H14  1  0.99855000  0.71362000  0.67426000  1.0 0.1000769751
H  H15  1  0.29335000  0.79156000  0.70494000  1.0 0.1000769751
H  H16  1  0.00038000  0.77724000  0.63848000  1.0 0.0797556786
C  C1  1  0.61410000  0.97080000  0.73770000  1.0 0.5596653147
C  C2  1  0.55800000  0.98460000  0.61430000  1.0 -0.0109359584
C  C3  1  0.61400000  0.92600000  0.49970000  1.0 -0.1202295201
C  C4  1  0.44600000  0.06000000  0.61300000  1.0 -0.1312219726
C  C5  1  0.62100000  0.71150000  0.92880000  1.0 0.5596653147
C  C6  1  0.56290000  0.60540000  0.96470000  1.0 -0.0568902569
C  C7  1  0.42700000  0.60300000  0.00600000  1.0 -0.1046131553
C  C8  1  0.63900000  0.50000000  0.95500000  1.0 -0.0913273023
C  C9  1  0.77500000  0.22500000  0.23000000  1.0 -0.0246228596
C  C10  1  0.93100000  0.22200000  0.24800000  1.0 0.0250611397
C  C11  1  0.76800000  0.16700000  0.23600000  1.0 0.0366272794
C  C12  1  0.93632000  0.18415000  0.27642000  1.0 -0.0030230088
C  C13  1  0.38590000  0.02920000  0.26230000  1.0 0.5596653147
C  C14  1  0.44200000  0.01540000  0.38570000  1.0 -0.0109359584
C  C15  1  0.38600000  0.07400000  0.50030000  1.0 -0.1202295201
C  C16  1  0.55400000  0.94000000  0.38700000  1.0 -0.1312219726
C  C17  1  0.37900000  0.28850000  0.07120000  1.0 0.5596653147
C  C18  1  0.43710000  0.39460000  0.03530000  1.0 -0.0568902569
C  C19  1  0.57300000  0.39700000  0.99400000  1.0 -0.1046131553
C  C20  1  0.36100000  0.50000000  0.04500000  1.0 -0.0913273023
C  C21  1  0.22500000  0.77500000  0.77000000  1.0 -0.0256349167
C  C22  1  0.06900000  0.77800000  0.75200000  1.0 0.0222142765
C  C23  1  0.23200000  0.83300000  0.76400000  1.0 0.0366272794
C  C24  1  0.06368000  0.81585000  0.72358000  1.0 -0.0030230088
N  N1  1  0.72180000  0.09060000  0.11270000  1.0 -0.1560311245
N  N2  1  0.84050000  0.05070000  0.05990000  1.0 -0.1701127032
N  N3  1  0.96880000  0.12520000  0.14920000  1.0 -0.1701127032
N  N4  1  0.27820000  0.90940000  0.88730000  1.0 -0.1560311245
N  N5  1  0.15950000  0.94930000  0.94010000  1.0 -0.1701127032
N  N6  1  0.03120000  0.87480000  0.85080000  1.0 -0.1701127032
O  O1  1  0.55760000  0.02160000  0.83420000  1.0 -0.5109895097
O  O2  1  0.72130000  0.90070000  0.72760000  1.0 -0.5287749397
O  O3  1  0.75180000  0.71430000  0.90180000  1.0 -0.4954569565
O  O4  1  0.54630000  0.79780000  0.92440000  1.0 -0.5383420812
O  O5  1  0.44240000  0.97840000  0.16580000  1.0 -0.5109895097
O  O6  1  0.27870000  0.09930000  0.27240000  1.0 -0.5287749397
O  O7  1  0.24820000  0.28570000  0.09820000  1.0 -0.4947005438
O  O8  1  0.45370000  0.20220000  0.07560000  1.0 -0.5383420812
