# DDEC6 charges by PACMAN v1.1 (https://github.com/mtap-research/PACMAN-charge/)
data_MAFZIE_ion_pacman
_symmetry_space_group_name_H-M   'P 1'
_cell_length_a   13.70700000
_cell_length_b   17.12100000
_cell_length_c   36.01800000
_cell_angle_alpha   90.00000000
_cell_angle_beta   90.00000000
_cell_angle_gamma   90.00000000
_symmetry_Int_Tables_number   1
_chemical_formula_structural   Zn3P2H21C22NO15
_chemical_formula_sum   'Zn24 P16 H168 C176 N8 O120'
_cell_volume   8452.61588785
_cell_formula_units_Z   8
loop_
 _symmetry_equiv_pos_site_id
 _symmetry_equiv_pos_as_xyz
  1  'x, y, z'
loop_
 _atom_site_type_symbol
 _atom_site_label
 _atom_site_symmetry_multiplicity
 _atom_site_fract_x
 _atom_site_fract_y
 _atom_site_fract_z
 _atom_site_occupancy
 _atom_site_charge
Zn  Zn1  1  0.86464000  0.63506000  0.84690000  1.0 1.0228360097
Zn  Zn2  1  0.63536000  0.36494000  0.34690000  1.0 1.0228360097
Zn  Zn3  1  0.36464000  0.86494000  0.15310000  1.0 1.0228360097
Zn  Zn4  1  0.13536000  0.13506000  0.65310000  1.0 1.0228360097
Zn  Zn5  1  0.13536000  0.36494000  0.15310000  1.0 1.0228360097
Zn  Zn6  1  0.36464000  0.63506000  0.65310000  1.0 1.0228360097
Zn  Zn7  1  0.63536000  0.13506000  0.84690000  1.0 1.0228360097
Zn  Zn8  1  0.86464000  0.86494000  0.34690000  1.0 1.0228360097
Zn  Zn9  1  0.01341000  0.64723000  0.92783000  1.0 1.0228360097
Zn  Zn10  1  0.48659000  0.35277000  0.42783000  1.0 1.0228360097
Zn  Zn11  1  0.51341000  0.85277000  0.07217000  1.0 1.0228360097
Zn  Zn12  1  0.98659000  0.14723000  0.57217000  1.0 1.0228360097
Zn  Zn13  1  0.98659000  0.35277000  0.07217000  1.0 1.0228360097
Zn  Zn14  1  0.51341000  0.64723000  0.57217000  1.0 1.0228360097
Zn  Zn15  1  0.48659000  0.14723000  0.92783000  1.0 1.0228360097
Zn  Zn16  1  0.01341000  0.85277000  0.42783000  1.0 1.0228360097
Zn  Zn17  1  0.07369000  0.84166000  0.87205000  1.0 1.0936164509
Zn  Zn18  1  0.42631000  0.15834000  0.37205000  1.0 1.0936164509
Zn  Zn19  1  0.57369000  0.65834000  0.12795000  1.0 1.0936164509
Zn  Zn20  1  0.92631000  0.34166000  0.62795000  1.0 1.0936164509
Zn  Zn21  1  0.92631000  0.15834000  0.12795000  1.0 1.0936164509
Zn  Zn22  1  0.57369000  0.84166000  0.62795000  1.0 1.0936164509
Zn  Zn23  1  0.42631000  0.34166000  0.87205000  1.0 1.0936164509
Zn  Zn24  1  0.07369000  0.65834000  0.37205000  1.0 1.0936164509
P  P1  1  0.09793000  0.66740000  0.85140000  1.0 1.2679193418
P  P2  1  0.40207000  0.33260000  0.35140000  1.0 1.2679193418
P  P3  1  0.59793000  0.83260000  0.14860000  1.0 1.2679193418
P  P4  1  0.90207000  0.16740000  0.64860000  1.0 1.2679193418
P  P5  1  0.90207000  0.33260000  0.14860000  1.0 1.2679193418
P  P6  1  0.59793000  0.66740000  0.64860000  1.0 1.2679193418
P  P7  1  0.40207000  0.16740000  0.85140000  1.0 1.2679193418
P  P8  1  0.09793000  0.83260000  0.35140000  1.0 1.2679193418
P  P9  1  0.87501000  0.78219000  0.89694000  1.0 1.276417325
P  P10  1  0.62499000  0.21781000  0.39694000  1.0 1.276417325
P  P11  1  0.37501000  0.71781000  0.10306000  1.0 1.276417325
P  P12  1  0.12499000  0.28219000  0.60306000  1.0 1.276417325
P  P13  1  0.12499000  0.21781000  0.10306000  1.0 1.276417325
P  P14  1  0.37501000  0.78219000  0.60306000  1.0 1.276417325
P  P15  1  0.62499000  0.28219000  0.89694000  1.0 1.276417325
P  P16  1  0.87501000  0.71781000  0.39694000  1.0 1.276417325
H  H1  1  0.15060000  0.68230000  0.77690000  1.0 0.1465905447
H  H2  1  0.34940000  0.31770000  0.27690000  1.0 0.1465905447
H  H3  1  0.65060000  0.81770000  0.22310000  1.0 0.1465905447
H  H4  1  0.84940000  0.18230000  0.72310000  1.0 0.1429914788
H  H5  1  0.84940000  0.31770000  0.22310000  1.0 0.1429914788
H  H6  1  0.65060000  0.68230000  0.72310000  1.0 0.1429914788
H  H7  1  0.34940000  0.18230000  0.77690000  1.0 0.1465905447
H  H8  1  0.15060000  0.81770000  0.27690000  1.0 0.1465905447
H  H9  1  0.35340000  0.52060000  0.75640000  1.0 0.1429914788
H  H10  1  0.14660000  0.47940000  0.25640000  1.0 0.1429914788
H  H11  1  0.85340000  0.97940000  0.24360000  1.0 0.1429914788
H  H12  1  0.64660000  0.02060000  0.74360000  1.0 0.1429914788
H  H13  1  0.64660000  0.47940000  0.24360000  1.0 0.1429914788
H  H14  1  0.85340000  0.52060000  0.74360000  1.0 0.1429914788
H  H15  1  0.14660000  0.02060000  0.75640000  1.0 0.1429914788
H  H16  1  0.35340000  0.97940000  0.25640000  1.0 0.1429914788
H  H17  1  0.23800000  0.54120000  0.85830000  1.0 0.1465905447
H  H18  1  0.26200000  0.45880000  0.35830000  1.0 0.1465905447
H  H19  1  0.73800000  0.95880000  0.14170000  1.0 0.1465905447
H  H20  1  0.76200000  0.04120000  0.64170000  1.0 0.1465905447
H  H21  1  0.76200000  0.45880000  0.14170000  1.0 0.1465905447
H  H22  1  0.73800000  0.54120000  0.64170000  1.0 0.1465905447
H  H23  1  0.26200000  0.04120000  0.85830000  1.0 0.1465905447
H  H24  1  0.23800000  0.95880000  0.35830000  1.0 0.1465905447
H  H25  1  0.76920000  0.76490000  0.96560000  1.0 0.1429914788
H  H26  1  0.73080000  0.23510000  0.46560000  1.0 0.1465905447
H  H27  1  0.26920000  0.73510000  0.03440000  1.0 0.1465905447
H  H28  1  0.23080000  0.26490000  0.53440000  1.0 0.1465905447
H  H29  1  0.23080000  0.23510000  0.03440000  1.0 0.1465905447
H  H30  1  0.26920000  0.76490000  0.53440000  1.0 0.1465905447
H  H31  1  0.73080000  0.26490000  0.96560000  1.0 0.1429914788
H  H32  1  0.76920000  0.73510000  0.46560000  1.0 0.1465905447
H  H33  1  0.58570000  0.94770000  0.96880000  1.0 0.1465905447
H  H34  1  0.91430000  0.05230000  0.46880000  1.0 0.1465905447
H  H35  1  0.08570000  0.55230000  0.03120000  1.0 0.1465905447
H  H36  1  0.41430000  0.44770000  0.53120000  1.0 0.1465905447
H  H37  1  0.41430000  0.05230000  0.03120000  1.0 0.1465905447
H  H38  1  0.08570000  0.94770000  0.53120000  1.0 0.1465905447
H  H39  1  0.91430000  0.44770000  0.96880000  1.0 0.1465905447
H  H40  1  0.58570000  0.55230000  0.46880000  1.0 0.1465905447
H  H41  1  0.76940000  0.92390000  0.88360000  1.0 0.1429914788
H  H42  1  0.73060000  0.07610000  0.38360000  1.0 0.1429914788
H  H43  1  0.26940000  0.57610000  0.11640000  1.0 0.1429914788
H  H44  1  0.23060000  0.42390000  0.61640000  1.0 0.1429914788
H  H45  1  0.23060000  0.07610000  0.11640000  1.0 0.1429914788
H  H46  1  0.26940000  0.92390000  0.61640000  1.0 0.1429914788
H  H47  1  0.73060000  0.42390000  0.88360000  1.0 0.1429914788
H  H48  1  0.76940000  0.57610000  0.38360000  1.0 0.1429914788
H  H49  1  0.46000000  0.09120000  0.19740000  1.0 0.1429914788
H  H50  1  0.53860000  0.03490000  0.18060000  1.0 0.1429914788
H  H51  1  0.48390000  0.01200000  0.21720000  1.0 0.1429914788
H  H52  1  0.62610000  0.13020000  0.20960000  1.0 0.0936319425
H  H53  1  0.63630000  0.05590000  0.23440000  1.0 0.0936319425
H  H54  1  0.68920000  0.19150000  0.26340000  1.0 0.0936319425
H  H55  1  0.61720000  0.20010000  0.29710000  1.0 0.1099631793
H  H56  1  0.57200000  0.24940000  0.20940000  1.0 0.1278602376
H  H57  1  0.48560000  0.30100000  0.22400000  1.0 0.1429914788
H  H58  1  0.58690000  0.30310000  0.24420000  1.0 0.1278602376
H  H59  1  0.50930000  0.23320000  0.27830000  1.0 0.1099631793
H  H60  1  0.44620000  0.19940000  0.24630000  1.0 0.119926593
H  H61  1  0.72370000  0.11490000  0.31750000  1.0 0.1465905447
H  H62  1  0.63740000  0.06160000  0.30430000  1.0 0.1465905447
H  H63  1  0.72980000  0.07210000  0.27910000  1.0 0.119926593
H  H64  1  0.04000000  0.90880000  0.69740000  1.0 0.1429914788
H  H65  1  0.96140000  0.96510000  0.68060000  1.0 0.1429914788
H  H66  1  0.01610000  0.98800000  0.71720000  1.0 0.1429914788
H  H67  1  0.87390000  0.86980000  0.70960000  1.0 0.0936319425
H  H68  1  0.86370000  0.94410000  0.73440000  1.0 0.0936319425
H  H69  1  0.81080000  0.80850000  0.76340000  1.0 0.0936319425
H  H70  1  0.88280000  0.79990000  0.79710000  1.0 0.1099631793
H  H71  1  0.92800000  0.75060000  0.70940000  1.0 0.1278602376
H  H72  1  0.01440000  0.69900000  0.72400000  1.0 0.1429914788
H  H73  1  0.91310000  0.69690000  0.74420000  1.0 0.1278602376
H  H74  1  0.99070000  0.76680000  0.77830000  1.0 0.1099631793
H  H75  1  0.05380000  0.80060000  0.74630000  1.0 0.119926593
H  H76  1  0.77630000  0.88510000  0.81750000  1.0 0.1465905447
H  H77  1  0.86260000  0.93840000  0.80430000  1.0 0.1465905447
H  H78  1  0.77020000  0.92790000  0.77910000  1.0 0.119926593
H  H79  1  0.96000000  0.40880000  0.80260000  1.0 0.1429914788
H  H80  1  0.03860000  0.46510000  0.81940000  1.0 0.1429914788
H  H81  1  0.98390000  0.48800000  0.78280000  1.0 0.1429914788
H  H82  1  0.12610000  0.36980000  0.79040000  1.0 0.0936319425
H  H83  1  0.13630000  0.44410000  0.76560000  1.0 0.0936319425
H  H84  1  0.18920000  0.30850000  0.73660000  1.0 0.0936319425
H  H85  1  0.11720000  0.29990000  0.70290000  1.0 0.1099631793
H  H86  1  0.07200000  0.25060000  0.79060000  1.0 0.1278602376
H  H87  1  0.98560000  0.19900000  0.77600000  1.0 0.1429914788
H  H88  1  0.08690000  0.19690000  0.75580000  1.0 0.1278602376
H  H89  1  0.00930000  0.26680000  0.72170000  1.0 0.1099631793
H  H90  1  0.94620000  0.30060000  0.75370000  1.0 0.119926593
H  H91  1  0.22370000  0.38510000  0.68250000  1.0 0.1465905447
H  H92  1  0.13740000  0.43840000  0.69570000  1.0 0.1465905447
H  H93  1  0.22980000  0.42790000  0.72090000  1.0 0.119926593
H  H94  1  0.54000000  0.59120000  0.30260000  1.0 0.1429914788
H  H95  1  0.46140000  0.53490000  0.31940000  1.0 0.1429914788
H  H96  1  0.51610000  0.51200000  0.28280000  1.0 0.1429914788
H  H97  1  0.37390000  0.63020000  0.29040000  1.0 0.0936319425
H  H98  1  0.36370000  0.55590000  0.26560000  1.0 0.0936319425
H  H99  1  0.31080000  0.69150000  0.23660000  1.0 0.0936319425
H  H100  1  0.38280000  0.70010000  0.20290000  1.0 0.1099631793
H  H101  1  0.42800000  0.74940000  0.29060000  1.0 0.1278602376
H  H102  1  0.51440000  0.80100000  0.27600000  1.0 0.1429914788
H  H103  1  0.41310000  0.80310000  0.25580000  1.0 0.1278602376
H  H104  1  0.49070000  0.73320000  0.22170000  1.0 0.1099631793
H  H105  1  0.55380000  0.69940000  0.25370000  1.0 0.119926593
H  H106  1  0.27630000  0.61490000  0.18250000  1.0 0.1465905447
H  H107  1  0.36260000  0.56160000  0.19570000  1.0 0.1465905447
H  H108  1  0.27020000  0.57210000  0.22090000  1.0 0.119926593
H  H109  1  0.54000000  0.90880000  0.80260000  1.0 0.1429914788
H  H110  1  0.46140000  0.96510000  0.81940000  1.0 0.1429914788
H  H111  1  0.51610000  0.98800000  0.78280000  1.0 0.1429914788
H  H112  1  0.37390000  0.86980000  0.79040000  1.0 0.0936319425
H  H113  1  0.36370000  0.94410000  0.76560000  1.0 0.0936319425
H  H114  1  0.31080000  0.80850000  0.73660000  1.0 0.0936319425
H  H115  1  0.38280000  0.79990000  0.70290000  1.0 0.1099631793
H  H116  1  0.42800000  0.75060000  0.79060000  1.0 0.1278602376
H  H117  1  0.51440000  0.69900000  0.77600000  1.0 0.1429914788
H  H118  1  0.41310000  0.69690000  0.75580000  1.0 0.1278602376
H  H119  1  0.49070000  0.76680000  0.72170000  1.0 0.1099631793
H  H120  1  0.55380000  0.80060000  0.75370000  1.0 0.119926593
H  H121  1  0.27630000  0.88510000  0.68250000  1.0 0.1465905447
H  H122  1  0.36260000  0.93840000  0.69570000  1.0 0.1465905447
H  H123  1  0.27020000  0.92790000  0.72090000  1.0 0.119926593
H  H124  1  0.96000000  0.09120000  0.30260000  1.0 0.1429914788
H  H125  1  0.03860000  0.03490000  0.31940000  1.0 0.1429914788
H  H126  1  0.98390000  0.01200000  0.28280000  1.0 0.1429914788
H  H127  1  0.12610000  0.13020000  0.29040000  1.0 0.0936319425
H  H128  1  0.13630000  0.05590000  0.26560000  1.0 0.0936319425
H  H129  1  0.18920000  0.19150000  0.23660000  1.0 0.0936319425
H  H130  1  0.11720000  0.20010000  0.20290000  1.0 0.1099631793
H  H131  1  0.07200000  0.24940000  0.29060000  1.0 0.1278602376
H  H132  1  0.98560000  0.30100000  0.27600000  1.0 0.1429914788
H  H133  1  0.08690000  0.30310000  0.25580000  1.0 0.1278602376
H  H134  1  0.00930000  0.23320000  0.22170000  1.0 0.1099631793
H  H135  1  0.94620000  0.19940000  0.25370000  1.0 0.119926593
H  H136  1  0.22370000  0.11490000  0.18250000  1.0 0.1465905447
H  H137  1  0.13740000  0.06160000  0.19570000  1.0 0.1465905447
H  H138  1  0.22980000  0.07210000  0.22090000  1.0 0.119926593
H  H139  1  0.04000000  0.59120000  0.19740000  1.0 0.1429914788
H  H140  1  0.96140000  0.53490000  0.18060000  1.0 0.1429914788
H  H141  1  0.01610000  0.51200000  0.21720000  1.0 0.1429914788
H  H142  1  0.87390000  0.63020000  0.20960000  1.0 0.0936319425
H  H143  1  0.86370000  0.55590000  0.23440000  1.0 0.0936319425
H  H144  1  0.81080000  0.69150000  0.26340000  1.0 0.0936319425
H  H145  1  0.88280000  0.70010000  0.29710000  1.0 0.1099631793
H  H146  1  0.92800000  0.74940000  0.20940000  1.0 0.1278602376
H  H147  1  0.01440000  0.80100000  0.22400000  1.0 0.1429914788
H  H148  1  0.91310000  0.80310000  0.24420000  1.0 0.1278602376
H  H149  1  0.99070000  0.73320000  0.27830000  1.0 0.1099631793
H  H150  1  0.05380000  0.69940000  0.24630000  1.0 0.119926593
H  H151  1  0.77630000  0.61490000  0.31750000  1.0 0.1465905447
H  H152  1  0.86260000  0.56160000  0.30430000  1.0 0.1465905447
H  H153  1  0.77020000  0.57210000  0.27910000  1.0 0.119926593
H  H154  1  0.46000000  0.40880000  0.69740000  1.0 0.1429914788
H  H155  1  0.53860000  0.46510000  0.68060000  1.0 0.1429914788
H  H156  1  0.48390000  0.48800000  0.71720000  1.0 0.1429914788
H  H157  1  0.62610000  0.36980000  0.70960000  1.0 0.0936319425
H  H158  1  0.63630000  0.44410000  0.73440000  1.0 0.0936319425
H  H159  1  0.68920000  0.30850000  0.76340000  1.0 0.0936319425
H  H160  1  0.61720000  0.29990000  0.79710000  1.0 0.1099631793
H  H161  1  0.57200000  0.25060000  0.70940000  1.0 0.1278602376
H  H162  1  0.48560000  0.19900000  0.72400000  1.0 0.1429914788
H  H163  1  0.58690000  0.19690000  0.74420000  1.0 0.1278602376
H  H164  1  0.50930000  0.26680000  0.77830000  1.0 0.1099631793
H  H165  1  0.44620000  0.30060000  0.74630000  1.0 0.119926593
H  H166  1  0.72370000  0.38510000  0.81750000  1.0 0.1465905447
H  H167  1  0.63740000  0.43840000  0.80430000  1.0 0.1465905447
H  H168  1  0.72980000  0.42790000  0.77910000  1.0 0.119926593
C  C1  1  0.18210000  0.61760000  0.82180000  1.0 -0.1564278838
C  C2  1  0.31790000  0.38240000  0.32180000  1.0 -0.1564278838
C  C3  1  0.68210000  0.88240000  0.17820000  1.0 -0.1564278838
C  C4  1  0.81790000  0.11760000  0.67820000  1.0 -0.1564278838
C  C5  1  0.81790000  0.38240000  0.17820000  1.0 -0.1564278838
C  C6  1  0.68210000  0.61760000  0.67820000  1.0 -0.1564278838
C  C7  1  0.31790000  0.11760000  0.82180000  1.0 -0.1564278838
C  C8  1  0.18210000  0.88240000  0.32180000  1.0 -0.1564278838
C  C9  1  0.18890000  0.64090000  0.78500000  1.0 -0.0788987878
C  C10  1  0.31110000  0.35910000  0.28500000  1.0 -0.069386953
C  C11  1  0.68890000  0.85910000  0.21500000  1.0 -0.069386953
C  C12  1  0.81110000  0.14090000  0.71500000  1.0 -0.0788987878
C  C13  1  0.81110000  0.35910000  0.21500000  1.0 -0.069386953
C  C14  1  0.68890000  0.64090000  0.71500000  1.0 -0.0788987878
C  C15  1  0.31110000  0.14090000  0.78500000  1.0 -0.0788987878
C  C16  1  0.18890000  0.85910000  0.28500000  1.0 -0.0788987878
C  C17  1  0.25060000  0.60470000  0.76020000  1.0 -0.0193531041
C  C18  1  0.24940000  0.39530000  0.26020000  1.0 -0.0193531041
C  C19  1  0.75060000  0.89530000  0.23980000  1.0 -0.0193531041
C  C20  1  0.74940000  0.10470000  0.73980000  1.0 -0.0193531041
C  C21  1  0.74940000  0.39530000  0.23980000  1.0 -0.0193531041
C  C22  1  0.75060000  0.60470000  0.73980000  1.0 -0.0193531041
C  C23  1  0.24940000  0.10470000  0.76020000  1.0 -0.0193531041
C  C24  1  0.25060000  0.89530000  0.26020000  1.0 -0.0193531041
C  C25  1  0.31050000  0.54490000  0.77280000  1.0 -0.0974512522
C  C26  1  0.18950000  0.45510000  0.27280000  1.0 -0.0974512522
C  C27  1  0.81050000  0.95510000  0.22720000  1.0 -0.0974512522
C  C28  1  0.68950000  0.04490000  0.72720000  1.0 -0.0974512522
C  C29  1  0.68950000  0.45510000  0.22720000  1.0 -0.0974512522
C  C30  1  0.81050000  0.54490000  0.72720000  1.0 -0.0974512522
C  C31  1  0.18950000  0.04490000  0.77280000  1.0 -0.0974512522
C  C32  1  0.31050000  0.95510000  0.27280000  1.0 -0.0974512522
C  C33  1  0.30680000  0.52110000  0.80940000  1.0 -0.0193531041
C  C34  1  0.19320000  0.47890000  0.30940000  1.0 -0.0193531041
C  C35  1  0.80680000  0.97890000  0.19060000  1.0 -0.0193531041
C  C36  1  0.69320000  0.02110000  0.69060000  1.0 -0.0193531041
C  C37  1  0.69320000  0.47890000  0.19060000  1.0 -0.0193531041
C  C38  1  0.80680000  0.52110000  0.69060000  1.0 -0.0193531041
C  C39  1  0.19320000  0.02110000  0.80940000  1.0 -0.0193531041
C  C40  1  0.30680000  0.97890000  0.30940000  1.0 -0.0193531041
C  C41  1  0.24150000  0.55760000  0.83370000  1.0 -0.069386953
C  C42  1  0.25850000  0.44240000  0.33370000  1.0 -0.069386953
C  C43  1  0.74150000  0.94240000  0.16630000  1.0 -0.069386953
C  C44  1  0.75850000  0.05760000  0.66630000  1.0 -0.069386953
C  C45  1  0.75850000  0.44240000  0.16630000  1.0 -0.069386953
C  C46  1  0.74150000  0.55760000  0.66630000  1.0 -0.069386953
C  C47  1  0.25850000  0.05760000  0.83370000  1.0 -0.069386953
C  C48  1  0.24150000  0.94240000  0.33370000  1.0 -0.069386953
C  C49  1  0.25480000  0.63180000  0.72030000  1.0 0.5377206306
C  C50  1  0.24520000  0.36820000  0.22030000  1.0 0.5377206306
C  C51  1  0.75480000  0.86820000  0.27970000  1.0 0.5377206306
C  C52  1  0.74520000  0.13180000  0.77970000  1.0 0.5377206306
C  C53  1  0.74520000  0.36820000  0.27970000  1.0 0.5377206306
C  C54  1  0.75480000  0.63180000  0.77970000  1.0 0.5377206306
C  C55  1  0.24520000  0.13180000  0.72030000  1.0 0.5377206306
C  C56  1  0.25480000  0.86820000  0.22030000  1.0 0.5377206306
C  C57  1  0.36900000  0.45440000  0.82220000  1.0 0.5484608512
C  C58  1  0.13100000  0.54560000  0.32220000  1.0 0.5484608512
C  C59  1  0.86900000  0.04560000  0.17780000  1.0 0.5484608512
C  C60  1  0.63100000  0.95440000  0.67780000  1.0 0.5484608512
C  C61  1  0.63100000  0.54560000  0.17780000  1.0 0.5484608512
C  C62  1  0.86900000  0.45440000  0.67780000  1.0 0.5484608512
C  C63  1  0.13100000  0.95440000  0.82220000  1.0 0.5484608512
C  C64  1  0.36900000  0.04560000  0.32220000  1.0 0.5484608512
C  C65  1  0.78190000  0.83690000  0.92080000  1.0 -0.1502791096
C  C66  1  0.71810000  0.16310000  0.42080000  1.0 -0.1502791096
C  C67  1  0.28190000  0.66310000  0.07920000  1.0 -0.1502791096
C  C68  1  0.21810000  0.33690000  0.57920000  1.0 -0.1502791096
C  C69  1  0.21810000  0.16310000  0.07920000  1.0 -0.1502791096
C  C70  1  0.28190000  0.83690000  0.57920000  1.0 -0.1502791096
C  C71  1  0.71810000  0.33690000  0.92080000  1.0 -0.1502791096
C  C72  1  0.78190000  0.66310000  0.42080000  1.0 -0.1502791096
C  C73  1  0.74460000  0.81030000  0.95500000  1.0 -0.0500968118
C  C74  1  0.75540000  0.18970000  0.45500000  1.0 -0.0500968118
C  C75  1  0.24460000  0.68970000  0.04500000  1.0 -0.0500968118
C  C76  1  0.25540000  0.31030000  0.54500000  1.0 -0.0500968118
C  C77  1  0.25540000  0.18970000  0.04500000  1.0 -0.0500968118
C  C78  1  0.24460000  0.81030000  0.54500000  1.0 -0.0500968118
C  C79  1  0.75540000  0.31030000  0.95500000  1.0 -0.0500968118
C  C80  1  0.74460000  0.68970000  0.45500000  1.0 -0.0500968118
C  C81  1  0.67050000  0.85220000  0.97290000  1.0 -0.0066926721
C  C82  1  0.82950000  0.14780000  0.47290000  1.0 -0.0066926721
C  C83  1  0.17050000  0.64780000  0.02710000  1.0 -0.0066926721
C  C84  1  0.32950000  0.35220000  0.52710000  1.0 -0.0066926721
C  C85  1  0.32950000  0.14780000  0.02710000  1.0 -0.0066926721
C  C86  1  0.17050000  0.85220000  0.52710000  1.0 -0.0066926721
C  C87  1  0.82950000  0.35220000  0.97290000  1.0 -0.0066926721
C  C88  1  0.67050000  0.64780000  0.47290000  1.0 -0.0066926721
C  C89  1  0.63500000  0.91990000  0.95700000  1.0 -0.0788987878
C  C90  1  0.86500000  0.08010000  0.45700000  1.0 -0.0788987878
C  C91  1  0.13500000  0.58010000  0.04300000  1.0 -0.0788987878
C  C92  1  0.36500000  0.41990000  0.54300000  1.0 -0.0788987878
C  C93  1  0.36500000  0.08010000  0.04300000  1.0 -0.0788987878
C  C94  1  0.13500000  0.91990000  0.54300000  1.0 -0.0788987878
C  C95  1  0.86500000  0.41990000  0.95700000  1.0 -0.0788987878
C  C96  1  0.63500000  0.58010000  0.45700000  1.0 -0.0788987878
C  C97  1  0.67190000  0.94710000  0.92350000  1.0 -0.0314314191
C  C98  1  0.82810000  0.05290000  0.42350000  1.0 -0.0314314191
C  C99  1  0.17190000  0.55290000  0.07650000  1.0 -0.0314314191
C  C100  1  0.32810000  0.44710000  0.57650000  1.0 -0.0314314191
C  C101  1  0.32810000  0.05290000  0.07650000  1.0 -0.0314314191
C  C102  1  0.17190000  0.94710000  0.57650000  1.0 -0.0314314191
C  C103  1  0.82810000  0.44710000  0.92350000  1.0 -0.0314314191
C  C104  1  0.67190000  0.55290000  0.42350000  1.0 -0.0314314191
C  C105  1  0.74460000  0.90550000  0.90600000  1.0 -0.069386953
C  C106  1  0.75540000  0.09450000  0.40600000  1.0 -0.069386953
C  C107  1  0.24460000  0.59450000  0.09400000  1.0 -0.069386953
C  C108  1  0.25540000  0.40550000  0.59400000  1.0 -0.069386953
C  C109  1  0.25540000  0.09450000  0.09400000  1.0 -0.069386953
C  C110  1  0.24460000  0.90550000  0.59400000  1.0 -0.069386953
C  C111  1  0.75540000  0.40550000  0.90600000  1.0 -0.069386953
C  C112  1  0.74460000  0.59450000  0.40600000  1.0 -0.069386953
C  C113  1  0.62990000  0.82500000  0.00960000  1.0 0.5574597816
C  C114  1  0.87010000  0.17500000  0.50960000  1.0 0.5574597816
C  C115  1  0.12990000  0.67500000  0.99040000  1.0 0.5574597816
C  C116  1  0.37010000  0.32500000  0.49040000  1.0 0.5574597816
C  C117  1  0.37010000  0.17500000  0.99040000  1.0 0.5574597816
C  C118  1  0.12990000  0.82500000  0.49040000  1.0 0.5574597816
C  C119  1  0.87010000  0.32500000  0.00960000  1.0 0.5574597816
C  C120  1  0.62990000  0.67500000  0.50960000  1.0 0.5574597816
C  C121  1  0.63430000  0.02130000  0.90780000  1.0 0.6175843577
C  C122  1  0.86570000  0.97870000  0.40780000  1.0 0.6175843577
C  C123  1  0.13430000  0.47870000  0.09220000  1.0 0.6175843577
C  C124  1  0.36570000  0.52130000  0.59220000  1.0 0.6175843577
C  C125  1  0.36570000  0.97870000  0.09220000  1.0 0.6175843577
C  C126  1  0.13430000  0.02130000  0.59220000  1.0 0.6175843577
C  C127  1  0.86570000  0.52130000  0.90780000  1.0 0.6175843577
C  C128  1  0.63430000  0.47870000  0.40780000  1.0 0.6175843577
C  C129  1  0.51070000  0.05460000  0.20320000  1.0 -0.3920466465
C  C130  1  0.59070000  0.09570000  0.22620000  1.0 0.0017356664
C  C131  1  0.64160000  0.16420000  0.27850000  1.0 -0.0351808418
C  C132  1  0.54130000  0.27050000  0.23120000  1.0 -0.3672986229
C  C133  1  0.51260000  0.21190000  0.25340000  1.0 -0.0500968118
C  C134  1  0.68690000  0.09760000  0.29630000  1.0 -0.3920466465
C  C135  1  0.98930000  0.94540000  0.70320000  1.0 -0.3920466465
C  C136  1  0.90930000  0.90430000  0.72620000  1.0 0.0017356664
C  C137  1  0.85840000  0.83580000  0.77850000  1.0 -0.0351808418
C  C138  1  0.95870000  0.72950000  0.73120000  1.0 -0.3672986229
C  C139  1  0.98740000  0.78810000  0.75340000  1.0 -0.0500968118
C  C140  1  0.81310000  0.90240000  0.79630000  1.0 -0.3920466465
C  C141  1  0.01070000  0.44540000  0.79680000  1.0 -0.3920466465
C  C142  1  0.09070000  0.40430000  0.77380000  1.0 0.0017356664
C  C143  1  0.14160000  0.33580000  0.72150000  1.0 -0.0351808418
C  C144  1  0.04130000  0.22950000  0.76880000  1.0 -0.3672986229
C  C145  1  0.01260000  0.28810000  0.74660000  1.0 -0.0500968118
C  C146  1  0.18690000  0.40240000  0.70370000  1.0 -0.3920466465
C  C147  1  0.48930000  0.55460000  0.29680000  1.0 -0.3920466465
C  C148  1  0.40930000  0.59570000  0.27380000  1.0 0.0017356664
C  C149  1  0.35840000  0.66420000  0.22150000  1.0 -0.0351808418
C  C150  1  0.45870000  0.77050000  0.26880000  1.0 -0.3672986229
C  C151  1  0.48740000  0.71190000  0.24660000  1.0 -0.0500968118
C  C152  1  0.31310000  0.59760000  0.20370000  1.0 -0.3920466465
C  C153  1  0.48930000  0.94540000  0.79680000  1.0 -0.3920466465
C  C154  1  0.40930000  0.90430000  0.77380000  1.0 0.0017356664
C  C155  1  0.35840000  0.83580000  0.72150000  1.0 -0.0351808418
C  C156  1  0.45870000  0.72950000  0.76880000  1.0 -0.3672986229
C  C157  1  0.48740000  0.78810000  0.74660000  1.0 -0.0500968118
C  C158  1  0.31310000  0.90240000  0.70370000  1.0 -0.3920466465
C  C159  1  0.01070000  0.05460000  0.29680000  1.0 -0.3920466465
C  C160  1  0.09070000  0.09570000  0.27380000  1.0 0.0017356664
C  C161  1  0.14160000  0.16420000  0.22150000  1.0 -0.0351808418
C  C162  1  0.04130000  0.27050000  0.26880000  1.0 -0.3672986229
C  C163  1  0.01260000  0.21190000  0.24660000  1.0 -0.0500968118
C  C164  1  0.18690000  0.09760000  0.20370000  1.0 -0.3920466465
C  C165  1  0.98930000  0.55460000  0.20320000  1.0 -0.3920466465
C  C166  1  0.90930000  0.59570000  0.22620000  1.0 0.0017356664
C  C167  1  0.85840000  0.66420000  0.27850000  1.0 -0.0351808418
C  C168  1  0.95870000  0.77050000  0.23120000  1.0 -0.3672986229
C  C169  1  0.98740000  0.71190000  0.25340000  1.0 -0.0500968118
C  C170  1  0.81310000  0.59760000  0.29630000  1.0 -0.3920466465
C  C171  1  0.51070000  0.44540000  0.70320000  1.0 -0.3920466465
C  C172  1  0.59070000  0.40430000  0.72620000  1.0 0.0017356664
C  C173  1  0.64160000  0.33580000  0.77850000  1.0 -0.0351808418
C  C174  1  0.54130000  0.22950000  0.73120000  1.0 -0.3672986229
C  C175  1  0.51260000  0.28810000  0.75340000  1.0 -0.0500968118
C  C176  1  0.68690000  0.40240000  0.79630000  1.0 -0.3920466465
N  N1  1  0.56470000  0.13780000  0.25620000  1.0 -0.0500968118
N  N2  1  0.93530000  0.86220000  0.75620000  1.0 -0.0500968118
N  N3  1  0.06470000  0.36220000  0.74380000  1.0 -0.0500968118
N  N4  1  0.43530000  0.63780000  0.24380000  1.0 -0.0500968118
N  N5  1  0.43530000  0.86220000  0.74380000  1.0 -0.0500968118
N  N6  1  0.06470000  0.13780000  0.24380000  1.0 -0.0500968118
N  N7  1  0.93530000  0.63780000  0.25620000  1.0 -0.0500968118
N  N8  1  0.56470000  0.36220000  0.75620000  1.0 -0.0500968118
O  O1  1  0.99920000  0.65270000  0.83596000  1.0 -0.7551962633
O  O2  1  0.50080000  0.34730000  0.33596000  1.0 -0.7551962633
O  O3  1  0.49920000  0.84730000  0.16404000  1.0 -0.7551962633
O  O4  1  0.00080000  0.15270000  0.66404000  1.0 -0.7551962633
O  O5  1  0.00080000  0.34730000  0.16404000  1.0 -0.7551962633
O  O6  1  0.49920000  0.65270000  0.66404000  1.0 -0.7551962633
O  O7  1  0.50080000  0.15270000  0.83596000  1.0 -0.7551962633
O  O8  1  0.99920000  0.84730000  0.33596000  1.0 -0.7551962633
O  O9  1  0.12640000  0.75210000  0.84850000  1.0 -0.7323257898
O  O10  1  0.37360000  0.24790000  0.34850000  1.0 -0.7323257898
O  O11  1  0.62640000  0.74790000  0.15150000  1.0 -0.7323257898
O  O12  1  0.87360000  0.25210000  0.65150000  1.0 -0.7323257898
O  O13  1  0.87360000  0.24790000  0.15150000  1.0 -0.7323257898
O  O14  1  0.62640000  0.75210000  0.65150000  1.0 -0.7323257898
O  O15  1  0.37360000  0.25210000  0.84850000  1.0 -0.7323257898
O  O16  1  0.12640000  0.74790000  0.34850000  1.0 -0.7323257898
O  O17  1  0.11170000  0.63620000  0.89004000  1.0 -0.7323257898
O  O18  1  0.38830000  0.36380000  0.39004000  1.0 -0.7323257898
O  O19  1  0.61170000  0.86380000  0.10996000  1.0 -0.7323257898
O  O20  1  0.88830000  0.13620000  0.60996000  1.0 -0.7323257898
O  O21  1  0.88830000  0.36380000  0.10996000  1.0 -0.7323257898
O  O22  1  0.61170000  0.63620000  0.60996000  1.0 -0.7323257898
O  O23  1  0.38830000  0.13620000  0.89004000  1.0 -0.7323257898
O  O24  1  0.11170000  0.86380000  0.39004000  1.0 -0.7323257898
O  O25  1  0.19760000  0.68080000  0.71040000  1.0 -0.4803384871
O  O26  1  0.30240000  0.31920000  0.21040000  1.0 -0.4803384871
O  O27  1  0.69760000  0.81920000  0.28960000  1.0 -0.4803384871
O  O28  1  0.80240000  0.18080000  0.78960000  1.0 -0.4803384871
O  O29  1  0.80240000  0.31920000  0.28960000  1.0 -0.4803384871
O  O30  1  0.69760000  0.68080000  0.78960000  1.0 -0.4803384871
O  O31  1  0.30240000  0.18080000  0.71040000  1.0 -0.4803384871
O  O32  1  0.19760000  0.81920000  0.21040000  1.0 -0.4803384871
O  O33  1  0.31850000  0.60130000  0.70031000  1.0 -0.5095333059
O  O34  1  0.18150000  0.39870000  0.20031000  1.0 -0.5095333059
O  O35  1  0.81850000  0.89870000  0.29969000  1.0 -0.5095333059
O  O36  1  0.68150000  0.10130000  0.79969000  1.0 -0.5095333059
O  O37  1  0.68150000  0.39870000  0.29969000  1.0 -0.5095333059
O  O38  1  0.81850000  0.60130000  0.79969000  1.0 -0.5095333059
O  O39  1  0.18150000  0.10130000  0.70031000  1.0 -0.5095333059
O  O40  1  0.31850000  0.89870000  0.20031000  1.0 -0.5095333059
O  O41  1  0.42150000  0.42000000  0.80070000  1.0 -0.4803384871
O  O42  1  0.07850000  0.58000000  0.30070000  1.0 -0.4803384871
O  O43  1  0.92150000  0.08000000  0.19930000  1.0 -0.4803384871
O  O44  1  0.57850000  0.92000000  0.69930000  1.0 -0.4803384871
O  O45  1  0.57850000  0.58000000  0.19930000  1.0 -0.4803384871
O  O46  1  0.92150000  0.42000000  0.69930000  1.0 -0.4803384871
O  O47  1  0.07850000  0.92000000  0.80070000  1.0 -0.4803384871
O  O48  1  0.42150000  0.08000000  0.30070000  1.0 -0.4803384871
O  O49  1  0.36270000  0.43690000  0.85633000  1.0 -0.4675776263
O  O50  1  0.13730000  0.56310000  0.35633000  1.0 -0.4675776263
O  O51  1  0.86270000  0.06310000  0.14367000  1.0 -0.4675776263
O  O52  1  0.63730000  0.93690000  0.64367000  1.0 -0.4675776263
O  O53  1  0.63730000  0.56310000  0.14367000  1.0 -0.4675776263
O  O54  1  0.86270000  0.43690000  0.64367000  1.0 -0.4675776263
O  O55  1  0.13730000  0.93690000  0.85633000  1.0 -0.4675776263
O  O56  1  0.36270000  0.06310000  0.35633000  1.0 -0.4675776263
O  O57  1  0.81830000  0.72730000  0.87134000  1.0 -0.7184155484
O  O58  1  0.68170000  0.27270000  0.37134000  1.0 -0.7184155484
O  O59  1  0.31830000  0.77270000  0.12866000  1.0 -0.7184155484
O  O60  1  0.18170000  0.22730000  0.62866000  1.0 -0.7184155484
O  O61  1  0.18170000  0.27270000  0.12866000  1.0 -0.7184155484
O  O62  1  0.31830000  0.72730000  0.62866000  1.0 -0.7184155484
O  O63  1  0.68170000  0.22730000  0.87134000  1.0 -0.7184155484
O  O64  1  0.81830000  0.77270000  0.37134000  1.0 -0.7184155484
O  O65  1  0.93470000  0.73820000  0.92541000  1.0 -0.7371228833
O  O66  1  0.56530000  0.26180000  0.42541000  1.0 -0.7371228833
O  O67  1  0.43470000  0.76180000  0.07459000  1.0 -0.7371228833
O  O68  1  0.06530000  0.23820000  0.57459000  1.0 -0.7371228833
O  O69  1  0.06530000  0.26180000  0.07459000  1.0 -0.7371228833
O  O70  1  0.43470000  0.73820000  0.57459000  1.0 -0.7371228833
O  O71  1  0.56530000  0.23820000  0.92541000  1.0 -0.7371228833
O  O72  1  0.93470000  0.76180000  0.42541000  1.0 -0.7371228833
O  O73  1  0.93490000  0.84070000  0.87547000  1.0 -0.7068172519
O  O74  1  0.56510000  0.15930000  0.37547000  1.0 -0.7068172519
O  O75  1  0.43490000  0.65930000  0.12453000  1.0 -0.7068172519
O  O76  1  0.06510000  0.34070000  0.62453000  1.0 -0.7068172519
O  O77  1  0.06510000  0.15930000  0.12453000  1.0 -0.7068172519
O  O78  1  0.43490000  0.84070000  0.62453000  1.0 -0.7068172519
O  O79  1  0.56510000  0.34070000  0.87547000  1.0 -0.7068172519
O  O80  1  0.93490000  0.65930000  0.37547000  1.0 -0.7068172519
O  O81  1  0.65950000  0.76290000  0.02310000  1.0 -0.4342035253
O  O82  1  0.84050000  0.23710000  0.52310000  1.0 -0.4342035253
O  O83  1  0.15950000  0.73710000  0.97690000  1.0 -0.4342035253
O  O84  1  0.34050000  0.26290000  0.47690000  1.0 -0.4342035253
O  O85  1  0.34050000  0.23710000  0.97690000  1.0 -0.4342035253
O  O86  1  0.15950000  0.76290000  0.47690000  1.0 -0.4342035253
O  O87  1  0.84050000  0.26290000  0.02310000  1.0 -0.4342035253
O  O88  1  0.65950000  0.73710000  0.52310000  1.0 -0.4342035253
O  O89  1  0.56790000  0.86770000  0.02381000  1.0 -0.4937604342
O  O90  1  0.93210000  0.13230000  0.52381000  1.0 -0.4937604342
O  O91  1  0.06790000  0.63230000  0.97619000  1.0 -0.4937604342
O  O92  1  0.43210000  0.36770000  0.47619000  1.0 -0.4937604342
O  O93  1  0.43210000  0.13230000  0.97619000  1.0 -0.4937604342
O  O94  1  0.06790000  0.86770000  0.47619000  1.0 -0.4937604342
O  O95  1  0.93210000  0.36770000  0.02381000  1.0 -0.4937604342
O  O96  1  0.56790000  0.63230000  0.52381000  1.0 -0.4937604342
O  O97  1  0.57100000  0.05530000  0.92611000  1.0 -0.5095333059
O  O98  1  0.92900000  0.94470000  0.42611000  1.0 -0.5095333059
O  O99  1  0.07100000  0.44470000  0.07389000  1.0 -0.5095333059
O  O100  1  0.42900000  0.55530000  0.57389000  1.0 -0.5095333059
O  O101  1  0.42900000  0.94470000  0.07389000  1.0 -0.5095333059
O  O102  1  0.07100000  0.05530000  0.57389000  1.0 -0.5095333059
O  O103  1  0.92900000  0.55530000  0.92611000  1.0 -0.5095333059
O  O104  1  0.57100000  0.44470000  0.42611000  1.0 -0.5095333059
O  O105  1  0.66560000  0.04380000  0.87714000  1.0 -0.5095333059
O  O106  1  0.83440000  0.95620000  0.37714000  1.0 -0.5095333059
O  O107  1  0.16560000  0.45620000  0.12286000  1.0 -0.5095333059
O  O108  1  0.33440000  0.54380000  0.62286000  1.0 -0.5095333059
O  O109  1  0.33440000  0.95620000  0.12286000  1.0 -0.5095333059
O  O110  1  0.16560000  0.04380000  0.62286000  1.0 -0.5095333059
O  O111  1  0.83440000  0.54380000  0.87714000  1.0 -0.5095333059
O  O112  1  0.66560000  0.45620000  0.37714000  1.0 -0.5095333059
O  O113  1  0.13040000  0.84520000  0.92410000  1.0 -0.300346711
O  O114  1  0.36960000  0.15480000  0.42410000  1.0 -0.300346711
O  O115  1  0.63040000  0.65480000  0.07590000  1.0 -0.300346711
O  O116  1  0.86960000  0.34520000  0.57590000  1.0 -0.300346711
O  O117  1  0.86960000  0.15480000  0.07590000  1.0 -0.300346711
O  O118  1  0.63040000  0.84520000  0.57590000  1.0 -0.300346711
O  O119  1  0.36960000  0.34520000  0.92410000  1.0 -0.300346711
O  O120  1  0.13040000  0.65480000  0.42410000  1.0 -0.300346711
