# DDEC6 charges by PACMAN v1.1 (https://github.com/mtap-research/PACMAN-charge/)
data_MAGZIH_FSR_pacman
_chemical_formula_sum              "O79 Dy13 H152 S24 C180"
_cell_length_a       25.8857
_cell_length_b       25.8857
_cell_length_c       12.2976
_cell_angle_alpha    90
_cell_angle_beta     90
_cell_angle_gamma    120

_symmetry_space_group_name_H-M    "P 1"
_symmetry_Int_Tables_number       1

loop_
  _symmetry_equiv_pos_as_xyz
  'x, y, z'

loop_
  _atom_site_type_symbol
  _atom_site_label
  _atom_site_symmetry_multiplicity
  _atom_site_fract_x
  _atom_site_fract_y
  _atom_site_fract_z
  _atom_site_occupancy
 _atom_site_charge
O   O1        1.0  0.10032  0.05019  0.84078  1.0000 0.2403172615
Dy  Dy1       1.0  0.08793  0.17583  0.99996  1.0000 1.4938623968
O   O2        1.0  0.17620  0.14300  0.79570  1.0000 -0.2602130708
O   O3        1.0  0.16660  0.21380  0.88020  1.0000 -0.3910725322
O   O4        1.0  0.16580  0.21330  0.12140  1.0000 -0.3733189043
O   O5        1.0  0.17670  0.14300  0.20520  1.0000 -0.0988007859
O   O6        1.0  0.10480  0.10550  0.00000  1.0000 -0.8498513438
H   H1        1.0  0.14250  0.12730  0.00000  1.0000 0.1596536897
O   O7        1.0  0.07200  0.03540  0.66720  1.0000 -0.3485476908
H   H2        1.0  0.07620  0.00780  0.63890  1.0000 0.181792124
H   H3        1.0  0.09170  0.06730  0.63080  1.0000 0.1190404776
O   O8        1.0  0.03850  0.96270  0.66420  1.0000 -0.3262131002
H   H4        1.0  0.01040  0.93040  0.63820  1.0000 0.1711865056
H   H5        1.0  0.07080  0.97190  0.63110  1.0000 0.1006581047
O   O9        1.0  0.14410  0.28740  0.99850  1.0000 -0.7106687513
H   H6        1.0  0.12810  0.29970  0.95290  1.0000 0.3097756351
H   H7        1.0  0.14120  0.30000  0.05910  1.0000 0.3097756351
S   S1        1.0  0.42880  0.44690  0.38110  1.0000 0.0212646487
S   S2        1.0  0.42800  0.44720  0.61830  1.0000 -0.0174844542
S   S3        1.0  0.55310  0.57180  0.61890  1.0000 0.0212646487
S   S4        1.0  0.55340  0.57120  0.38130  1.0000 -0.0174844542
C   C1        1.0  0.19400  0.19460  0.81680  1.0000 0.4265712264
C   C2        1.0  0.24200  0.24400  0.75000  1.0000 -0.0408480809
C   C3        1.0  0.25850  0.30210  0.76890  1.0000 -0.0305964304
H   H8        1.0  0.23530  0.30660  0.82460  1.0000 0.1190404776
C   C4        1.0  0.30110  0.34750  0.70790  1.0000 -0.0988007859
H   H9        1.0  0.30690  0.38760  0.72010  1.0000 0.0913537647
C   C5        1.0  0.33000  0.33000  0.63000  1.0000 0.0117705304
C   C6        1.0  0.31420  0.27610  0.60650  1.0000 -0.0611336663
H   H10       1.0  0.34040  0.27330  0.55460  1.0000 0.0730410911
C   C7        1.0  0.27040  0.23040  0.66960  1.0000 -0.0305964304
H   H11       1.0  0.26690  0.19100  0.66000  1.0000 0.1006581047
C   C8        1.0  0.19340  0.19370  0.18520  1.0000 0.4586371023
C   C9        1.0  0.24000  0.24000  0.25000  1.0000 -0.0408480809
C   C10       1.0  0.22760  0.27080  0.32840  1.0000 -0.0924219905
H   H12       1.0  0.18410  0.25320  0.33340  1.0000 0.1006581047
C   C11       1.0  0.27110  0.31620  0.38980  1.0000 -0.1247479778
H   H13       1.0  0.25320  0.33260  0.43690  1.0000 0.07986047
C   C12       1.0  0.33000  0.33000  0.37000  1.0000 0.0531108968
C   C13       1.0  0.34570  0.30560  0.29310  1.0000 -0.0611336663
H   H14       1.0  0.38930  0.32350  0.28850  1.0000 0.0730410911
C   C14       1.0  0.30140  0.26000  0.23190  1.0000 -0.0408480809
H   H15       1.0  0.31920  0.24440  0.18320  1.0000 0.1006581047
C   C15       1.0  0.37400  0.38400  0.44400  1.0000 -0.0174844542
C   C16       1.0  0.37400  0.38500  0.55600  1.0000 0.0212646487
C   C17       1.0  0.46130  0.48460  0.49980  1.0000 -0.0707008498
C   C18       1.0  0.61600  0.62600  0.55600  1.0000 -0.0174844542
C   C19       1.0  0.61600  0.62600  0.44400  1.0000 0.0212646487
C   C20       1.0  0.51590  0.53860  0.50050  1.0000 -0.0707008498
C   C21       1.0  0.26050  0.30180  0.23140  1.0000 -0.0305964304
H   H16       1.0  0.23770  0.31720  0.19470  1.0000 0.107454865
C   C22       1.0  0.30600  0.34530  0.29290  1.0000 -0.0707008498
H   H17       1.0  0.31740  0.38760  0.29840  1.0000 0.07986047
C   C23       1.0  0.31620  0.27070  0.39080  1.0000 -0.1287116936
H   H18       1.0  0.33890  0.25520  0.42730  1.0000 0.0913537647
C   C24       1.0  0.27070  0.22740  0.32830  1.0000 -0.0924219905
H   H19       1.0  0.26010  0.18530  0.32150  1.0000 0.1006581047
C   C25       1.0  0.75600  0.75700  0.25000  1.0000 -0.0484124726
C   C26       1.0  0.69760  0.74120  0.23130  1.0000 -0.0305964304
H   H20       1.0  0.69420  0.76610  0.17760  1.0000 0.1006581047
C   C27       1.0  0.65300  0.69840  0.29420  1.0000 -0.0988007859
H   H21       1.0  0.61470  0.69700  0.28330  1.0000 0.0913537647
C   C28       1.0  0.67000  0.67000  0.38000  1.0000 0.0212646487
C   C29       1.0  0.72540  0.68600  0.39430  1.0000 -0.0611336663
H   H22       1.0  0.72870  0.66150  0.44890  1.0000 0.0614306298
C   C30       1.0  0.77050  0.72950  0.33050  1.0000 -0.0305964304
H   H23       1.0  0.80900  0.73140  0.34220  1.0000 0.1006581047
O   O10       1.0  0.05013  0.94986  0.84069  1.0000 0.8400924865
H   H24       1.0  0.06450  0.93540  0.79600  1.0000 0.0531108968
Dy  Dy2       1.0  0.94981  0.05013  0.84078  1.0000 -0.7106687513
Dy  Dy3       1.0  0.10027  0.05013  0.15931  1.0000 -0.3910725322
O   O11       1.0  0.14340  0.17690  0.79460  1.0000 -0.2602130708
O   O12       1.0  0.21390  0.16600  0.87940  1.0000 -0.3977274236
O   O13       1.0  0.14350  0.17620  0.20640  1.0000 -0.0787525487
O   O14       1.0  0.21360  0.16670  0.12130  1.0000 -0.377980365
H   H25       1.0  0.12910  0.06450  0.79490  1.0000 0.0212646487
Dy  Dy4       1.0  0.82417  0.91210  0.99996  1.0000 1.2914037767
O   O15       1.0  0.85700  0.03320  0.79570  1.0000 -0.1896835801
O   O16       1.0  0.78620  0.95280  0.88020  1.0000 -0.3910725322
O   O17       1.0  0.78670  0.95250  0.12140  1.0000 -0.3910725322
O   O18       1.0  0.85700  0.03370  0.20520  1.0000 -0.144231194
O   O19       1.0  0.89450  0.99930  0.00000  1.0000 -0.8670790133
H   H26       1.0  0.87270  0.01520  0.00000  1.0000 0.1995378348
O   O20       1.0  0.96460  0.03660  0.66720  1.0000 -0.2602130708
H   H27       1.0  0.99220  0.06840  0.63890  1.0000 0.1892437103
H   H28       1.0  0.93270  0.02440  0.63080  1.0000 0.1371147845
O   O21       1.0  0.03730  0.07580  0.66420  1.0000 -0.3262131002
H   H29       1.0  0.06960  0.08000  0.63820  1.0000 0.1596536897
H   H30       1.0  0.02810  0.09890  0.63110  1.0000 0.1006581047
O   O22       1.0  0.71260  0.85670  0.99850  1.0000 -0.6939784822
H   H31       1.0  0.70030  0.82840  0.95290  1.0000 0.3097756351
H   H32       1.0  0.70000  0.84120  0.05910  1.0000 0.3097756351
S   S5        1.0  0.55310  0.98190  0.38110  1.0000 0.0212646487
S   S6        1.0  0.55280  0.98080  0.61830  1.0000 -0.0174844542
S   S7        1.0  0.42820  0.98130  0.61890  1.0000 0.0212646487
S   S8        1.0  0.42880  0.98220  0.38130  1.0000 -0.0174844542
C   C31       1.0  0.80540  0.99940  0.81680  1.0000 0.4172159198
C   C32       1.0  0.75600  0.99800  0.75000  1.0000 -0.0484124726
C   C33       1.0  0.69790  0.95640  0.76890  1.0000 -0.0305964304
H   H33       1.0  0.69340  0.92870  0.82460  1.0000 0.1190404776
C   C34       1.0  0.65250  0.95360  0.70790  1.0000 -0.0988007859
H   H34       1.0  0.61240  0.91930  0.72010  1.0000 0.0913537647
C   C35       1.0  0.67000  0.00000  0.63000  1.0000 0.0117705304
C   C36       1.0  0.72390  0.03810  0.60650  1.0000 -0.0611336663
H   H35       1.0  0.72670  0.06710  0.55460  1.0000 0.0730410911
C   C37       1.0  0.76960  0.04000  0.66960  1.0000 -0.0305964304
H   H36       1.0  0.80900  0.07590  0.66000  1.0000 0.1006581047
C   C38       1.0  0.80630  0.99970  0.18520  1.0000 0.4586371023
C   C39       1.0  0.76000  0.00000  0.25000  1.0000 -0.0305964304
C   C40       1.0  0.72920  0.95680  0.32840  1.0000 -0.0924219905
H   H37       1.0  0.74680  0.93090  0.33340  1.0000 0.1006581047
C   C41       1.0  0.68380  0.95490  0.38980  1.0000 -0.1287116936
H   H38       1.0  0.66740  0.92060  0.43690  1.0000 0.07986047
C   C42       1.0  0.67000  0.00000  0.37000  1.0000 0.0531108968
C   C43       1.0  0.69440  0.04010  0.29310  1.0000 -0.0611336663
H   H39       1.0  0.67650  0.06580  0.28850  1.0000 0.0730410911
C   C44       1.0  0.74000  0.04140  0.23190  1.0000 -0.0408480809
H   H40       1.0  0.75560  0.07480  0.18320  1.0000 0.0913537647
C   C45       1.0  0.61600  0.99000  0.44400  1.0000 -0.0174844542
C   C46       1.0  0.61500  0.98900  0.55600  1.0000 0.0212646487
C   C47       1.0  0.51540  0.97670  0.49980  1.0000 -0.0707008498
C   C48       1.0  0.37400  0.99000  0.55600  1.0000 -0.0174844542
C   C49       1.0  0.37400  0.99000  0.44400  1.0000 0.0212646487
C   C50       1.0  0.46140  0.97730  0.50050  1.0000 -0.0707008498
C   C51       1.0  0.69820  0.95870  0.23140  1.0000 -0.0305964304
H   H41       1.0  0.68280  0.92050  0.19470  1.0000 0.107454865
C   C52       1.0  0.65470  0.96070  0.29290  1.0000 -0.0707008498
H   H42       1.0  0.61240  0.92980  0.29840  1.0000 0.07986047
C   C53       1.0  0.72930  0.04550  0.39080  1.0000 -0.1287116936
H   H43       1.0  0.74480  0.08370  0.42730  1.0000 0.07986047
C   C54       1.0  0.77260  0.04330  0.32830  1.0000 -0.0988007859
H   H44       1.0  0.81470  0.07480  0.32150  1.0000 0.1006581047
C   C55       1.0  0.24300  0.99900  0.25000  1.0000 -0.0611336663
C   C56       1.0  0.25880  0.95640  0.23130  1.0000 -0.0305964304
H   H45       1.0  0.23390  0.92810  0.17760  1.0000 0.1006581047
C   C57       1.0  0.30160  0.95460  0.29420  1.0000 -0.0988007859
H   H46       1.0  0.30300  0.91770  0.28330  1.0000 0.0913537647
C   C58       1.0  0.33000  0.00000  0.38000  1.0000 0.0212646487
C   C59       1.0  0.31400  0.03940  0.39430  1.0000 -0.0611336663
H   H47       1.0  0.33850  0.06720  0.44890  1.0000 0.0614306298
C   C60       1.0  0.27050  0.04100  0.33050  1.0000 -0.0305964304
H   H48       1.0  0.26860  0.07760  0.34220  1.0000 0.1006581047
O   O23       1.0  0.05014  0.10027  0.84069  1.0000 0.8400924865
H   H49       1.0  0.06460  0.12910  0.79600  1.0000 0.0531108968
Dy  Dy5       1.0  0.94987  0.89968  0.84078  1.0000 -0.7106687513
Dy  Dy6       1.0  0.94987  0.05014  0.15931  1.0000 -0.6174838778
O   O24       1.0  0.82310  0.96650  0.79460  1.0000 -0.2536583778
O   O25       1.0  0.83400  0.04790  0.87940  1.0000 -0.3910725322
O   O26       1.0  0.82380  0.96730  0.20640  1.0000 -0.2199120111
O   O27       1.0  0.83330  0.04690  0.12130  1.0000 -0.377980365
H   H50       1.0  0.93550  0.06460  0.79490  1.0000 0.2739226285
Dy  Dy7       1.0  0.08790  0.91207  0.99996  1.0000 1.4973305526
O   O28       1.0  0.96680  0.82380  0.79570  1.0000 -0.1808088955
O   O29       1.0  0.04720  0.83340  0.88020  1.0000 -0.3910725322
O   O30       1.0  0.04750  0.83420  0.12140  1.0000 -0.377980365
O   O31       1.0  0.96630  0.82330  0.20520  1.0000 -0.0924219905
O   O32       1.0  0.00070  0.89520  0.00000  1.0000 -0.7931307492
H   H51       1.0  0.98480  0.85750  0.00000  1.0000 0.2291640553
O   O33       1.0  0.96340  0.92800  0.66720  1.0000 -0.2602130708
H   H52       1.0  0.93160  0.92380  0.63890  1.0000 0.1892437103
H   H53       1.0  0.97560  0.90830  0.63080  1.0000 0.1371147845
O   O34       1.0  0.92420  0.96150  0.66420  1.0000 -0.322108173
H   H54       1.0  0.92000  0.98960  0.63820  1.0000 0.1711865056
H   H55       1.0  0.90110  0.92920  0.63110  1.0000 0.0913537647
O   O35       1.0  0.14330  0.85590  0.99850  1.0000 -0.7106687513
H   H56       1.0  0.17160  0.87190  0.95290  1.0000 0.3097756351
H   H57       1.0  0.15880  0.85880  0.05910  1.0000 0.3097756351
S   S9        1.0  0.01810  0.57120  0.38110  1.0000 0.0212646487
S   S10       1.0  0.01920  0.57200  0.61830  1.0000 -0.0174844542
S   S11       1.0  0.01870  0.44690  0.61890  1.0000 0.0212646487
S   S12       1.0  0.01780  0.44660  0.38130  1.0000 -0.0174844542
C   C61       1.0  0.00060  0.80600  0.81680  1.0000 0.4111158017
C   C62       1.0  0.00200  0.75800  0.75000  1.0000 -0.0484124726
C   C63       1.0  0.04360  0.74150  0.76890  1.0000 -0.0305964304
H   H58       1.0  0.07130  0.76470  0.82460  1.0000 0.1190404776
C   C64       1.0  0.04640  0.69890  0.70790  1.0000 -0.0988007859
H   H59       1.0  0.08070  0.69310  0.72010  1.0000 0.0913537647
C   C65       1.0  0.00000  0.67000  0.63000  1.0000 0.0117705304
C   C66       1.0  0.96190  0.68580  0.60650  1.0000 -0.0611336663
H   H60       1.0  0.93290  0.65960  0.55460  1.0000 0.0730410911
C   C67       1.0  0.96000  0.72960  0.66960  1.0000 -0.0305964304
H   H61       1.0  0.92410  0.73310  0.66000  1.0000 0.1006581047
C   C68       1.0  0.00030  0.80660  0.18520  1.0000 0.4511929515
C   C69       1.0  0.00000  0.76000  0.25000  1.0000 -0.0408480809
C   C70       1.0  0.04320  0.77240  0.32840  1.0000 -0.0924219905
H   H62       1.0  0.06910  0.81590  0.33340  1.0000 0.1006581047
C   C71       1.0  0.04510  0.72890  0.38980  1.0000 -0.1287116936
H   H63       1.0  0.07940  0.74680  0.43690  1.0000 0.07986047
C   C72       1.0  0.00000  0.67000  0.37000  1.0000 0.0531108968
C   C73       1.0  0.95990  0.65430  0.29310  1.0000 -0.0611336663
H   H64       1.0  0.93420  0.61070  0.28850  1.0000 0.0730410911
C   C74       1.0  0.95860  0.69860  0.23190  1.0000 -0.0408480809
H   H65       1.0  0.92520  0.68080  0.18320  1.0000 0.0913537647
C   C75       1.0  0.01000  0.62600  0.44400  1.0000 -0.0174844542
C   C76       1.0  0.01100  0.62600  0.55600  1.0000 0.0212646487
C   C77       1.0  0.02330  0.53870  0.49980  1.0000 -0.0707008498
C   C78       1.0  0.01000  0.38400  0.55600  1.0000 -0.0174844542
C   C79       1.0  0.01000  0.38400  0.44400  1.0000 0.0212646487
C   C80       1.0  0.02270  0.48410  0.50050  1.0000 -0.0707008498
C   C81       1.0  0.04130  0.73950  0.23140  1.0000 -0.0305964304
H   H66       1.0  0.07950  0.76230  0.19470  1.0000 0.107454865
C   C82       1.0  0.03930  0.69400  0.29290  1.0000 -0.0707008498
H   H67       1.0  0.07020  0.68260  0.29840  1.0000 0.07986047
C   C83       1.0  0.95450  0.68380  0.39080  1.0000 -0.1287116936
H   H68       1.0  0.91630  0.66110  0.42730  1.0000 0.0913537647
C   C84       1.0  0.95670  0.72930  0.32830  1.0000 -0.0924219905
H   H69       1.0  0.92520  0.73990  0.32150  1.0000 0.1006581047
C   C85       1.0  0.00100  0.24400  0.25000  1.0000 -0.0611336663
C   C86       1.0  0.04360  0.30240  0.23130  1.0000 -0.0305964304
H   H70       1.0  0.07190  0.30580  0.17760  1.0000 0.1006581047
C   C87       1.0  0.04540  0.34700  0.29420  1.0000 -0.0988007859
H   H71       1.0  0.08230  0.38530  0.28330  1.0000 0.0913537647
C   C88       1.0  1.00000  0.33000  0.38000  1.0000 0.0212646487
C   C89       1.0  0.96060  0.27460  0.39430  1.0000 -0.0611336663
H   H72       1.0  0.93280  0.27130  0.44890  1.0000 0.0614306298
C   C90       1.0  0.95900  0.22950  0.33050  1.0000 -0.0305964304
H   H73       1.0  0.92240  0.19100  0.34220  1.0000 0.1006581047
O   O36       1.0  0.89973  0.94987  0.84069  1.0000 1.2683740917
H   H74       1.0  0.87090  0.93550  0.79600  1.0000 0.0730410911
Dy  Dy8       1.0  0.94986  0.89973  0.15931  1.0000 -0.6174838778
O   O37       1.0  0.03350  0.85660  0.79460  1.0000 -0.2336610344
O   O38       1.0  0.95210  0.78610  0.87940  1.0000 -0.3910725322
O   O39       1.0  0.03270  0.85650  0.20640  1.0000 -0.0707008498
O   O40       1.0  0.95310  0.78640  0.12130  1.0000 -0.3910725322
H   H75       1.0  0.93540  0.87090  0.79490  1.0000 0.2739226285
O   O41       1.0  0.89968  0.94981  0.15922  1.0000 1.1991481844
Dy  Dy9       1.0  0.91207  0.82417  0.00004  1.0000 1.6867038074
O   O42       1.0  0.82380  0.85700  0.20430  1.0000 -0.2602130708
O   O43       1.0  0.83340  0.78620  0.11980  1.0000 -0.3733189043
O   O44       1.0  0.83420  0.78670  0.87860  1.0000 -0.3733189043
O   O45       1.0  0.82330  0.85700  0.79480  1.0000 -0.2422121462
O   O46       1.0  0.89520  0.89450  0.00000  1.0000 -0.8498513438
H   H76       1.0  0.85750  0.87270  0.00000  1.0000 0.107454865
O   O47       1.0  0.92800  0.96460  0.33280  1.0000 -0.322108173
H   H77       1.0  0.92380  0.99220  0.36110  1.0000 0.1995378348
H   H78       1.0  0.90830  0.93270  0.36920  1.0000 0.1190404776
O   O48       1.0  0.96150  0.03730  0.33580  1.0000 -0.2422121462
H   H79       1.0  0.98960  0.06960  0.36180  1.0000 0.1892437103
H   H80       1.0  0.92920  0.02810  0.36890  1.0000 0.1190404776
O   O49       1.0  0.85590  0.71260  0.00150  1.0000 -0.7230615553
H   H81       1.0  0.87190  0.70030  0.04710  1.0000 0.3037453953
H   H82       1.0  0.85880  0.70000  0.94090  1.0000 0.3097756351
S   S13       1.0  0.57120  0.55310  0.61890  1.0000 0.0212646487
S   S14       1.0  0.57200  0.55280  0.38170  1.0000 -0.0174844542
S   S15       1.0  0.44690  0.42820  0.38110  1.0000 0.0212646487
S   S16       1.0  0.44660  0.42880  0.61870  1.0000 -0.0174844542
C   C91       1.0  0.80600  0.80540  0.18320  1.0000 0.4172159198
C   C92       1.0  0.75800  0.75600  0.25000  1.0000 -0.0484124726
C   C93       1.0  0.74150  0.69790  0.23110  1.0000 -0.0305964304
H   H83       1.0  0.76470  0.69340  0.17540  1.0000 0.1190404776
C   C94       1.0  0.69890  0.65250  0.29210  1.0000 -0.0988007859
H   H84       1.0  0.69310  0.61240  0.27990  1.0000 0.0913537647
C   C95       1.0  0.67000  0.67000  0.37000  1.0000 0.0117705304
C   C96       1.0  0.68580  0.72390  0.39350  1.0000 -0.0611336663
H   H85       1.0  0.65960  0.72670  0.44540  1.0000 0.0730410911
C   C97       1.0  0.72960  0.76960  0.33040  1.0000 -0.0305964304
H   H86       1.0  0.73310  0.80900  0.34000  1.0000 0.1006581047
C   C98       1.0  0.80660  0.80630  0.81480  1.0000 0.4586371023
C   C99       1.0  0.76000  0.76000  0.75000  1.0000 -0.0305964304
C   C100      1.0  0.77240  0.72920  0.67160  1.0000 -0.0988007859
H   H87       1.0  0.81590  0.74680  0.66660  1.0000 0.1006581047
C   C101      1.0  0.72890  0.68380  0.61020  1.0000 -0.1287116936
H   H88       1.0  0.74680  0.66740  0.56310  1.0000 0.07986047
C   C102      1.0  0.67000  0.67000  0.63000  1.0000 0.0531108968
C   C103      1.0  0.65430  0.69440  0.70690  1.0000 -0.0611336663
H   H89       1.0  0.61070  0.67650  0.71150  1.0000 0.0730410911
C   C104      1.0  0.69860  0.74000  0.76810  1.0000 -0.0408480809
H   H90       1.0  0.68080  0.75560  0.81680  1.0000 0.0913537647
C   C105      1.0  0.62600  0.61600  0.55600  1.0000 -0.0174844542
C   C106      1.0  0.62600  0.61500  0.44400  1.0000 0.0212646487
C   C107      1.0  0.53870  0.51540  0.50020  1.0000 -0.0707008498
C   C108      1.0  0.38400  0.37400  0.44400  1.0000 -0.0174844542
C   C109      1.0  0.38400  0.37400  0.55600  1.0000 0.0212646487
C   C110      1.0  0.48410  0.46140  0.49950  1.0000 -0.0707008498
C   C111      1.0  0.73950  0.69820  0.76860  1.0000 -0.0305964304
H   H91       1.0  0.76230  0.68280  0.80530  1.0000 0.107454865
C   C112      1.0  0.69400  0.65470  0.70710  1.0000 -0.0707008498
H   H92       1.0  0.68260  0.61240  0.70160  1.0000 0.07986047
C   C113      1.0  0.68380  0.72930  0.60920  1.0000 -0.1287116936
H   H93       1.0  0.66110  0.74480  0.57270  1.0000 0.07986047
C   C114      1.0  0.72930  0.77260  0.67170  1.0000 -0.0988007859
H   H94       1.0  0.73990  0.81470  0.67850  1.0000 0.107454865
C   C115      1.0  0.24400  0.24300  0.75000  1.0000 -0.0408480809
C   C116      1.0  0.30240  0.25880  0.76870  1.0000 -0.0305964304
H   H95       1.0  0.30580  0.23390  0.82240  1.0000 0.1006581047
C   C117      1.0  0.34700  0.30160  0.70580  1.0000 -0.0988007859
H   H96       1.0  0.38530  0.30300  0.71670  1.0000 0.0913537647
C   C118      1.0  0.33000  0.33000  0.62000  1.0000 0.0212646487
C   C119      1.0  0.27460  0.31400  0.60570  1.0000 -0.0611336663
H   H97       1.0  0.27130  0.33850  0.55110  1.0000 0.0614306298
C   C120      1.0  0.22950  0.27050  0.66950  1.0000 -0.0305964304
H   H98       1.0  0.19100  0.26860  0.65780  1.0000 0.1006581047
H   H99       1.0  0.93550  0.06460  0.20400  1.0000 0.2832562748
Dy  Dy10      1.0  0.05019  0.94987  0.15922  1.0000 -0.30266785
O   O50       1.0  0.85660  0.82310  0.20540  1.0000 -0.1896835801
O   O51       1.0  0.78610  0.83400  0.12060  1.0000 -0.4073664781
O   O52       1.0  0.85650  0.82380  0.79360  1.0000 -0.1115401623
O   O53       1.0  0.78640  0.83330  0.87870  1.0000 -0.3977274236
H   H100      1.0  0.87090  0.93550  0.20510  1.0000 0.0614306298
Dy  Dy11      1.0  0.17583  0.08790  0.00004  1.0000 1.5124989811
O   O54       1.0  0.14300  0.96680  0.20430  1.0000 -0.1555283603
O   O55       1.0  0.21380  0.04720  0.11980  1.0000 -0.3733189043
O   O56       1.0  0.21330  0.04750  0.87860  1.0000 -0.377980365
O   O57       1.0  0.14300  0.96630  0.79480  1.0000 -0.2602130708
O   O58       1.0  0.10550  0.00070  0.00000  1.0000 -0.8498513438
H   H101      1.0  0.12730  0.98480  0.00000  1.0000 0.1596536897
O   O59       1.0  0.03540  0.96340  0.33280  1.0000 -0.2422121462
H   H102      1.0  0.00780  0.93160  0.36110  1.0000 0.1995378348
H   H103      1.0  0.06730  0.97560  0.36920  1.0000 0.1325917754
O   O60       1.0  0.96270  0.92420  0.33580  1.0000 -0.2422121462
H   H104      1.0  0.93040  0.92000  0.36180  1.0000 0.181792124
H   H105      1.0  0.97190  0.90110  0.36890  1.0000 0.1190404776
O   O61       1.0  0.28740  0.14330  0.00150  1.0000 -0.7022222218
H   H106      1.0  0.29970  0.17160  0.04710  1.0000 0.3097756351
H   H107      1.0  0.30000  0.15880  0.94090  1.0000 0.3097756351
S   S17       1.0  0.44690  0.01810  0.61890  1.0000 0.0212646487
S   S18       1.0  0.44720  0.01920  0.38170  1.0000 -0.0174844542
S   S19       1.0  0.57180  0.01870  0.38110  1.0000 0.0212646487
S   S20       1.0  0.57120  0.01780  0.61870  1.0000 -0.0174844542
C   C121      1.0  0.19460  0.00060  0.18320  1.0000 0.4111158017
C   C122      1.0  0.24400  0.00200  0.25000  1.0000 -0.0611336663
C   C123      1.0  0.30210  0.04360  0.23110  1.0000 -0.0305964304
H   H108      1.0  0.30660  0.07130  0.17540  1.0000 0.1190404776
C   C124      1.0  0.34750  0.04640  0.29210  1.0000 -0.0988007859
H   H109      1.0  0.38760  0.08070  0.27990  1.0000 0.0913537647
C   C125      1.0  0.33000  0.00000  0.37000  1.0000 0.0117705304
C   C126      1.0  0.27610  0.96190  0.39350  1.0000 -0.0611336663
H   H110      1.0  0.27330  0.93290  0.44540  1.0000 0.0730410911
C   C127      1.0  0.23040  0.96000  0.33040  1.0000 -0.0305964304
H   H111      1.0  0.19100  0.92410  0.34000  1.0000 0.1006581047
C   C128      1.0  0.19370  0.00030  0.81480  1.0000 0.4671326342
C   C129      1.0  0.24000  0.00000  0.75000  1.0000 -0.0305964304
C   C130      1.0  0.27080  0.04320  0.67160  1.0000 -0.0988007859
H   H112      1.0  0.25320  0.06910  0.66660  1.0000 0.107454865
C   C131      1.0  0.31620  0.04510  0.61020  1.0000 -0.1287116936
H   H113      1.0  0.33260  0.07940  0.56310  1.0000 0.07986047
C   C132      1.0  0.33000  0.00000  0.63000  1.0000 0.0531108968
C   C133      1.0  0.30560  0.95990  0.70690  1.0000 -0.0611336663
H   H114      1.0  0.32350  0.93420  0.71150  1.0000 0.0730410911
C   C134      1.0  0.26000  0.95860  0.76810  1.0000 -0.0408480809
H   H115      1.0  0.24440  0.92520  0.81680  1.0000 0.0913537647
C   C135      1.0  0.38400  0.01000  0.55600  1.0000 -0.0174844542
C   C136      1.0  0.38500  0.01100  0.44400  1.0000 0.0212646487
C   C137      1.0  0.48460  0.02330  0.50020  1.0000 -0.0707008498
C   C138      1.0  0.62600  0.01000  0.44400  1.0000 -0.0174844542
C   C139      1.0  0.62600  0.01000  0.55600  1.0000 0.0212646487
C   C140      1.0  0.53860  0.02270  0.49950  1.0000 -0.0707008498
C   C141      1.0  0.30180  0.04130  0.76860  1.0000 -0.0305964304
H   H116      1.0  0.31720  0.07950  0.80530  1.0000 0.107454865
C   C142      1.0  0.34530  0.03930  0.70710  1.0000 -0.0707008498
H   H117      1.0  0.38760  0.07020  0.70160  1.0000 0.07986047
C   C143      1.0  0.27070  0.95450  0.60920  1.0000 -0.1287116936
H   H118      1.0  0.25520  0.91630  0.57270  1.0000 0.07986047
C   C144      1.0  0.22740  0.95670  0.67170  1.0000 -0.0924219905
H   H119      1.0  0.18530  0.92520  0.67850  1.0000 0.107454865
C   C145      1.0  0.75700  0.00100  0.75000  1.0000 -0.0484124726
C   C146      1.0  0.74120  0.04360  0.76870  1.0000 -0.0305964304
H   H120      1.0  0.76610  0.07190  0.82240  1.0000 0.1006581047
C   C147      1.0  0.69840  0.04540  0.70580  1.0000 -0.0988007859
H   H121      1.0  0.69700  0.08230  0.71670  1.0000 0.0913537647
C   C148      1.0  0.67000  0.00000  0.62000  1.0000 0.0212646487
C   C149      1.0  0.68600  0.96060  0.60570  1.0000 -0.0611336663
H   H122      1.0  0.66150  0.93280  0.55110  1.0000 0.0614306298
C   C150      1.0  0.72950  0.95900  0.66950  1.0000 -0.0305964304
H   H123      1.0  0.73140  0.92240  0.65780  1.0000 0.1006581047
H   H124      1.0  0.93540  0.87090  0.20400  1.0000 0.2832562748
Dy  Dy12      1.0  0.05013  0.10032  0.15922  1.0000 -0.3059079286
O   O62       1.0  0.17690  0.03350  0.20540  1.0000 -0.1469237965
O   O63       1.0  0.16600  0.95210  0.12060  1.0000 -0.3910725322
O   O64       1.0  0.17620  0.03270  0.79360  1.0000 -0.2199120111
O   O65       1.0  0.16670  0.95310  0.87870  1.0000 -0.3977274236
H   H125      1.0  0.06450  0.93540  0.20510  1.0000 0.2832562748
Dy  Dy13      1.0  0.91210  0.08793  0.00004  1.0000 1.6867038074
O   O66       1.0  0.03320  0.17620  0.20430  1.0000 -0.1469237965
O   O67       1.0  0.95280  0.16660  0.11980  1.0000 -0.377980365
O   O68       1.0  0.95250  0.16580  0.87860  1.0000 -0.377980365
O   O69       1.0  0.03370  0.17670  0.79480  1.0000 -0.2199120111
O   O70       1.0  0.99930  0.10480  0.00000  1.0000 -0.7813605305
H   H126      1.0  0.01520  0.14250  0.00000  1.0000 0.1995378348
O   O71       1.0  0.03660  0.07200  0.33280  1.0000 -0.2422121462
H   H127      1.0  0.06840  0.07620  0.36110  1.0000 0.1995378348
H   H128      1.0  0.02440  0.09170  0.36920  1.0000 0.1325917754
O   O72       1.0  0.07580  0.03850  0.33580  1.0000 -0.2536583778
H   H129      1.0  0.08000  0.01040  0.36180  1.0000 0.1892437103
H   H130      1.0  0.09890  0.07080  0.36890  1.0000 0.107454865
O   O73       1.0  0.85670  0.14410  0.00150  1.0000 -0.7230615553
H   H131      1.0  0.82840  0.12810  0.04710  1.0000 0.3097756351
H   H132      1.0  0.84120  0.14120  0.94090  1.0000 0.3097756351
S   S21       1.0  0.98190  0.42880  0.61890  1.0000 0.0212646487
S   S22       1.0  0.98080  0.42800  0.38170  1.0000 -0.0174844542
S   S23       1.0  0.98130  0.55310  0.38110  1.0000 0.0212646487
S   S24       1.0  0.98220  0.55340  0.61870  1.0000 -0.0174844542
C   C151      1.0  0.99940  0.19400  0.18320  1.0000 0.4036482337
C   C152      1.0  0.99800  0.24200  0.25000  1.0000 -0.0611336663
C   C153      1.0  0.95640  0.25850  0.23110  1.0000 -0.0305964304
H   H133      1.0  0.92870  0.23530  0.17540  1.0000 0.1190404776
C   C154      1.0  0.95360  0.30110  0.29210  1.0000 -0.0988007859
H   H134      1.0  0.91930  0.30690  0.27990  1.0000 0.0913537647
C   C155      1.0  1.00000  0.33000  0.37000  1.0000 0.0117705304
C   C156      1.0  0.03810  0.31420  0.39350  1.0000 -0.0611336663
H   H135      1.0  0.06710  0.34040  0.44540  1.0000 0.0730410911
C   C157      1.0  0.04000  0.27040  0.33040  1.0000 -0.0305964304
H   H136      1.0  0.07590  0.26690  0.34000  1.0000 0.1006581047
C   C158      1.0  0.99970  0.19340  0.81480  1.0000 0.4586371023
C   C159      1.0  1.00000  0.24000  0.75000  1.0000 -0.0305964304
C   C160      1.0  0.95680  0.22760  0.67160  1.0000 -0.0988007859
H   H137      1.0  0.93090  0.18410  0.66660  1.0000 0.1006581047
C   C161      1.0  0.95490  0.27110  0.61020  1.0000 -0.1287116936
H   H138      1.0  0.92060  0.25320  0.56310  1.0000 0.07986047
C   C162      1.0  1.00000  0.33000  0.63000  1.0000 0.0531108968
C   C163      1.0  0.04010  0.34570  0.70690  1.0000 -0.0611336663
H   H139      1.0  0.06580  0.38930  0.71150  1.0000 0.0730410911
C   C164      1.0  0.04140  0.30140  0.76810  1.0000 -0.0408480809
H   H140      1.0  0.07480  0.31920  0.81680  1.0000 0.0913537647
C   C165      1.0  0.99000  0.37400  0.55600  1.0000 -0.0174844542
C   C166      1.0  0.98900  0.37400  0.44400  1.0000 0.0212646487
C   C167      1.0  0.97670  0.46130  0.50020  1.0000 -0.0707008498
C   C168      1.0  0.99000  0.61600  0.44400  1.0000 -0.0174844542
C   C169      1.0  0.99000  0.61600  0.55600  1.0000 0.0212646487
C   C170      1.0  0.97730  0.51590  0.49950  1.0000 -0.0707008498
C   C171      1.0  0.95870  0.26050  0.76860  1.0000 -0.0305964304
H   H141      1.0  0.92050  0.23770  0.80530  1.0000 0.107454865
C   C172      1.0  0.96070  0.30600  0.70710  1.0000 -0.0707008498
H   H142      1.0  0.92980  0.31740  0.70160  1.0000 0.07986047
C   C173      1.0  0.04550  0.31620  0.60920  1.0000 -0.1287116936
H   H143      1.0  0.08370  0.33890  0.57270  1.0000 0.07986047
C   C174      1.0  0.04330  0.27070  0.67170  1.0000 -0.0988007859
H   H144      1.0  0.07480  0.26010  0.67850  1.0000 0.107454865
C   C175      1.0  0.99900  0.75600  0.75000  1.0000 -0.0484124726
C   C176      1.0  0.95640  0.69760  0.76870  1.0000 -0.0305964304
H   H145      1.0  0.92810  0.69420  0.82240  1.0000 0.1006581047
C   C177      1.0  0.95460  0.65300  0.70580  1.0000 -0.0988007859
H   H146      1.0  0.91770  0.61470  0.71670  1.0000 0.0913537647
C   C178      1.0  0.00000  0.67000  0.62000  1.0000 0.0212646487
C   C179      1.0  0.03940  0.72540  0.60570  1.0000 -0.0611336663
H   H147      1.0  0.06720  0.72870  0.55110  1.0000 0.0614306298
C   C180      1.0  0.04100  0.77050  0.66950  1.0000 -0.0305964304
H   H148      1.0  0.07760  0.80900  0.65780  1.0000 0.1006581047
H   H149      1.0  0.12910  0.06450  0.20400  1.0000 0.2832562748
O   O74       1.0  0.96650  0.14340  0.20540  1.0000 -0.1287116936
O   O75       1.0  0.04790  0.21390  0.12060  1.0000 -0.3910725322
O   O76       1.0  0.96730  0.14350  0.79360  1.0000 -0.0988007859
O   O77       1.0  0.04690  0.21360  0.87870  1.0000 -0.3977274236
H   H150      1.0  0.06460  0.12910  0.20510  1.0000 0.2832562748
O   O78       1.0  0.00000  0.00000  0.88500  1.0000 -0.7813605305
H   H151      1.0  0.00000  0.00000  0.95410  1.0000 0.2648636463
O   O79       1.0  0.00000  0.00000  0.11500  1.0000 -0.5136297879
H   H152      1.0  0.00000  0.00000  0.04590  1.0000 0.3037453953
  Dy  Dy14      1.0  0.10032  0.05019  0.84078  1.0000
  Dy  Dy15      1.0  0.05013  0.94986  0.84069  1.0000
  O   O80       1.0  0.94981  0.05013  0.84078  1.0000
  O   O81       1.0  0.10027  0.05013  0.15931  1.0000
  Dy  Dy16      1.0  0.05014  0.10027  0.84069  1.0000
  O   O82       1.0  0.94987  0.89968  0.84078  1.0000
  O   O83       1.0  0.94987  0.05014  0.15931  1.0000
  Dy  Dy17      1.0  0.89973  0.94987  0.84069  1.0000
  O   O84       1.0  0.94986  0.89973  0.15931  1.0000
  Dy  Dy18      1.0  0.89968  0.94981  0.15922  1.0000
  O   O85       1.0  0.05019  0.94987  0.15922  1.0000
  O   O86       1.0  0.05013  0.10032  0.15922  1.0000
