# DDEC6 charges by PACMAN v1.1 (https://github.com/mtap-research/PACMAN-charge/)
data_MAGZON_ASR_pacman
_chemical_formula_sum              "Er11 O75 H140 S24 C192"
_cell_length_a       25.228
_cell_length_b       25.228
_cell_length_c       12.7028
_cell_angle_alpha    90
_cell_angle_beta     90
_cell_angle_gamma    120

_symmetry_space_group_name_H-M    "P 1"
_symmetry_Int_Tables_number       1

loop_
  _symmetry_equiv_pos_as_xyz
  'x, y, z'

loop_
  _atom_site_type_symbol
  _atom_site_label
  _atom_site_symmetry_multiplicity
  _atom_site_fract_x
  _atom_site_fract_y
  _atom_site_fract_z
  _atom_site_occupancy
 _atom_site_charge
Er  Er1       1.0  0.10114  0.05063  0.84923  1.0000 -0.0399917595
Er  Er2       1.0  0.09116  0.18240  0.99992  1.0000 1.488548371
O   O1        1.0  0.18040  0.14200  0.80210  1.0000 -0.1982679613
O   O2        1.0  0.16710  0.21610  0.87790  1.0000 -0.3299036297
O   O3        1.0  0.16940  0.21730  0.12480  1.0000 -0.3208035849
O   O4        1.0  0.17950  0.14250  0.19570  1.0000 -0.1982679613
O   O5        1.0  0.10720  0.10630  0.00040  1.0000 -0.8293874236
H   H1        1.0  0.14600  0.12800  0.00040  1.0000 0.1789194746
O   O6        1.0  0.06670  0.03320  0.69130  1.0000 -0.240884185
H   H2        1.0  0.07040  0.00450  0.66410  1.0000 0.157765205
H   H3        1.0  0.08640  0.06550  0.65460  1.0000 0.101895584
O   O7        1.0  0.03330  0.96600  0.68560  1.0000 -0.2518908255
H   H4        1.0  0.00440  0.93320  0.65930  1.0000 0.157765205
H   H5        1.0  0.06540  0.97820  0.64860  1.0000 0.101895584
S   S1        1.0  0.40380  0.46900  0.38480  1.0000 0.089887045
S   S2        1.0  0.40290  0.47000  0.61350  1.0000 0.101895584
S   S3        1.0  0.52980  0.59610  0.61530  1.0000 0.089887045
S   S4        1.0  0.52910  0.59630  0.38440  1.0000 0.1105703668
C   C1        1.0  0.19420  0.19420  0.81420  1.0000 0.3997170893
C   C2        1.0  0.23500  0.24800  0.74500  1.0000 0.0311120986
C   C3        1.0  0.23570  0.30220  0.75400  1.0000 -0.1480999437
H   H6        1.0  0.21250  0.30660  0.80960  1.0000 0.1193933245
C   C4        1.0  0.27270  0.35200  0.69300  1.0000 -0.0825216097
H   H7        1.0  0.27850  0.39210  0.70500  1.0000 0.089887045
C   C5        1.0  0.31100  0.34730  0.62000  1.0000 -0.0186548124
C   C6        1.0  0.31100  0.29300  0.61100  1.0000 -0.0472537344
H   H8        1.0  0.33700  0.29040  0.55900  1.0000 0.101895584
C   C7        1.0  0.27300  0.24210  0.67200  1.0000 -0.0309685319
H   H9        1.0  0.26950  0.20270  0.66260  1.0000 0.1193933245
C   C8        1.0  0.19400  0.19330  0.18500  1.0000 0.4088927595
C   C9        1.0  0.23700  0.24800  0.25200  1.0000 0.0378339985
C   C10       1.0  0.21280  0.27290  0.31900  1.0000 -0.1277590255
H   H10       1.0  0.16920  0.25530  0.32380  1.0000 0.1193933245
C   C11       1.0  0.25020  0.32270  0.38100  1.0000 -0.1982679613
H   H11       1.0  0.23220  0.33900  0.42830  1.0000 0.101895584
C   C12       1.0  0.31200  0.34680  0.37600  1.0000 -0.0399917595
C   C13       1.0  0.33600  0.32100  0.30800  1.0000 -0.0399917595
H   H12       1.0  0.37980  0.33880  0.30310  1.0000 0.0794570793
C   C14       1.0  0.29930  0.27150  0.24400  1.0000 -0.0186548124
H   H13       1.0  0.31710  0.25580  0.19550  1.0000 0.1193933245
C   C15       1.0  0.35300  0.40180  0.44400  1.0000 -0.1194147464
C   C16       1.0  0.35240  0.40200  0.55340  1.0000 -0.1123517426
C   C17       1.0  0.43410  0.51040  0.49900  1.0000 -0.1000806161
C   C18       1.0  0.59800  0.64520  0.55400  1.0000 -0.1123517426
C   C19       1.0  0.59740  0.64500  0.44300  1.0000 -0.1000806161
C   C20       1.0  0.48890  0.56710  0.50050  1.0000 -0.1000806161
C   C21       1.0  0.75200  0.76400  0.74600  1.0000 0.0311120986
C   C22       1.0  0.73400  0.70300  0.74800  1.0000 -0.0032848019
H   H14       1.0  0.75640  0.68740  0.78450  1.0000 0.1193933245
C   C23       1.0  0.68400  0.66400  0.68600  1.0000 -0.0399917595
H   H15       1.0  0.67280  0.62160  0.68050  1.0000 0.089887045
C   C24       1.0  0.65320  0.68460  0.62300  1.0000 -0.0186548124
C   C25       1.0  0.67290  0.74600  0.62300  1.0000 -0.2115968835
H   H16       1.0  0.65020  0.76150  0.58690  1.0000 0.1105703668
C   C26       1.0  0.72240  0.78550  0.68400  1.0000 -0.1194147464
H   H17       1.0  0.73310  0.82760  0.69100  1.0000 0.1105703668
C   C27       1.0  0.75200  0.76200  0.25500  1.0000 0.0378339985
C   C28       1.0  0.69790  0.76260  0.24500  1.0000 -0.1606282011
H   H18       1.0  0.69450  0.78740  0.19140  1.0000 0.1193933245
C   C29       1.0  0.64830  0.72450  0.30600  1.0000 -0.1000806161
H   H19       1.0  0.61000  0.72310  0.29520  1.0000 0.089887045
C   C30       1.0  0.65300  0.68500  0.37700  1.0000 -0.0399917595
C   C31       1.0  0.70700  0.68500  0.38700  1.0000 -0.0309685319
H   H20       1.0  0.71060  0.66070  0.44160  1.0000 0.101895584
C   C32       1.0  0.75800  0.72400  0.32600  1.0000 -0.0186548124
H   H21       1.0  0.79620  0.72560  0.33730  1.0000 0.1193933245
Er  Er3       1.0  0.05054  0.94939  0.84924  1.0000 -0.5377411219
H   H22       1.0  0.06080  0.93910  0.79230  1.0000 0.2711085407
O   O8        1.0  0.94937  0.05051  0.84923  1.0000 1.2440855829
O   O9        1.0  0.10115  0.05054  0.15076  1.0000 0.3792151837
O   O10       1.0  0.14150  0.17890  0.80390  1.0000 -0.1606282011
O   O11       1.0  0.21700  0.16760  0.87760  1.0000 -0.3387081446
O   O12       1.0  0.14130  0.17930  0.19620  1.0000 -0.2518908255
O   O13       1.0  0.21570  0.16730  0.12800  1.0000 -0.2981611388
H   H23       1.0  0.12170  0.06090  0.79240  1.0000 0.2790645985
Er  Er4       1.0  0.81760  0.90876  0.99992  1.0000 1.6509594051
O   O14       1.0  0.85800  0.03840  0.80210  1.0000 -0.2603773397
O   O15       1.0  0.78390  0.95100  0.87790  1.0000 -0.3387081446
O   O16       1.0  0.78270  0.95210  0.12480  1.0000 -0.3208035849
O   O17       1.0  0.85750  0.03700  0.19570  1.0000 -0.1911852431
O   O18       1.0  0.89370  0.00090  0.00040  1.0000 -0.8176226489
H   H24       1.0  0.87200  0.01800  0.00040  1.0000 0.1193933245
O   O19       1.0  0.96680  0.03350  0.69130  1.0000 -0.3094749304
H   H25       1.0  0.99550  0.06590  0.66410  1.0000 0.1485832585
H   H26       1.0  0.93450  0.02090  0.65460  1.0000 0.101895584
O   O20       1.0  0.03400  0.06730  0.68560  1.0000 -0.2518908255
H   H27       1.0  0.06680  0.07120  0.65930  1.0000 0.157765205
H   H28       1.0  0.02180  0.08720  0.64860  1.0000 0.101895584
S   S5        1.0  0.53100  0.93480  0.38480  1.0000 0.089887045
S   S6        1.0  0.53000  0.93290  0.61350  1.0000 0.101895584
S   S7        1.0  0.40390  0.93370  0.61530  1.0000 0.089887045
S   S8        1.0  0.40370  0.93280  0.38440  1.0000 0.1105703668
C   C33       1.0  0.80580  0.00000  0.81420  1.0000 0.4088927595
C   C34       1.0  0.75200  0.98700  0.74500  1.0000 0.0311120986
C   C35       1.0  0.69780  0.93350  0.75400  1.0000 -0.1480999437
H   H29       1.0  0.69340  0.90590  0.80960  1.0000 0.1193933245
C   C36       1.0  0.64800  0.92070  0.69300  1.0000 -0.0825216097
H   H30       1.0  0.60790  0.88640  0.70500  1.0000 0.089887045
C   C37       1.0  0.65270  0.96370  0.62000  1.0000 -0.0186548124
C   C38       1.0  0.70700  0.01800  0.61100  1.0000 -0.0472537344
H   H31       1.0  0.70960  0.04660  0.55900  1.0000 0.101895584
C   C39       1.0  0.75790  0.03090  0.67200  1.0000 -0.0309685319
H   H32       1.0  0.79730  0.06680  0.66260  1.0000 0.1193933245
C   C40       1.0  0.80670  0.00070  0.18500  1.0000 0.3997170893
C   C41       1.0  0.75200  0.98900  0.25200  1.0000 0.0311120986
C   C42       1.0  0.72710  0.93990  0.31900  1.0000 -0.1277590255
H   H33       1.0  0.74470  0.91390  0.32380  1.0000 0.1105703668
C   C43       1.0  0.67730  0.92750  0.38100  1.0000 -0.1911852431
H   H34       1.0  0.66100  0.89320  0.42830  1.0000 0.101895584
C   C44       1.0  0.65320  0.96520  0.37600  1.0000 -0.0399917595
C   C45       1.0  0.67900  0.01500  0.30800  1.0000 -0.0399917595
H   H35       1.0  0.66120  0.04100  0.30310  1.0000 0.0794570793
C   C46       1.0  0.72850  0.02780  0.24400  1.0000 -0.0186548124
H   H36       1.0  0.74420  0.06130  0.19550  1.0000 0.1193933245
C   C47       1.0  0.59820  0.95120  0.44400  1.0000 -0.1194147464
C   C48       1.0  0.59800  0.95040  0.55340  1.0000 -0.1123517426
C   C49       1.0  0.48960  0.92370  0.49900  1.0000 -0.1000806161
C   C50       1.0  0.35480  0.95280  0.55400  1.0000 -0.1123517426
C   C51       1.0  0.35500  0.95240  0.44300  1.0000 -0.1000806161
C   C52       1.0  0.43290  0.92180  0.50050  1.0000 -0.1000806161
C   C53       1.0  0.23600  0.98800  0.74600  1.0000 0.0232044719
C   C54       1.0  0.29700  0.03100  0.74800  1.0000 -0.0115565799
H   H37       1.0  0.31260  0.06900  0.78450  1.0000 0.1193933245
C   C55       1.0  0.33600  0.02000  0.68600  1.0000 -0.0399917595
H   H38       1.0  0.37840  0.05120  0.68050  1.0000 0.089887045
C   C56       1.0  0.31540  0.96860  0.62300  1.0000 -0.0186548124
C   C57       1.0  0.25400  0.92690  0.62300  1.0000 -0.2115968835
H   H39       1.0  0.23850  0.88870  0.58690  1.0000 0.1105703668
C   C58       1.0  0.21450  0.93690  0.68400  1.0000 -0.1194147464
H   H40       1.0  0.17240  0.90550  0.69100  1.0000 0.1105703668
C   C59       1.0  0.23800  0.99000  0.25500  1.0000 0.0378339985
C   C60       1.0  0.23740  0.93530  0.24500  1.0000 -0.1606282011
H   H41       1.0  0.21260  0.90710  0.19140  1.0000 0.1252510129
C   C61       1.0  0.27550  0.92380  0.30600  1.0000 -0.1000806161
H   H42       1.0  0.27690  0.88690  0.29520  1.0000 0.089887045
C   C62       1.0  0.31500  0.96800  0.37700  1.0000 -0.0399917595
C   C63       1.0  0.31500  0.02200  0.38700  1.0000 -0.0309685319
H   H43       1.0  0.33930  0.04990  0.44160  1.0000 0.101895584
C   C64       1.0  0.27600  0.03400  0.32600  1.0000 -0.0186548124
H   H44       1.0  0.27440  0.07060  0.33730  1.0000 0.1193933245
Er  Er5       1.0  0.05061  0.10115  0.84924  1.0000 -0.5377411219
H   H45       1.0  0.06090  0.12170  0.79230  1.0000 0.2711085407
O   O21       1.0  0.94949  0.89886  0.84923  1.0000 1.2462810604
O   O22       1.0  0.94946  0.05061  0.15076  1.0000 0.8826243309
O   O23       1.0  0.82110  0.96260  0.80390  1.0000 -0.1840172606
O   O24       1.0  0.83240  0.04940  0.87760  1.0000 -0.3581102046
O   O25       1.0  0.82070  0.96200  0.19620  1.0000 -0.1911852431
O   O26       1.0  0.83270  0.04840  0.12800  1.0000 -0.2981611388
H   H46       1.0  0.93910  0.06080  0.79240  1.0000 0.0679185418
Er  Er6       1.0  0.09124  0.90884  0.99992  1.0000 1.488548371
O   O27       1.0  0.96160  0.81960  0.80210  1.0000 -0.2603773397
O   O28       1.0  0.04900  0.83290  0.87790  1.0000 -0.3299036297
O   O29       1.0  0.04790  0.83060  0.12480  1.0000 -0.3208035849
O   O30       1.0  0.96300  0.82050  0.19570  1.0000 -0.2183331149
O   O31       1.0  0.99910  0.89280  0.00040  1.0000 -0.8926834734
H   H47       1.0  0.98200  0.85400  0.00040  1.0000 0.0794570793
O   O32       1.0  0.96650  0.93330  0.69130  1.0000 -0.3094749304
H   H48       1.0  0.93410  0.92960  0.66410  1.0000 0.1485832585
H   H49       1.0  0.97910  0.91360  0.65460  1.0000 0.101895584
O   O33       1.0  0.93270  0.96670  0.68560  1.0000 -0.2603773397
H   H50       1.0  0.92880  0.99560  0.65930  1.0000 0.157765205
H   H51       1.0  0.91280  0.93460  0.64860  1.0000 0.101895584
S   S9        1.0  0.06520  0.59620  0.38480  1.0000 0.089887045
S   S10       1.0  0.06710  0.59710  0.61350  1.0000 0.101895584
S   S11       1.0  0.06630  0.47020  0.61530  1.0000 0.089887045
S   S12       1.0  0.06720  0.47090  0.38440  1.0000 0.1105703668
C   C65       1.0  0.00000  0.80580  0.81420  1.0000 0.4088927595
C   C66       1.0  0.01300  0.76500  0.74500  1.0000 0.0311120986
C   C67       1.0  0.06650  0.76430  0.75400  1.0000 -0.1480999437
H   H52       1.0  0.09410  0.78750  0.80960  1.0000 0.1193933245
C   C68       1.0  0.07930  0.72730  0.69300  1.0000 -0.0825216097
H   H53       1.0  0.11360  0.72150  0.70500  1.0000 0.089887045
C   C69       1.0  0.03630  0.68900  0.62000  1.0000 -0.0186548124
C   C70       1.0  0.98200  0.68900  0.61100  1.0000 -0.0472537344
H   H54       1.0  0.95340  0.66300  0.55900  1.0000 0.101895584
C   C71       1.0  0.96910  0.72700  0.67200  1.0000 -0.0309685319
H   H55       1.0  0.93320  0.73050  0.66260  1.0000 0.1193933245
C   C72       1.0  0.99930  0.80600  0.18500  1.0000 0.4088927595
C   C73       1.0  0.01100  0.76300  0.25200  1.0000 0.0378339985
C   C74       1.0  0.06010  0.78720  0.31900  1.0000 -0.1194147464
H   H56       1.0  0.08610  0.83080  0.32380  1.0000 0.1193933245
C   C75       1.0  0.07250  0.74980  0.38100  1.0000 -0.1982679613
H   H57       1.0  0.10680  0.76780  0.42830  1.0000 0.101895584
C   C76       1.0  0.03480  0.68800  0.37600  1.0000 -0.0399917595
C   C77       1.0  0.98500  0.66400  0.30800  1.0000 -0.0399917595
H   H58       1.0  0.95900  0.62020  0.30310  1.0000 0.0794570793
C   C78       1.0  0.97220  0.70070  0.24400  1.0000 -0.0115565799
H   H59       1.0  0.93870  0.68290  0.19550  1.0000 0.1193933245
C   C79       1.0  0.04880  0.64700  0.44400  1.0000 -0.1194147464
C   C80       1.0  0.04960  0.64760  0.55340  1.0000 -0.1123517426
C   C81       1.0  0.07630  0.56590  0.49900  1.0000 -0.1000806161
C   C82       1.0  0.04720  0.40200  0.55400  1.0000 -0.1123517426
C   C83       1.0  0.04760  0.40260  0.44300  1.0000 -0.1000806161
C   C84       1.0  0.07820  0.51110  0.50050  1.0000 -0.1000806161
C   C85       1.0  0.01200  0.24800  0.74600  1.0000 0.0311120986
C   C86       1.0  0.96900  0.26600  0.74800  1.0000 -0.0032848019
H   H60       1.0  0.93100  0.24360  0.78450  1.0000 0.1193933245
C   C87       1.0  0.98000  0.31600  0.68600  1.0000 -0.0399917595
H   H61       1.0  0.94880  0.32720  0.68050  1.0000 0.089887045
C   C88       1.0  0.03140  0.34680  0.62300  1.0000 -0.0186548124
C   C89       1.0  0.07310  0.32710  0.62300  1.0000 -0.2115968835
H   H62       1.0  0.11130  0.34980  0.58690  1.0000 0.1105703668
C   C90       1.0  0.06310  0.27760  0.68400  1.0000 -0.1194147464
H   H63       1.0  0.09450  0.26690  0.69100  1.0000 0.1105703668
C   C91       1.0  0.01000  0.24800  0.25500  1.0000 0.0378339985
C   C92       1.0  0.06470  0.30210  0.24500  1.0000 -0.1606282011
H   H64       1.0  0.09290  0.30550  0.19140  1.0000 0.1252510129
C   C93       1.0  0.07620  0.35170  0.30600  1.0000 -0.1000806161
H   H65       1.0  0.11310  0.39000  0.29520  1.0000 0.089887045
C   C94       1.0  0.03200  0.34700  0.37700  1.0000 -0.0399917595
C   C95       1.0  0.97800  0.29300  0.38700  1.0000 -0.0309685319
H   H66       1.0  0.95010  0.28940  0.44160  1.0000 0.101895584
C   C96       1.0  0.96600  0.24200  0.32600  1.0000 -0.0186548124
H   H67       1.0  0.92940  0.20380  0.33730  1.0000 0.1193933245
Er  Er7       1.0  0.89885  0.94946  0.84924  1.0000 -0.6812824877
H   H68       1.0  0.87830  0.93920  0.79230  1.0000 0.250059667
O   O34       1.0  0.94939  0.89885  0.15076  1.0000 0.8826243309
O   O35       1.0  0.03740  0.85850  0.80390  1.0000 -0.1982679613
O   O36       1.0  0.95060  0.78300  0.87760  1.0000 -0.3581102046
O   O37       1.0  0.03800  0.85870  0.19620  1.0000 -0.2603773397
O   O38       1.0  0.95160  0.78430  0.12800  1.0000 -0.2981611388
H   H69       1.0  0.93920  0.87830  0.79240  1.0000 0.0679185418
Er  Er8       1.0  0.89886  0.94937  0.15077  1.0000 -0.6400944861
Er  Er9       1.0  0.90884  0.81760  0.00008  1.0000 1.2183977691
O   O39       1.0  0.81960  0.85800  0.19790  1.0000 -0.1840172606
O   O40       1.0  0.83290  0.78390  0.12210  1.0000 -0.3503836167
O   O41       1.0  0.83060  0.78270  0.87520  1.0000 -0.3299036297
O   O42       1.0  0.82050  0.85750  0.80430  1.0000 -0.1395279067
O   O43       1.0  0.89280  0.89370  0.99960  1.0000 -0.8176226489
H   H70       1.0  0.85400  0.87200  0.99960  1.0000 0.2072521625
O   O44       1.0  0.93330  0.96680  0.30870  1.0000 -0.240884185
H   H71       1.0  0.92960  0.99550  0.33590  1.0000 0.1485832585
H   H72       1.0  0.91360  0.93450  0.34540  1.0000 0.101895584
O   O45       1.0  0.96670  0.03400  0.31440  1.0000 -0.3094749304
H   H73       1.0  0.99560  0.06680  0.34070  1.0000 0.1485832585
H   H74       1.0  0.93460  0.02180  0.35140  1.0000 0.089887045
S   S13       1.0  0.59620  0.53100  0.61520  1.0000 0.089887045
S   S14       1.0  0.59710  0.53000  0.38650  1.0000 0.101895584
S   S15       1.0  0.47020  0.40390  0.38470  1.0000 0.089887045
S   S16       1.0  0.47090  0.40370  0.61560  1.0000 0.1105703668
C   C97       1.0  0.80580  0.80580  0.18580  1.0000 0.3997170893
C   C98       1.0  0.76500  0.75200  0.25500  1.0000 0.0311120986
C   C99       1.0  0.76430  0.69780  0.24600  1.0000 -0.1480999437
H   H75       1.0  0.78750  0.69340  0.19040  1.0000 0.1252510129
C   C100      1.0  0.72730  0.64800  0.30700  1.0000 -0.0825216097
H   H76       1.0  0.72150  0.60790  0.29500  1.0000 0.089887045
C   C101      1.0  0.68900  0.65270  0.38000  1.0000 -0.0186548124
C   C102      1.0  0.68900  0.70700  0.38900  1.0000 -0.0472537344
H   H77       1.0  0.66300  0.70960  0.44100  1.0000 0.101895584
C   C103      1.0  0.72700  0.75790  0.32800  1.0000 -0.0309685319
H   H78       1.0  0.73050  0.79730  0.33740  1.0000 0.1193933245
C   C104      1.0  0.80600  0.80670  0.81500  1.0000 0.3997170893
C   C105      1.0  0.76300  0.75200  0.74800  1.0000 0.0311120986
C   C106      1.0  0.78720  0.72710  0.68100  1.0000 -0.1277590255
H   H79       1.0  0.83080  0.74470  0.67620  1.0000 0.1105703668
C   C107      1.0  0.74980  0.67730  0.61900  1.0000 -0.1911852431
H   H80       1.0  0.76780  0.66100  0.57170  1.0000 0.101895584
C   C108      1.0  0.68800  0.65320  0.62400  1.0000 -0.0399917595
C   C109      1.0  0.66400  0.67900  0.69200  1.0000 -0.0399917595
H   H81       1.0  0.62020  0.66120  0.69690  1.0000 0.0794570793
C   C110      1.0  0.70070  0.72850  0.75600  1.0000 -0.0186548124
H   H82       1.0  0.68290  0.74420  0.80450  1.0000 0.1105703668
C   C111      1.0  0.64700  0.59820  0.55600  1.0000 -0.1194147464
C   C112      1.0  0.64760  0.59800  0.44660  1.0000 -0.1123517426
C   C113      1.0  0.56590  0.48960  0.50100  1.0000 -0.1000806161
C   C114      1.0  0.40200  0.35480  0.44600  1.0000 -0.1123517426
C   C115      1.0  0.40260  0.35500  0.55700  1.0000 -0.1000806161
C   C116      1.0  0.51110  0.43290  0.49950  1.0000 -0.1000806161
C   C117      1.0  0.24800  0.23600  0.25400  1.0000 0.0311120986
C   C118      1.0  0.26600  0.29700  0.25200  1.0000 -0.0032848019
H   H83       1.0  0.24360  0.31260  0.21550  1.0000 0.1193933245
C   C119      1.0  0.31600  0.33600  0.31400  1.0000 -0.0399917595
H   H84       1.0  0.32720  0.37840  0.31950  1.0000 0.089887045
C   C120      1.0  0.34680  0.31540  0.37700  1.0000 -0.0186548124
C   C121      1.0  0.32710  0.25400  0.37700  1.0000 -0.2183331149
H   H85       1.0  0.34980  0.23850  0.41310  1.0000 0.1105703668
C   C122      1.0  0.27760  0.21450  0.31600  1.0000 -0.1194147464
H   H86       1.0  0.26690  0.17240  0.30900  1.0000 0.1105703668
C   C123      1.0  0.24800  0.23800  0.74500  1.0000 0.0311120986
C   C124      1.0  0.30210  0.23740  0.75500  1.0000 -0.1606282011
H   H87       1.0  0.30550  0.21260  0.80860  1.0000 0.1193933245
C   C125      1.0  0.35170  0.27550  0.69400  1.0000 -0.1000806161
H   H88       1.0  0.39000  0.27690  0.70480  1.0000 0.089887045
C   C126      1.0  0.34700  0.31500  0.62300  1.0000 -0.0399917595
C   C127      1.0  0.29300  0.31500  0.61300  1.0000 -0.0309685319
H   H89       1.0  0.28940  0.33930  0.55840  1.0000 0.101895584
C   C128      1.0  0.24200  0.27600  0.67400  1.0000 -0.0309685319
H   H90       1.0  0.20380  0.27440  0.66270  1.0000 0.1193933245
H   H91       1.0  0.93920  0.06090  0.20770  1.0000 0.0509519977
O   O46       1.0  0.05063  0.94949  0.15077  1.0000 0.3587395874
O   O47       1.0  0.85850  0.82110  0.19610  1.0000 -0.240884185
O   O48       1.0  0.78300  0.83240  0.12240  1.0000 -0.3503836167
O   O49       1.0  0.85870  0.82070  0.80380  1.0000 -0.2689669999
O   O50       1.0  0.78430  0.83270  0.87200  1.0000 -0.2981611388
H   H92       1.0  0.87830  0.93910  0.20760  1.0000 0.2568337051
Er  Er10      1.0  0.18240  0.09124  0.00008  1.0000 1.4547586767
O   O51       1.0  0.14200  0.96160  0.19790  1.0000 -0.240884185
O   O52       1.0  0.21610  0.04900  0.12210  1.0000 -0.3503836167
O   O53       1.0  0.21730  0.04790  0.87520  1.0000 -0.3208035849
O   O54       1.0  0.14250  0.96300  0.80430  1.0000 -0.1000806161
O   O55       1.0  0.10630  0.99910  0.99960  1.0000 -0.8293874236
H   H93       1.0  0.12800  0.98200  0.99960  1.0000 0.1789194746
O   O56       1.0  0.03320  0.96650  0.30870  1.0000 -0.3208035849
H   H94       1.0  0.00450  0.93410  0.33590  1.0000 0.1485832585
H   H95       1.0  0.06550  0.97910  0.34540  1.0000 0.101895584
O   O57       1.0  0.96600  0.93270  0.31440  1.0000 -0.3094749304
H   H96       1.0  0.93320  0.92880  0.34070  1.0000 0.1485832585
H   H97       1.0  0.97820  0.91280  0.35140  1.0000 0.089887045
S   S17       1.0  0.46900  0.06520  0.61520  1.0000 0.089887045
S   S18       1.0  0.47000  0.06710  0.38650  1.0000 0.101895584
S   S19       1.0  0.59610  0.06630  0.38470  1.0000 0.089887045
S   S20       1.0  0.59630  0.06720  0.61560  1.0000 0.1105703668
C   C129      1.0  0.19420  0.00000  0.18580  1.0000 0.4088927595
C   C130      1.0  0.24800  0.01300  0.25500  1.0000 0.0378339985
C   C131      1.0  0.30220  0.06650  0.24600  1.0000 -0.1480999437
H   H98       1.0  0.30660  0.09410  0.19040  1.0000 0.1252510129
C   C132      1.0  0.35200  0.07930  0.30700  1.0000 -0.0825216097
H   H99       1.0  0.39210  0.11360  0.29500  1.0000 0.089887045
C   C133      1.0  0.34730  0.03630  0.38000  1.0000 -0.0186548124
C   C134      1.0  0.29300  0.98200  0.38900  1.0000 -0.0472537344
H   H100      1.0  0.29040  0.95340  0.44100  1.0000 0.101895584
C   C135      1.0  0.24210  0.96910  0.32800  1.0000 -0.0309685319
H   H101      1.0  0.20270  0.93320  0.33740  1.0000 0.1193933245
C   C136      1.0  0.19330  0.99930  0.81500  1.0000 0.3873918978
C   C137      1.0  0.24800  0.01100  0.74800  1.0000 0.0232044719
C   C138      1.0  0.27290  0.06010  0.68100  1.0000 -0.1277590255
H   H102      1.0  0.25530  0.08610  0.67620  1.0000 0.1105703668
C   C139      1.0  0.32270  0.07250  0.61900  1.0000 -0.1911852431
H   H103      1.0  0.33900  0.10680  0.57170  1.0000 0.101895584
C   C140      1.0  0.34680  0.03480  0.62400  1.0000 -0.0309685319
C   C141      1.0  0.32100  0.98500  0.69200  1.0000 -0.0399917595
H   H104      1.0  0.33880  0.95900  0.69690  1.0000 0.0794570793
C   C142      1.0  0.27150  0.97220  0.75600  1.0000 -0.0186548124
H   H105      1.0  0.25580  0.93870  0.80450  1.0000 0.1105703668
C   C143      1.0  0.40180  0.04880  0.55600  1.0000 -0.1194147464
C   C144      1.0  0.40200  0.04960  0.44660  1.0000 -0.1123517426
C   C145      1.0  0.51040  0.07630  0.50100  1.0000 -0.1000806161
C   C146      1.0  0.64520  0.04720  0.44600  1.0000 -0.1123517426
C   C147      1.0  0.64500  0.04760  0.55700  1.0000 -0.1000806161
C   C148      1.0  0.56710  0.07820  0.49950  1.0000 -0.1000806161
C   C149      1.0  0.76400  0.01200  0.25400  1.0000 0.0311120986
C   C150      1.0  0.70300  0.96900  0.25200  1.0000 -0.0032848019
H   H106      1.0  0.68740  0.93100  0.21550  1.0000 0.1193933245
C   C151      1.0  0.66400  0.98000  0.31400  1.0000 -0.0399917595
H   H107      1.0  0.62160  0.94880  0.31950  1.0000 0.089887045
C   C152      1.0  0.68460  0.03140  0.37700  1.0000 -0.0186548124
C   C153      1.0  0.74600  0.07310  0.37700  1.0000 -0.2183331149
H   H108      1.0  0.76150  0.11130  0.41310  1.0000 0.1105703668
C   C154      1.0  0.78550  0.06310  0.31600  1.0000 -0.1123517426
H   H109      1.0  0.82760  0.09450  0.30900  1.0000 0.1105703668
C   C155      1.0  0.76200  0.01000  0.74500  1.0000 0.0378339985
C   C156      1.0  0.76260  0.06470  0.75500  1.0000 -0.1606282011
H   H110      1.0  0.78740  0.09290  0.80860  1.0000 0.1252510129
C   C157      1.0  0.72450  0.07620  0.69400  1.0000 -0.1000806161
H   H111      1.0  0.72310  0.11310  0.70480  1.0000 0.089887045
C   C158      1.0  0.68500  0.03200  0.62300  1.0000 -0.0399917595
C   C159      1.0  0.68500  0.97800  0.61300  1.0000 -0.0309685319
H   H112      1.0  0.66070  0.95010  0.55840  1.0000 0.101895584
C   C160      1.0  0.72400  0.96600  0.67400  1.0000 -0.0186548124
H   H113      1.0  0.72560  0.92940  0.66270  1.0000 0.1193933245
H   H114      1.0  0.93910  0.87830  0.20770  1.0000 0.0509519977
O   O58       1.0  0.05051  0.10114  0.15077  1.0000 0.3587395874
O   O59       1.0  0.17890  0.03740  0.19610  1.0000 -0.240884185
O   O60       1.0  0.16760  0.95060  0.12240  1.0000 -0.3581102046
O   O61       1.0  0.17930  0.03800  0.80380  1.0000 -0.1982679613
O   O62       1.0  0.16730  0.95160  0.87200  1.0000 -0.2880412908
H   H115      1.0  0.06090  0.93920  0.20760  1.0000 0.0311120986
Er  Er11      1.0  0.90876  0.09116  0.00008  1.0000 1.2133772699
O   O63       1.0  0.03840  0.18040  0.19790  1.0000 -0.2603773397
O   O64       1.0  0.95100  0.16710  0.12210  1.0000 -0.3581102046
O   O65       1.0  0.95210  0.16940  0.87520  1.0000 -0.3299036297
O   O66       1.0  0.03700  0.17950  0.80430  1.0000 -0.1395279067
O   O67       1.0  0.00090  0.10720  0.99960  1.0000 -0.8926834734
H   H116      1.0  0.01800  0.14600  0.99960  1.0000 0.1399836866
O   O68       1.0  0.03350  0.06670  0.30870  1.0000 -0.3208035849
H   H117      1.0  0.06590  0.07040  0.33590  1.0000 0.1485832585
H   H118      1.0  0.02090  0.08640  0.34540  1.0000 0.089887045
O   O69       1.0  0.06730  0.03330  0.31440  1.0000 -0.3094749304
H   H119      1.0  0.07120  0.00440  0.34070  1.0000 0.1485832585
H   H120      1.0  0.08720  0.06540  0.35140  1.0000 0.089887045
S   S21       1.0  0.93480  0.40380  0.61520  1.0000 0.089887045
S   S22       1.0  0.93290  0.40290  0.38650  1.0000 0.101895584
S   S23       1.0  0.93370  0.52980  0.38470  1.0000 0.089887045
S   S24       1.0  0.93280  0.52910  0.61560  1.0000 0.1105703668
C   C161      1.0  0.00000  0.19420  0.18580  1.0000 0.4158661989
C   C162      1.0  0.98700  0.23500  0.25500  1.0000 0.0378339985
C   C163      1.0  0.93350  0.23570  0.24600  1.0000 -0.1480999437
H   H121      1.0  0.90590  0.21250  0.19040  1.0000 0.1252510129
C   C164      1.0  0.92070  0.27270  0.30700  1.0000 -0.0825216097
H   H122      1.0  0.88640  0.27850  0.29500  1.0000 0.089887045
C   C165      1.0  0.96370  0.31100  0.38000  1.0000 -0.0186548124
C   C166      1.0  0.01800  0.31100  0.38900  1.0000 -0.0472537344
H   H123      1.0  0.04660  0.33700  0.44100  1.0000 0.101895584
C   C167      1.0  0.03090  0.27300  0.32800  1.0000 -0.0309685319
H   H124      1.0  0.06680  0.26950  0.33740  1.0000 0.1193933245
C   C168      1.0  0.00070  0.19400  0.81500  1.0000 0.3997170893
C   C169      1.0  0.98900  0.23700  0.74800  1.0000 0.0311120986
C   C170      1.0  0.93990  0.21280  0.68100  1.0000 -0.1194147464
H   H125      1.0  0.91390  0.16920  0.67620  1.0000 0.1105703668
C   C171      1.0  0.92750  0.25020  0.61900  1.0000 -0.1911852431
H   H126      1.0  0.89320  0.23220  0.57170  1.0000 0.101895584
C   C172      1.0  0.96520  0.31200  0.62400  1.0000 -0.0309685319
C   C173      1.0  0.01500  0.33600  0.69200  1.0000 -0.0399917595
H   H127      1.0  0.04100  0.37980  0.69690  1.0000 0.0794570793
C   C174      1.0  0.02780  0.29930  0.75600  1.0000 -0.0186548124
H   H128      1.0  0.06130  0.31710  0.80450  1.0000 0.1105703668
C   C175      1.0  0.95120  0.35300  0.55600  1.0000 -0.1194147464
C   C176      1.0  0.95040  0.35240  0.44660  1.0000 -0.1123517426
C   C177      1.0  0.92370  0.43410  0.50100  1.0000 -0.1000806161
C   C178      1.0  0.95280  0.59800  0.44600  1.0000 -0.1123517426
C   C179      1.0  0.95240  0.59740  0.55700  1.0000 -0.1000806161
C   C180      1.0  0.92180  0.48890  0.49950  1.0000 -0.1000806161
C   C181      1.0  0.98800  0.75200  0.25400  1.0000 0.0311120986
C   C182      1.0  0.03100  0.73400  0.25200  1.0000 -0.0032848019
H   H129      1.0  0.06900  0.75640  0.21550  1.0000 0.1193933245
C   C183      1.0  0.02000  0.68400  0.31400  1.0000 -0.0399917595
H   H130      1.0  0.05120  0.67280  0.31950  1.0000 0.089887045
C   C184      1.0  0.96860  0.65320  0.37700  1.0000 -0.0186548124
C   C185      1.0  0.92690  0.67290  0.37700  1.0000 -0.2183331149
H   H131      1.0  0.88870  0.65020  0.41310  1.0000 0.1105703668
C   C186      1.0  0.93690  0.72240  0.31600  1.0000 -0.1123517426
H   H132      1.0  0.90550  0.73310  0.30900  1.0000 0.1105703668
C   C187      1.0  0.99000  0.75200  0.74500  1.0000 0.0378339985
C   C188      1.0  0.93530  0.69790  0.75500  1.0000 -0.1606282011
H   H133      1.0  0.90710  0.69450  0.80860  1.0000 0.1252510129
C   C189      1.0  0.92380  0.64830  0.69400  1.0000 -0.1000806161
H   H134      1.0  0.88690  0.61000  0.70480  1.0000 0.089887045
C   C190      1.0  0.96800  0.65300  0.62300  1.0000 -0.0399917595
C   C191      1.0  0.02200  0.70700  0.61300  1.0000 -0.0309685319
H   H135      1.0  0.04990  0.71060  0.55840  1.0000 0.101895584
C   C192      1.0  0.03400  0.75800  0.67400  1.0000 -0.0186548124
H   H136      1.0  0.07060  0.79620  0.66270  1.0000 0.1193933245
H   H137      1.0  0.12170  0.06080  0.20770  1.0000 0.0311120986
O   O70       1.0  0.96260  0.14150  0.19610  1.0000 -0.2603773397
O   O71       1.0  0.04940  0.21700  0.12240  1.0000 -0.3581102046
O   O72       1.0  0.96200  0.14130  0.80380  1.0000 -0.2689669999
O   O73       1.0  0.04840  0.21570  0.87200  1.0000 -0.2848328324
H   H138      1.0  0.06080  0.12170  0.20760  1.0000 0.0311120986
O   O74       1.0  0.00000  0.00000  0.89200  1.0000 -0.6196502717
H   H139      1.0  0.00000  0.00000  0.95890  1.0000 0.2860136358
O   O75       1.0  0.00000  0.00000  0.10800  1.0000 -0.8176226489
H   H140      1.0  0.00000  0.00000  0.04110  1.0000 0.23598707
  O   O76       1.0  0.10114  0.05063  0.84923  1.0000
  O   O77       1.0  0.05054  0.94939  0.84924  1.0000
  Er  Er12      1.0  0.94937  0.05051  0.84923  1.0000
  Er  Er13      1.0  0.10115  0.05054  0.15076  1.0000
  O   O78       1.0  0.05061  0.10115  0.84924  1.0000
  Er  Er14      1.0  0.94949  0.89886  0.84923  1.0000
  Er  Er15      1.0  0.94946  0.05061  0.15076  1.0000
  O   O79       1.0  0.89885  0.94946  0.84924  1.0000
  Er  Er16      1.0  0.94939  0.89885  0.15076  1.0000
  O   O80       1.0  0.89886  0.94937  0.15077  1.0000
  Er  Er17      1.0  0.05063  0.94949  0.15077  1.0000
  Er  Er18      1.0  0.05051  0.10114  0.15077  1.0000
