# DDEC6 charges by PACMAN v1.1 (https://github.com/mtap-research/PACMAN-charge/)
data_MAGZED_FSR_pacman
_chemical_formula_sum              "O82 Tb10 H152 S24 C192"
_cell_length_a       25.7946
_cell_length_b       25.7946
_cell_length_c       12.3135
_cell_angle_alpha    90
_cell_angle_beta     90
_cell_angle_gamma    120

_symmetry_space_group_name_H-M    "P 1"
_symmetry_Int_Tables_number       1

loop_
  _symmetry_equiv_pos_as_xyz
  'x, y, z'

loop_
  _atom_site_type_symbol
  _atom_site_label
  _atom_site_symmetry_multiplicity
  _atom_site_fract_x
  _atom_site_fract_y
  _atom_site_fract_z
  _atom_site_occupancy
 _atom_site_charge
O   O1        1.0  0.10052  0.05030  0.15946  1.0000 1.1424303138
Tb  Tb1       1.0  0.08970  0.17931  0.00009  1.0000 1.5401686811
O   O2        1.0  0.17760  0.14390  0.79180  1.0000 -0.2185027472
O   O3        1.0  0.16800  0.21290  0.87010  1.0000 -0.3002365645
O   O4        1.0  0.17030  0.21100  0.12840  1.0000 -0.2699175245
O   O5        1.0  0.17620  0.14320  0.20870  1.0000 -0.2513563625
O   O6        1.0  0.14380  0.17600  0.78870  1.0000 -0.1993852506
O   O7        1.0  0.10600  0.10560  0.99930  1.0000 -0.7701519943
H   H1        1.0  0.14370  0.12740  0.99940  1.0000 0.151570371
O   O8        1.0  0.06500  0.03360  0.67030  1.0000 -0.2185027472
H   H2        1.0  0.06920  0.00600  0.64190  1.0000 0.151570371
H   H3        1.0  0.08470  0.06550  0.63380  1.0000 0.1090510705
O   O9        1.0  0.03070  0.97080  0.67170  1.0000 -0.2124803058
H   H4        1.0  0.00260  0.93850  0.64570  1.0000 0.151570371
H   H5        1.0  0.06300  0.98000  0.63860  1.0000 0.1090510705
O   O10       1.0  0.14880  0.29110  0.98880  1.0000 -0.7114019013
H   H6        1.0  0.13280  0.30340  0.94320  1.0000 0.3008449583
H   H7        1.0  0.14590  0.30370  0.04940  1.0000 0.3008449583
O   O11       1.0  0.10052  0.05019  0.84062  1.0000 -0.392530582
H   H8        1.0  0.13380  0.06820  0.78520  1.0000 0.2803026222
S   S1        1.0  0.42660  0.45010  0.38210  1.0000 0.01923519
S   S2        1.0  0.42680  0.44990  0.61870  1.0000 0.01923519
S   S3        1.0  0.55000  0.57440  0.61810  1.0000 0.01923519
S   S4        1.0  0.54980  0.57470  0.38300  1.0000 0.01923519
C   C1        1.0  0.19500  0.19550  0.81380  1.0000 0.4102467009
C   C2        1.0  0.24200  0.24600  0.75000  1.0000 -0.0569246592
C   C3        1.0  0.25740  0.30400  0.77000  1.0000 -0.0380726145
H   H9        1.0  0.23420  0.30850  0.82560  1.0000 0.1164735475
C   C4        1.0  0.29970  0.35080  0.70900  1.0000 -0.1669210124
H   H10       1.0  0.30550  0.39090  0.72090  1.0000 0.0905658977
C   C5        1.0  0.32700  0.33800  0.62400  1.0000 0.0490795697
C   C6        1.0  0.31100  0.28020  0.60200  1.0000 -0.0513207251
H   H11       1.0  0.33700  0.27740  0.55000  1.0000 0.0703909617
C   C7        1.0  0.26930  0.23360  0.66300  1.0000 -0.0181698515
H   H12       1.0  0.26580  0.19430  0.65380  1.0000 0.1090510705
C   C8        1.0  0.19460  0.19400  0.18930  1.0000 0.4154027038
C   C9        1.0  0.24200  0.24500  0.25000  1.0000 -0.0893259214
C   C10       1.0  0.22560  0.27100  0.33200  1.0000 -0.0380726145
H   H13       1.0  0.18200  0.25340  0.33680  1.0000 0.1015106063
C   C11       1.0  0.26650  0.31800  0.39500  1.0000 -0.1936828411
H   H14       1.0  0.24850  0.33430  0.44220  1.0000 0.079821729
C   C12       1.0  0.32600  0.33800  0.37400  1.0000 0.0490795697
C   C13       1.0  0.34330  0.31220  0.29400  1.0000 -0.0569246592
H   H15       1.0  0.38700  0.33010  0.28950  1.0000 0.0905658977
C   C14       1.0  0.30170  0.26480  0.23200  1.0000 -0.001189094
H   H16       1.0  0.31960  0.24910  0.18290  1.0000 0.0905658977
C   C15       1.0  0.37200  0.38900  0.44300  1.0000 0.0025320676
C   C16       1.0  0.37200  0.38900  0.55500  1.0000 -0.001189094
C   C17       1.0  0.45930  0.48620  0.50100  1.0000 -0.1207254198
C   C18       1.0  0.61100  0.62900  0.55500  1.0000 -0.001189094
C   C19       1.0  0.61200  0.63000  0.44300  1.0000 -0.001189094
C   C20       1.0  0.51310  0.54170  0.50000  1.0000 -0.1280814426
C   C21       1.0  0.75400  0.75700  0.75000  1.0000 -0.0729019177
C   C22       1.0  0.73030  0.69700  0.77200  1.0000 0.0025320676
H   H17       1.0  0.75310  0.68170  0.80920  1.0000 0.1090510705
C   C23       1.0  0.68350  0.65480  0.71000  1.0000 -0.0729019177
H   H18       1.0  0.67200  0.61250  0.70480  1.0000 0.0905658977
C   C24       1.0  0.66100  0.67300  0.62600  1.0000 0.0445861974
C   C25       1.0  0.68480  0.73240  0.60200  1.0000 -0.1669210124
H   H19       1.0  0.66210  0.74800  0.56590  1.0000 0.0905658977
C   C26       1.0  0.73090  0.77380  0.66600  1.0000 -0.0380726145
H   H20       1.0  0.74160  0.81590  0.67230  1.0000 0.1015106063
C   C27       1.0  0.75000  0.75800  0.25000  1.0000 -0.0325185671
C   C28       1.0  0.69470  0.74070  0.22300  1.0000 -0.0513207251
H   H21       1.0  0.69130  0.76560  0.16900  1.0000 0.1090510705
C   C29       1.0  0.64930  0.69850  0.28600  1.0000 -0.1596085219
H   H22       1.0  0.61090  0.69720  0.27550  1.0000 0.0905658977
C   C30       1.0  0.66300  0.67500  0.37500  1.0000 0.0490795697
C   C31       1.0  0.72100  0.69300  0.40100  1.0000 -0.0513207251
H   H23       1.0  0.72430  0.66800  0.45520  1.0000 0.0703909617
C   C32       1.0  0.76720  0.73480  0.33800  1.0000 -0.0181698515
H   H24       1.0  0.80570  0.73670  0.34950  1.0000 0.1015106063
Tb  Tb2       1.0  0.94970  0.05022  0.15946  1.0000 -0.2699175245
O   O12       1.0  0.21550  0.17360  0.87340  1.0000 -0.290660686
O   O13       1.0  0.14310  0.17440  0.21300  1.0000 -0.2185027472
O   O14       1.0  0.21160  0.17180  0.12670  1.0000 -0.2699175245
H   H25       1.0  0.13380  0.06820  0.19420  1.0000 0.0490795697
Tb  Tb3       1.0  0.82069  0.91039  0.00009  1.0000 1.3422200763
O   O15       1.0  0.85610  0.03370  0.79180  1.0000 -0.2311591721
O   O16       1.0  0.78710  0.95510  0.87010  1.0000 -0.3078266002
O   O17       1.0  0.78900  0.95930  0.12840  1.0000 -0.2597555715
O   O18       1.0  0.85680  0.03300  0.20870  1.0000 -0.1802685625
O   O19       1.0  0.82400  0.96780  0.78870  1.0000 -0.2597555715
O   O20       1.0  0.89440  0.00040  0.99930  1.0000 -0.7701519943
H   H26       1.0  0.87260  0.01630  0.99940  1.0000 0.1888329619
O   O21       1.0  0.96640  0.03140  0.67030  1.0000 -0.2185027472
H   H27       1.0  0.99400  0.06320  0.64190  1.0000 0.151570371
H   H28       1.0  0.93450  0.01920  0.63380  1.0000 0.1090510705
O   O22       1.0  0.02920  0.05990  0.67170  1.0000 -0.2124803058
H   H29       1.0  0.06150  0.06410  0.64570  1.0000 0.151570371
H   H30       1.0  0.02000  0.08300  0.63860  1.0000 0.1090510705
O   O23       1.0  0.70890  0.85770  0.98880  1.0000 -0.6991688079
H   H31       1.0  0.69660  0.82940  0.94320  1.0000 0.3008449583
H   H32       1.0  0.69630  0.84220  0.04940  1.0000 0.3060587131
O   O24       1.0  0.94981  0.05033  0.84062  1.0000 -0.6084588534
H   H33       1.0  0.93180  0.06560  0.78520  1.0000 0.2884782673
S   S5        1.0  0.54990  0.97650  0.38210  1.0000 0.01923519
S   S6        1.0  0.55010  0.97690  0.61870  1.0000 0.01923519
S   S7        1.0  0.42560  0.97560  0.61810  1.0000 0.01923519
S   S8        1.0  0.42530  0.97510  0.38300  1.0000 0.01923519
C   C33       1.0  0.80450  0.99950  0.81380  1.0000 0.4269261443
C   C34       1.0  0.75400  0.99600  0.75000  1.0000 -0.0569246592
C   C35       1.0  0.69600  0.95340  0.77000  1.0000 -0.0380726145
H   H34       1.0  0.69150  0.92570  0.82560  1.0000 0.1164735475
C   C36       1.0  0.64920  0.94890  0.70900  1.0000 -0.1669210124
H   H35       1.0  0.60910  0.91460  0.72090  1.0000 0.0905658977
C   C37       1.0  0.66200  0.98900  0.62400  1.0000 0.0490795697
C   C38       1.0  0.71980  0.03080  0.60200  1.0000 -0.0513207251
H   H36       1.0  0.72260  0.05960  0.55000  1.0000 0.0703909617
C   C39       1.0  0.76640  0.03570  0.66300  1.0000 -0.0181698515
H   H37       1.0  0.80570  0.07150  0.65380  1.0000 0.1090510705
C   C40       1.0  0.80600  0.00060  0.18930  1.0000 0.4006277704
C   C41       1.0  0.75500  0.99700  0.25000  1.0000 -0.0893259214
C   C42       1.0  0.72900  0.95460  0.33200  1.0000 -0.0325185671
H   H38       1.0  0.74660  0.92860  0.33680  1.0000 0.1015106063
C   C43       1.0  0.68200  0.94850  0.39500  1.0000 -0.1993852506
H   H39       1.0  0.66570  0.91420  0.44220  1.0000 0.079821729
C   C44       1.0  0.66200  0.98800  0.37400  1.0000 0.0490795697
C   C45       1.0  0.68780  0.03110  0.29400  1.0000 -0.0569246592
H   H40       1.0  0.66990  0.05690  0.28950  1.0000 0.0905658977
C   C46       1.0  0.73520  0.03690  0.23200  1.0000 -0.001189094
H   H41       1.0  0.75090  0.07050  0.18290  1.0000 0.0905658977
C   C47       1.0  0.61100  0.98300  0.44300  1.0000 0.0025320676
C   C48       1.0  0.61100  0.98300  0.55500  1.0000 -0.001189094
C   C49       1.0  0.51380  0.97310  0.50100  1.0000 -0.1207254198
C   C50       1.0  0.37100  0.98200  0.55500  1.0000 -0.001189094
C   C51       1.0  0.37000  0.98200  0.44300  1.0000 0.0025320676
C   C52       1.0  0.45830  0.97140  0.50000  1.0000 -0.1280814426
C   C53       1.0  0.24300  0.99700  0.75000  1.0000 -0.076760403
C   C54       1.0  0.30300  0.03330  0.77200  1.0000 0.0025320676
H   H42       1.0  0.31830  0.07140  0.80920  1.0000 0.1090510705
C   C55       1.0  0.34520  0.02870  0.71000  1.0000 -0.0729019177
H   H43       1.0  0.38750  0.05950  0.70480  1.0000 0.0905658977
C   C56       1.0  0.32700  0.98800  0.62600  1.0000 0.0490795697
C   C57       1.0  0.26760  0.95240  0.60200  1.0000 -0.1669210124
H   H44       1.0  0.25200  0.91410  0.56590  1.0000 0.0905658977
C   C58       1.0  0.22620  0.95710  0.66600  1.0000 -0.0380726145
H   H45       1.0  0.18410  0.92570  0.67230  1.0000 0.1015106063
C   C59       1.0  0.24200  0.99200  0.25000  1.0000 -0.0325185671
C   C60       1.0  0.25930  0.95400  0.22300  1.0000 -0.0513207251
H   H46       1.0  0.23440  0.92570  0.16900  1.0000 0.1090510705
C   C61       1.0  0.30150  0.95080  0.28600  1.0000 -0.1596085219
H   H47       1.0  0.30280  0.91370  0.27550  1.0000 0.0905658977
C   C62       1.0  0.32500  0.98800  0.37500  1.0000 0.0490795697
C   C63       1.0  0.30700  0.02800  0.40100  1.0000 -0.0513207251
H   H48       1.0  0.33200  0.05630  0.45520  1.0000 0.0703909617
C   C64       1.0  0.26520  0.03240  0.33800  1.0000 -0.0181698515
H   H49       1.0  0.26330  0.06900  0.34950  1.0000 0.1090510705
Tb  Tb4       1.0  0.94978  0.89948  0.15946  1.0000 -0.2699175245
O   O25       1.0  0.82640  0.04190  0.87340  1.0000 -0.290660686
O   O26       1.0  0.82560  0.96870  0.21300  1.0000 -0.1993852506
O   O27       1.0  0.82820  0.03980  0.12670  1.0000 -0.2597555715
H   H50       1.0  0.93180  0.06560  0.19420  1.0000 0.2884782673
Tb  Tb5       1.0  0.08961  0.91030  0.00009  1.0000 1.5401686811
O   O28       1.0  0.96630  0.82240  0.79180  1.0000 -0.1993852506
O   O29       1.0  0.04490  0.83200  0.87010  1.0000 -0.3002365645
O   O30       1.0  0.04070  0.82970  0.12840  1.0000 -0.2699175245
O   O31       1.0  0.96700  0.82380  0.20870  1.0000 -0.1669210124
O   O32       1.0  0.03220  0.85620  0.78870  1.0000 -0.1936828411
O   O33       1.0  0.99960  0.89400  0.99930  1.0000 -0.6991688079
H   H51       1.0  0.98370  0.85630  0.99940  1.0000 0.226687082
O   O34       1.0  0.96860  0.93500  0.67030  1.0000 -0.2185027472
H   H52       1.0  0.93680  0.93080  0.64190  1.0000 0.151570371
H   H53       1.0  0.98080  0.91530  0.63380  1.0000 0.1090510705
O   O35       1.0  0.94010  0.96930  0.67170  1.0000 -0.2765818901
H   H54       1.0  0.93590  0.99740  0.64570  1.0000 0.151570371
H   H55       1.0  0.91700  0.93700  0.63860  1.0000 0.1090510705
O   O36       1.0  0.14230  0.85120  0.98880  1.0000 -0.7114019013
H   H56       1.0  0.17060  0.86720  0.94320  1.0000 0.3008449583
H   H57       1.0  0.15780  0.85410  0.04940  1.0000 0.3008449583
O   O37       1.0  0.94967  0.89948  0.84062  1.0000 -0.6084588534
H   H58       1.0  0.93440  0.86620  0.78520  1.0000 0.2884782673
S   S9        1.0  0.02350  0.57340  0.38210  1.0000 0.01923519
S   S10       1.0  0.02310  0.57320  0.61870  1.0000 0.01923519
S   S11       1.0  0.02440  0.45000  0.61810  1.0000 0.01923519
S   S12       1.0  0.02490  0.45020  0.38300  1.0000 0.01923519
C   C65       1.0  0.00050  0.80500  0.81380  1.0000 0.4102467009
C   C66       1.0  0.00400  0.75800  0.75000  1.0000 -0.0569246592
C   C67       1.0  0.04660  0.74260  0.77000  1.0000 -0.0380726145
H   H59       1.0  0.07430  0.76580  0.82560  1.0000 0.1164735475
C   C68       1.0  0.05110  0.70030  0.70900  1.0000 -0.1669210124
H   H60       1.0  0.08540  0.69450  0.72090  1.0000 0.0905658977
C   C69       1.0  0.01100  0.67300  0.62400  1.0000 0.0490795697
C   C70       1.0  0.96920  0.68900  0.60200  1.0000 -0.0513207251
H   H61       1.0  0.94040  0.66300  0.55000  1.0000 0.0703909617
C   C71       1.0  0.96430  0.73070  0.66300  1.0000 -0.0181698515
H   H62       1.0  0.92850  0.73420  0.65380  1.0000 0.1090510705
C   C72       1.0  0.99940  0.80540  0.18930  1.0000 0.4006277704
C   C73       1.0  0.00300  0.75800  0.25000  1.0000 -0.0893259214
C   C74       1.0  0.04540  0.77440  0.33200  1.0000 -0.0325185671
H   H63       1.0  0.07140  0.81800  0.33680  1.0000 0.1015106063
C   C75       1.0  0.05150  0.73350  0.39500  1.0000 -0.1993852506
H   H64       1.0  0.08580  0.75150  0.44220  1.0000 0.079821729
C   C76       1.0  0.01200  0.67400  0.37400  1.0000 0.0490795697
C   C77       1.0  0.96890  0.65670  0.29400  1.0000 -0.0569246592
H   H65       1.0  0.94310  0.61300  0.28950  1.0000 0.0905658977
C   C78       1.0  0.96310  0.69830  0.23200  1.0000 -0.001189094
H   H66       1.0  0.92950  0.68040  0.18290  1.0000 0.0905658977
C   C79       1.0  0.01700  0.62800  0.44300  1.0000 0.0025320676
C   C80       1.0  0.01700  0.62800  0.55500  1.0000 -0.001189094
C   C81       1.0  0.02690  0.54070  0.50100  1.0000 -0.1207254198
C   C82       1.0  0.01800  0.38900  0.55500  1.0000 -0.001189094
C   C83       1.0  0.01800  0.38800  0.44300  1.0000 0.0025320676
C   C84       1.0  0.02860  0.48690  0.50000  1.0000 -0.1280814426
C   C85       1.0  0.00300  0.24600  0.75000  1.0000 -0.076760403
C   C86       1.0  0.96670  0.26970  0.77200  1.0000 0.0025320676
H   H67       1.0  0.92860  0.24690  0.80920  1.0000 0.1090510705
C   C87       1.0  0.97130  0.31650  0.71000  1.0000 -0.0729019177
H   H68       1.0  0.94050  0.32800  0.70480  1.0000 0.0905658977
C   C88       1.0  0.01200  0.33900  0.62600  1.0000 0.0445861974
C   C89       1.0  0.04760  0.31520  0.60200  1.0000 -0.1669210124
H   H69       1.0  0.08590  0.33790  0.56590  1.0000 0.0905658977
C   C90       1.0  0.04290  0.26910  0.66600  1.0000 -0.0380726145
H   H70       1.0  0.07430  0.25840  0.67230  1.0000 0.1015106063
C   C91       1.0  0.00800  0.25000  0.25000  1.0000 -0.0325185671
C   C92       1.0  0.04600  0.30530  0.22300  1.0000 -0.0513207251
H   H71       1.0  0.07430  0.30870  0.16900  1.0000 0.1015106063
C   C93       1.0  0.04920  0.35070  0.28600  1.0000 -0.1596085219
H   H72       1.0  0.08630  0.38910  0.27550  1.0000 0.0905658977
C   C94       1.0  0.01200  0.33700  0.37500  1.0000 0.0490795697
C   C95       1.0  0.97200  0.27900  0.40100  1.0000 -0.0513207251
H   H73       1.0  0.94370  0.27570  0.45520  1.0000 0.0703909617
C   C96       1.0  0.96760  0.23280  0.33800  1.0000 -0.0181698515
H   H74       1.0  0.93100  0.19430  0.34950  1.0000 0.1015106063
O   O38       1.0  0.95810  0.78450  0.87340  1.0000 -0.3002365645
O   O39       1.0  0.03130  0.85690  0.21300  1.0000 -0.1802685625
O   O40       1.0  0.96020  0.78840  0.12670  1.0000 -0.2597555715
H   H75       1.0  0.93440  0.86620  0.19420  1.0000 0.2884782673
O   O41       1.0  0.89948  0.94970  0.84054  1.0000 1.1424303138
Tb  Tb6       1.0  0.91030  0.82069  0.99991  1.0000 1.5401686811
O   O42       1.0  0.82240  0.85610  0.20820  1.0000 -0.2185027472
O   O43       1.0  0.83200  0.78710  0.12990  1.0000 -0.3002365645
O   O44       1.0  0.82970  0.78900  0.87160  1.0000 -0.2699175245
O   O45       1.0  0.82380  0.85680  0.79130  1.0000 -0.2513563625
O   O46       1.0  0.85620  0.82400  0.21130  1.0000 -0.1993852506
O   O47       1.0  0.89400  0.89440  0.00070  1.0000 -0.7701519943
H   H76       1.0  0.85630  0.87260  0.00060  1.0000 0.151570371
O   O48       1.0  0.93500  0.96640  0.32970  1.0000 -0.2185027472
H   H77       1.0  0.93080  0.99400  0.35810  1.0000 0.151570371
H   H78       1.0  0.91530  0.93450  0.36620  1.0000 0.1090510705
O   O49       1.0  0.96930  0.02920  0.32830  1.0000 -0.2124803058
H   H79       1.0  0.99740  0.06150  0.35430  1.0000 0.151570371
H   H80       1.0  0.93700  0.02000  0.36140  1.0000 0.1090510705
O   O50       1.0  0.85120  0.70890  0.01120  1.0000 -0.7114019013
H   H81       1.0  0.86720  0.69660  0.05680  1.0000 0.3008449583
H   H82       1.0  0.85410  0.69630  0.95060  1.0000 0.3008449583
O   O51       1.0  0.89948  0.94981  0.15938  1.0000 -0.392530582
H   H83       1.0  0.86620  0.93180  0.21480  1.0000 0.2803026222
S   S13       1.0  0.57340  0.54990  0.61790  1.0000 0.01923519
S   S14       1.0  0.57320  0.55010  0.38130  1.0000 0.01923519
S   S15       1.0  0.45000  0.42560  0.38190  1.0000 0.01923519
S   S16       1.0  0.45020  0.42530  0.61700  1.0000 0.01923519
C   C97       1.0  0.80500  0.80450  0.18620  1.0000 0.4102467009
C   C98       1.0  0.75800  0.75400  0.25000  1.0000 -0.0569246592
C   C99       1.0  0.74260  0.69600  0.23000  1.0000 -0.0380726145
H   H84       1.0  0.76580  0.69150  0.17440  1.0000 0.1164735475
C   C100      1.0  0.70030  0.64920  0.29100  1.0000 -0.1669210124
H   H85       1.0  0.69450  0.60910  0.27910  1.0000 0.0905658977
C   C101      1.0  0.67300  0.66200  0.37600  1.0000 0.0490795697
C   C102      1.0  0.68900  0.71980  0.39800  1.0000 -0.0513207251
H   H86       1.0  0.66300  0.72260  0.45000  1.0000 0.0703909617
C   C103      1.0  0.73070  0.76640  0.33700  1.0000 -0.0181698515
H   H87       1.0  0.73420  0.80570  0.34620  1.0000 0.1090510705
C   C104      1.0  0.80540  0.80600  0.81070  1.0000 0.4154027038
C   C105      1.0  0.75800  0.75500  0.75000  1.0000 -0.0893259214
C   C106      1.0  0.77440  0.72900  0.66800  1.0000 -0.0380726145
H   H88       1.0  0.81800  0.74660  0.66320  1.0000 0.1015106063
C   C107      1.0  0.73350  0.68200  0.60500  1.0000 -0.1936828411
H   H89       1.0  0.75150  0.66570  0.55780  1.0000 0.079821729
C   C108      1.0  0.67400  0.66200  0.62600  1.0000 0.0490795697
C   C109      1.0  0.65670  0.68780  0.70600  1.0000 -0.0569246592
H   H90       1.0  0.61300  0.66990  0.71050  1.0000 0.0905658977
C   C110      1.0  0.69830  0.73520  0.76800  1.0000 -0.001189094
H   H91       1.0  0.68040  0.75090  0.81710  1.0000 0.0905658977
C   C111      1.0  0.62800  0.61100  0.55700  1.0000 0.0025320676
C   C112      1.0  0.62800  0.61100  0.44500  1.0000 0.0025320676
C   C113      1.0  0.54070  0.51380  0.49900  1.0000 -0.1207254198
C   C114      1.0  0.38900  0.37100  0.44500  1.0000 -0.001189094
C   C115      1.0  0.38800  0.37000  0.55700  1.0000 0.0025320676
C   C116      1.0  0.48690  0.45830  0.50000  1.0000 -0.1280814426
C   C117      1.0  0.24600  0.24300  0.25000  1.0000 -0.0729019177
C   C118      1.0  0.26970  0.30300  0.22800  1.0000 0.0025320676
H   H92       1.0  0.24690  0.31830  0.19080  1.0000 0.1090510705
C   C119      1.0  0.31650  0.34520  0.29000  1.0000 -0.0729019177
H   H93       1.0  0.32800  0.38750  0.29520  1.0000 0.0905658977
C   C120      1.0  0.33900  0.32700  0.37400  1.0000 0.0445861974
C   C121      1.0  0.31520  0.26760  0.39800  1.0000 -0.1669210124
H   H94       1.0  0.33790  0.25200  0.43410  1.0000 0.0905658977
C   C122      1.0  0.26910  0.22620  0.33400  1.0000 -0.0380726145
H   H95       1.0  0.25840  0.18410  0.32770  1.0000 0.1015106063
C   C123      1.0  0.25000  0.24200  0.75000  1.0000 -0.0325185671
C   C124      1.0  0.30530  0.25930  0.77700  1.0000 -0.0513207251
H   H96       1.0  0.30870  0.23440  0.83100  1.0000 0.1090510705
C   C125      1.0  0.35070  0.30150  0.71400  1.0000 -0.1596085219
H   H97       1.0  0.38910  0.30280  0.72450  1.0000 0.0905658977
C   C126      1.0  0.33700  0.32500  0.62500  1.0000 0.0490795697
C   C127      1.0  0.27900  0.30700  0.59900  1.0000 -0.0513207251
H   H98       1.0  0.27570  0.33200  0.54480  1.0000 0.0703909617
C   C128      1.0  0.23280  0.26520  0.66200  1.0000 -0.0181698515
H   H99       1.0  0.19430  0.26330  0.65050  1.0000 0.1015106063
Tb  Tb7       1.0  0.05030  0.94978  0.84054  1.0000 -0.2699175245
O   O52       1.0  0.78450  0.82640  0.12660  1.0000 -0.290660686
O   O53       1.0  0.85690  0.82560  0.78700  1.0000 -0.2185027472
O   O54       1.0  0.78840  0.82820  0.87330  1.0000 -0.2699175245
H   H100      1.0  0.86620  0.93180  0.80580  1.0000 0.0490795697
Tb  Tb8       1.0  0.17931  0.08961  0.99991  1.0000 1.3463734471
O   O55       1.0  0.14390  0.96630  0.20820  1.0000 -0.2311591721
O   O56       1.0  0.21290  0.04490  0.12990  1.0000 -0.3078266002
O   O57       1.0  0.21100  0.04070  0.87160  1.0000 -0.2597555715
O   O58       1.0  0.14320  0.96700  0.79130  1.0000 -0.1802685625
O   O59       1.0  0.17600  0.03220  0.21130  1.0000 -0.2597555715
O   O60       1.0  0.10560  0.99960  0.00070  1.0000 -0.7701519943
H   H101      1.0  0.12740  0.98370  0.00060  1.0000 0.1888329619
O   O61       1.0  0.03360  0.96860  0.32970  1.0000 -0.2185027472
H   H102      1.0  0.00600  0.93680  0.35810  1.0000 0.151570371
H   H103      1.0  0.06550  0.98080  0.36620  1.0000 0.1090510705
O   O62       1.0  0.97080  0.94010  0.32830  1.0000 -0.2124803058
H   H104      1.0  0.93850  0.93590  0.35430  1.0000 0.151570371
H   H105      1.0  0.98000  0.91700  0.36140  1.0000 0.1090510705
O   O63       1.0  0.29110  0.14230  0.01120  1.0000 -0.6991688079
H   H106      1.0  0.30340  0.17060  0.05680  1.0000 0.3008449583
H   H107      1.0  0.30370  0.15780  0.95060  1.0000 0.3060587131
O   O64       1.0  0.05019  0.94967  0.15938  1.0000 -0.6084588534
H   H108      1.0  0.06820  0.93440  0.21480  1.0000 0.2884782673
S   S17       1.0  0.45010  0.02350  0.61790  1.0000 0.01923519
S   S18       1.0  0.44990  0.02310  0.38130  1.0000 0.01923519
S   S19       1.0  0.57440  0.02440  0.38190  1.0000 0.01923519
S   S20       1.0  0.57470  0.02490  0.61700  1.0000 0.01923519
C   C129      1.0  0.19550  0.00050  0.18620  1.0000 0.4269261443
C   C130      1.0  0.24600  0.00400  0.25000  1.0000 -0.0569246592
C   C131      1.0  0.30400  0.04660  0.23000  1.0000 -0.0380726145
H   H109      1.0  0.30850  0.07430  0.17440  1.0000 0.1164735475
C   C132      1.0  0.35080  0.05110  0.29100  1.0000 -0.1669210124
H   H110      1.0  0.39090  0.08540  0.27910  1.0000 0.0905658977
C   C133      1.0  0.33800  0.01100  0.37600  1.0000 0.0490795697
C   C134      1.0  0.28020  0.96920  0.39800  1.0000 -0.0513207251
H   H111      1.0  0.27740  0.94040  0.45000  1.0000 0.0703909617
C   C135      1.0  0.23360  0.96430  0.33700  1.0000 -0.0181698515
H   H112      1.0  0.19430  0.92850  0.34620  1.0000 0.1090510705
C   C136      1.0  0.19400  0.99940  0.81070  1.0000 0.4006277704
C   C137      1.0  0.24500  0.00300  0.75000  1.0000 -0.0893259214
C   C138      1.0  0.27100  0.04540  0.66800  1.0000 -0.0325185671
H   H113      1.0  0.25340  0.07140  0.66320  1.0000 0.1015106063
C   C139      1.0  0.31800  0.05150  0.60500  1.0000 -0.1936828411
H   H114      1.0  0.33430  0.08580  0.55780  1.0000 0.079821729
C   C140      1.0  0.33800  0.01200  0.62600  1.0000 0.0490795697
C   C141      1.0  0.31220  0.96890  0.70600  1.0000 -0.0569246592
H   H115      1.0  0.33010  0.94310  0.71050  1.0000 0.0905658977
C   C142      1.0  0.26480  0.96310  0.76800  1.0000 -0.001189094
H   H116      1.0  0.24910  0.92950  0.81710  1.0000 0.0905658977
C   C143      1.0  0.38900  0.01700  0.55700  1.0000 0.0025320676
C   C144      1.0  0.38900  0.01700  0.44500  1.0000 -0.001189094
C   C145      1.0  0.48620  0.02690  0.49900  1.0000 -0.1207254198
C   C146      1.0  0.62900  0.01800  0.44500  1.0000 -0.001189094
C   C147      1.0  0.63000  0.01800  0.55700  1.0000 0.0025320676
C   C148      1.0  0.54170  0.02860  0.50000  1.0000 -0.1280814426
C   C149      1.0  0.75700  0.00300  0.25000  1.0000 -0.076760403
C   C150      1.0  0.69700  0.96670  0.22800  1.0000 0.0025320676
H   H117      1.0  0.68170  0.92860  0.19080  1.0000 0.1090510705
C   C151      1.0  0.65480  0.97130  0.29000  1.0000 -0.0729019177
H   H118      1.0  0.61250  0.94050  0.29520  1.0000 0.0905658977
C   C152      1.0  0.67300  0.01200  0.37400  1.0000 0.0445861974
C   C153      1.0  0.73240  0.04760  0.39800  1.0000 -0.1596085219
H   H119      1.0  0.74800  0.08590  0.43410  1.0000 0.0905658977
C   C154      1.0  0.77380  0.04290  0.33400  1.0000 -0.0380726145
H   H120      1.0  0.81590  0.07430  0.32770  1.0000 0.1015106063
C   C155      1.0  0.75800  0.00800  0.75000  1.0000 -0.0325185671
C   C156      1.0  0.74070  0.04600  0.77700  1.0000 -0.0513207251
H   H121      1.0  0.76560  0.07430  0.83100  1.0000 0.1090510705
C   C157      1.0  0.69850  0.04920  0.71400  1.0000 -0.1596085219
H   H122      1.0  0.69720  0.08630  0.72450  1.0000 0.0905658977
C   C158      1.0  0.67500  0.01200  0.62500  1.0000 0.0490795697
C   C159      1.0  0.69300  0.97200  0.59900  1.0000 -0.0569246592
H   H123      1.0  0.66800  0.94370  0.54480  1.0000 0.0703909617
C   C160      1.0  0.73480  0.96760  0.66200  1.0000 -0.0181698515
H   H124      1.0  0.73670  0.93100  0.65050  1.0000 0.1090510705
Tb  Tb9       1.0  0.05022  0.10052  0.84054  1.0000 -0.2699175245
O   O65       1.0  0.17360  0.95810  0.12660  1.0000 -0.290660686
O   O66       1.0  0.17440  0.03130  0.78700  1.0000 -0.1993852506
O   O67       1.0  0.17180  0.96020  0.87330  1.0000 -0.2597555715
H   H125      1.0  0.06820  0.93440  0.80580  1.0000 0.2884782673
Tb  Tb10      1.0  0.91039  0.08970  0.99991  1.0000 1.5401686811
O   O68       1.0  0.03370  0.17760  0.20820  1.0000 -0.1993852506
O   O69       1.0  0.95510  0.16800  0.12990  1.0000 -0.3002365645
O   O70       1.0  0.95930  0.17030  0.87160  1.0000 -0.2699175245
O   O71       1.0  0.03300  0.17620  0.79130  1.0000 -0.1669210124
O   O72       1.0  0.96780  0.14380  0.21130  1.0000 -0.1936828411
O   O73       1.0  0.00040  0.10600  0.00070  1.0000 -0.6991688079
H   H126      1.0  0.01630  0.14370  0.00060  1.0000 0.226687082
O   O74       1.0  0.03140  0.06500  0.32970  1.0000 -0.2185027472
H   H127      1.0  0.06320  0.06920  0.35810  1.0000 0.151570371
H   H128      1.0  0.01920  0.08470  0.36620  1.0000 0.1090510705
O   O75       1.0  0.05990  0.03070  0.32830  1.0000 -0.2765818901
H   H129      1.0  0.06410  0.00260  0.35430  1.0000 0.151570371
H   H130      1.0  0.08300  0.06300  0.36140  1.0000 0.1090510705
O   O76       1.0  0.85770  0.14880  0.01120  1.0000 -0.7114019013
H   H131      1.0  0.82940  0.13280  0.05680  1.0000 0.3008449583
H   H132      1.0  0.84220  0.14590  0.95060  1.0000 0.3008449583
O   O77       1.0  0.05033  0.10052  0.15938  1.0000 -0.6084588534
H   H133      1.0  0.06560  0.13380  0.21480  1.0000 0.2884782673
S   S21       1.0  0.97650  0.42660  0.61790  1.0000 0.01923519
S   S22       1.0  0.97690  0.42680  0.38130  1.0000 0.01923519
S   S23       1.0  0.97560  0.55000  0.38190  1.0000 0.01923519
S   S24       1.0  0.97510  0.54980  0.61700  1.0000 0.01923519
C   C161      1.0  0.99950  0.19500  0.18620  1.0000 0.4102467009
C   C162      1.0  0.99600  0.24200  0.25000  1.0000 -0.0569246592
C   C163      1.0  0.95340  0.25740  0.23000  1.0000 -0.0380726145
H   H134      1.0  0.92570  0.23420  0.17440  1.0000 0.1090510705
C   C164      1.0  0.94890  0.29970  0.29100  1.0000 -0.1669210124
H   H135      1.0  0.91460  0.30550  0.27910  1.0000 0.0905658977
C   C165      1.0  0.98900  0.32700  0.37600  1.0000 0.0490795697
C   C166      1.0  0.03080  0.31100  0.39800  1.0000 -0.0513207251
H   H136      1.0  0.05960  0.33700  0.45000  1.0000 0.0703909617
C   C167      1.0  0.03570  0.26930  0.33700  1.0000 -0.0181698515
H   H137      1.0  0.07150  0.26580  0.34620  1.0000 0.1015106063
C   C168      1.0  0.00060  0.19460  0.81070  1.0000 0.4006277704
C   C169      1.0  0.99700  0.24200  0.75000  1.0000 -0.0893259214
C   C170      1.0  0.95460  0.22560  0.66800  1.0000 -0.0325185671
H   H138      1.0  0.92860  0.18200  0.66320  1.0000 0.1015106063
C   C171      1.0  0.94850  0.26650  0.60500  1.0000 -0.1993852506
H   H139      1.0  0.91420  0.24850  0.55780  1.0000 0.079821729
C   C172      1.0  0.98800  0.32600  0.62600  1.0000 0.0490795697
C   C173      1.0  0.03110  0.34330  0.70600  1.0000 -0.0569246592
H   H140      1.0  0.05690  0.38700  0.71050  1.0000 0.0905658977
C   C174      1.0  0.03690  0.30170  0.76800  1.0000 -0.001189094
H   H141      1.0  0.07050  0.31960  0.81710  1.0000 0.0905658977
C   C175      1.0  0.98300  0.37200  0.55700  1.0000 0.0025320676
C   C176      1.0  0.98300  0.37200  0.44500  1.0000 -0.001189094
C   C177      1.0  0.97310  0.45930  0.49900  1.0000 -0.1207254198
C   C178      1.0  0.98200  0.61100  0.44500  1.0000 0.0025320676
C   C179      1.0  0.98200  0.61200  0.55700  1.0000 0.0025320676
C   C180      1.0  0.97140  0.51310  0.50000  1.0000 -0.1280814426
C   C181      1.0  0.99700  0.75400  0.25000  1.0000 -0.076760403
C   C182      1.0  0.03330  0.73030  0.22800  1.0000 0.0025320676
H   H142      1.0  0.07140  0.75310  0.19080  1.0000 0.1090510705
C   C183      1.0  0.02870  0.68350  0.29000  1.0000 -0.0729019177
H   H143      1.0  0.05950  0.67200  0.29520  1.0000 0.0905658977
C   C184      1.0  0.98800  0.66100  0.37400  1.0000 0.0490795697
C   C185      1.0  0.95240  0.68480  0.39800  1.0000 -0.1669210124
H   H144      1.0  0.91410  0.66210  0.43410  1.0000 0.0905658977
C   C186      1.0  0.95710  0.73090  0.33400  1.0000 -0.0380726145
H   H145      1.0  0.92570  0.74160  0.32770  1.0000 0.1015106063
C   C187      1.0  0.99200  0.75000  0.75000  1.0000 -0.0325185671
C   C188      1.0  0.95400  0.69470  0.77700  1.0000 -0.0513207251
H   H146      1.0  0.92570  0.69130  0.83100  1.0000 0.1090510705
C   C189      1.0  0.95080  0.64930  0.71400  1.0000 -0.1596085219
H   H147      1.0  0.91370  0.61090  0.72450  1.0000 0.0905658977
C   C190      1.0  0.98800  0.66300  0.62500  1.0000 0.0490795697
C   C191      1.0  0.02800  0.72100  0.59900  1.0000 -0.0513207251
H   H148      1.0  0.05630  0.72430  0.54480  1.0000 0.0703909617
C   C192      1.0  0.03240  0.76720  0.66200  1.0000 -0.0181698515
H   H149      1.0  0.06900  0.80570  0.65050  1.0000 0.1015106063
O   O78       1.0  0.04190  0.21550  0.12660  1.0000 -0.3002365645
O   O79       1.0  0.96870  0.14310  0.78700  1.0000 -0.1802685625
O   O80       1.0  0.03980  0.21160  0.87330  1.0000 -0.2597555715
H   H150      1.0  0.06560  0.13380  0.80580  1.0000 0.2884782673
O   O81       1.0  0.00000  0.00000  0.88280  1.0000 -0.4984735168
H   H151      1.0  0.00000  0.00000  0.95190  1.0000 0.3008449583
O   O82       1.0  0.00000  0.00000  0.11720  1.0000 -0.4984735168
H   H152      1.0  0.00000  0.00000  0.04810  1.0000 0.3008449583
  Tb  Tb11      1.0  0.10052  0.05030  0.15946  1.0000
  O   O83       1.0  0.94970  0.05022  0.15946  1.0000
  O   O84       1.0  0.94978  0.89948  0.15946  1.0000
  Tb  Tb12      1.0  0.89948  0.94970  0.84054  1.0000
  O   O85       1.0  0.05030  0.94978  0.84054  1.0000
  O   O86       1.0  0.05022  0.10052  0.84054  1.0000
