# DDEC6 charges by PACMAN v1.1 (https://github.com/mtap-research/PACMAN-charge/)
data_MAHCIK_ASR_pacman
_symmetry_space_group_name_H-M   'P 1'
_cell_length_a   29.09740000
_cell_length_b   29.09740000
_cell_length_c   29.09740000
_cell_angle_alpha   109.47100000
_cell_angle_beta   109.47100000
_cell_angle_gamma   109.47100000
_symmetry_Int_Tables_number   1
_chemical_formula_structural   Zn11H60C126(N3O22)2
_chemical_formula_sum   'Zn22 H120 C252 N12 O88'
_cell_volume   18964.62282735
_cell_formula_units_Z   2
loop_
 _symmetry_equiv_pos_site_id
 _symmetry_equiv_pos_as_xyz
  1  'x, y, z'
loop_
 _atom_site_type_symbol
 _atom_site_label
 _atom_site_symmetry_multiplicity
 _atom_site_fract_x
 _atom_site_fract_y
 _atom_site_fract_z
 _atom_site_occupancy
 _atom_site_charge
Zn  Zn1  1  0.00000000  0.00000000  0.44682000  1.0 0.9121837898
Zn  Zn2  1  0.55318000  0.55318000  0.55318000  1.0 0.9121837898
Zn  Zn3  1  0.00000000  0.44682000  0.00000000  1.0 0.9121837898
Zn  Zn4  1  0.44682000  0.00000000  0.00000000  1.0 0.9121837898
Zn  Zn5  1  0.96880000  0.92365000  0.49869000  1.0 0.9121837898
Zn  Zn6  1  0.42496000  0.47011000  0.50131000  1.0 0.9121837898
Zn  Zn7  1  0.03120000  0.52989000  0.95485000  1.0 0.9121837898
Zn  Zn8  1  0.49869000  0.96880000  0.92365000  1.0 0.9121837898
Zn  Zn9  1  0.57504000  0.07635000  0.04515000  1.0 0.9121837898
Zn  Zn10  1  0.50131000  0.42496000  0.47011000  1.0 0.9121837898
Zn  Zn11  1  0.04515000  0.57504000  0.07635000  1.0 0.9121837898
Zn  Zn12  1  0.95485000  0.03120000  0.52989000  1.0 0.9121837898
Zn  Zn13  1  0.92365000  0.49869000  0.96880000  1.0 0.9121837898
Zn  Zn14  1  0.47011000  0.50131000  0.42496000  1.0 0.9121837898
Zn  Zn15  1  0.52989000  0.95485000  0.03120000  1.0 0.9121837898
Zn  Zn16  1  0.07635000  0.04515000  0.57504000  1.0 0.9121837898
Zn  Zn17  1  0.50000000  0.54384000  0.04384000  1.0 0.9351380862
Zn  Zn18  1  0.50000000  0.45616000  0.95616000  1.0 0.9347342051
Zn  Zn19  1  0.04384000  0.50000000  0.54384000  1.0 0.9347342051
Zn  Zn20  1  0.95616000  0.50000000  0.45616000  1.0 0.9351380862
Zn  Zn21  1  0.54384000  0.04384000  0.50000000  1.0 0.9347342051
Zn  Zn22  1  0.45616000  0.95616000  0.50000000  1.0 0.9351380862
H  H1  1  0.88340000  0.69960000  0.28880000  1.0 0.1402768688
H  H2  1  0.41080000  0.59460000  0.71120000  1.0 0.1402768688
H  H3  1  0.11660000  0.40540000  0.81620000  1.0 0.1402768688
H  H4  1  0.28880000  0.88340000  0.69960000  1.0 0.1402768688
H  H5  1  0.58920000  0.30040000  0.18380000  1.0 0.1402768688
H  H6  1  0.71120000  0.41080000  0.59460000  1.0 0.1402768688
H  H7  1  0.18380000  0.58920000  0.30040000  1.0 0.1402768688
H  H8  1  0.81620000  0.11660000  0.40540000  1.0 0.1402768688
H  H9  1  0.69960000  0.28880000  0.88340000  1.0 0.1402768688
H  H10  1  0.59460000  0.71120000  0.41080000  1.0 0.1402768688
H  H11  1  0.40540000  0.81620000  0.11660000  1.0 0.1402768688
H  H12  1  0.30040000  0.18380000  0.58920000  1.0 0.1402768688
H  H13  1  0.92520000  0.78790000  0.36630000  1.0 0.1227963781
H  H14  1  0.42160000  0.55890000  0.63370000  1.0 0.1227963781
H  H15  1  0.07480000  0.44110000  0.86270000  1.0 0.1227963781
H  H16  1  0.36630000  0.92520000  0.78790000  1.0 0.1227963781
H  H17  1  0.57840000  0.21210000  0.13730000  1.0 0.1227963781
H  H18  1  0.63370000  0.42160000  0.55890000  1.0 0.1227963781
H  H19  1  0.13730000  0.57840000  0.21210000  1.0 0.1227963781
H  H20  1  0.86270000  0.07480000  0.44110000  1.0 0.1227963781
H  H21  1  0.78790000  0.36630000  0.92520000  1.0 0.1227963781
H  H22  1  0.55890000  0.63370000  0.42160000  1.0 0.1227963781
H  H23  1  0.44110000  0.86270000  0.07480000  1.0 0.1227963781
H  H24  1  0.21210000  0.13730000  0.57840000  1.0 0.1227963781
H  H25  1  0.92080000  0.85650000  0.26690000  1.0 0.1283382633
H  H26  1  0.58960000  0.65390000  0.73310000  1.0 0.1283382633
H  H27  1  0.07920000  0.34610000  0.93570000  1.0 0.1283382633
H  H28  1  0.26690000  0.92080000  0.85650000  1.0 0.1283382633
H  H29  1  0.41040000  0.14350000  0.06430000  1.0 0.1283382633
H  H30  1  0.73310000  0.58960000  0.65390000  1.0 0.1283382633
H  H31  1  0.06430000  0.41040000  0.14350000  1.0 0.1283382633
H  H32  1  0.93570000  0.07920000  0.34610000  1.0 0.1283382633
H  H33  1  0.85650000  0.26690000  0.92080000  1.0 0.1283382633
H  H34  1  0.65390000  0.73310000  0.58960000  1.0 0.1283382633
H  H35  1  0.34610000  0.93570000  0.07920000  1.0 0.1283382633
H  H36  1  0.14350000  0.06430000  0.41040000  1.0 0.1283382633
H  H37  1  0.87900000  0.76830000  0.18950000  1.0 0.1283382633
H  H38  1  0.57880000  0.68950000  0.81050000  1.0 0.1283382633
H  H39  1  0.12100000  0.31050000  0.88930000  1.0 0.1283382633
H  H40  1  0.18950000  0.87900000  0.76830000  1.0 0.1283382633
H  H41  1  0.42120000  0.23170000  0.11070000  1.0 0.1283382633
H  H42  1  0.81050000  0.57880000  0.68950000  1.0 0.1283382633
H  H43  1  0.11070000  0.42120000  0.23170000  1.0 0.1283382633
H  H44  1  0.88930000  0.12100000  0.31050000  1.0 0.1283382633
H  H45  1  0.76830000  0.18950000  0.87900000  1.0 0.1283382633
H  H46  1  0.68950000  0.81050000  0.57880000  1.0 0.1283382633
H  H47  1  0.31050000  0.88930000  0.12100000  1.0 0.1283382633
H  H48  1  0.23170000  0.11070000  0.42120000  1.0 0.1283382633
H  H49  1  0.67530000  0.63790000  0.15700000  1.0 0.1227963781
H  H50  1  0.48090000  0.51830000  0.84300000  1.0 0.1227963781
H  H51  1  0.32470000  0.48170000  0.96260000  1.0 0.1227963781
H  H52  1  0.15700000  0.67530000  0.63790000  1.0 0.1227963781
H  H53  1  0.51910000  0.36210000  0.03740000  1.0 0.1227963781
H  H54  1  0.84300000  0.48090000  0.51830000  1.0 0.1227963781
H  H55  1  0.03740000  0.51910000  0.36210000  1.0 0.1227963781
H  H56  1  0.96260000  0.32470000  0.48170000  1.0 0.1227963781
H  H57  1  0.63790000  0.15700000  0.67530000  1.0 0.1227963781
H  H58  1  0.51830000  0.84300000  0.48090000  1.0 0.1227963781
H  H59  1  0.48170000  0.96260000  0.32470000  1.0 0.1227963781
H  H60  1  0.36210000  0.03740000  0.51910000  1.0 0.1227963781
H  H61  1  0.77120000  0.69770000  0.19910000  1.0 0.1283382633
H  H62  1  0.49860000  0.57210000  0.80090000  1.0 0.1283382633
H  H63  1  0.22880000  0.42790000  0.92650000  1.0 0.1283382633
H  H64  1  0.19910000  0.77120000  0.69770000  1.0 0.1283382633
H  H65  1  0.50140000  0.30230000  0.07350000  1.0 0.1283382633
H  H66  1  0.80090000  0.49860000  0.57210000  1.0 0.1283382633
H  H67  1  0.07350000  0.50140000  0.30230000  1.0 0.1283382633
H  H68  1  0.92650000  0.22880000  0.42790000  1.0 0.1283382633
H  H69  1  0.69770000  0.19910000  0.77120000  1.0 0.1283382633
H  H70  1  0.57210000  0.80090000  0.49860000  1.0 0.1283382633
H  H71  1  0.42790000  0.92650000  0.22880000  1.0 0.1283382633
H  H72  1  0.30230000  0.07350000  0.50140000  1.0 0.1283382633
H  H73  1  0.67560000  0.54000000  0.02200000  1.0 0.1461038487
H  H74  1  0.51800000  0.65360000  0.97800000  1.0 0.1461038487
H  H75  1  0.32440000  0.34640000  0.86440000  1.0 0.1461038487
H  H76  1  0.02200000  0.67560000  0.54000000  1.0 0.1461038487
H  H77  1  0.48200000  0.46000000  0.13560000  1.0 0.1461038487
H  H78  1  0.97800000  0.51800000  0.65360000  1.0 0.1461038487
H  H79  1  0.13560000  0.48200000  0.46000000  1.0 0.1461038487
H  H80  1  0.86440000  0.32440000  0.34640000  1.0 0.1461038487
H  H81  1  0.54000000  0.02200000  0.67560000  1.0 0.1461038487
H  H82  1  0.65360000  0.97800000  0.51800000  1.0 0.1461038487
H  H83  1  0.34640000  0.86440000  0.32440000  1.0 0.1461038487
H  H84  1  0.46000000  0.13560000  0.48200000  1.0 0.1461038487
H  H85  1  0.85090000  0.55260000  0.04270000  1.0 0.1402768688
H  H86  1  0.50990000  0.80820000  0.95730000  1.0 0.1461038487
H  H87  1  0.14910000  0.19180000  0.70170000  1.0 0.1461038487
H  H88  1  0.04270000  0.85090000  0.55260000  1.0 0.1461038487
H  H89  1  0.49010000  0.44740000  0.29830000  1.0 0.1402768688
H  H90  1  0.95730000  0.50990000  0.80820000  1.0 0.1461038487
H  H91  1  0.29830000  0.49010000  0.44740000  1.0 0.1402768688
H  H92  1  0.70170000  0.14910000  0.19180000  1.0 0.1402768688
H  H93  1  0.55260000  0.04270000  0.85090000  1.0 0.1461038487
H  H94  1  0.80820000  0.95730000  0.50990000  1.0 0.1461038487
H  H95  1  0.19180000  0.70170000  0.14910000  1.0 0.1402768688
H  H96  1  0.44740000  0.29830000  0.49010000  1.0 0.1402768688
H  H97  1  0.95290000  0.71870000  0.21400000  1.0 0.1283382633
H  H98  1  0.50470000  0.73890000  0.78600000  1.0 0.1227963781
H  H99  1  0.04710000  0.26110000  0.76580000  1.0 0.1227963781
H  H100  1  0.21400000  0.95290000  0.71870000  1.0 0.1227963781
H  H101  1  0.49530000  0.28130000  0.23420000  1.0 0.1227963781
H  H102  1  0.78600000  0.50470000  0.73890000  1.0 0.1283382633
H  H103  1  0.23420000  0.49530000  0.28130000  1.0 0.1227963781
H  H104  1  0.76580000  0.04710000  0.26110000  1.0 0.1283382633
H  H105  1  0.71870000  0.21400000  0.95290000  1.0 0.1283382633
H  H106  1  0.73890000  0.78600000  0.50470000  1.0 0.1283382633
H  H107  1  0.26110000  0.76580000  0.04710000  1.0 0.1227963781
H  H108  1  0.28130000  0.23420000  0.49530000  1.0 0.1227963781
H  H109  1  0.99950000  0.68180000  0.17610000  1.0 0.1283382633
H  H110  1  0.50570000  0.82340000  0.82390000  1.0 0.1283382633
H  H111  1  0.00050000  0.17660000  0.68230000  1.0 0.1283382633
H  H112  1  0.17610000  0.99950000  0.68180000  1.0 0.1283382633
H  H113  1  0.49430000  0.31820000  0.31770000  1.0 0.1283382633
H  H114  1  0.82390000  0.50570000  0.82340000  1.0 0.1283382633
H  H115  1  0.31770000  0.49430000  0.31820000  1.0 0.1283382633
H  H116  1  0.68230000  0.00050000  0.17660000  1.0 0.1283382633
H  H117  1  0.68180000  0.17610000  0.99950000  1.0 0.1283382633
H  H118  1  0.82340000  0.82390000  0.50570000  1.0 0.1283382633
H  H119  1  0.17660000  0.68230000  0.00050000  1.0 0.1283382633
H  H120  1  0.31820000  0.31770000  0.49430000  1.0 0.1283382633
C  C1  1  0.87705000  0.72518000  0.23147000  1.0 0.1737653225
C  C2  1  0.49371000  0.64558000  0.76853000  1.0 0.1737653225
C  C3  1  0.12295000  0.35442000  0.84813000  1.0 0.1737653225
C  C4  1  0.23147000  0.87705000  0.72518000  1.0 0.1737653225
C  C5  1  0.50629000  0.27482000  0.15187000  1.0 0.1737653225
C  C6  1  0.76853000  0.49371000  0.64558000  1.0 0.1737653225
C  C7  1  0.15187000  0.50629000  0.27482000  1.0 0.1737653225
C  C8  1  0.84813000  0.12295000  0.35442000  1.0 0.1737653225
C  C9  1  0.72518000  0.23147000  0.87705000  1.0 0.1737653225
C  C10  1  0.64558000  0.76853000  0.49371000  1.0 0.1737653225
C  C11  1  0.35442000  0.84813000  0.12295000  1.0 0.1737653225
C  C12  1  0.27482000  0.15187000  0.50629000  1.0 0.1737653225
C  C13  1  0.89089000  0.73105000  0.28444000  1.0 -0.2010278334
C  C14  1  0.44661000  0.60645000  0.71556000  1.0 -0.2010278334
C  C15  1  0.10911000  0.39355000  0.84016000  1.0 -0.2010278334
C  C16  1  0.28444000  0.89089000  0.73105000  1.0 -0.2051969372
C  C17  1  0.55339000  0.26895000  0.15984000  1.0 -0.2010278334
C  C18  1  0.71556000  0.44661000  0.60645000  1.0 -0.2010278334
C  C19  1  0.15984000  0.55339000  0.26895000  1.0 -0.2010278334
C  C20  1  0.84016000  0.10911000  0.39355000  1.0 -0.2010278334
C  C21  1  0.73105000  0.28444000  0.89089000  1.0 -0.2010278334
C  C22  1  0.60645000  0.71556000  0.44661000  1.0 -0.2010278334
C  C23  1  0.39355000  0.84016000  0.10911000  1.0 -0.2010278334
C  C24  1  0.26895000  0.15984000  0.55339000  1.0 -0.2010278334
C  C25  1  0.91592000  0.78391000  0.33083000  1.0 -0.1012515723
C  C26  1  0.45308000  0.58509000  0.66917000  1.0 -0.1012515723
C  C27  1  0.08408000  0.41491000  0.86799000  1.0 -0.1012515723
C  C28  1  0.33083000  0.91592000  0.78391000  1.0 -0.1012515723
C  C29  1  0.54692000  0.21609000  0.13201000  1.0 -0.1012515723
C  C30  1  0.66917000  0.45308000  0.58509000  1.0 -0.1012515723
C  C31  1  0.13201000  0.54692000  0.21609000  1.0 -0.1012515723
C  C32  1  0.86799000  0.08408000  0.41491000  1.0 -0.1012515723
C  C33  1  0.78391000  0.33083000  0.91592000  1.0 -0.1012515723
C  C34  1  0.58509000  0.66917000  0.45308000  1.0 -0.1012515723
C  C35  1  0.41491000  0.86799000  0.08408000  1.0 -0.1012515723
C  C36  1  0.21609000  0.13201000  0.54692000  1.0 -0.1012515723
C  C37  1  0.92710000  0.83092000  0.32422000  1.0 -0.026487183
C  C38  1  0.50670000  0.60288000  0.67578000  1.0 -0.026487183
C  C39  1  0.07290000  0.39712000  0.90382000  1.0 -0.026487183
C  C40  1  0.32422000  0.92710000  0.83092000  1.0 -0.026487183
C  C41  1  0.49330000  0.16908000  0.09618000  1.0 -0.026487183
C  C42  1  0.67578000  0.50670000  0.60288000  1.0 -0.026487183
C  C43  1  0.09618000  0.49330000  0.16908000  1.0 -0.026487183
C  C44  1  0.90382000  0.07290000  0.39712000  1.0 -0.026487183
C  C45  1  0.83092000  0.32422000  0.92710000  1.0 -0.024857463
C  C46  1  0.60288000  0.67578000  0.50670000  1.0 -0.026487183
C  C47  1  0.39712000  0.90382000  0.07290000  1.0 -0.026487183
C  C48  1  0.16908000  0.09618000  0.49330000  1.0 -0.026487183
C  C49  1  0.91332000  0.82505000  0.27133000  1.0 -0.1012515723
C  C50  1  0.55372000  0.64199000  0.72867000  1.0 -0.1012515723
C  C51  1  0.08668000  0.35801000  0.91173000  1.0 -0.1012515723
C  C52  1  0.27133000  0.91332000  0.82505000  1.0 -0.1012515723
C  C53  1  0.44628000  0.17495000  0.08827000  1.0 -0.1012515723
C  C54  1  0.72867000  0.55372000  0.64199000  1.0 -0.1012515723
C  C55  1  0.08827000  0.44628000  0.17495000  1.0 -0.1012515723
C  C56  1  0.91173000  0.08668000  0.35801000  1.0 -0.1012515723
C  C57  1  0.82505000  0.27133000  0.91332000  1.0 -0.1012515723
C  C58  1  0.64199000  0.72867000  0.55372000  1.0 -0.1012515723
C  C59  1  0.35801000  0.91173000  0.08668000  1.0 -0.1012515723
C  C60  1  0.17495000  0.08827000  0.44628000  1.0 -0.1012515723
C  C61  1  0.88825000  0.77218000  0.22489000  1.0 -0.2223845922
C  C62  1  0.54729000  0.66336000  0.77511000  1.0 -0.2223845922
C  C63  1  0.11175000  0.33664000  0.88393000  1.0 -0.2223845922
C  C64  1  0.22489000  0.88825000  0.77218000  1.0 -0.2223845922
C  C65  1  0.45271000  0.22782000  0.11607000  1.0 -0.2223845922
C  C66  1  0.77511000  0.54729000  0.66336000  1.0 -0.2223845922
C  C67  1  0.11607000  0.45271000  0.22782000  1.0 -0.2223845922
C  C68  1  0.88393000  0.11175000  0.33664000  1.0 -0.2223845922
C  C69  1  0.77218000  0.22489000  0.88825000  1.0 -0.2223845922
C  C70  1  0.66336000  0.77511000  0.54729000  1.0 -0.2223845922
C  C71  1  0.33664000  0.88393000  0.11175000  1.0 -0.2223845922
C  C72  1  0.22782000  0.11607000  0.45271000  1.0 -0.2223845922
C  C73  1  0.66591000  0.58303000  0.08528000  1.0 -0.1162885406
C  C74  1  0.49775000  0.58063000  0.91472000  1.0 -0.1162885406
C  C75  1  0.33409000  0.41937000  0.91712000  1.0 -0.1162885406
C  C76  1  0.08528000  0.66591000  0.58303000  1.0 -0.1162885406
C  C77  1  0.50225000  0.41697000  0.08288000  1.0 -0.1162885406
C  C78  1  0.91472000  0.49775000  0.58063000  1.0 -0.1162885406
C  C79  1  0.08288000  0.50225000  0.41697000  1.0 -0.1162885406
C  C80  1  0.91712000  0.33409000  0.41937000  1.0 -0.1162885406
C  C81  1  0.58303000  0.08528000  0.66591000  1.0 -0.1162885406
C  C82  1  0.58063000  0.91472000  0.49775000  1.0 -0.1162885406
C  C83  1  0.41937000  0.91712000  0.33409000  1.0 -0.1162885406
C  C84  1  0.41697000  0.08288000  0.50225000  1.0 -0.1162885406
C  C85  1  0.69454000  0.63033000  0.13841000  1.0 -0.0783663203
C  C86  1  0.49192000  0.55613000  0.86159000  1.0 -0.0783663203
C  C87  1  0.30546000  0.44387000  0.93579000  1.0 -0.0783663203
C  C88  1  0.13841000  0.69454000  0.63033000  1.0 -0.0783663203
C  C89  1  0.50808000  0.36967000  0.06421000  1.0 -0.0783663203
C  C90  1  0.86159000  0.49192000  0.55613000  1.0 -0.0783663203
C  C91  1  0.06421000  0.50808000  0.36967000  1.0 -0.0783663203
C  C92  1  0.93579000  0.30546000  0.44387000  1.0 -0.0783663203
C  C93  1  0.63033000  0.13841000  0.69454000  1.0 -0.0783663203
C  C94  1  0.55613000  0.86159000  0.49192000  1.0 -0.0783663203
C  C95  1  0.44387000  0.93579000  0.30546000  1.0 -0.0783663203
C  C96  1  0.36967000  0.06421000  0.50808000  1.0 -0.0783663203
C  C97  1  0.75203000  0.66611000  0.16358000  1.0 -0.1775073605
C  C98  1  0.50253000  0.58845000  0.83642000  1.0 -0.1775073605
C  C99  1  0.24797000  0.41155000  0.91408000  1.0 -0.1775073605
C  C100  1  0.16358000  0.75203000  0.66611000  1.0 -0.1775073605
C  C101  1  0.49747000  0.33389000  0.08592000  1.0 -0.1775073605
C  C102  1  0.83642000  0.50253000  0.58845000  1.0 -0.1775073605
C  C103  1  0.08592000  0.49747000  0.33389000  1.0 -0.1775073605
C  C104  1  0.91408000  0.24797000  0.41155000  1.0 -0.1775073605
C  C105  1  0.66611000  0.16358000  0.75203000  1.0 -0.1775073605
C  C106  1  0.58845000  0.83642000  0.50253000  1.0 -0.1775073605
C  C107  1  0.41155000  0.91408000  0.24797000  1.0 -0.1775073605
C  C108  1  0.33389000  0.08592000  0.49747000  1.0 -0.1775073605
C  C109  1  0.78087000  0.65468000  0.13573000  1.0 0.0596558349
C  C110  1  0.51895000  0.64514000  0.86427000  1.0 0.0596558349
C  C111  1  0.21913000  0.35486000  0.87381000  1.0 0.0596558349
C  C112  1  0.13573000  0.78087000  0.65468000  1.0 0.0596558349
C  C113  1  0.48105000  0.34532000  0.12619000  1.0 0.0596558349
C  C114  1  0.86427000  0.51895000  0.64514000  1.0 0.0596558349
C  C115  1  0.12619000  0.48105000  0.34532000  1.0 0.0596558349
C  C116  1  0.87381000  0.21913000  0.35486000  1.0 0.0596558349
C  C117  1  0.65468000  0.13573000  0.78087000  1.0 0.0596558349
C  C118  1  0.64514000  0.86427000  0.51895000  1.0 0.0596558349
C  C119  1  0.35486000  0.87381000  0.21913000  1.0 0.0596558349
C  C120  1  0.34532000  0.12619000  0.48105000  1.0 0.0596558349
C  C121  1  0.75224000  0.60744000  0.08266000  1.0 0.1951175279
C  C122  1  0.52478000  0.66958000  0.91734000  1.0 0.1947663076
C  C123  1  0.24776000  0.33042000  0.85520000  1.0 0.1947663076
C  C124  1  0.08266000  0.75224000  0.60744000  1.0 0.1947663076
C  C125  1  0.47522000  0.39256000  0.14480000  1.0 0.1951175279
C  C126  1  0.91734000  0.52478000  0.66958000  1.0 0.1947663076
C  C127  1  0.14480000  0.47522000  0.39256000  1.0 0.1951175279
C  C128  1  0.85520000  0.24776000  0.33042000  1.0 0.1947663076
C  C129  1  0.60744000  0.08266000  0.75224000  1.0 0.1947663076
C  C130  1  0.66958000  0.91734000  0.52478000  1.0 0.1951175279
C  C131  1  0.33042000  0.85520000  0.24776000  1.0 0.1951175279
C  C132  1  0.39256000  0.14480000  0.47522000  1.0 0.1947663076
C  C133  1  0.69476000  0.57157000  0.05739000  1.0 -0.1775073605
C  C134  1  0.51418000  0.63737000  0.94261000  1.0 -0.1775073605
C  C135  1  0.30524000  0.36263000  0.87681000  1.0 -0.1775073605
C  C136  1  0.05739000  0.69476000  0.57157000  1.0 -0.1775073605
C  C137  1  0.48582000  0.42843000  0.12319000  1.0 -0.1775073605
C  C138  1  0.94261000  0.51418000  0.63737000  1.0 -0.1775073605
C  C139  1  0.12319000  0.48582000  0.42843000  1.0 -0.1775073605
C  C140  1  0.87681000  0.30524000  0.36263000  1.0 -0.1775073605
C  C141  1  0.57157000  0.05739000  0.69476000  1.0 -0.1775073605
C  C142  1  0.63737000  0.94261000  0.51418000  1.0 -0.1775073605
C  C143  1  0.36263000  0.87681000  0.30524000  1.0 -0.1775073605
C  C144  1  0.42843000  0.12319000  0.48582000  1.0 -0.1775073605
C  C145  1  0.92981000  0.61361000  0.10560000  1.0 0.020668587
C  C146  1  0.50801000  0.82421000  0.89440000  1.0 0.020668587
C  C147  1  0.07019000  0.17579000  0.68380000  1.0 0.020668587
C  C148  1  0.10560000  0.92981000  0.61361000  1.0 0.020668587
C  C149  1  0.49199000  0.38639000  0.31620000  1.0 0.020668587
C  C150  1  0.89440000  0.50801000  0.82421000  1.0 0.020668587
C  C151  1  0.31620000  0.49199000  0.38639000  1.0 0.020668587
C  C152  1  0.68380000  0.07019000  0.17579000  1.0 0.020668587
C  C153  1  0.61361000  0.10560000  0.92981000  1.0 0.020668587
C  C154  1  0.82421000  0.89440000  0.50801000  1.0 0.020668587
C  C155  1  0.17579000  0.68380000  0.07019000  1.0 0.020668587
C  C156  1  0.38639000  0.31620000  0.49199000  1.0 0.020668587
C  C157  1  0.87133000  0.58591000  0.07698000  1.0 -0.2223845922
C  C158  1  0.50893000  0.79435000  0.92302000  1.0 -0.2223845922
C  C159  1  0.12867000  0.20565000  0.71458000  1.0 -0.2223845922
C  C160  1  0.07698000  0.87133000  0.58591000  1.0 -0.2223845922
C  C161  1  0.49107000  0.41409000  0.28542000  1.0 -0.2223845922
C  C162  1  0.92302000  0.50893000  0.79435000  1.0 -0.2223845922
C  C163  1  0.28542000  0.49107000  0.41409000  1.0 -0.2223845922
C  C164  1  0.71458000  0.12867000  0.20565000  1.0 -0.2223845922
C  C165  1  0.58591000  0.07698000  0.87133000  1.0 -0.2223845922
C  C166  1  0.79435000  0.92302000  0.50893000  1.0 -0.2223845922
C  C167  1  0.20565000  0.71458000  0.12867000  1.0 -0.2223845922
C  C168  1  0.41409000  0.28542000  0.49107000  1.0 -0.2223845922
C  C169  1  0.84342000  0.60795000  0.09971000  1.0 0.1573724694
C  C170  1  0.50824000  0.74371000  0.90029000  1.0 0.1573724694
C  C171  1  0.15658000  0.25629000  0.76453000  1.0 0.1573724694
C  C172  1  0.09971000  0.84342000  0.60795000  1.0 0.1573724694
C  C173  1  0.49176000  0.39205000  0.23547000  1.0 0.1573724694
C  C174  1  0.90029000  0.50824000  0.74371000  1.0 0.1573724694
C  C175  1  0.23547000  0.49176000  0.39205000  1.0 0.1573724694
C  C176  1  0.76453000  0.15658000  0.25629000  1.0 0.1573724694
C  C177  1  0.60795000  0.09971000  0.84342000  1.0 0.1573724694
C  C178  1  0.74371000  0.90029000  0.50824000  1.0 0.1573724694
C  C179  1  0.25629000  0.76453000  0.15658000  1.0 0.1573724694
C  C180  1  0.39205000  0.23547000  0.49176000  1.0 0.1573724694
C  C181  1  0.87396000  0.65769000  0.15105000  1.0 0.0596558349
C  C182  1  0.50664000  0.72291000  0.84895000  1.0 0.0596558349
C  C183  1  0.12604000  0.27709000  0.78373000  1.0 0.0596558349
C  C184  1  0.15105000  0.87396000  0.65769000  1.0 0.0596558349
C  C185  1  0.49336000  0.34231000  0.21627000  1.0 0.0596558349
C  C186  1  0.84895000  0.50664000  0.72291000  1.0 0.0596558349
C  C187  1  0.21627000  0.49336000  0.34231000  1.0 0.0596558349
C  C188  1  0.78373000  0.12604000  0.27709000  1.0 0.0596558349
C  C189  1  0.65769000  0.15105000  0.87396000  1.0 0.0596558349
C  C190  1  0.72291000  0.84895000  0.50664000  1.0 0.0596558349
C  C191  1  0.27709000  0.78373000  0.12604000  1.0 0.0596558349
C  C192  1  0.34231000  0.21627000  0.49336000  1.0 0.0596558349
C  C193  1  0.93243000  0.68540000  0.17967000  1.0 -0.186488291
C  C194  1  0.50573000  0.75276000  0.82033000  1.0 -0.186488291
C  C195  1  0.06757000  0.24724000  0.75297000  1.0 -0.186488291
C  C196  1  0.17967000  0.93243000  0.68540000  1.0 -0.186488291
C  C197  1  0.49427000  0.31460000  0.24703000  1.0 -0.186488291
C  C198  1  0.82033000  0.50573000  0.75276000  1.0 -0.186488291
C  C199  1  0.24703000  0.49427000  0.31460000  1.0 -0.186488291
C  C200  1  0.75297000  0.06757000  0.24724000  1.0 -0.186488291
C  C201  1  0.68540000  0.17967000  0.93243000  1.0 -0.186488291
C  C202  1  0.75276000  0.82033000  0.50573000  1.0 -0.186488291
C  C203  1  0.24724000  0.75297000  0.06757000  1.0 -0.186488291
C  C204  1  0.31460000  0.24703000  0.49427000  1.0 -0.186488291
C  C205  1  0.96037000  0.66336000  0.15695000  1.0 -0.1108238663
C  C206  1  0.50641000  0.80342000  0.84305000  1.0 -0.1108238663
C  C207  1  0.03963000  0.19658000  0.70299000  1.0 -0.1108238663
C  C208  1  0.15695000  0.96037000  0.66336000  1.0 -0.1108238663
C  C209  1  0.49359000  0.33664000  0.29701000  1.0 -0.1108238663
C  C210  1  0.84305000  0.50641000  0.80342000  1.0 -0.1108238663
C  C211  1  0.29701000  0.49359000  0.33664000  1.0 -0.1108238663
C  C212  1  0.70299000  0.03963000  0.19658000  1.0 -0.1108238663
C  C213  1  0.66336000  0.15695000  0.96037000  1.0 -0.1108238663
C  C214  1  0.80342000  0.84305000  0.50641000  1.0 -0.1108238663
C  C215  1  0.19658000  0.70299000  0.03963000  1.0 -0.1108238663
C  C216  1  0.33664000  0.29701000  0.49359000  1.0 -0.1108238663
C  C217  1  0.94060000  0.57850000  0.05830000  1.0 0.5353620447
C  C218  1  0.52020000  0.88230000  0.94170000  1.0 0.5353620447
C  C219  1  0.05940000  0.11770000  0.63790000  1.0 0.5345664419
C  C220  1  0.05830000  0.94060000  0.57850000  1.0 0.5345664419
C  C221  1  0.47980000  0.42150000  0.36210000  1.0 0.5345664419
C  C222  1  0.94170000  0.52020000  0.88230000  1.0 0.5353620447
C  C223  1  0.36210000  0.47980000  0.42150000  1.0 0.5345664419
C  C224  1  0.63790000  0.05940000  0.11770000  1.0 0.5353620447
C  C225  1  0.57850000  0.05830000  0.94060000  1.0 0.5353620447
C  C226  1  0.88230000  0.94170000  0.52020000  1.0 0.5353620447
C  C227  1  0.11770000  0.63790000  0.05940000  1.0 0.5345664419
C  C228  1  0.42150000  0.36210000  0.47980000  1.0 0.5353620447
C  C229  1  0.60720000  0.55180000  0.05800000  1.0 0.553118611
C  C230  1  0.49380000  0.54920000  0.94200000  1.0 0.553118611
C  C231  1  0.39280000  0.45080000  0.94460000  1.0 0.553118611
C  C232  1  0.05800000  0.60720000  0.55180000  1.0 0.553118611
C  C233  1  0.50620000  0.44820000  0.05540000  1.0 0.553118611
C  C234  1  0.94200000  0.49380000  0.54920000  1.0 0.553118611
C  C235  1  0.05540000  0.50620000  0.44820000  1.0 0.553118611
C  C236  1  0.94460000  0.39280000  0.45080000  1.0 0.553118611
C  C237  1  0.55180000  0.05800000  0.60720000  1.0 0.553118611
C  C238  1  0.54920000  0.94200000  0.49380000  1.0 0.553118611
C  C239  1  0.45080000  0.94460000  0.39280000  1.0 0.553118611
C  C240  1  0.44820000  0.05540000  0.50620000  1.0 0.553118611
C  C241  1  0.95480000  0.88480000  0.38820000  1.0 0.5961403248
C  C242  1  0.49660000  0.56660000  0.61180000  1.0 0.5961403248
C  C243  1  0.04520000  0.43340000  0.93000000  1.0 0.5961403248
C  C244  1  0.38820000  0.95480000  0.88480000  1.0 0.5961403248
C  C245  1  0.50340000  0.11520000  0.07000000  1.0 0.5961403248
C  C246  1  0.61180000  0.49660000  0.56660000  1.0 0.5961403248
C  C247  1  0.07000000  0.50340000  0.11520000  1.0 0.5961403248
C  C248  1  0.93000000  0.04520000  0.43340000  1.0 0.5961403248
C  C249  1  0.88480000  0.38820000  0.95480000  1.0 0.5961403248
C  C250  1  0.56660000  0.61180000  0.49660000  1.0 0.5961403248
C  C251  1  0.43340000  0.93000000  0.04520000  1.0 0.5961403248
C  C252  1  0.11520000  0.07000000  0.50340000  1.0 0.5961403248
N  N1  1  0.84360000  0.67830000  0.17770000  1.0 -0.1331962462
N  N2  1  0.50060000  0.66590000  0.82230000  1.0 -0.1331962462
N  N3  1  0.15640000  0.33410000  0.83470000  1.0 -0.1331962462
N  N4  1  0.17770000  0.84360000  0.67830000  1.0 -0.1331962462
N  N5  1  0.49940000  0.32170000  0.16530000  1.0 -0.1331962462
N  N6  1  0.82230000  0.50060000  0.66590000  1.0 -0.1331962462
N  N7  1  0.16530000  0.49940000  0.32170000  1.0 -0.1331962462
N  N8  1  0.83470000  0.15640000  0.33410000  1.0 -0.1331962462
N  N9  1  0.67830000  0.17770000  0.84360000  1.0 -0.1331962462
N  N10  1  0.66590000  0.82230000  0.50060000  1.0 -0.1331962462
N  N11  1  0.33410000  0.83470000  0.15640000  1.0 -0.1331962462
N  N12  1  0.32170000  0.16530000  0.49940000  1.0 -0.1331962462
O  O1  1  0.90910000  0.53690000  0.01720000  1.0 -0.3125882177
O  O2  1  0.51970000  0.89190000  0.98280000  1.0 -0.3125882177
O  O3  1  0.09090000  0.10810000  0.62780000  1.0 -0.3125882177
O  O4  1  0.01720000  0.90910000  0.53690000  1.0 -0.3125882177
O  O5  1  0.48030000  0.46310000  0.37220000  1.0 -0.3125882177
O  O6  1  0.98280000  0.51970000  0.89190000  1.0 -0.3125882177
O  O7  1  0.37220000  0.48030000  0.46310000  1.0 -0.3125882177
O  O8  1  0.62780000  0.09090000  0.10810000  1.0 -0.3125882177
O  O9  1  0.53690000  0.01720000  0.90910000  1.0 -0.3125882177
O  O10  1  0.89190000  0.98280000  0.51970000  1.0 -0.3125882177
O  O11  1  0.10810000  0.62780000  0.09090000  1.0 -0.3125882177
O  O12  1  0.46310000  0.37220000  0.48030000  1.0 -0.3125882177
O  O13  1  0.00140000  0.60340000  0.10140000  1.0 -0.6467540267
O  O14  1  0.50200000  0.90000000  0.89860000  1.0 -0.6467540267
O  O15  1  0.99860000  0.10000000  0.60200000  1.0 -0.6467540267
O  O16  1  0.10140000  0.00140000  0.60340000  1.0 -0.6467540267
O  O17  1  0.49800000  0.39660000  0.39800000  1.0 -0.6467540267
O  O18  1  0.89860000  0.50200000  0.90000000  1.0 -0.6467540267
O  O19  1  0.39800000  0.49800000  0.39660000  1.0 -0.6467540267
O  O20  1  0.60200000  0.99860000  0.10000000  1.0 -0.6467540267
O  O21  1  0.60340000  0.10140000  0.00140000  1.0 -0.6467540267
O  O22  1  0.90000000  0.89860000  0.50200000  1.0 -0.6467540267
O  O23  1  0.10000000  0.60200000  0.99860000  1.0 -0.6467540267
O  O24  1  0.39660000  0.39800000  0.49800000  1.0 -0.6467540267
O  O25  1  0.58470000  0.57260000  0.07850000  1.0 -0.4723012053
O  O26  1  0.49410000  0.50620000  0.92150000  1.0 -0.4723012053
O  O27  1  0.41530000  0.49380000  0.98790000  1.0 -0.4723012053
O  O28  1  0.07850000  0.58470000  0.57260000  1.0 -0.4723012053
O  O29  1  0.50590000  0.42740000  0.01210000  1.0 -0.4723012053
O  O30  1  0.92150000  0.49410000  0.50620000  1.0 -0.4723012053
O  O31  1  0.01210000  0.50590000  0.42740000  1.0 -0.4723012053
O  O32  1  0.98790000  0.41530000  0.49380000  1.0 -0.4723012053
O  O33  1  0.57260000  0.07850000  0.58470000  1.0 -0.4723012053
O  O34  1  0.50620000  0.92150000  0.49410000  1.0 -0.4723012053
O  O35  1  0.49380000  0.98790000  0.41530000  1.0 -0.4723012053
O  O36  1  0.42740000  0.01210000  0.50590000  1.0 -0.4723012053
O  O37  1  0.58250000  0.51130000  0.00860000  1.0 -0.5242922558
O  O38  1  0.50270000  0.57390000  0.99140000  1.0 -0.5242922558
O  O39  1  0.41750000  0.42610000  0.92880000  1.0 -0.5242922558
O  O40  1  0.00860000  0.58250000  0.51130000  1.0 -0.5242922558
O  O41  1  0.49730000  0.48870000  0.07120000  1.0 -0.5242922558
O  O42  1  0.99140000  0.50270000  0.57390000  1.0 -0.5242922558
O  O43  1  0.07120000  0.49730000  0.48870000  1.0 -0.5242922558
O  O44  1  0.92880000  0.41750000  0.42610000  1.0 -0.5242922558
O  O45  1  0.51130000  0.00860000  0.58250000  1.0 -0.5242922558
O  O46  1  0.57390000  0.99140000  0.50270000  1.0 -0.5242922558
O  O47  1  0.42610000  0.92880000  0.41750000  1.0 -0.5242922558
O  O48  1  0.48870000  0.07120000  0.49730000  1.0 -0.5242922558
O  O49  1  0.78100000  0.58380000  0.06720000  1.0 -0.2010278334
O  O50  1  0.51660000  0.71380000  0.93280000  1.0 -0.2010278334
O  O51  1  0.21900000  0.28620000  0.80280000  1.0 -0.2010278334
O  O52  1  0.06720000  0.78100000  0.58380000  1.0 -0.2010278334
O  O53  1  0.48340000  0.41620000  0.19720000  1.0 -0.2010278334
O  O54  1  0.93280000  0.51660000  0.71380000  1.0 -0.2010278334
O  O55  1  0.19720000  0.48340000  0.41620000  1.0 -0.2010278334
O  O56  1  0.80280000  0.21900000  0.28620000  1.0 -0.2010278334
O  O57  1  0.58380000  0.06720000  0.78100000  1.0 -0.2010278334
O  O58  1  0.71380000  0.93280000  0.51660000  1.0 -0.2010278334
O  O59  1  0.28620000  0.80280000  0.21900000  1.0 -0.2010278334
O  O60  1  0.41620000  0.19720000  0.48340000  1.0 -0.2010278334
O  O61  1  0.94800000  0.87190000  0.42150000  1.0 -0.4956345536
O  O62  1  0.45040000  0.52650000  0.57850000  1.0 -0.4956345536
O  O63  1  0.05200000  0.47350000  0.92390000  1.0 -0.4956345536
O  O64  1  0.42150000  0.94800000  0.87190000  1.0 -0.4956345536
O  O65  1  0.54960000  0.12810000  0.07610000  1.0 -0.4956345536
O  O66  1  0.57850000  0.45040000  0.52650000  1.0 -0.4956345536
O  O67  1  0.07610000  0.54960000  0.12810000  1.0 -0.4956345536
O  O68  1  0.92390000  0.05200000  0.47350000  1.0 -0.4956345536
O  O69  1  0.87190000  0.42150000  0.94800000  1.0 -0.4956345536
O  O70  1  0.52650000  0.57850000  0.45040000  1.0 -0.4956345536
O  O71  1  0.47350000  0.92390000  0.05200000  1.0 -0.4956345536
O  O72  1  0.12810000  0.07610000  0.54960000  1.0 -0.4956345536
O  O73  1  0.96990000  0.92740000  0.38490000  1.0 -0.4956345536
O  O74  1  0.54250000  0.58500000  0.61510000  1.0 -0.494890561
O  O75  1  0.03010000  0.41500000  0.95750000  1.0 -0.4956345536
O  O76  1  0.38490000  0.96990000  0.92740000  1.0 -0.4956345536
O  O77  1  0.45750000  0.07260000  0.04250000  1.0 -0.4956345536
O  O78  1  0.61510000  0.54250000  0.58500000  1.0 -0.494890561
O  O79  1  0.04250000  0.45750000  0.07260000  1.0 -0.4956345536
O  O80  1  0.95750000  0.03010000  0.41500000  1.0 -0.4956345536
O  O81  1  0.92740000  0.38490000  0.96990000  1.0 -0.4956345536
O  O82  1  0.58500000  0.61510000  0.54250000  1.0 -0.494890561
O  O83  1  0.41500000  0.95750000  0.03010000  1.0 -0.4956345536
O  O84  1  0.07260000  0.04250000  0.45750000  1.0 -0.494890561
O  O85  1  0.00000000  0.00000000  0.51066000  1.0 -1.0334822737
O  O86  1  0.48934000  0.48934000  0.48934000  1.0 -1.0334822737
O  O87  1  0.00000000  0.51066000  0.00000000  1.0 -1.0334822737
O  O88  1  0.51066000  0.00000000  0.00000000  1.0 -1.0334822737
