# DDEC6 charges by PACMAN v1.1 (https://github.com/mtap-research/PACMAN-charge/)
data_MAJHUC_ASR_pacman
_symmetry_space_group_name_H-M   'P 1'
_cell_length_a   11.34750000
_cell_length_b   11.78600000
_cell_length_c   21.20300000
_cell_angle_alpha   96.25900000
_cell_angle_beta   90.97800000
_cell_angle_gamma   108.25800000
_symmetry_Int_Tables_number   1
_chemical_formula_structural   Mn2H44C49(N3O4)2
_chemical_formula_sum   'Mn4 H88 C98 N12 O16'
_cell_volume   2672.96423975
_cell_formula_units_Z   2
loop_
 _symmetry_equiv_pos_site_id
 _symmetry_equiv_pos_as_xyz
  1  'x, y, z'
loop_
 _atom_site_type_symbol
 _atom_site_label
 _atom_site_symmetry_multiplicity
 _atom_site_fract_x
 _atom_site_fract_y
 _atom_site_fract_z
 _atom_site_occupancy
 _atom_site_charge
Mn  Mn1  1  0.00000000  0.00000000  0.50000000  1.0 0.827900839
Mn  Mn2  1  0.86285000  0.52230000  0.75940000  1.0 0.8001094581
Mn  Mn3  1  0.13715000  0.47770000  0.24060000  1.0 0.8001094581
Mn  Mn4  1  0.50000000  0.50000000  0.00000000  1.0 0.8491680146
H  H1  1  0.97070000  0.33910000  0.67920000  1.0 0.110713966
H  H2  1  0.02930000  0.66090000  0.32080000  1.0 0.110713966
H  H3  1  0.39850000  0.39900000  0.12940000  1.0 0.1202944123
H  H4  1  0.60150000  0.60100000  0.87060000  1.0 0.1202944123
H  H5  1  0.45430000  0.39260000  0.23310000  1.0 0.1396910818
H  H6  1  0.54570000  0.60740000  0.76690000  1.0 0.1396910818
H  H7  1  0.65860000  0.35370000  0.84190000  1.0 0.110713966
H  H8  1  0.34140000  0.64630000  0.15810000  1.0 0.110713966
H  H9  1  0.73680000  0.58790000  0.09800000  1.0 0.110713966
H  H10  1  0.26320000  0.41210000  0.90200000  1.0 0.110713966
H  H11  1  0.80180000  0.58730000  0.20020000  1.0 0.128727933
H  H12  1  0.19820000  0.41270000  0.79980000  1.0 0.128727933
H  H13  1  0.45550000  0.23090000  0.83780000  1.0 0.1396910818
H  H14  1  0.54450000  0.76910000  0.16220000  1.0 0.1396910818
H  H15  1  0.43760000  0.25720000  0.65140000  1.0 0.1396910818
H  H16  1  0.56240000  0.74280000  0.34860000  1.0 0.1396910818
H  H17  1  0.90460000  0.87770000  0.62290000  1.0 0.1202944123
H  H18  1  0.09540000  0.12230000  0.37710000  1.0 0.1202944123
H  H19  1  0.03630000  0.17400000  0.68240000  1.0 0.1396910818
H  H20  1  0.96370000  0.82600000  0.31760000  1.0 0.1396910818
H  H21  1  0.63860000  0.37980000  0.66050000  1.0 0.110713966
H  H22  1  0.36140000  0.62020000  0.33950000  1.0 0.110713966
H  H23  1  0.23920000  0.20790000  0.71920000  1.0 0.110713966
H  H24  1  0.76080000  0.79210000  0.28080000  1.0 0.110713966
H  H25  1  0.27290000  0.08920000  0.70610000  1.0 0.128727933
H  H26  1  0.72710000  0.91080000  0.29390000  1.0 0.128727933
H  H27  1  0.11370000  0.61560000  0.84780000  1.0 0.0996283135
H  H28  1  0.88630000  0.38440000  0.15220000  1.0 0.0996283135
H  H29  1  0.31150000  0.74900000  0.86050000  1.0 0.150124552
H  H30  1  0.68850000  0.25100000  0.13950000  1.0 0.150124552
H  H31  1  0.25150000  0.86320000  0.69490000  1.0 0.1396910818
H  H32  1  0.74850000  0.13680000  0.30510000  1.0 0.1396910818
H  H33  1  0.98200000  0.19050000  0.86890000  1.0 0.150124552
H  H34  1  0.01800000  0.80950000  0.13110000  1.0 0.150124552
H  H35  1  0.23680000  0.18080000  0.82990000  1.0 0.0996283135
H  H36  1  0.76320000  0.81920000  0.17010000  1.0 0.0996283135
H  H37  1  0.24810000  0.05270000  0.80960000  1.0 0.0996283135
H  H38  1  0.75190000  0.94730000  0.19040000  1.0 0.0996283135
H  H39  1  0.79310000  0.11740000  0.54900000  1.0 0.110713966
H  H40  1  0.20690000  0.88260000  0.45100000  1.0 0.110713966
H  H41  1  0.67270000  0.13410000  0.63300000  1.0 0.128727933
H  H42  1  0.32730000  0.86590000  0.36700000  1.0 0.1396910818
H  H43  1  0.71300000  0.57430000  0.31750000  1.0 0.1202944123
H  H44  1  0.28700000  0.42570000  0.68250000  1.0 0.1202944123
H  H45  1  0.75180000  0.46030000  0.29650000  1.0 0.1202944123
H  H46  1  0.24820000  0.53970000  0.70350000  1.0 0.1202944123
H  H47  1  0.55250000  0.33800000  0.32050000  1.0 0.0910215802
H  H48  1  0.44750000  0.66200000  0.67950000  1.0 0.0910215802
H  H49  1  0.52130000  0.45480000  0.34570000  1.0 0.0910215802
H  H50  1  0.47870000  0.54520000  0.65430000  1.0 0.0910215802
H  H51  1  0.91400000  0.35250000  0.86070000  1.0 0.110713966
H  H52  1  0.08600000  0.64750000  0.13930000  1.0 0.110713966
H  H53  1  0.78810000  0.88780000  0.70940000  1.0 0.150124552
H  H54  1  0.21190000  0.11220000  0.29060000  1.0 0.150124552
H  H55  1  0.68100000  0.00610000  0.77650000  1.0 0.1202944123
H  H56  1  0.31900000  0.99390000  0.22350000  1.0 0.1202944123
H  H57  1  0.63010000  0.09860000  0.74650000  1.0 0.1202944123
H  H58  1  0.36990000  0.90140000  0.25350000  1.0 0.1202944123
H  H59  1  0.05420000  0.73050000  0.68850000  1.0 0.110713966
H  H60  1  0.94580000  0.26950000  0.31150000  1.0 0.110713966
H  H61  1  0.42990000  0.99320000  0.80260000  1.0 0.1202944123
H  H62  1  0.57010000  0.00680000  0.19740000  1.0 0.1202944123
H  H63  1  0.48180000  0.89210000  0.82070000  1.0 0.1202944123
H  H64  1  0.51820000  0.10790000  0.17930000  1.0 0.1202944123
H  H65  1  0.65890000  0.24050000  0.47250000  1.0 0.1396910818
H  H66  1  0.34110000  0.75950000  0.52750000  1.0 0.1396910818
H  H67  1  0.40740000  0.40160000  0.43620000  1.0 0.1396910818
H  H68  1  0.59260000  0.59840000  0.56380000  1.0 0.1396910818
H  H69  1  0.09980000  0.64470000  0.43670000  1.0 0.110713966
H  H70  1  0.90020000  0.35530000  0.56330000  1.0 0.110713966
H  H71  1  0.05600000  0.00830000  0.74380000  1.0 0.1202944123
H  H72  1  0.94400000  0.99170000  0.25620000  1.0 0.1202944123
H  H73  1  0.03780000  0.01870000  0.81720000  1.0 0.128727933
H  H74  1  0.96220000  0.98130000  0.18280000  1.0 0.128727933
H  H75  1  0.67300000  0.49890000  0.42800000  1.0 0.128727933
H  H76  1  0.32700000  0.50110000  0.57200000  1.0 0.128727933
H  H77  1  0.71480000  0.38910000  0.40130000  1.0 0.128727933
H  H78  1  0.28520000  0.61090000  0.59870000  1.0 0.128727933
H  H79  1  0.12280000  0.67390000  0.96330000  1.0 0.1202944123
H  H80  1  0.87720000  0.32610000  0.03670000  1.0 0.1202944123
H  H81  1  0.46430000  0.94600000  0.69590000  1.0 0.0996283135
H  H82  1  0.53570000  0.05400000  0.30410000  1.0 0.0996283135
H  H83  1  0.51970000  0.84780000  0.71520000  1.0 0.110713966
H  H84  1  0.48030000  0.15220000  0.28480000  1.0 0.110713966
H  H85  1  0.27270000  0.27600000  0.49700000  1.0 0.110713966
H  H86  1  0.72730000  0.72400000  0.50300000  1.0 0.110713966
H  H87  1  0.51630000  0.12050000  0.53280000  1.0 0.0996283135
H  H88  1  0.48370000  0.87950000  0.46720000  1.0 0.0996283135
C  C1  1  0.03210000  0.75687000  0.53514000  1.0 0.5685523273
C  C2  1  0.96790000  0.24313000  0.46486000  1.0 0.5685523273
C  C3  1  0.88460000  0.56290000  0.61487000  1.0 0.5600217403
C  C4  1  0.11540000  0.43710000  0.38513000  1.0 0.5600217403
C  C5  1  0.00770000  0.62213000  0.51734000  1.0 -0.0222537621
C  C6  1  0.99230000  0.37787000  0.48266000  1.0 -0.0222537621
C  C7  1  0.97310000  0.30910000  0.71782000  1.0 0.0699332874
C  C8  1  0.02690000  0.69090000  0.28218000  1.0 0.0699332874
C  C9  1  0.48080000  0.43720000  0.14377000  1.0 0.0910215802
C  C10  1  0.51920000  0.56280000  0.85623000  1.0 0.0910215802
C  C11  1  0.51370000  0.43330000  0.20672000  1.0 -0.2186443879
C  C12  1  0.48630000  0.56670000  0.79328000  1.0 -0.2186443879
C  C13  1  0.94610000  0.53331000  0.55547000  1.0 -0.0471384722
C  C14  1  0.05390000  0.46669000  0.44453000  1.0 -0.0471384722
C  C15  1  0.61310000  0.33490000  0.80314000  1.0 0.0996283135
C  C16  1  0.38690000  0.66510000  0.19686000  1.0 0.0910215802
C  C17  1  0.67920000  0.54810000  0.12535000  1.0 0.0699332874
C  C18  1  0.32080000  0.45190000  0.87465000  1.0 0.0699332874
C  C19  1  0.71900000  0.54830000  0.18712000  1.0 -0.2186443879
C  C20  1  0.28100000  0.45170000  0.81288000  1.0 -0.2186443879
C  C21  1  0.49030000  0.26060000  0.80121000  1.0 -0.2085459053
C  C22  1  0.50970000  0.73940000  0.19879000  1.0 -0.2085459053
C  C23  1  0.42050000  0.23140000  0.74407000  1.0 0.169325024
C  C24  1  0.57950000  0.76860000  0.25593000  1.0 0.169325024
C  C25  1  0.48020000  0.27670000  0.69093000  1.0 -0.2186443879
C  C26  1  0.51980000  0.72330000  0.30907000  1.0 -0.2186443879
C  C27  1  0.85850000  0.93070000  0.62524000  1.0 0.0910215802
C  C28  1  0.14150000  0.06930000  0.37476000  1.0 0.0910215802
C  C29  1  0.89640000  0.62210000  0.91149000  1.0 0.5793448807
C  C30  1  0.10360000  0.37790000  0.08851000  1.0 0.5793448807
C  C31  1  0.01360000  0.20970000  0.71948000  1.0 -0.2186443879
C  C32  1  0.98640000  0.79030000  0.28052000  1.0 -0.2186443879
C  C33  1  0.02040000  0.16330000  0.77699000  1.0 0.1634552301
C  C34  1  0.97960000  0.83670000  0.22301000  1.0 0.1634552301
C  C35  1  0.63580000  0.49040000  0.23033000  1.0 0.169325024
C  C36  1  0.36420000  0.50960000  0.76967000  1.0 0.169325024
C  C37  1  0.60160000  0.35000000  0.69668000  1.0 0.0606330306
C  C38  1  0.39840000  0.65000000  0.30332000  1.0 0.0606330306
C  C39  1  0.28280000  0.15890000  0.73701000  1.0 -0.2673136211
C  C40  1  0.71720000  0.84110000  0.26299000  1.0 -0.2673136211
C  C41  1  0.14120000  0.66710000  0.81701000  1.0 0.0910215802
C  C42  1  0.85880000  0.33290000  0.18299000  1.0 0.0910215802
C  C43  1  0.26130000  0.74720000  0.82500000  1.0 -0.2085459053
C  C44  1  0.73870000  0.25280000  0.17500000  1.0 -0.2085459053
C  C45  1  0.30630000  0.82500000  0.77936000  1.0 0.169325024
C  C46  1  0.69370000  0.17500000  0.22064000  1.0 0.169325024
C  C47  1  0.22540000  0.81510000  0.72723000  1.0 -0.2026630893
C  C48  1  0.77460000  0.18490000  0.27277000  1.0 -0.2026630893
C  C49  1  0.98100000  0.21910000  0.82976000  1.0 -0.2085459053
C  C50  1  0.01900000  0.78090000  0.17024000  1.0 -0.2085459053
C  C51  1  0.21750000  0.11470000  0.79584000  1.0 -0.1332231118
C  C52  1  0.78250000  0.88530000  0.20416000  1.0 -0.1332231118
C  C53  1  0.79280000  0.07140000  0.58202000  1.0 0.0811549135
C  C54  1  0.20720000  0.92860000  0.41798000  1.0 0.0811549135
C  C55  1  0.71940000  0.08170000  0.63241000  1.0 -0.2186443879
C  C56  1  0.28060000  0.91830000  0.36759000  1.0 -0.2186443879
C  C57  1  0.71600000  0.01260000  0.68240000  1.0 0.169325024
C  C58  1  0.28400000  0.98740000  0.31760000  1.0 0.169325024
C  C59  1  0.68200000  0.49130000  0.29802000  1.0 -0.2673136211
C  C60  1  0.31800000  0.50870000  0.70198000  1.0 -0.2673136211
C  C61  1  0.58810000  0.42000000  0.34079000  1.0 -0.1332231118
C  C62  1  0.41190000  0.58000000  0.65921000  1.0 -0.1332231118
C  C63  1  0.94030000  0.31730000  0.82454000  1.0 0.0699332874
C  C64  1  0.05970000  0.68270000  0.17546000  1.0 0.0699332874
C  C65  1  0.78770000  0.93590000  0.67746000  1.0 -0.2085459053
C  C66  1  0.21230000  0.06410000  0.32254000  1.0 -0.2085459053
C  C67  1  0.63870000  0.01900000  0.73913000  1.0 -0.2622224419
C  C68  1  0.36130000  0.98100000  0.26087000  1.0 -0.2673136211
C  C69  1  0.10650000  0.73390000  0.72338000  1.0 0.0811549135
C  C70  1  0.89350000  0.26610000  0.27662000  1.0 0.0811549135
C  C71  1  0.43620000  0.91460000  0.78771000  1.0 -0.2673136211
C  C72  1  0.56380000  0.08540000  0.21229000  1.0 -0.2622224419
C  C73  1  0.73090000  0.41520000  0.97221000  1.0 0.5600217403
C  C74  1  0.26910000  0.58480000  0.02779000  1.0 0.5600217403
C  C75  1  0.58120000  0.25050000  0.47674000  1.0 -0.2085459053
C  C76  1  0.41880000  0.74950000  0.52326000  1.0 -0.2085459053
C  C77  1  0.43260000  0.34510000  0.45541000  1.0 -0.2026630893
C  C78  1  0.56740000  0.65490000  0.54459000  1.0 -0.2026630893
C  C79  1  0.05980000  0.58670000  0.46234000  1.0 -0.1616612006
C  C80  1  0.94020000  0.41330000  0.53766000  1.0 -0.1616612006
C  C81  1  0.07490000  0.06330000  0.78277000  1.0 -0.2673136211
C  C82  1  0.92510000  0.93670000  0.21723000  1.0 -0.2673136211
C  C83  1  0.64370000  0.41760000  0.40619000  1.0 -0.2622224419
C  C84  1  0.35630000  0.58240000  0.59381000  1.0 -0.2622224419
C  C85  1  0.07340000  0.60360000  0.97787000  1.0 -0.1655048161
C  C86  1  0.92660000  0.39640000  0.02213000  1.0 -0.1616612006
C  C87  1  0.51040000  0.92550000  0.72938000  1.0 -0.1383654951
C  C88  1  0.48960000  0.07450000  0.27062000  1.0 -0.1383654951
C  C89  1  0.35150000  0.26880000  0.49249000  1.0 0.0910215802
C  C90  1  0.64850000  0.73120000  0.50751000  1.0 0.0910215802
C  C91  1  0.49410000  0.17820000  0.51318000  1.0 0.0495093399
C  C92  1  0.50590000  0.82180000  0.48682000  1.0 0.0495093399
C  C93  1  0.55110000  0.33720000  0.44698000  1.0 0.169325024
C  C94  1  0.44890000  0.66280000  0.55302000  1.0 0.169325024
C  C95  1  0.87170000  0.45690000  0.98388000  1.0 -0.0471384722
C  C96  1  0.12830000  0.54310000  0.01612000  1.0 -0.0471384722
C  C97  1  0.94630000  0.56180000  0.96074000  1.0 -0.0386502697
C  C98  1  0.05370000  0.43820000  0.03926000  1.0 -0.0386502697
N  N1  1  0.56090000  0.49300000  0.10259000  1.0 -0.2403373101
N  N2  1  0.43910000  0.50700000  0.89741000  1.0 -0.2403373101
N  N3  1  0.86352000  0.99874000  0.57802000  1.0 -0.2403373101
N  N4  1  0.13648000  0.00126000  0.42198000  1.0 -0.2403373101
N  N5  1  0.93710000  0.36387000  0.76941000  1.0 -0.2479575231
N  N6  1  0.06290000  0.63613000  0.23059000  1.0 -0.2479575231
N  N7  1  0.06221000  0.65930000  0.76763000  1.0 -0.2403373101
N  N8  1  0.93779000  0.34070000  0.23237000  1.0 -0.2403373101
N  N9  1  0.38000000  0.18670000  0.52171000  1.0 -0.2831556677
N  N10  1  0.62000000  0.81330000  0.47829000  1.0 -0.2831556677
N  N11  1  0.66978000  0.38101000  0.75252000  1.0 -0.2479575231
N  N12  1  0.33022000  0.61899000  0.24748000  1.0 -0.2479575231
O  O1  1  0.87632000  0.49345000  0.65786000  1.0 -0.5910171746
O  O2  1  0.12368000  0.50655000  0.34214000  1.0 -0.5910171746
O  O3  1  0.97440000  0.80809000  0.50203000  1.0 -0.5910171746
O  O4  1  0.02560000  0.19191000  0.49797000  1.0 -0.5910171746
O  O5  1  0.84678000  0.65204000  0.61862000  1.0 -0.56246199
O  O6  1  0.15322000  0.34796000  0.38138000  1.0 -0.56246199
O  O7  1  0.11369000  0.80813000  0.57841000  1.0 -0.6000065087
O  O8  1  0.88631000  0.19187000  0.42159000  1.0 -0.6000065087
O  O9  1  0.84956000  0.55604000  0.86046000  1.0 -0.5910171746
O  O10  1  0.15044000  0.44396000  0.13954000  1.0 -0.5910171746
O  O11  1  0.91040000  0.73260000  0.92279000  1.0 -0.56246199
O  O12  1  0.08960000  0.26740000  0.07721000  1.0 -0.56246199
O  O13  1  0.68113000  0.49651000  0.97235000  1.0 -0.5696226834
O  O14  1  0.31887000  0.50349000  0.02765000  1.0 -0.5696226834
O  O15  1  0.67448000  0.30470000  0.96500000  1.0 -0.5774698733
O  O16  1  0.32552000  0.69530000  0.03500000  1.0 -0.5774698733
