# DDEC6 charges by PACMAN v1.1 (https://github.com/mtap-research/PACMAN-charge/)
data_MAKFOW_FSR_pacman
_symmetry_space_group_name_H-M   'P 1'
_cell_length_a   15.09750000
_cell_length_b   16.77520000
_cell_length_c   16.90140000
_cell_angle_alpha   110.49300000
_cell_angle_beta   91.56200000
_cell_angle_gamma   99.17600000
_symmetry_Int_Tables_number   1
_chemical_formula_structural   Gd3H25C52N9O20
_chemical_formula_sum   'Gd6 H50 C104 N18 O40'
_cell_volume   3942.29621152
_cell_formula_units_Z   2
loop_
 _symmetry_equiv_pos_site_id
 _symmetry_equiv_pos_as_xyz
  1  'x, y, z'
loop_
 _atom_site_type_symbol
 _atom_site_label
 _atom_site_symmetry_multiplicity
 _atom_site_fract_x
 _atom_site_fract_y
 _atom_site_fract_z
 _atom_site_occupancy
 _atom_site_charge
Gd  Gd1  1  0.55988000  0.12226000  0.02872000  1.0 2.0638822862
Gd  Gd2  1  0.44012000  0.87774000  0.97128000  1.0 2.0638822862
Gd  Gd3  1  0.51499000  0.36249000  0.14630000  1.0 2.0292301724
Gd  Gd4  1  0.48501000  0.63751000  0.85370000  1.0 2.0292301724
Gd  Gd5  1  0.45086000  0.47078000  0.38190000  1.0 2.0706725666
Gd  Gd6  1  0.54914000  0.52922000  0.61810000  1.0 2.0706725666
H  H1  1  0.41650000  0.79350000  0.43550000  1.0 0.3001294384
H  H2  1  0.58350000  0.20650000  0.56450000  1.0 0.3001294384
H  H3  1  0.03580000  0.97080000  0.08870000  1.0 0.3001294384
H  H4  1  0.96420000  0.02920000  0.91130000  1.0 0.3001294384
H  H5  1  0.94910000  0.41160000  0.52220000  1.0 0.3001294384
H  H6  1  0.05090000  0.58840000  0.47780000  1.0 0.3001294384
H  H7  1  0.45210000  0.09740000  0.75040000  1.0 0.129822001
H  H8  1  0.54790000  0.90260000  0.24960000  1.0 0.129822001
H  H9  1  0.41900000  0.06460000  0.60610000  1.0 0.1181529983
H  H10  1  0.58100000  0.93540000  0.39390000  1.0 0.1181529983
H  H11  1  0.40840000  0.81190000  0.56180000  1.0 0.1144992659
H  H12  1  0.59160000  0.18810000  0.43820000  1.0 0.1144992659
H  H13  1  0.43960000  0.84210000  0.70750000  1.0 0.129822001
H  H14  1  0.56040000  0.15790000  0.29250000  1.0 0.129822001
H  H15  1  0.36860000  0.82180000  0.18380000  1.0 0.1386183599
H  H16  1  0.63140000  0.17820000  0.81620000  1.0 0.1386183599
H  H17  1  0.41910000  0.57720000  0.07720000  1.0 0.1456555947
H  H18  1  0.58090000  0.42280000  0.92280000  1.0 0.1456555947
H  H19  1  0.39610000  0.67910000  0.33070000  1.0 0.129822001
H  H20  1  0.60390000  0.32090000  0.66930000  1.0 0.129822001
H  H21  1  0.17410000  0.24710000  0.24830000  1.0 0.1456555947
H  H22  1  0.82590000  0.75290000  0.75170000  1.0 0.1456555947
H  H23  1  0.17580000  0.00390000  0.08500000  1.0 0.129822001
H  H24  1  0.82420000  0.99610000  0.91500000  1.0 0.129822001
H  H25  1  0.40930000  0.17620000  0.16620000  1.0 0.1386183599
H  H26  1  0.59070000  0.82380000  0.83380000  1.0 0.1386183599
H  H27  1  0.75800000  0.01940000  0.16000000  1.0 0.1386183599
H  H28  1  0.24200000  0.98060000  0.84000000  1.0 0.1386183599
H  H29  1  0.63360000  0.91130000  0.09290000  1.0 0.129822001
H  H30  1  0.36640000  0.08870000  0.90710000  1.0 0.129822001
H  H31  1  0.80300000  0.75120000  0.97180000  1.0 0.129822001
H  H32  1  0.19700000  0.24880000  0.02820000  1.0 0.129822001
H  H33  1  0.92440000  0.86030000  0.03310000  1.0 0.1181529983
H  H34  1  0.07560000  0.13970000  0.96690000  1.0 0.1181529983
H  H35  1  0.59390000  0.33610000  0.32210000  1.0 0.129822001
H  H36  1  0.40610000  0.66390000  0.67790000  1.0 0.129822001
H  H37  1  0.81230000  0.41300000  0.49100000  1.0 0.129822001
H  H38  1  0.18770000  0.58700000  0.50900000  1.0 0.129822001
H  H39  1  0.83070000  0.25450000  0.25180000  1.0 0.1456555947
H  H40  1  0.16930000  0.74550000  0.74820000  1.0 0.1456555947
H  H41  1  0.05050000  0.45550000  0.63600000  1.0 0.1181529983
H  H42  1  0.94950000  0.54450000  0.36400000  1.0 0.1181529983
H  H43  1  0.16700000  0.51500000  0.74420000  1.0 0.129822001
H  H44  1  0.83300000  0.48500000  0.25580000  1.0 0.129822001
H  H45  1  0.34160000  0.40360000  0.57820000  1.0 0.129822001
H  H46  1  0.65840000  0.59640000  0.42180000  1.0 0.129822001
H  H47  1  0.22410000  0.34110000  0.47230000  1.0 0.1386183599
H  H48  1  0.77590000  0.65890000  0.52770000  1.0 0.1386183599
H  H49  1  0.55330000  0.73300000  0.52150000  1.0 0.0882752264
H  H50  1  0.44670000  0.26700000  0.47850000  1.0 0.0882752264
C  C1  1  0.46670000  0.98670000  0.83500000  1.0 0.6299115369
C  C2  1  0.53330000  0.01330000  0.16500000  1.0 0.6299115369
C  C3  1  0.44830000  0.97330000  0.74230000  1.0 -0.0032919163
C  C4  1  0.55170000  0.02670000  0.25770000  1.0 -0.0032919163
C  C5  1  0.44250000  0.03900000  0.71230000  1.0 -0.0914162331
C  C6  1  0.55750000  0.96100000  0.28770000  1.0 -0.0914162331
C  C7  1  0.42290000  0.01980000  0.62750000  1.0 -0.1117530069
C  C8  1  0.57710000  0.98020000  0.37250000  1.0 -0.1117530069
C  C9  1  0.40870000  0.93510000  0.57360000  1.0 0.0295043746
C  C10  1  0.59130000  0.06490000  0.42640000  1.0 0.0350986706
C  C11  1  0.41620000  0.86970000  0.60100000  1.0 -0.1387647689
C  C12  1  0.58380000  0.13030000  0.39900000  1.0 -0.1387647689
C  C13  1  0.43540000  0.88750000  0.68690000  1.0 -0.0914162331
C  C14  1  0.56460000  0.11250000  0.31310000  1.0 -0.0914162331
C  C15  1  0.38850000  0.91340000  0.47810000  1.0 0.2683151811
C  C16  1  0.61150000  0.08660000  0.52190000  1.0 0.2770858754
C  C17  1  0.37800000  0.83610000  0.34730000  1.0 0.2770858754
C  C18  1  0.62200000  0.16390000  0.65270000  1.0 0.2770858754
C  C19  1  0.38230000  0.76210000  0.26850000  1.0 0.0201848729
C  C20  1  0.61770000  0.23790000  0.73150000  1.0 0.0201848729
C  C21  1  0.37860000  0.76940000  0.18940000  1.0 -0.1117530069
C  C22  1  0.62140000  0.23060000  0.81060000  1.0 -0.1117530069
C  C23  1  0.38990000  0.69890000  0.11760000  1.0 -0.0265114842
C  C24  1  0.61010000  0.30110000  0.88240000  1.0 -0.0265114842
C  C25  1  0.39430000  0.70880000  0.03350000  1.0 0.6543783495
C  C26  1  0.60570000  0.29120000  0.96650000  1.0 0.6543783495
C  C27  1  0.40780000  0.62340000  0.12550000  1.0 -0.0914162331
C  C28  1  0.59220000  0.37660000  0.87450000  1.0 -0.0914162331
C  C29  1  0.40920000  0.61600000  0.20550000  1.0 -0.0204551308
C  C30  1  0.59080000  0.38400000  0.79450000  1.0 -0.0204551308
C  C31  1  0.42780000  0.53450000  0.21340000  1.0 0.6558958837
C  C32  1  0.57220000  0.46550000  0.78660000  1.0 0.6558958837
C  C33  1  0.39600000  0.68470000  0.27670000  1.0 -0.1489762416
C  C34  1  0.60400000  0.31530000  0.72330000  1.0 -0.1489762416
C  C35  1  0.34760000  0.31440000  0.26220000  1.0 0.6185619383
C  C36  1  0.65240000  0.68560000  0.73780000  1.0 0.6185619383
C  C37  1  0.29870000  0.22490000  0.21350000  1.0 0.000215438
C  C38  1  0.70130000  0.77510000  0.78650000  1.0 0.000215438
C  C39  1  0.20610000  0.20460000  0.21500000  1.0 -0.1020364712
C  C40  1  0.79390000  0.79540000  0.78500000  1.0 -0.1020364712
C  C41  1  0.15990000  0.12070000  0.16700000  1.0 0.0201848729
C  C42  1  0.84010000  0.87930000  0.83300000  1.0 0.0201848729
C  C43  1  0.20700000  0.06020000  0.11840000  1.0 -0.1387647689
C  C44  1  0.79300000  0.93980000  0.88160000  1.0 -0.1387647689
C  C45  1  0.30030000  0.08050000  0.11750000  1.0 -0.0032919163
C  C46  1  0.69970000  0.91950000  0.88250000  1.0 -0.0032919163
C  C47  1  0.34730000  0.01430000  0.06070000  1.0 0.6185619383
C  C48  1  0.65270000  0.98570000  0.93930000  1.0 0.6185619383
C  C49  1  0.34570000  0.16250000  0.16570000  1.0 -0.1189028969
C  C50  1  0.65430000  0.83750000  0.83430000  1.0 -0.1189028969
C  C51  1  0.06280000  0.09570000  0.16570000  1.0 0.2578628907
C  C52  1  0.93720000  0.90430000  0.83430000  1.0 0.2578628907
C  C53  1  0.92950000  0.02180000  0.13740000  1.0 0.2477603355
C  C54  1  0.07050000  0.97820000  0.86260000  1.0 0.2477603355
C  C55  1  0.85360000  0.95040000  0.10110000  1.0 0.0295043746
C  C56  1  0.14640000  0.04960000  0.89890000  1.0 0.0295043746
C  C57  1  0.76640000  0.96560000  0.12000000  1.0 -0.1020364712
C  C58  1  0.23360000  0.03440000  0.88000000  1.0 -0.1020364712
C  C59  1  0.69260000  0.90130000  0.07980000  1.0 -0.0845233103
C  C60  1  0.30740000  0.09870000  0.92020000  1.0 -0.0845233103
C  C61  1  0.70390000  0.82270000  0.02080000  1.0 -0.0084654955
C  C62  1  0.29610000  0.17730000  0.97920000  1.0 -0.0084654955
C  C63  1  0.62540000  0.75790000  0.96990000  1.0 0.592578267
C  C64  1  0.37460000  0.24210000  0.03010000  1.0 0.592578267
C  C65  1  0.79360000  0.80670000  0.00730000  1.0 -0.0914162331
C  C66  1  0.20640000  0.19330000  0.99270000  1.0 -0.0914162331
C  C67  1  0.86530000  0.87050000  0.04520000  1.0 -0.1586216925
C  C68  1  0.13470000  0.12950000  0.95480000  1.0 -0.1586216925
C  C69  1  0.66400000  0.24290000  0.18240000  1.0 0.6015888005
C  C70  1  0.33600000  0.75710000  0.81760000  1.0 0.6015888005
C  C71  1  0.70560000  0.28870000  0.27050000  1.0 -0.0032919163
C  C72  1  0.29440000  0.71130000  0.72950000  1.0 -0.0032919163
C  C73  1  0.65550000  0.33600000  0.33480000  1.0 -0.1331602684
C  C74  1  0.34450000  0.66400000  0.66520000  1.0 -0.1331602684
C  C75  1  0.69610000  0.38200000  0.41600000  1.0 -0.0084654955
C  C76  1  0.30390000  0.61800000  0.58400000  1.0 -0.0032919163
C  C77  1  0.64750000  0.43930000  0.48180000  1.0 0.6185619383
C  C78  1  0.35250000  0.56070000  0.51820000  1.0 0.6185619383
C  C79  1  0.78500000  0.38060000  0.43520000  1.0 -0.1387647689
C  C80  1  0.21500000  0.61940000  0.56480000  1.0 -0.1387647689
C  C81  1  0.83480000  0.33400000  0.37590000  1.0 0.0201848729
C  C82  1  0.16520000  0.66600000  0.62410000  1.0 0.0201848729
C  C83  1  0.79610000  0.28730000  0.29300000  1.0 -0.1020364712
C  C84  1  0.20390000  0.71270000  0.70700000  1.0 -0.1020364712
C  C85  1  0.92800000  0.33190000  0.40020000  1.0 0.2683151811
C  C86  1  0.07200000  0.66810000  0.59980000  1.0 0.2683151811
C  C87  1  0.05490000  0.35890000  0.47410000  1.0 0.2438972244
C  C88  1  0.94510000  0.64110000  0.52590000  1.0 0.2438972244
C  C89  1  0.12470000  0.39210000  0.54400000  1.0 0.0295043746
C  C90  1  0.87530000  0.60790000  0.45600000  1.0 0.0295043746
C  C91  1  0.10960000  0.44460000  0.62460000  1.0 -0.1586216925
C  C92  1  0.89040000  0.55540000  0.37540000  1.0 -0.1586216925
C  C93  1  0.17900000  0.48140000  0.68870000  1.0 -0.0914162331
C  C94  1  0.82100000  0.51860000  0.31130000  1.0 -0.0914162331
C  C95  1  0.26740000  0.46900000  0.67110000  1.0 -0.0084654955
C  C96  1  0.73260000  0.53100000  0.32890000  1.0 -0.0084654955
C  C97  1  0.34510000  0.51980000  0.73370000  1.0 0.6015888005
C  C98  1  0.65490000  0.48020000  0.26630000  1.0 0.592578267
C  C99  1  0.28260000  0.41450000  0.58980000  1.0 -0.0914162331
C  C100  1  0.71740000  0.58550000  0.41020000  1.0 -0.0914162331
C  C101  1  0.21290000  0.37710000  0.52720000  1.0 -0.0914162331
C  C102  1  0.78710000  0.62290000  0.47280000  1.0 -0.0914162331
C  C103  1  0.54740000  0.67300000  0.51200000  1.0 0.5327429125
C  C104  1  0.45260000  0.32700000  0.48800000  1.0 0.5327429125
N  N1  1  0.39910000  0.83570000  0.42320000  1.0 -0.2782212248
N  N2  1  0.60090000  0.16430000  0.57680000  1.0 -0.2782212248
N  N3  1  0.35890000  0.95870000  0.43890000  1.0 -0.2631809017
N  N4  1  0.64110000  0.04130000  0.56110000  1.0 -0.2631809017
N  N5  1  0.35510000  0.90990000  0.35140000  1.0 -0.2631809017
N  N6  1  0.64490000  0.09010000  0.64860000  1.0 -0.2631809017
N  N7  1  0.01510000  0.01630000  0.12120000  1.0 -0.3032468608
N  N8  1  0.98490000  0.98370000  0.87880000  1.0 -0.3032468608
N  N9  1  0.00540000  0.14630000  0.20650000  1.0 -0.2417588036
N  N10  1  0.99460000  0.85370000  0.79350000  1.0 -0.2417588036
N  N11  1  0.91980000  0.09890000  0.18950000  1.0 -0.2417588036
N  N12  1  0.08020000  0.90110000  0.81050000  1.0 -0.2417588036
N  N13  1  0.97120000  0.37720000  0.47800000  1.0 -0.3086794069
N  N14  1  0.02880000  0.62280000  0.52200000  1.0 -0.3086794069
N  N15  1  0.98460000  0.28960000  0.35060000  1.0 -0.2417588036
N  N16  1  0.01540000  0.71040000  0.64940000  1.0 -0.2417588036
N  N17  1  0.06510000  0.30410000  0.39740000  1.0 -0.2456195107
N  N18  1  0.93490000  0.69590000  0.60260000  1.0 -0.2456195107
O  O1  1  0.43550000  0.92530000  0.85680000  1.0 -0.6305801919
O  O2  1  0.56450000  0.07470000  0.14320000  1.0 -0.6305801919
O  O3  1  0.50520000  0.06170000  0.88400000  1.0 -0.6411859543
O  O4  1  0.49480000  0.93830000  0.11600000  1.0 -0.6411859543
O  O5  1  0.37350000  0.77490000  0.02420000  1.0 -0.6305801919
O  O6  1  0.62650000  0.22510000  0.97580000  1.0 -0.6305801919
O  O7  1  0.41920000  0.64770000  0.97550000  1.0 -0.6411859543
O  O8  1  0.58080000  0.35230000  0.02450000  1.0 -0.6411859543
O  O9  1  0.46650000  0.48700000  0.15520000  1.0 -0.6247727325
O  O10  1  0.53350000  0.51300000  0.84480000  1.0 -0.6247727325
O  O11  1  0.40290000  0.51910000  0.27890000  1.0 -0.6625099829
O  O12  1  0.59710000  0.48090000  0.72110000  1.0 -0.6625099829
O  O13  1  0.30760000  0.36860000  0.31310000  1.0 -0.552731221
O  O14  1  0.69240000  0.63140000  0.68690000  1.0 -0.552731221
O  O15  1  0.43010000  0.33460000  0.25190000  1.0 -0.7309771231
O  O16  1  0.56990000  0.66540000  0.74810000  1.0 -0.7309771231
O  O17  1  0.42090000  0.03650000  0.03230000  1.0 -0.7309771231
O  O18  1  0.57910000  0.96350000  0.96770000  1.0 -0.7309771231
O  O19  1  0.31330000  0.93480000  0.04040000  1.0 -0.5720065883
O  O20  1  0.68670000  0.06520000  0.95960000  1.0 -0.5720065883
O  O21  1  0.63410000  0.68240000  0.92720000  1.0 -0.5772441676
O  O22  1  0.36590000  0.31760000  0.07280000  1.0 -0.5772441676
O  O23  1  0.54980000  0.78470000  0.96520000  1.0 -0.7496593049
O  O24  1  0.45020000  0.21530000  0.03480000  1.0 -0.7496593049
O  O25  1  0.58490000  0.25460000  0.16400000  1.0 -0.7496593049
O  O26  1  0.41510000  0.74540000  0.83600000  1.0 -0.7496593049
O  O27  1  0.70360000  0.19440000  0.12850000  1.0 -0.5195618322
O  O28  1  0.29640000  0.80560000  0.87150000  1.0 -0.5195618322
O  O29  1  0.57750000  0.46530000  0.46100000  1.0 -0.7496593049
O  O30  1  0.42250000  0.53470000  0.53900000  1.0 -0.7496593049
O  O31  1  0.67540000  0.46220000  0.55840000  1.0 -0.5627650669
O  O32  1  0.32460000  0.53780000  0.44160000  1.0 -0.5627650669
O  O33  1  0.33290000  0.55800000  0.80970000  1.0 -0.5772441676
O  O34  1  0.66710000  0.44200000  0.19030000  1.0 -0.5772441676
O  O35  1  0.42570000  0.52720000  0.70900000  1.0 -0.7439534715
O  O36  1  0.57430000  0.47280000  0.29100000  1.0 -0.7439534715
O  O37  1  0.51310000  0.61790000  0.43890000  1.0 -0.6411859543
O  O38  1  0.48690000  0.38210000  0.56110000  1.0 -0.6411859543
O  O39  1  0.57390000  0.65050000  0.57210000  1.0 -0.6065081408
O  O40  1  0.42610000  0.34950000  0.42790000  1.0 -0.6065081408
