# DDEC6 charges by PACMAN v1.1 (https://github.com/mtap-research/PACMAN-charge/)
data_MAKRIC_ASR_pacman
_symmetry_space_group_name_H-M   'P 1'
_cell_length_a   8.44700000
_cell_length_b   11.12510000
_cell_length_c   17.58100000
_cell_angle_alpha   102.11800000
_cell_angle_beta   88.74100000
_cell_angle_gamma   100.94000000
_symmetry_Int_Tables_number   1
_chemical_formula_structural   K2NiH34C52(NO3)4
_chemical_formula_sum   'K2 Ni1 H34 C52 N4 O12'
_cell_volume   1585.70644986
_cell_formula_units_Z   1
loop_
 _symmetry_equiv_pos_site_id
 _symmetry_equiv_pos_as_xyz
  1  'x, y, z'
loop_
 _atom_site_type_symbol
 _atom_site_label
 _atom_site_symmetry_multiplicity
 _atom_site_fract_x
 _atom_site_fract_y
 _atom_site_fract_z
 _atom_site_occupancy
 _atom_site_charge
K  K1  1  0.15632000  0.00772000  0.09171000  1.0 0.8660422695
K  K2  1  0.84368000  0.99228000  0.90829000  1.0 0.8660422695
Ni  Ni1  1  0.00000000  0.50000000  0.50000000  1.0 0.4157924485
H  H1  1  0.28820000  0.43740000  0.73400000  1.0 0.1222773145
H  H2  1  0.71180000  0.56260000  0.26600000  1.0 0.1222773145
H  H3  1  0.01890000  0.30590000  0.73510000  1.0 0.1222773145
H  H4  1  0.98110000  0.69410000  0.26490000  1.0 0.1222773145
H  H5  1  0.50610000  0.19670000  0.55480000  1.0 0.1395600768
H  H6  1  0.49390000  0.80330000  0.44520000  1.0 0.1395600768
H  H7  1  0.43900000  0.24330000  0.43500000  1.0 0.1286057514
H  H8  1  0.56100000  0.75670000  0.56500000  1.0 0.1286057514
H  H9  1  0.63190000  0.36130000  0.73860000  1.0 0.1110556803
H  H10  1  0.36810000  0.63870000  0.26140000  1.0 0.1110556803
H  H11  1  0.51490000  0.23800000  0.82680000  1.0 0.1222773145
H  H12  1  0.48510000  0.76200000  0.17320000  1.0 0.1222773145
H  H13  1  0.68220000  0.94610000  0.70690000  1.0 0.1286057514
H  H14  1  0.31780000  0.05390000  0.29310000  1.0 0.1286057514
H  H15  1  0.79470000  0.06440000  0.61740000  1.0 0.1222773145
H  H16  1  0.20530000  0.93560000  0.38260000  1.0 0.1222773145
H  H17  1  0.35180000  0.96370000  0.89320000  1.0 0.1286057514
H  H18  1  0.64820000  0.03630000  0.10680000  1.0 0.1286057514
H  H19  1  0.34700000  0.08370000  0.86080000  1.0 0.1110556803
H  H20  1  0.65300000  0.91630000  0.13920000  1.0 0.1110556803
H  H21  1  0.64760000  0.30690000  0.23610000  1.0 0.1110556803
H  H22  1  0.35240000  0.69310000  0.76390000  1.0 0.1110556803
H  H23  1  0.43950000  0.24640000  0.14550000  1.0 0.1395600768
H  H24  1  0.56050000  0.75360000  0.85450000  1.0 0.1395600768
H  H25  1  0.14280000  0.39130000  0.30470000  1.0 0.1222773145
H  H26  1  0.85720000  0.60870000  0.69530000  1.0 0.1222773145
H  H27  1  0.35260000  0.45270000  0.39540000  1.0 0.1222773145
H  H28  1  0.64740000  0.54730000  0.60460000  1.0 0.1222773145
H  H29  1  0.00620000  0.38750000  0.17380000  1.0 0.14935538
H  H30  1  0.99380000  0.61250000  0.82620000  1.0 0.14935538
H  H31  1  0.95260000  0.27080000  0.21230000  1.0 0.1395600768
H  H32  1  0.04740000  0.72920000  0.78770000  1.0 0.1395600768
H  H33  1  0.74450000  0.25270000  0.04200000  1.0 0.3638640177
H  H34  1  0.25550000  0.74730000  0.95800000  1.0 0.3638640177
C  C1  1  0.20650000  0.48630000  0.63480000  1.0 0.14935538
C  C2  1  0.79350000  0.51370000  0.36520000  1.0 0.14935538
C  C3  1  0.20400000  0.42790000  0.69880000  1.0 -0.2072733956
C  C4  1  0.79600000  0.57210000  0.30120000  1.0 -0.2072733956
C  C5  1  0.05580000  0.35530000  0.69940000  1.0 -0.2006490919
C  C6  1  0.94420000  0.64470000  0.30060000  1.0 -0.2006490919
C  C7  1  0.96570000  0.36970000  0.63330000  1.0 0.1654210818
C  C8  1  0.03430000  0.63030000  0.36670000  1.0 0.1654210818
C  C9  1  0.81150000  0.30750000  0.61520000  1.0 -0.0776058863
C  C10  1  0.18850000  0.69250000  0.38480000  1.0 -0.0776058863
C  C11  1  0.73140000  0.31710000  0.55200000  1.0 0.1585159508
C  C12  1  0.26860000  0.68290000  0.44800000  1.0 0.1585159508
C  C13  1  0.57160000  0.25080000  0.52830000  1.0 -0.1777677256
C  C14  1  0.42840000  0.74920000  0.47170000  1.0 -0.1777677256
C  C15  1  0.53330000  0.27820000  0.46420000  1.0 -0.1709674317
C  C16  1  0.46670000  0.72180000  0.53580000  1.0 -0.1709674317
C  C17  1  0.66320000  0.37320000  0.44530000  1.0 0.1585159508
C  C18  1  0.33680000  0.62680000  0.55470000  1.0 0.1585159508
C  C19  1  0.66050000  0.42370000  0.38220000  1.0 -0.0591465066
C  C20  1  0.33950000  0.57630000  0.61780000  1.0 -0.0591465066
C  C21  1  0.72930000  0.22550000  0.66880000  1.0 0.0688398016
C  C22  1  0.27070000  0.77450000  0.33120000  1.0 0.0688398016
C  C23  1  0.64310000  0.27810000  0.73150000  1.0 -0.1318268943
C  C24  1  0.35690000  0.72190000  0.26850000  1.0 -0.1318268943
C  C25  1  0.57190000  0.20280000  0.78480000  1.0 -0.2150990534
C  C26  1  0.42810000  0.79720000  0.21520000  1.0 -0.2150990534
C  C27  1  0.58590000  0.08430000  0.77530000  1.0 0.2288095412
C  C28  1  0.41410000  0.91570000  0.22470000  1.0 0.2288095412
C  C29  1  0.67120000  0.02920000  0.71310000  1.0 -0.228856014
C  C30  1  0.32880000  0.97080000  0.28690000  1.0 -0.228856014
C  C31  1  0.74030000  0.10140000  0.65980000  1.0 -0.1406266558
C  C32  1  0.25970000  0.89860000  0.34020000  1.0 -0.1406266558
C  C33  1  0.41780000  0.03920000  0.88210000  1.0 -0.1777677256
C  C34  1  0.58220000  0.96080000  0.11790000  1.0 -0.1777677256
C  C35  1  0.49180000  0.12120000  0.95840000  1.0 0.6134006512
C  C36  1  0.50820000  0.87880000  0.04160000  1.0 0.6134006512
C  C37  1  0.52130000  0.38680000  0.32590000  1.0 0.0620013532
C  C38  1  0.47870000  0.61320000  0.67410000  1.0 0.0620013532
C  C39  1  0.54610000  0.32420000  0.25000000  1.0 -0.1168044227
C  C40  1  0.45390000  0.67580000  0.75000000  1.0 -0.1168044227
C  C41  1  0.42170000  0.28800000  0.19570000  1.0 -0.2072733956
C  C42  1  0.57830000  0.71200000  0.80430000  1.0 -0.2072733956
C  C43  1  0.26980000  0.31370000  0.21580000  1.0 0.2288095412
C  C44  1  0.73020000  0.68630000  0.78420000  1.0 0.2288095412
C  C45  1  0.24440000  0.37460000  0.29060000  1.0 -0.2367801535
C  C46  1  0.75560000  0.62540000  0.70940000  1.0 -0.2367801535
C  C47  1  0.37070000  0.41120000  0.34520000  1.0 -0.1318268943
C  C48  1  0.62930000  0.58880000  0.65480000  1.0 -0.1318268943
C  C49  1  0.00140000  0.29800000  0.16680000  1.0 -0.2006490919
C  C50  1  0.99860000  0.70200000  0.83320000  1.0 -0.2006490919
C  C51  1  0.90500000  0.23050000  0.09570000  1.0 0.5831608308
C  C52  1  0.09500000  0.76950000  0.90430000  1.0 0.5831608308
N  N1  1  0.06030000  0.44940000  0.59320000  1.0 -0.3009002077
N  N2  1  0.93970000  0.55060000  0.40680000  1.0 -0.3009002077
N  N3  1  0.78770000  0.39290000  0.49940000  1.0 -0.3084073085
N  N4  1  0.21230000  0.60710000  0.50060000  1.0 -0.3084073085
O  O1  1  0.53040000  0.00420000  0.82440000  1.0 -0.2072733956
O  O2  1  0.46960000  0.99580000  0.17560000  1.0 -0.2072733956
O  O3  1  0.64340000  0.16530000  0.96030000  1.0 -0.6302355099
O  O4  1  0.35660000  0.83470000  0.03970000  1.0 -0.6302355099
O  O5  1  0.39920000  0.13700000  0.01330000  1.0 -0.6021641958
O  O6  1  0.60080000  0.86300000  0.98670000  1.0 -0.6021641958
O  O7  1  0.15670000  0.27050000  0.15690000  1.0 -0.1709674317
O  O8  1  0.84330000  0.72950000  0.84310000  1.0 -0.1709674317
O  O9  1  0.77460000  0.27300000  0.08770000  1.0 -0.4401286113
O  O10  1  0.22540000  0.72700000  0.91230000  1.0 -0.4401286113
O  O11  1  0.94170000  0.14440000  0.05160000  1.0 -0.5343193877
O  O12  1  0.05830000  0.85560000  0.94840000  1.0 -0.5343193877
