# DDEC6 charges by PACMAN v1.1 (https://github.com/mtap-research/PACMAN-charge/)
data_MAMVED_ASR_pacman
_symmetry_space_group_name_H-M   'P 1'
_cell_length_a   27.16530000
_cell_length_b   27.16530000
_cell_length_c   37.90510000
_cell_angle_alpha   90.00000000
_cell_angle_beta   90.00000000
_cell_angle_gamma   90.00000000
_symmetry_Int_Tables_number   1
_chemical_formula_structural   Rb5H252(C36O31)4
_chemical_formula_sum   'Rb20 H1008 C576 O496'
_cell_volume   27972.20212598
_cell_formula_units_Z   4
loop_
 _symmetry_equiv_pos_site_id
 _symmetry_equiv_pos_as_xyz
  1  'x, y, z'
loop_
 _atom_site_type_symbol
 _atom_site_label
 _atom_site_symmetry_multiplicity
 _atom_site_fract_x
 _atom_site_fract_y
 _atom_site_fract_z
 _atom_site_occupancy
 _atom_site_charge
Rb  Rb1  1  0.24231000  0.70956000  0.00245000  1.0 0.7604379495
Rb  Rb2  1  0.75769000  0.29044000  0.50245000  1.0 0.7604379495
Rb  Rb3  1  0.79044000  0.74231000  0.75245000  1.0 0.7604379495
Rb  Rb4  1  0.20956000  0.25769000  0.25245000  1.0 0.7604379495
Rb  Rb5  1  0.25769000  0.20956000  0.74755000  1.0 0.7604379495
Rb  Rb6  1  0.74231000  0.79044000  0.24755000  1.0 0.7604379495
Rb  Rb7  1  0.70956000  0.24231000  0.99755000  1.0 0.7604379495
Rb  Rb8  1  0.29044000  0.75769000  0.49755000  1.0 0.7604379495
Rb  Rb9  1  0.46762000  0.01113000  0.24913000  1.0 0.8175636967
Rb  Rb10  1  0.53238000  0.98887000  0.74913000  1.0 0.8175636967
Rb  Rb11  1  0.48887000  0.96762000  0.99913000  1.0 0.8175636967
Rb  Rb12  1  0.51113000  0.03238000  0.49913000  1.0 0.8175636967
Rb  Rb13  1  0.03238000  0.51113000  0.50087000  1.0 0.8175636967
Rb  Rb14  1  0.96762000  0.48887000  0.00087000  1.0 0.8175636967
Rb  Rb15  1  0.01113000  0.46762000  0.75087000  1.0 0.8175636967
Rb  Rb16  1  0.98887000  0.53238000  0.25087000  1.0 0.8175636967
Rb  Rb17  1  0.59783000  0.59783000  0.00000000  1.0 0.8656841209
Rb  Rb18  1  0.40217000  0.40217000  0.50000000  1.0 0.8656841209
Rb  Rb19  1  0.90217000  0.09783000  0.75000000  1.0 0.8656841209
Rb  Rb20  1  0.09783000  0.90217000  0.25000000  1.0 0.8656841209
H  H1  1  0.01690000  0.29990000  0.89470000  1.0 0.2280043829
H  H2  1  0.98310000  0.70010000  0.39470000  1.0 0.2280043829
H  H3  1  0.20010000  0.51690000  0.64470000  1.0 0.2280043829
H  H4  1  0.79990000  0.48310000  0.14470000  1.0 0.2280043829
H  H5  1  0.48310000  0.79990000  0.85530000  1.0 0.2280043829
H  H6  1  0.51690000  0.20010000  0.35530000  1.0 0.2280043829
H  H7  1  0.29990000  0.01690000  0.10530000  1.0 0.2280043829
H  H8  1  0.70010000  0.98310000  0.60530000  1.0 0.2280043829
H  H9  1  0.31270000  0.93250000  0.13590000  1.0 0.2596280267
H  H10  1  0.68730000  0.06750000  0.63590000  1.0 0.2596280267
H  H11  1  0.56750000  0.81270000  0.88590000  1.0 0.2596280267
H  H12  1  0.43250000  0.18730000  0.38590000  1.0 0.2596280267
H  H13  1  0.18730000  0.43250000  0.61410000  1.0 0.2596280267
H  H14  1  0.81270000  0.56750000  0.11410000  1.0 0.2596280267
H  H15  1  0.93250000  0.31270000  0.86410000  1.0 0.2596280267
H  H16  1  0.06750000  0.68730000  0.36410000  1.0 0.2596280267
H  H17  1  0.19500000  0.62900000  0.96270000  1.0 0.3215594267
H  H18  1  0.80500000  0.37100000  0.46270000  1.0 0.3215594267
H  H19  1  0.87100000  0.69500000  0.71270000  1.0 0.3215594267
H  H20  1  0.12900000  0.30500000  0.21270000  1.0 0.3215594267
H  H21  1  0.30500000  0.12900000  0.78730000  1.0 0.3215594267
H  H22  1  0.69500000  0.87100000  0.28730000  1.0 0.3215594267
H  H23  1  0.62900000  0.19500000  0.03730000  1.0 0.3215594267
H  H24  1  0.37100000  0.80500000  0.53730000  1.0 0.3215594267
H  H25  1  0.31220000  0.60650000  0.97290000  1.0 0.3319481862
H  H26  1  0.68780000  0.39350000  0.47290000  1.0 0.3319481862
H  H27  1  0.89350000  0.81220000  0.72290000  1.0 0.3319481862
H  H28  1  0.10650000  0.18780000  0.22290000  1.0 0.3319481862
H  H29  1  0.18780000  0.10650000  0.77710000  1.0 0.3319481862
H  H30  1  0.81220000  0.89350000  0.27710000  1.0 0.3385495637
H  H31  1  0.60650000  0.31220000  0.02710000  1.0 0.3319481862
H  H32  1  0.39350000  0.68780000  0.52710000  1.0 0.3319481862
H  H33  1  0.26160000  0.37620000  0.04490000  1.0 0.3385495637
H  H34  1  0.73840000  0.62380000  0.54490000  1.0 0.3385495637
H  H35  1  0.12380000  0.76160000  0.79490000  1.0 0.3385495637
H  H36  1  0.87620000  0.23840000  0.29490000  1.0 0.3385495637
H  H37  1  0.23840000  0.87620000  0.70510000  1.0 0.3385495637
H  H38  1  0.76160000  0.12380000  0.20510000  1.0 0.3385495637
H  H39  1  0.37620000  0.26160000  0.95510000  1.0 0.3385495637
H  H40  1  0.62380000  0.73840000  0.45510000  1.0 0.3385495637
H  H41  1  0.39220000  0.62080000  0.96890000  1.0 0.3385495637
H  H42  1  0.60780000  0.37920000  0.46890000  1.0 0.3385495637
H  H43  1  0.87920000  0.89220000  0.71890000  1.0 0.3385495637
H  H44  1  0.12080000  0.10780000  0.21890000  1.0 0.3385495637
H  H45  1  0.10780000  0.12080000  0.78110000  1.0 0.3385495637
H  H46  1  0.89220000  0.87920000  0.28110000  1.0 0.3385495637
H  H47  1  0.62080000  0.39220000  0.03110000  1.0 0.3385495637
H  H48  1  0.37920000  0.60780000  0.53110000  1.0 0.3385495637
H  H49  1  0.41550000  0.54040000  0.86900000  1.0 0.3385495637
H  H50  1  0.58450000  0.45960000  0.36900000  1.0 0.3385495637
H  H51  1  0.95960000  0.91550000  0.61900000  1.0 0.3385495637
H  H52  1  0.04040000  0.08450000  0.11900000  1.0 0.3385495637
H  H53  1  0.08450000  0.04040000  0.88100000  1.0 0.3385495637
H  H54  1  0.91550000  0.95960000  0.38100000  1.0 0.3385495637
H  H55  1  0.54040000  0.41550000  0.13100000  1.0 0.3385495637
H  H56  1  0.45960000  0.58450000  0.63100000  1.0 0.3385495637
H  H57  1  0.46240000  0.39320000  0.97600000  1.0 0.3106128747
H  H58  1  0.53760000  0.60680000  0.47600000  1.0 0.3106128747
H  H59  1  0.10680000  0.96240000  0.72600000  1.0 0.3106128747
H  H60  1  0.89320000  0.03760000  0.22600000  1.0 0.3106128747
H  H61  1  0.03760000  0.89320000  0.77400000  1.0 0.3106128747
H  H62  1  0.96240000  0.10680000  0.27400000  1.0 0.3106128747
H  H63  1  0.39320000  0.46240000  0.02400000  1.0 0.3106128747
H  H64  1  0.60680000  0.53760000  0.52400000  1.0 0.3106128747
H  H65  1  0.45280000  0.50730000  0.80710000  1.0 0.3473225226
H  H66  1  0.54720000  0.49270000  0.30710000  1.0 0.3473225226
H  H67  1  0.99270000  0.95280000  0.55710000  1.0 0.3473225226
H  H68  1  0.00730000  0.04720000  0.05710000  1.0 0.3473225226
H  H69  1  0.04720000  0.00730000  0.94290000  1.0 0.3473225226
H  H70  1  0.95280000  0.99270000  0.44290000  1.0 0.3473225226
H  H71  1  0.50730000  0.45280000  0.19290000  1.0 0.3473225226
H  H72  1  0.49270000  0.54720000  0.69290000  1.0 0.3473225226
H  H73  1  0.32990000  0.42700000  0.76610000  1.0 0.3215594267
H  H74  1  0.67010000  0.57300000  0.26610000  1.0 0.3215594267
H  H75  1  0.07300000  0.82990000  0.51610000  1.0 0.3215594267
H  H76  1  0.92700000  0.17010000  0.01610000  1.0 0.3215594267
H  H77  1  0.17010000  0.92700000  0.98390000  1.0 0.3215594267
H  H78  1  0.82990000  0.07300000  0.48390000  1.0 0.3215594267
H  H79  1  0.42700000  0.32990000  0.23390000  1.0 0.3215594267
H  H80  1  0.57300000  0.67010000  0.73390000  1.0 0.3215594267
H  H81  1  0.39950000  0.24980000  0.83910000  1.0 0.3215594267
H  H82  1  0.60050000  0.75020000  0.33910000  1.0 0.3215594267
H  H83  1  0.25020000  0.89950000  0.58910000  1.0 0.3215594267
H  H84  1  0.74980000  0.10050000  0.08910000  1.0 0.3215594267
H  H85  1  0.10050000  0.74980000  0.91090000  1.0 0.3215594267
H  H86  1  0.89950000  0.25020000  0.41090000  1.0 0.3215594267
H  H87  1  0.24980000  0.39950000  0.16090000  1.0 0.3215594267
H  H88  1  0.75020000  0.60050000  0.66090000  1.0 0.3215594267
H  H89  1  0.30560000  0.38360000  0.72010000  1.0 0.3385495637
H  H90  1  0.69440000  0.61640000  0.22010000  1.0 0.3385495637
H  H91  1  0.11640000  0.80560000  0.47010000  1.0 0.3385495637
H  H92  1  0.88360000  0.19440000  0.97010000  1.0 0.3385495637
H  H93  1  0.19440000  0.88360000  0.02990000  1.0 0.3385495637
H  H94  1  0.80560000  0.11640000  0.52990000  1.0 0.3385495637
H  H95  1  0.38360000  0.30560000  0.27990000  1.0 0.3385495637
H  H96  1  0.61640000  0.69440000  0.77990000  1.0 0.3385495637
H  H97  1  0.14960000  0.39810000  0.76030000  1.0 0.3319481862
H  H98  1  0.85040000  0.60190000  0.26030000  1.0 0.3319481862
H  H99  1  0.10190000  0.64960000  0.51030000  1.0 0.3319481862
H  H100  1  0.89810000  0.35040000  0.01030000  1.0 0.3319481862
H  H101  1  0.35040000  0.89810000  0.98970000  1.0 0.3319481862
H  H102  1  0.64960000  0.10190000  0.48970000  1.0 0.3319481862
H  H103  1  0.39810000  0.14960000  0.23970000  1.0 0.3319481862
H  H104  1  0.60190000  0.85040000  0.73970000  1.0 0.3319481862
H  H105  1  0.08090000  0.38780000  0.75520000  1.0 0.3106128747
H  H106  1  0.91910000  0.61220000  0.25520000  1.0 0.3106128747
H  H107  1  0.11220000  0.58090000  0.50520000  1.0 0.3048124412
H  H108  1  0.88780000  0.41910000  0.00520000  1.0 0.3106128747
H  H109  1  0.41910000  0.88780000  0.99480000  1.0 0.3106128747
H  H110  1  0.58090000  0.11220000  0.49480000  1.0 0.3106128747
H  H111  1  0.38780000  0.08090000  0.24480000  1.0 0.3048124412
H  H112  1  0.61220000  0.91910000  0.74480000  1.0 0.3048124412
H  H113  1  0.04680000  0.48950000  0.84770000  1.0 0.3319481862
H  H114  1  0.95320000  0.51050000  0.34770000  1.0 0.3319481862
H  H115  1  0.01050000  0.54680000  0.59770000  1.0 0.3319481862
H  H116  1  0.98950000  0.45320000  0.09770000  1.0 0.3319481862
H  H117  1  0.45320000  0.98950000  0.90230000  1.0 0.3319481862
H  H118  1  0.54680000  0.01050000  0.40230000  1.0 0.3319481862
H  H119  1  0.48950000  0.04680000  0.15230000  1.0 0.3319481862
H  H120  1  0.51050000  0.95320000  0.65230000  1.0 0.3319481862
H  H121  1  0.12410000  0.59320000  0.95200000  1.0 0.3319481862
H  H122  1  0.87590000  0.40680000  0.45200000  1.0 0.3319481862
H  H123  1  0.90680000  0.62410000  0.70200000  1.0 0.3319481862
H  H124  1  0.09320000  0.37590000  0.20200000  1.0 0.3319481862
H  H125  1  0.37590000  0.09320000  0.79800000  1.0 0.3319481862
H  H126  1  0.62410000  0.90680000  0.29800000  1.0 0.3319481862
H  H127  1  0.59320000  0.12410000  0.04800000  1.0 0.3319481862
H  H128  1  0.40680000  0.87590000  0.54800000  1.0 0.3319481862
H  H129  1  0.04300000  0.42170000  0.03370000  1.0 0.3385495637
H  H130  1  0.95700000  0.57830000  0.53370000  1.0 0.3385495637
H  H131  1  0.07830000  0.54300000  0.78370000  1.0 0.3385495637
H  H132  1  0.92170000  0.45700000  0.28370000  1.0 0.3385495637
H  H133  1  0.45700000  0.92170000  0.71630000  1.0 0.3385495637
H  H134  1  0.54300000  0.07830000  0.21630000  1.0 0.3385495637
H  H135  1  0.42170000  0.04300000  0.96630000  1.0 0.3385495637
H  H136  1  0.57830000  0.95700000  0.46630000  1.0 0.3385495637
H  H137  1  0.53780000  0.98410000  0.12310000  1.0 0.2813340329
H  H138  1  0.46220000  0.01590000  0.62310000  1.0 0.2813340329
H  H139  1  0.51590000  0.03780000  0.87310000  1.0 0.2813340329
H  H140  1  0.48410000  0.96220000  0.37310000  1.0 0.2813340329
H  H141  1  0.96220000  0.48410000  0.62690000  1.0 0.2813340329
H  H142  1  0.03780000  0.51590000  0.12690000  1.0 0.2813340329
H  H143  1  0.98410000  0.53780000  0.87690000  1.0 0.2813340329
H  H144  1  0.01590000  0.46220000  0.37690000  1.0 0.2813340329
H  H145  1  0.61350000  0.87600000  0.19720000  1.0 0.3319481862
H  H146  1  0.38650000  0.12400000  0.69720000  1.0 0.3319481862
H  H147  1  0.62400000  0.11350000  0.94720000  1.0 0.3319481862
H  H148  1  0.37600000  0.88650000  0.44720000  1.0 0.3319481862
H  H149  1  0.88650000  0.37600000  0.55280000  1.0 0.3319481862
H  H150  1  0.11350000  0.62400000  0.05280000  1.0 0.3319481862
H  H151  1  0.87600000  0.61350000  0.80280000  1.0 0.3319481862
H  H152  1  0.12400000  0.38650000  0.30280000  1.0 0.3319481862
H  H153  1  0.45060000  0.90100000  0.29790000  1.0 0.3319481862
H  H154  1  0.54940000  0.09900000  0.79790000  1.0 0.3319481862
H  H155  1  0.59900000  0.95060000  0.04790000  1.0 0.3319481862
H  H156  1  0.40100000  0.04940000  0.54790000  1.0 0.3319481862
H  H157  1  0.04940000  0.40100000  0.45210000  1.0 0.3319481862
H  H158  1  0.95060000  0.59900000  0.95210000  1.0 0.3319481862
H  H159  1  0.90100000  0.45060000  0.70210000  1.0 0.3319481862
H  H160  1  0.09900000  0.54940000  0.20210000  1.0 0.3319481862
H  H161  1  0.49920000  0.93040000  0.09360000  1.0 0.3319481862
H  H162  1  0.50080000  0.06960000  0.59360000  1.0 0.3319481862
H  H163  1  0.56960000  0.99920000  0.84360000  1.0 0.3319481862
H  H164  1  0.43040000  0.00080000  0.34360000  1.0 0.3319481862
H  H165  1  0.00080000  0.43040000  0.65640000  1.0 0.3319481862
H  H166  1  0.99920000  0.56960000  0.15640000  1.0 0.3319481862
H  H167  1  0.93040000  0.49920000  0.90640000  1.0 0.3319481862
H  H168  1  0.06960000  0.50080000  0.40640000  1.0 0.3319481862
H  H169  1  0.44550000  0.64080000  0.00360000  1.0 0.2696538111
H  H170  1  0.55450000  0.35920000  0.50360000  1.0 0.2696538111
H  H171  1  0.85920000  0.94550000  0.75360000  1.0 0.2696538111
H  H172  1  0.14080000  0.05450000  0.25360000  1.0 0.2696538111
H  H173  1  0.05450000  0.14080000  0.74640000  1.0 0.2696538111
H  H174  1  0.94550000  0.85920000  0.24640000  1.0 0.2696538111
H  H175  1  0.64080000  0.44550000  0.99640000  1.0 0.2696538111
H  H176  1  0.35920000  0.55450000  0.49640000  1.0 0.2696538111
H  H177  1  0.42440000  0.79590000  0.01000000  1.0 0.3385495637
H  H178  1  0.57560000  0.20410000  0.51000000  1.0 0.3385495637
H  H179  1  0.70410000  0.92440000  0.76000000  1.0 0.3385495637
H  H180  1  0.29590000  0.07560000  0.26000000  1.0 0.3385495637
H  H181  1  0.07560000  0.29590000  0.74000000  1.0 0.3385495637
H  H182  1  0.92440000  0.70410000  0.24000000  1.0 0.3385495637
H  H183  1  0.79590000  0.42440000  0.99000000  1.0 0.3385495637
H  H184  1  0.20410000  0.57560000  0.49000000  1.0 0.3385495637
H  H185  1  0.23850000  0.72850000  0.07570000  1.0 0.3215594267
H  H186  1  0.76150000  0.27150000  0.57570000  1.0 0.3215594267
H  H187  1  0.77150000  0.73850000  0.82570000  1.0 0.3215594267
H  H188  1  0.22850000  0.26150000  0.32570000  1.0 0.3215594267
H  H189  1  0.26150000  0.22850000  0.67430000  1.0 0.3215594267
H  H190  1  0.73850000  0.77150000  0.17430000  1.0 0.3215594267
H  H191  1  0.72850000  0.23850000  0.92430000  1.0 0.3215594267
H  H192  1  0.27150000  0.76150000  0.42430000  1.0 0.3215594267
H  H193  1  0.57910000  0.57010000  0.09010000  1.0 0.2596280267
H  H194  1  0.42090000  0.42990000  0.59010000  1.0 0.2596280267
H  H195  1  0.92990000  0.07910000  0.84010000  1.0 0.2596280267
H  H196  1  0.07010000  0.92090000  0.34010000  1.0 0.2596280267
H  H197  1  0.92090000  0.07010000  0.65990000  1.0 0.2596280267
H  H198  1  0.07910000  0.92990000  0.15990000  1.0 0.2596280267
H  H199  1  0.57010000  0.57910000  0.90990000  1.0 0.2596280267
H  H200  1  0.42990000  0.42090000  0.40990000  1.0 0.2596280267
H  H201  1  0.46870000  0.62400000  0.01160000  1.0 0.2596280267
H  H202  1  0.53130000  0.37600000  0.51160000  1.0 0.2596280267
H  H203  1  0.87600000  0.96870000  0.76160000  1.0 0.2596280267
H  H204  1  0.12400000  0.03130000  0.26160000  1.0 0.2596280267
H  H205  1  0.03130000  0.12400000  0.73840000  1.0 0.2596280267
H  H206  1  0.96870000  0.87600000  0.23840000  1.0 0.2596280267
H  H207  1  0.62400000  0.46870000  0.98840000  1.0 0.2596280267
H  H208  1  0.37600000  0.53130000  0.48840000  1.0 0.2596280267
H  H209  1  0.37460000  0.50540000  0.07680000  1.0 0.3215594267
H  H210  1  0.62540000  0.49460000  0.57680000  1.0 0.3215594267
H  H211  1  0.99460000  0.87460000  0.82680000  1.0 0.3215594267
H  H212  1  0.00540000  0.12540000  0.32680000  1.0 0.3215594267
H  H213  1  0.12540000  0.00540000  0.67320000  1.0 0.3215594267
H  H214  1  0.87460000  0.99460000  0.17320000  1.0 0.3215594267
H  H215  1  0.50540000  0.37460000  0.92320000  1.0 0.3215594267
H  H216  1  0.49460000  0.62540000  0.42320000  1.0 0.3215594267
H  H217  1  0.65740000  0.66900000  0.20160000  1.0 0.2407090812
H  H218  1  0.34260000  0.33100000  0.70160000  1.0 0.2407090812
H  H219  1  0.83100000  0.15740000  0.95160000  1.0 0.2407090812
H  H220  1  0.16900000  0.84260000  0.45160000  1.0 0.2407090812
H  H221  1  0.84260000  0.16900000  0.54840000  1.0 0.2407090812
H  H222  1  0.15740000  0.83100000  0.04840000  1.0 0.2407090812
H  H223  1  0.66900000  0.65740000  0.79840000  1.0 0.2407090812
H  H224  1  0.33100000  0.34260000  0.29840000  1.0 0.2407090812
H  H225  1  0.60060000  0.57960000  0.10930000  1.0 0.2407090812
H  H226  1  0.39940000  0.42040000  0.60930000  1.0 0.2407090812
H  H227  1  0.92040000  0.10060000  0.85930000  1.0 0.2407090812
H  H228  1  0.07960000  0.89940000  0.35930000  1.0 0.2407090812
H  H229  1  0.89940000  0.07960000  0.64070000  1.0 0.2407090812
H  H230  1  0.10060000  0.92040000  0.14070000  1.0 0.2407090812
H  H231  1  0.57960000  0.60060000  0.89070000  1.0 0.2407090812
H  H232  1  0.42040000  0.39940000  0.39070000  1.0 0.2407090812
H  H233  1  0.65760000  0.85370000  0.24080000  1.0 0.3319481862
H  H234  1  0.34240000  0.14630000  0.74080000  1.0 0.3319481862
H  H235  1  0.64630000  0.15760000  0.99080000  1.0 0.3319481862
H  H236  1  0.35370000  0.84240000  0.49080000  1.0 0.3319481862
H  H237  1  0.84240000  0.35370000  0.50920000  1.0 0.3319481862
H  H238  1  0.15760000  0.64630000  0.00920000  1.0 0.3319481862
H  H239  1  0.85370000  0.65760000  0.75920000  1.0 0.3319481862
H  H240  1  0.14630000  0.34240000  0.25920000  1.0 0.3319481862
H  H241  1  0.65750000  0.69510000  0.20820000  1.0 0.2280043829
H  H242  1  0.34250000  0.30490000  0.70820000  1.0 0.2280043829
H  H243  1  0.80490000  0.15750000  0.95820000  1.0 0.2280043829
H  H244  1  0.19510000  0.84250000  0.45820000  1.0 0.2280043829
H  H245  1  0.84250000  0.19510000  0.54180000  1.0 0.2280043829
H  H246  1  0.15750000  0.80490000  0.04180000  1.0 0.2280043829
H  H247  1  0.69510000  0.65750000  0.79180000  1.0 0.2280043829
H  H248  1  0.30490000  0.34250000  0.29180000  1.0 0.2280043829
H  H249  1  0.42730000  0.69860000  0.28820000  1.0 0.3473225226
H  H250  1  0.57270000  0.30140000  0.78820000  1.0 0.3473225226
H  H251  1  0.80140000  0.92730000  0.03820000  1.0 0.3473225226
H  H252  1  0.19860000  0.07270000  0.53820000  1.0 0.3473225226
H  H253  1  0.07270000  0.19860000  0.46180000  1.0 0.3473225226
H  H254  1  0.92730000  0.80140000  0.96180000  1.0 0.3473225226
H  H255  1  0.69860000  0.42730000  0.71180000  1.0 0.3473225226
H  H256  1  0.30140000  0.57270000  0.21180000  1.0 0.3473225226
H  H257  1  0.14370000  0.53930000  0.02060000  1.0 0.0806680577
H  H258  1  0.85630000  0.46070000  0.52060000  1.0 0.0806680577
H  H259  1  0.96070000  0.64370000  0.77060000  1.0 0.0806680577
H  H260  1  0.03930000  0.35630000  0.27060000  1.0 0.0806680577
H  H261  1  0.35630000  0.03930000  0.72940000  1.0 0.0806680577
H  H262  1  0.64370000  0.96070000  0.22940000  1.0 0.0806680577
H  H263  1  0.53930000  0.14370000  0.97940000  1.0 0.0806680577
H  H264  1  0.46070000  0.85630000  0.47940000  1.0 0.0806680577
H  H265  1  0.21050000  0.59430000  0.02390000  1.0 0.0989618205
H  H266  1  0.78950000  0.40570000  0.52390000  1.0 0.0989618205
H  H267  1  0.90570000  0.71050000  0.77390000  1.0 0.0989618205
H  H268  1  0.09430000  0.28950000  0.27390000  1.0 0.0989618205
H  H269  1  0.28950000  0.09430000  0.72610000  1.0 0.0989618205
H  H270  1  0.71050000  0.90570000  0.22610000  1.0 0.0989618205
H  H271  1  0.59430000  0.21050000  0.97610000  1.0 0.0989618205
H  H272  1  0.40570000  0.78950000  0.47610000  1.0 0.0989618205
H  H273  1  0.24360000  0.56280000  0.95780000  1.0 0.0903443152
H  H274  1  0.75640000  0.43720000  0.45780000  1.0 0.0903443152
H  H275  1  0.93720000  0.74360000  0.70780000  1.0 0.0903443152
H  H276  1  0.06280000  0.25640000  0.20780000  1.0 0.0903443152
H  H277  1  0.25640000  0.06280000  0.79220000  1.0 0.0903443152
H  H278  1  0.74360000  0.93720000  0.29220000  1.0 0.0903443152
H  H279  1  0.56280000  0.24360000  0.04220000  1.0 0.0903443152
H  H280  1  0.43720000  0.75640000  0.54220000  1.0 0.0903443152
H  H281  1  0.29700000  0.53700000  0.02020000  1.0 0.0903443152
H  H282  1  0.70300000  0.46300000  0.52020000  1.0 0.0903443152
H  H283  1  0.96300000  0.79700000  0.77020000  1.0 0.0903443152
H  H284  1  0.03700000  0.20300000  0.27020000  1.0 0.0903443152
H  H285  1  0.20300000  0.03700000  0.72980000  1.0 0.0903443152
H  H286  1  0.79700000  0.96300000  0.22980000  1.0 0.0903443152
H  H287  1  0.53700000  0.29700000  0.97980000  1.0 0.0903443152
H  H288  1  0.46300000  0.70300000  0.47980000  1.0 0.0903443152
H  H289  1  0.23730000  0.46730000  0.98110000  1.0 0.0903443152
H  H290  1  0.76270000  0.53270000  0.48110000  1.0 0.0903443152
H  H291  1  0.03270000  0.73730000  0.73110000  1.0 0.0903443152
H  H292  1  0.96730000  0.26270000  0.23110000  1.0 0.0903443152
H  H293  1  0.26270000  0.96730000  0.76890000  1.0 0.0903443152
H  H294  1  0.73730000  0.03270000  0.26890000  1.0 0.0903443152
H  H295  1  0.46730000  0.23730000  0.01890000  1.0 0.0903443152
H  H296  1  0.53270000  0.76270000  0.51890000  1.0 0.0903443152
H  H297  1  0.30460000  0.43440000  0.01830000  1.0 0.0903443152
H  H298  1  0.69540000  0.56560000  0.51830000  1.0 0.0903443152
H  H299  1  0.06560000  0.80460000  0.76830000  1.0 0.0903443152
H  H300  1  0.93440000  0.19540000  0.26830000  1.0 0.0903443152
H  H301  1  0.19540000  0.93440000  0.73170000  1.0 0.0903443152
H  H302  1  0.80460000  0.06560000  0.23170000  1.0 0.0903443152
H  H303  1  0.43440000  0.30460000  0.98170000  1.0 0.0903443152
H  H304  1  0.56560000  0.69540000  0.48170000  1.0 0.0903443152
H  H305  1  0.27590000  0.45560000  0.05190000  1.0 0.1070046081
H  H306  1  0.72410000  0.54440000  0.55190000  1.0 0.1070046081
H  H307  1  0.04440000  0.77590000  0.80190000  1.0 0.1070046081
H  H308  1  0.95560000  0.22410000  0.30190000  1.0 0.1070046081
H  H309  1  0.22410000  0.95560000  0.69810000  1.0 0.1070046081
H  H310  1  0.77590000  0.04440000  0.19810000  1.0 0.1070046081
H  H311  1  0.45560000  0.27590000  0.94810000  1.0 0.1070046081
H  H312  1  0.54440000  0.72410000  0.44810000  1.0 0.1070046081
H  H313  1  0.36900000  0.53150000  0.00330000  1.0 0.0625955436
H  H314  1  0.63100000  0.46850000  0.50330000  1.0 0.0625955436
H  H315  1  0.96850000  0.86900000  0.75330000  1.0 0.0625955436
H  H316  1  0.03150000  0.13100000  0.25330000  1.0 0.0625955436
H  H317  1  0.13100000  0.03150000  0.74670000  1.0 0.0625955436
H  H318  1  0.86900000  0.96850000  0.24670000  1.0 0.0625955436
H  H319  1  0.53150000  0.36900000  0.99670000  1.0 0.0625955436
H  H320  1  0.46850000  0.63100000  0.49670000  1.0 0.0625955436
H  H321  1  0.42500000  0.55620000  0.95830000  1.0 0.0903443152
H  H322  1  0.57500000  0.44380000  0.45830000  1.0 0.0903443152
H  H323  1  0.94380000  0.92500000  0.70830000  1.0 0.0903443152
H  H324  1  0.05620000  0.07500000  0.20830000  1.0 0.0903443152
H  H325  1  0.07500000  0.05620000  0.79170000  1.0 0.0903443152
H  H326  1  0.92500000  0.94380000  0.29170000  1.0 0.0903443152
H  H327  1  0.55620000  0.42500000  0.04170000  1.0 0.0903443152
H  H328  1  0.44380000  0.57500000  0.54170000  1.0 0.0903443152
H  H329  1  0.35040000  0.53130000  0.90930000  1.0 0.0903443152
H  H330  1  0.64960000  0.46870000  0.40930000  1.0 0.0903443152
H  H331  1  0.96870000  0.85040000  0.65930000  1.0 0.0903443152
H  H332  1  0.03130000  0.14960000  0.15930000  1.0 0.0903443152
H  H333  1  0.14960000  0.03130000  0.84070000  1.0 0.0903443152
H  H334  1  0.85040000  0.96870000  0.34070000  1.0 0.0903443152
H  H335  1  0.53130000  0.35040000  0.09070000  1.0 0.0903443152
H  H336  1  0.46870000  0.64960000  0.59070000  1.0 0.0903443152
H  H337  1  0.43990000  0.47420000  0.91730000  1.0 0.0806680577
H  H338  1  0.56010000  0.52580000  0.41730000  1.0 0.0806680577
H  H339  1  0.02580000  0.93990000  0.66730000  1.0 0.0806680577
H  H340  1  0.97420000  0.06010000  0.16730000  1.0 0.0806680577
H  H341  1  0.06010000  0.97420000  0.83270000  1.0 0.0806680577
H  H342  1  0.93990000  0.02580000  0.33270000  1.0 0.0806680577
H  H343  1  0.47420000  0.43990000  0.08270000  1.0 0.0806680577
H  H344  1  0.52580000  0.56010000  0.58270000  1.0 0.0806680577
H  H345  1  0.34180000  0.44510000  0.93980000  1.0 0.0806680577
H  H346  1  0.65820000  0.55490000  0.43980000  1.0 0.0806680577
H  H347  1  0.05490000  0.84180000  0.68980000  1.0 0.0806680577
H  H348  1  0.94510000  0.15820000  0.18980000  1.0 0.0806680577
H  H349  1  0.15820000  0.94510000  0.81020000  1.0 0.0806680577
H  H350  1  0.84180000  0.05490000  0.31020000  1.0 0.0806680577
H  H351  1  0.44510000  0.34180000  0.06020000  1.0 0.0806680577
H  H352  1  0.55490000  0.65820000  0.56020000  1.0 0.0806680577
H  H353  1  0.38760000  0.37790000  0.96740000  1.0 0.0714606214
H  H354  1  0.61240000  0.62210000  0.46740000  1.0 0.0714606214
H  H355  1  0.12210000  0.88760000  0.71740000  1.0 0.0714606214
H  H356  1  0.87790000  0.11240000  0.21740000  1.0 0.0714606214
H  H357  1  0.11240000  0.87790000  0.78260000  1.0 0.0714606214
H  H358  1  0.88760000  0.12210000  0.28260000  1.0 0.0714606214
H  H359  1  0.37790000  0.38760000  0.03260000  1.0 0.0714606214
H  H360  1  0.62210000  0.61240000  0.53260000  1.0 0.0714606214
H  H361  1  0.39380000  0.37630000  0.92550000  1.0 0.0903443152
H  H362  1  0.60620000  0.62370000  0.42550000  1.0 0.0903443152
H  H363  1  0.12370000  0.89380000  0.67550000  1.0 0.0903443152
H  H364  1  0.87630000  0.10620000  0.17550000  1.0 0.0903443152
H  H365  1  0.10620000  0.87630000  0.82450000  1.0 0.0903443152
H  H366  1  0.89380000  0.12370000  0.32450000  1.0 0.0903443152
H  H367  1  0.37630000  0.39380000  0.07450000  1.0 0.0903443152
H  H368  1  0.62370000  0.60620000  0.57450000  1.0 0.0903443152
H  H369  1  0.45590000  0.44280000  0.86930000  1.0 0.0714606214
H  H370  1  0.54410000  0.55720000  0.36930000  1.0 0.0714606214
H  H371  1  0.05720000  0.95590000  0.61930000  1.0 0.0714606214
H  H372  1  0.94280000  0.04410000  0.11930000  1.0 0.0714606214
H  H373  1  0.04410000  0.94280000  0.88070000  1.0 0.0714606214
H  H374  1  0.95590000  0.05720000  0.38070000  1.0 0.0714606214
H  H375  1  0.44280000  0.45590000  0.13070000  1.0 0.0714606214
H  H376  1  0.55720000  0.54410000  0.63070000  1.0 0.0714606214
H  H377  1  0.43860000  0.43220000  0.80770000  1.0 0.0903443152
H  H378  1  0.56140000  0.56780000  0.30770000  1.0 0.0903443152
H  H379  1  0.06780000  0.93860000  0.55770000  1.0 0.0903443152
H  H380  1  0.93220000  0.06140000  0.05770000  1.0 0.0903443152
H  H381  1  0.06140000  0.93220000  0.94230000  1.0 0.0903443152
H  H382  1  0.93860000  0.06780000  0.44230000  1.0 0.0903443152
H  H383  1  0.43220000  0.43860000  0.19230000  1.0 0.0903443152
H  H384  1  0.56780000  0.56140000  0.69230000  1.0 0.0903443152
H  H385  1  0.34000000  0.45260000  0.82690000  1.0 0.0989618205
H  H386  1  0.66000000  0.54740000  0.32690000  1.0 0.0989618205
H  H387  1  0.04740000  0.84000000  0.57690000  1.0 0.0989618205
H  H388  1  0.95260000  0.16000000  0.07690000  1.0 0.0989618205
H  H389  1  0.16000000  0.95260000  0.92310000  1.0 0.0989618205
H  H390  1  0.84000000  0.04740000  0.42310000  1.0 0.0989618205
H  H391  1  0.45260000  0.34000000  0.17310000  1.0 0.0989618205
H  H392  1  0.54740000  0.66000000  0.67310000  1.0 0.0989618205
H  H393  1  0.37760000  0.36210000  0.80020000  1.0 0.0806680577
H  H394  1  0.62240000  0.63790000  0.30020000  1.0 0.0806680577
H  H395  1  0.13790000  0.87760000  0.55020000  1.0 0.0806680577
H  H396  1  0.86210000  0.12240000  0.05020000  1.0 0.0806680577
H  H397  1  0.12240000  0.86210000  0.94980000  1.0 0.0806680577
H  H398  1  0.87760000  0.13790000  0.44980000  1.0 0.0806680577
H  H399  1  0.36210000  0.37760000  0.19980000  1.0 0.0806680577
H  H400  1  0.63790000  0.62240000  0.69980000  1.0 0.0806680577
H  H401  1  0.34390000  0.38070000  0.87110000  1.0 0.0806680577
H  H402  1  0.65610000  0.61930000  0.37110000  1.0 0.0806680577
H  H403  1  0.11930000  0.84390000  0.62110000  1.0 0.0806680577
H  H404  1  0.88070000  0.15610000  0.12110000  1.0 0.0806680577
H  H405  1  0.15610000  0.88070000  0.87890000  1.0 0.0806680577
H  H406  1  0.84390000  0.11930000  0.37890000  1.0 0.0806680577
H  H407  1  0.38070000  0.34390000  0.12890000  1.0 0.0806680577
H  H408  1  0.61930000  0.65610000  0.62890000  1.0 0.0806680577
H  H409  1  0.37520000  0.30100000  0.88300000  1.0 0.0806680577
H  H410  1  0.62480000  0.69900000  0.38300000  1.0 0.0806680577
H  H411  1  0.19900000  0.87520000  0.63300000  1.0 0.0806680577
H  H412  1  0.80100000  0.12480000  0.13300000  1.0 0.0806680577
H  H413  1  0.12480000  0.80100000  0.86700000  1.0 0.0806680577
H  H414  1  0.87520000  0.19900000  0.36700000  1.0 0.0806680577
H  H415  1  0.30100000  0.37520000  0.11700000  1.0 0.0806680577
H  H416  1  0.69900000  0.62480000  0.61700000  1.0 0.0806680577
H  H417  1  0.33400000  0.29770000  0.85300000  1.0 0.0806680577
H  H418  1  0.66600000  0.70230000  0.35300000  1.0 0.0806680577
H  H419  1  0.20230000  0.83400000  0.60300000  1.0 0.0806680577
H  H420  1  0.79770000  0.16600000  0.10300000  1.0 0.0806680577
H  H421  1  0.16600000  0.79770000  0.89700000  1.0 0.0806680577
H  H422  1  0.83400000  0.20230000  0.39700000  1.0 0.0806680577
H  H423  1  0.29770000  0.33400000  0.14700000  1.0 0.0806680577
H  H424  1  0.70230000  0.66600000  0.64700000  1.0 0.0806680577
H  H425  1  0.32640000  0.32200000  0.77420000  1.0 0.0714606214
H  H426  1  0.67360000  0.67800000  0.27420000  1.0 0.0714606214
H  H427  1  0.17800000  0.82640000  0.52420000  1.0 0.0714606214
H  H428  1  0.82200000  0.17360000  0.02420000  1.0 0.0714606214
H  H429  1  0.17360000  0.82200000  0.97580000  1.0 0.0714606214
H  H430  1  0.82640000  0.17800000  0.47580000  1.0 0.0714606214
H  H431  1  0.32200000  0.32640000  0.22580000  1.0 0.0714606214
H  H432  1  0.67800000  0.67360000  0.72580000  1.0 0.0714606214
H  H433  1  0.25340000  0.33050000  0.73930000  1.0 0.0903443152
H  H434  1  0.74660000  0.66950000  0.23930000  1.0 0.0903443152
H  H435  1  0.16950000  0.75340000  0.48930000  1.0 0.0903443152
H  H436  1  0.83050000  0.24660000  0.98930000  1.0 0.0903443152
H  H437  1  0.24660000  0.83050000  0.01070000  1.0 0.0903443152
H  H438  1  0.75340000  0.16950000  0.51070000  1.0 0.0903443152
H  H439  1  0.33050000  0.25340000  0.26070000  1.0 0.0903443152
H  H440  1  0.66950000  0.74660000  0.76070000  1.0 0.0903443152
H  H441  1  0.22410000  0.40320000  0.79180000  1.0 0.0903443152
H  H442  1  0.77590000  0.59680000  0.29180000  1.0 0.0903443152
H  H443  1  0.09680000  0.72410000  0.54180000  1.0 0.0903443152
H  H444  1  0.90320000  0.27590000  0.04180000  1.0 0.0903443152
H  H445  1  0.27590000  0.90320000  0.95820000  1.0 0.0903443152
H  H446  1  0.72410000  0.09680000  0.45820000  1.0 0.0903443152
H  H447  1  0.40320000  0.22410000  0.20820000  1.0 0.0903443152
H  H448  1  0.59680000  0.77590000  0.70820000  1.0 0.0903443152
H  H449  1  0.17520000  0.31140000  0.78140000  1.0 0.0806680577
H  H450  1  0.82480000  0.68860000  0.28140000  1.0 0.0806680577
H  H451  1  0.18860000  0.67520000  0.53140000  1.0 0.0806680577
H  H452  1  0.81140000  0.32480000  0.03140000  1.0 0.0806680577
H  H453  1  0.32480000  0.81140000  0.96860000  1.0 0.0806680577
H  H454  1  0.67520000  0.18860000  0.46860000  1.0 0.0806680577
H  H455  1  0.31140000  0.17520000  0.21860000  1.0 0.0806680577
H  H456  1  0.68860000  0.82480000  0.71860000  1.0 0.0806680577
H  H457  1  0.24150000  0.33000000  0.84000000  1.0 0.0806680577
H  H458  1  0.75850000  0.67000000  0.34000000  1.0 0.0806680577
H  H459  1  0.17000000  0.74150000  0.59000000  1.0 0.0806680577
H  H460  1  0.83000000  0.25850000  0.09000000  1.0 0.0806680577
H  H461  1  0.25850000  0.83000000  0.91000000  1.0 0.0806680577
H  H462  1  0.74150000  0.17000000  0.41000000  1.0 0.0806680577
H  H463  1  0.33000000  0.24150000  0.16000000  1.0 0.0806680577
H  H464  1  0.67000000  0.75850000  0.66000000  1.0 0.0806680577
H  H465  1  0.23450000  0.24300000  0.85060000  1.0 0.0806680577
H  H466  1  0.76550000  0.75700000  0.35060000  1.0 0.0806680577
H  H467  1  0.25700000  0.73450000  0.60060000  1.0 0.0806680577
H  H468  1  0.74300000  0.26550000  0.10060000  1.0 0.0806680577
H  H469  1  0.26550000  0.74300000  0.89940000  1.0 0.0806680577
H  H470  1  0.73450000  0.25700000  0.39940000  1.0 0.0806680577
H  H471  1  0.24300000  0.23450000  0.14940000  1.0 0.0806680577
H  H472  1  0.75700000  0.76550000  0.64940000  1.0 0.0806680577
H  H473  1  0.18170000  0.26910000  0.85370000  1.0 0.1070046081
H  H474  1  0.81830000  0.73090000  0.35370000  1.0 0.1070046081
H  H475  1  0.23090000  0.68170000  0.60370000  1.0 0.1070046081
H  H476  1  0.76910000  0.31830000  0.10370000  1.0 0.1070046081
H  H477  1  0.31830000  0.76910000  0.89630000  1.0 0.1070046081
H  H478  1  0.68170000  0.23090000  0.39630000  1.0 0.1070046081
H  H479  1  0.26910000  0.18170000  0.14630000  1.0 0.1070046081
H  H480  1  0.73090000  0.81830000  0.64630000  1.0 0.1070046081
H  H481  1  0.10430000  0.31900000  0.79740000  1.0 0.0714606214
H  H482  1  0.89570000  0.68100000  0.29740000  1.0 0.0714606214
H  H483  1  0.18100000  0.60430000  0.54740000  1.0 0.0714606214
H  H484  1  0.81900000  0.39570000  0.04740000  1.0 0.0714606214
H  H485  1  0.39570000  0.81900000  0.95260000  1.0 0.0714606214
H  H486  1  0.60430000  0.18100000  0.45260000  1.0 0.0714606214
H  H487  1  0.31900000  0.10430000  0.20260000  1.0 0.0714606214
H  H488  1  0.68100000  0.89570000  0.70260000  1.0 0.0714606214
H  H489  1  0.04130000  0.37920000  0.80340000  1.0 0.0903443152
H  H490  1  0.95870000  0.62080000  0.30340000  1.0 0.0903443152
H  H491  1  0.12080000  0.54130000  0.55340000  1.0 0.0903443152
H  H492  1  0.87920000  0.45870000  0.05340000  1.0 0.0903443152
H  H493  1  0.45870000  0.87920000  0.94660000  1.0 0.0903443152
H  H494  1  0.54130000  0.12080000  0.44660000  1.0 0.0903443152
H  H495  1  0.37920000  0.04130000  0.19660000  1.0 0.0903443152
H  H496  1  0.62080000  0.95870000  0.69660000  1.0 0.0903443152
H  H497  1  0.11540000  0.43820000  0.83700000  1.0 0.0903443152
H  H498  1  0.88460000  0.56180000  0.33700000  1.0 0.0903443152
H  H499  1  0.06180000  0.61540000  0.58700000  1.0 0.0903443152
H  H500  1  0.93820000  0.38460000  0.08700000  1.0 0.0903443152
H  H501  1  0.38460000  0.93820000  0.91300000  1.0 0.0903443152
H  H502  1  0.61540000  0.06180000  0.41300000  1.0 0.0903443152
H  H503  1  0.43820000  0.11540000  0.16300000  1.0 0.0903443152
H  H504  1  0.56180000  0.88460000  0.66300000  1.0 0.0903443152
H  H505  1  0.03020000  0.39890000  0.87060000  1.0 0.0806680577
H  H506  1  0.96980000  0.60110000  0.37060000  1.0 0.0806680577
H  H507  1  0.10110000  0.53020000  0.62060000  1.0 0.0806680577
H  H508  1  0.89890000  0.46980000  0.12060000  1.0 0.0806680577
H  H509  1  0.46980000  0.89890000  0.87940000  1.0 0.0806680577
H  H510  1  0.53020000  0.10110000  0.37940000  1.0 0.0806680577
H  H511  1  0.39890000  0.03020000  0.12940000  1.0 0.0806680577
H  H512  1  0.60110000  0.96980000  0.62940000  1.0 0.0806680577
H  H513  1  0.12950000  0.36280000  0.88130000  1.0 0.0806680577
H  H514  1  0.87050000  0.63720000  0.38130000  1.0 0.0806680577
H  H515  1  0.13720000  0.62950000  0.63130000  1.0 0.0806680577
H  H516  1  0.86280000  0.37050000  0.13130000  1.0 0.0806680577
H  H517  1  0.37050000  0.86280000  0.86870000  1.0 0.0806680577
H  H518  1  0.62950000  0.13720000  0.36870000  1.0 0.0806680577
H  H519  1  0.36280000  0.12950000  0.11870000  1.0 0.0806680577
H  H520  1  0.63720000  0.87050000  0.61870000  1.0 0.0806680577
H  H521  1  0.09550000  0.30240000  0.91710000  1.0 0.1362878968
H  H522  1  0.90450000  0.69760000  0.41710000  1.0 0.1362878968
H  H523  1  0.19760000  0.59550000  0.66710000  1.0 0.1362878968
H  H524  1  0.80240000  0.40450000  0.16710000  1.0 0.1362878968
H  H525  1  0.40450000  0.80240000  0.83290000  1.0 0.1362878968
H  H526  1  0.59550000  0.19760000  0.33290000  1.0 0.1362878968
H  H527  1  0.30240000  0.09550000  0.08290000  1.0 0.1362878968
H  H528  1  0.69760000  0.90450000  0.58290000  1.0 0.1362878968
H  H529  1  0.08550000  0.35640000  0.93230000  1.0 0.1222357252
H  H530  1  0.91450000  0.64360000  0.43230000  1.0 0.1222357252
H  H531  1  0.14360000  0.58550000  0.68230000  1.0 0.1222357252
H  H532  1  0.85640000  0.41450000  0.18230000  1.0 0.1222357252
H  H533  1  0.41450000  0.85640000  0.81770000  1.0 0.1222357252
H  H534  1  0.58550000  0.14360000  0.31770000  1.0 0.1222357252
H  H535  1  0.35640000  0.08550000  0.06770000  1.0 0.1222357252
H  H536  1  0.64360000  0.91450000  0.56770000  1.0 0.1222357252
H  H537  1  0.00890000  0.44790000  0.91090000  1.0 0.0806680577
H  H538  1  0.99110000  0.55210000  0.41090000  1.0 0.0806680577
H  H539  1  0.05210000  0.50890000  0.66090000  1.0 0.0806680577
H  H540  1  0.94790000  0.49110000  0.16090000  1.0 0.0806680577
H  H541  1  0.49110000  0.94790000  0.83910000  1.0 0.0806680577
H  H542  1  0.50890000  0.05210000  0.33910000  1.0 0.0806680577
H  H543  1  0.44790000  0.00890000  0.08910000  1.0 0.0806680577
H  H544  1  0.55210000  0.99110000  0.58910000  1.0 0.0806680577
H  H545  1  0.02020000  0.53060000  0.93340000  1.0 0.0806680577
H  H546  1  0.97980000  0.46940000  0.43340000  1.0 0.0806680577
H  H547  1  0.96940000  0.52020000  0.68340000  1.0 0.0806680577
H  H548  1  0.03060000  0.47980000  0.18340000  1.0 0.0806680577
H  H549  1  0.47980000  0.03060000  0.81660000  1.0 0.0806680577
H  H550  1  0.52020000  0.96940000  0.31660000  1.0 0.0806680577
H  H551  1  0.53060000  0.02020000  0.06660000  1.0 0.0806680577
H  H552  1  0.46940000  0.97980000  0.56660000  1.0 0.0806680577
H  H553  1  0.12240000  0.52200000  0.91510000  1.0 0.0989618205
H  H554  1  0.87760000  0.47800000  0.41510000  1.0 0.0989618205
H  H555  1  0.97800000  0.62240000  0.66510000  1.0 0.0989618205
H  H556  1  0.02200000  0.37760000  0.16510000  1.0 0.0989618205
H  H557  1  0.37760000  0.02200000  0.83490000  1.0 0.0989618205
H  H558  1  0.62240000  0.97800000  0.33490000  1.0 0.0989618205
H  H559  1  0.52200000  0.12240000  0.08490000  1.0 0.0989618205
H  H560  1  0.47800000  0.87760000  0.58490000  1.0 0.0989618205
H  H561  1  0.08990000  0.52230000  0.98760000  1.0 0.0806680577
H  H562  1  0.91010000  0.47770000  0.48760000  1.0 0.0806680577
H  H563  1  0.97770000  0.58990000  0.73760000  1.0 0.0806680577
H  H564  1  0.02230000  0.41010000  0.23760000  1.0 0.0806680577
H  H565  1  0.41010000  0.02230000  0.76240000  1.0 0.0806680577
H  H566  1  0.58990000  0.97770000  0.26240000  1.0 0.0806680577
H  H567  1  0.52230000  0.08990000  0.01240000  1.0 0.0806680577
H  H568  1  0.47770000  0.91010000  0.51240000  1.0 0.0806680577
H  H569  1  0.12000000  0.43370000  0.95130000  1.0 0.0806680577
H  H570  1  0.88000000  0.56630000  0.45130000  1.0 0.0806680577
H  H571  1  0.06630000  0.62000000  0.70130000  1.0 0.0806680577
H  H572  1  0.93370000  0.38000000  0.20130000  1.0 0.0806680577
H  H573  1  0.38000000  0.93370000  0.79870000  1.0 0.0806680577
H  H574  1  0.62000000  0.06630000  0.29870000  1.0 0.0806680577
H  H575  1  0.43370000  0.12000000  0.04870000  1.0 0.0806680577
H  H576  1  0.56630000  0.88000000  0.54870000  1.0 0.0806680577
H  H577  1  0.09580000  0.39020000  0.00100000  1.0 0.0806680577
H  H578  1  0.90420000  0.60980000  0.50100000  1.0 0.0806680577
H  H579  1  0.10980000  0.59580000  0.75100000  1.0 0.0806680577
H  H580  1  0.89020000  0.40420000  0.25100000  1.0 0.0806680577
H  H581  1  0.40420000  0.89020000  0.74900000  1.0 0.0806680577
H  H582  1  0.59580000  0.10980000  0.24900000  1.0 0.0806680577
H  H583  1  0.39020000  0.09580000  0.99900000  1.0 0.0806680577
H  H584  1  0.60980000  0.90420000  0.49900000  1.0 0.0806680577
H  H585  1  0.13430000  0.43200000  0.01290000  1.0 0.1070046081
H  H586  1  0.86570000  0.56800000  0.51290000  1.0 0.1070046081
H  H587  1  0.06800000  0.63430000  0.76290000  1.0 0.1070046081
H  H588  1  0.93200000  0.36570000  0.26290000  1.0 0.1070046081
H  H589  1  0.36570000  0.93200000  0.73710000  1.0 0.1070046081
H  H590  1  0.63430000  0.06800000  0.23710000  1.0 0.1070046081
H  H591  1  0.43200000  0.13430000  0.98710000  1.0 0.1070046081
H  H592  1  0.56800000  0.86570000  0.48710000  1.0 0.1070046081
H  H593  1  0.45250000  0.96360000  0.15520000  1.0 0.0806680577
H  H594  1  0.54750000  0.03640000  0.65520000  1.0 0.0806680577
H  H595  1  0.53640000  0.95250000  0.90520000  1.0 0.0806680577
H  H596  1  0.46360000  0.04750000  0.40520000  1.0 0.0806680577
H  H597  1  0.04750000  0.46360000  0.59480000  1.0 0.0806680577
H  H598  1  0.95250000  0.53640000  0.09480000  1.0 0.0806680577
H  H599  1  0.96360000  0.45250000  0.84480000  1.0 0.0806680577
H  H600  1  0.03640000  0.54750000  0.34480000  1.0 0.0806680577
H  H601  1  0.53290000  0.96900000  0.17960000  1.0 0.0903443152
H  H602  1  0.46710000  0.03100000  0.67960000  1.0 0.0903443152
H  H603  1  0.53100000  0.03290000  0.92960000  1.0 0.0903443152
H  H604  1  0.46900000  0.96710000  0.42960000  1.0 0.0903443152
H  H605  1  0.96710000  0.46900000  0.57040000  1.0 0.0903443152
H  H606  1  0.03290000  0.53100000  0.07040000  1.0 0.0903443152
H  H607  1  0.96900000  0.53290000  0.82040000  1.0 0.0903443152
H  H608  1  0.03100000  0.46710000  0.32040000  1.0 0.0903443152
H  H609  1  0.54090000  0.86650000  0.16090000  1.0 0.0989618205
H  H610  1  0.45910000  0.13350000  0.66090000  1.0 0.0989618205
H  H611  1  0.63350000  0.04090000  0.91090000  1.0 0.0989618205
H  H612  1  0.36650000  0.95910000  0.41090000  1.0 0.0989618205
H  H613  1  0.95910000  0.36650000  0.58910000  1.0 0.0989618205
H  H614  1  0.04090000  0.63350000  0.08910000  1.0 0.0989618205
H  H615  1  0.86650000  0.54090000  0.83910000  1.0 0.0989618205
H  H616  1  0.13350000  0.45910000  0.33910000  1.0 0.0989618205
H  H617  1  0.53970000  0.89940000  0.23290000  1.0 0.0806680577
H  H618  1  0.46030000  0.10060000  0.73290000  1.0 0.0806680577
H  H619  1  0.60060000  0.03970000  0.98290000  1.0 0.0806680577
H  H620  1  0.39940000  0.96030000  0.48290000  1.0 0.0806680577
H  H621  1  0.96030000  0.39940000  0.51710000  1.0 0.0806680577
H  H622  1  0.03970000  0.60060000  0.01710000  1.0 0.0806680577
H  H623  1  0.89940000  0.53970000  0.76710000  1.0 0.0806680577
H  H624  1  0.10060000  0.46030000  0.26710000  1.0 0.0806680577
H  H625  1  0.45700000  0.85190000  0.19820000  1.0 0.0903443152
H  H626  1  0.54300000  0.14810000  0.69820000  1.0 0.0903443152
H  H627  1  0.64810000  0.95700000  0.94820000  1.0 0.0903443152
H  H628  1  0.35190000  0.04300000  0.44820000  1.0 0.0903443152
H  H629  1  0.04300000  0.35190000  0.55180000  1.0 0.0903443152
H  H630  1  0.95700000  0.64810000  0.05180000  1.0 0.0903443152
H  H631  1  0.85190000  0.45700000  0.80180000  1.0 0.0903443152
H  H632  1  0.14810000  0.54300000  0.30180000  1.0 0.0903443152
H  H633  1  0.41170000  0.87440000  0.24940000  1.0 0.0989618205
H  H634  1  0.58830000  0.12560000  0.74940000  1.0 0.0989618205
H  H635  1  0.62560000  0.91170000  0.99940000  1.0 0.0989618205
H  H636  1  0.37440000  0.08830000  0.49940000  1.0 0.0989618205
H  H637  1  0.08830000  0.37440000  0.50060000  1.0 0.0989618205
H  H638  1  0.91170000  0.62560000  0.00060000  1.0 0.0989618205
H  H639  1  0.87440000  0.41170000  0.75060000  1.0 0.0989618205
H  H640  1  0.12560000  0.58830000  0.25060000  1.0 0.0989618205
H  H641  1  0.45640000  0.83870000  0.25950000  1.0 0.0989618205
H  H642  1  0.54360000  0.16130000  0.75950000  1.0 0.0989618205
H  H643  1  0.66130000  0.95640000  0.00950000  1.0 0.0989618205
H  H644  1  0.33870000  0.04360000  0.50950000  1.0 0.0989618205
H  H645  1  0.04360000  0.33870000  0.49050000  1.0 0.0989618205
H  H646  1  0.95640000  0.66130000  0.99050000  1.0 0.0989618205
H  H647  1  0.83870000  0.45640000  0.74050000  1.0 0.0989618205
H  H648  1  0.16130000  0.54360000  0.24050000  1.0 0.1070046081
H  H649  1  0.34550000  0.83780000  0.04420000  1.0 0.0806680577
H  H650  1  0.65450000  0.16220000  0.54420000  1.0 0.0806680577
H  H651  1  0.66220000  0.84550000  0.79420000  1.0 0.0806680577
H  H652  1  0.33780000  0.15450000  0.29420000  1.0 0.0806680577
H  H653  1  0.15450000  0.33780000  0.70580000  1.0 0.0806680577
H  H654  1  0.84550000  0.66220000  0.20580000  1.0 0.0806680577
H  H655  1  0.83780000  0.34550000  0.95580000  1.0 0.0806680577
H  H656  1  0.16220000  0.65450000  0.45580000  1.0 0.0806680577
H  H657  1  0.39480000  0.90720000  0.04760000  1.0 0.0903443152
H  H658  1  0.60520000  0.09280000  0.54760000  1.0 0.0903443152
H  H659  1  0.59280000  0.89480000  0.79760000  1.0 0.0903443152
H  H660  1  0.40720000  0.10520000  0.29760000  1.0 0.0903443152
H  H661  1  0.10520000  0.40720000  0.70240000  1.0 0.0903443152
H  H662  1  0.89480000  0.59280000  0.20240000  1.0 0.0903443152
H  H663  1  0.90720000  0.39480000  0.95240000  1.0 0.0903443152
H  H664  1  0.09280000  0.60520000  0.45240000  1.0 0.0903443152
H  H665  1  0.46600000  0.85310000  0.08640000  1.0 0.0989618205
H  H666  1  0.53400000  0.14690000  0.58640000  1.0 0.0989618205
H  H667  1  0.64690000  0.96600000  0.83640000  1.0 0.0989618205
H  H668  1  0.35310000  0.03400000  0.33640000  1.0 0.0989618205
H  H669  1  0.03400000  0.35310000  0.66360000  1.0 0.0989618205
H  H670  1  0.96600000  0.64690000  0.16360000  1.0 0.0989618205
H  H671  1  0.85310000  0.46600000  0.91360000  1.0 0.0989618205
H  H672  1  0.14690000  0.53400000  0.41360000  1.0 0.0989618205
H  H673  1  0.40530000  0.93010000  0.11690000  1.0 0.0806680577
H  H674  1  0.59470000  0.06990000  0.61690000  1.0 0.0806680577
H  H675  1  0.56990000  0.90530000  0.86690000  1.0 0.0806680577
H  H676  1  0.43010000  0.09470000  0.36690000  1.0 0.0806680577
H  H677  1  0.09470000  0.43010000  0.63310000  1.0 0.0806680577
H  H678  1  0.90530000  0.56990000  0.13310000  1.0 0.0806680577
H  H679  1  0.93010000  0.40530000  0.88310000  1.0 0.0806680577
H  H680  1  0.06990000  0.59470000  0.38310000  1.0 0.0806680577
H  H681  1  0.39360000  0.82790000  0.12910000  1.0 0.0806680577
H  H682  1  0.60640000  0.17210000  0.62910000  1.0 0.0806680577
H  H683  1  0.67210000  0.89360000  0.87910000  1.0 0.0806680577
H  H684  1  0.32790000  0.10640000  0.37910000  1.0 0.0806680577
H  H685  1  0.10640000  0.32790000  0.62090000  1.0 0.0806680577
H  H686  1  0.89360000  0.67210000  0.12090000  1.0 0.0806680577
H  H687  1  0.82790000  0.39360000  0.87090000  1.0 0.0806680577
H  H688  1  0.17210000  0.60640000  0.37090000  1.0 0.0806680577
H  H689  1  0.31800000  0.85490000  0.15740000  1.0 0.0714606214
H  H690  1  0.68200000  0.14510000  0.65740000  1.0 0.0714606214
H  H691  1  0.64510000  0.81800000  0.90740000  1.0 0.0714606214
H  H692  1  0.35490000  0.18200000  0.40740000  1.0 0.0714606214
H  H693  1  0.18200000  0.35490000  0.59260000  1.0 0.0714606214
H  H694  1  0.81800000  0.64510000  0.09260000  1.0 0.0714606214
H  H695  1  0.85490000  0.31800000  0.84260000  1.0 0.0714606214
H  H696  1  0.14510000  0.68200000  0.34260000  1.0 0.0714606214
H  H697  1  0.36690000  0.86920000  0.17850000  1.0 0.1269886221
H  H698  1  0.63310000  0.13080000  0.67850000  1.0 0.1222357252
H  H699  1  0.63080000  0.86690000  0.92850000  1.0 0.1269886221
H  H700  1  0.36920000  0.13310000  0.42850000  1.0 0.1222357252
H  H701  1  0.13310000  0.36920000  0.57150000  1.0 0.1222357252
H  H702  1  0.86690000  0.63080000  0.07150000  1.0 0.1269886221
H  H703  1  0.86920000  0.36690000  0.82150000  1.0 0.1269886221
H  H704  1  0.13080000  0.63310000  0.32150000  1.0 0.1269886221
H  H705  1  0.35850000  0.61680000  0.03330000  1.0 0.0806680577
H  H706  1  0.64150000  0.38320000  0.53330000  1.0 0.0806680577
H  H707  1  0.88320000  0.85850000  0.78330000  1.0 0.0806680577
H  H708  1  0.11680000  0.14150000  0.28330000  1.0 0.0806680577
H  H709  1  0.14150000  0.11680000  0.71670000  1.0 0.0806680577
H  H710  1  0.85850000  0.88320000  0.21670000  1.0 0.0806680577
H  H711  1  0.61680000  0.35850000  0.96670000  1.0 0.0806680577
H  H712  1  0.38320000  0.64150000  0.46670000  1.0 0.0806680577
H  H713  1  0.35580000  0.68900000  0.99750000  1.0 0.0806680577
H  H714  1  0.64420000  0.31100000  0.49750000  1.0 0.0806680577
H  H715  1  0.81100000  0.85580000  0.74750000  1.0 0.0806680577
H  H716  1  0.18900000  0.14420000  0.24750000  1.0 0.0806680577
H  H717  1  0.14420000  0.18900000  0.75250000  1.0 0.0806680577
H  H718  1  0.85580000  0.81100000  0.25250000  1.0 0.0806680577
H  H719  1  0.68900000  0.35580000  0.00250000  1.0 0.0806680577
H  H720  1  0.31100000  0.64420000  0.50250000  1.0 0.0806680577
H  H721  1  0.43550000  0.72330000  0.04130000  1.0 0.0903443152
H  H722  1  0.56450000  0.27670000  0.54130000  1.0 0.0903443152
H  H723  1  0.77670000  0.93550000  0.79130000  1.0 0.0903443152
H  H724  1  0.22330000  0.06450000  0.29130000  1.0 0.0903443152
H  H725  1  0.06450000  0.22330000  0.70870000  1.0 0.0903443152
H  H726  1  0.93550000  0.77670000  0.20870000  1.0 0.0903443152
H  H727  1  0.72330000  0.43550000  0.95870000  1.0 0.0903443152
H  H728  1  0.27670000  0.56450000  0.45870000  1.0 0.0903443152
H  H729  1  0.33850000  0.76410000  0.03760000  1.0 0.0806680577
H  H730  1  0.66150000  0.23590000  0.53760000  1.0 0.0806680577
H  H731  1  0.73590000  0.83850000  0.78760000  1.0 0.0806680577
H  H732  1  0.26410000  0.16150000  0.28760000  1.0 0.0806680577
H  H733  1  0.16150000  0.26410000  0.71240000  1.0 0.0806680577
H  H734  1  0.83850000  0.73590000  0.21240000  1.0 0.0806680577
H  H735  1  0.76410000  0.33850000  0.96240000  1.0 0.0806680577
H  H736  1  0.23590000  0.66150000  0.46240000  1.0 0.0806680577
H  H737  1  0.37480000  0.70820000  0.09540000  1.0 0.0903443152
H  H738  1  0.62520000  0.29180000  0.59540000  1.0 0.0903443152
H  H739  1  0.79180000  0.87480000  0.84540000  1.0 0.0903443152
H  H740  1  0.20820000  0.12520000  0.34540000  1.0 0.0903443152
H  H741  1  0.12520000  0.20820000  0.65460000  1.0 0.0903443152
H  H742  1  0.87480000  0.79180000  0.15460000  1.0 0.0903443152
H  H743  1  0.70820000  0.37480000  0.90460000  1.0 0.0903443152
H  H744  1  0.29180000  0.62520000  0.40460000  1.0 0.0903443152
H  H745  1  0.29030000  0.71270000  0.11420000  1.0 0.0806680577
H  H746  1  0.70970000  0.28730000  0.61420000  1.0 0.0806680577
H  H747  1  0.78730000  0.79030000  0.86420000  1.0 0.0806680577
H  H748  1  0.21270000  0.20970000  0.36420000  1.0 0.0806680577
H  H749  1  0.20970000  0.21270000  0.63580000  1.0 0.0806680577
H  H750  1  0.79030000  0.78730000  0.13580000  1.0 0.0806680577
H  H751  1  0.71270000  0.29030000  0.88580000  1.0 0.0806680577
H  H752  1  0.28730000  0.70970000  0.38580000  1.0 0.0806680577
H  H753  1  0.31390000  0.76650000  0.11180000  1.0 0.0989618205
H  H754  1  0.68610000  0.23350000  0.61180000  1.0 0.0989618205
H  H755  1  0.73350000  0.81390000  0.86180000  1.0 0.0989618205
H  H756  1  0.26650000  0.18610000  0.36180000  1.0 0.0989618205
H  H757  1  0.18610000  0.26650000  0.63820000  1.0 0.0989618205
H  H758  1  0.81390000  0.73350000  0.13820000  1.0 0.0989618205
H  H759  1  0.76650000  0.31390000  0.88820000  1.0 0.0989618205
H  H760  1  0.23350000  0.68610000  0.38820000  1.0 0.0989618205
H  H761  1  0.52150000  0.51100000  0.11610000  1.0 0.0806680577
H  H762  1  0.47850000  0.48900000  0.61610000  1.0 0.0806680577
H  H763  1  0.98900000  0.02150000  0.86610000  1.0 0.0806680577
H  H764  1  0.01100000  0.97850000  0.36610000  1.0 0.0806680577
H  H765  1  0.97850000  0.01100000  0.63390000  1.0 0.0806680577
H  H766  1  0.02150000  0.98900000  0.13390000  1.0 0.0806680577
H  H767  1  0.51100000  0.52150000  0.88390000  1.0 0.0806680577
H  H768  1  0.48900000  0.47850000  0.38390000  1.0 0.0806680577
H  H769  1  0.50600000  0.52600000  0.05420000  1.0 0.1070046081
H  H770  1  0.49400000  0.47400000  0.55420000  1.0 0.1070046081
H  H771  1  0.97400000  0.00600000  0.80420000  1.0 0.1070046081
H  H772  1  0.02600000  0.99400000  0.30420000  1.0 0.1070046081
H  H773  1  0.99400000  0.02600000  0.69580000  1.0 0.1070046081
H  H774  1  0.00600000  0.97400000  0.19580000  1.0 0.1070046081
H  H775  1  0.52600000  0.50600000  0.94580000  1.0 0.1070046081
H  H776  1  0.47400000  0.49400000  0.44580000  1.0 0.1070046081
H  H777  1  0.49900000  0.62770000  0.07110000  1.0 0.0903443152
H  H778  1  0.50100000  0.37230000  0.57110000  1.0 0.0903443152
H  H779  1  0.87230000  0.99900000  0.82110000  1.0 0.0903443152
H  H780  1  0.12770000  0.00100000  0.32110000  1.0 0.0903443152
H  H781  1  0.00100000  0.12770000  0.67890000  1.0 0.0903443152
H  H782  1  0.99900000  0.87230000  0.17890000  1.0 0.0903443152
H  H783  1  0.62770000  0.49900000  0.92890000  1.0 0.0903443152
H  H784  1  0.37230000  0.50100000  0.42890000  1.0 0.0903443152
H  H785  1  0.41570000  0.57130000  0.04950000  1.0 0.0714606214
H  H786  1  0.58430000  0.42870000  0.54950000  1.0 0.0714606214
H  H787  1  0.92870000  0.91570000  0.79950000  1.0 0.0714606214
H  H788  1  0.07130000  0.08430000  0.29950000  1.0 0.0714606214
H  H789  1  0.08430000  0.07130000  0.70050000  1.0 0.0714606214
H  H790  1  0.91570000  0.92870000  0.20050000  1.0 0.0714606214
H  H791  1  0.57130000  0.41570000  0.95050000  1.0 0.0714606214
H  H792  1  0.42870000  0.58430000  0.45050000  1.0 0.0714606214
H  H793  1  0.43220000  0.60110000  0.12180000  1.0 0.0903443152
H  H794  1  0.56780000  0.39890000  0.62180000  1.0 0.0903443152
H  H795  1  0.89890000  0.93220000  0.87180000  1.0 0.0903443152
H  H796  1  0.10110000  0.06780000  0.37180000  1.0 0.0903443152
H  H797  1  0.06780000  0.10110000  0.62820000  1.0 0.0903443152
H  H798  1  0.93220000  0.89890000  0.12820000  1.0 0.0903443152
H  H799  1  0.60110000  0.43220000  0.87820000  1.0 0.0903443152
H  H800  1  0.39890000  0.56780000  0.37820000  1.0 0.0903443152
H  H801  1  0.36780000  0.54500000  0.13510000  1.0 0.0989618205
H  H802  1  0.63220000  0.45500000  0.63510000  1.0 0.0989618205
H  H803  1  0.95500000  0.86780000  0.88510000  1.0 0.0989618205
H  H804  1  0.04500000  0.13220000  0.38510000  1.0 0.0989618205
H  H805  1  0.13220000  0.04500000  0.61490000  1.0 0.0989618205
H  H806  1  0.86780000  0.95500000  0.11490000  1.0 0.0989618205
H  H807  1  0.54500000  0.36780000  0.86490000  1.0 0.0989618205
H  H808  1  0.45500000  0.63220000  0.36490000  1.0 0.0989618205
H  H809  1  0.35030000  0.59180000  0.11290000  1.0 0.0989618205
H  H810  1  0.64970000  0.40820000  0.61290000  1.0 0.0989618205
H  H811  1  0.90820000  0.85030000  0.86290000  1.0 0.0989618205
H  H812  1  0.09180000  0.14970000  0.36290000  1.0 0.0989618205
H  H813  1  0.14970000  0.09180000  0.63710000  1.0 0.0989618205
H  H814  1  0.85030000  0.90820000  0.13710000  1.0 0.0989618205
H  H815  1  0.59180000  0.35030000  0.88710000  1.0 0.0989618205
H  H816  1  0.40820000  0.64970000  0.38710000  1.0 0.0989618205
H  H817  1  0.60370000  0.62740000  0.24300000  1.0 0.0625955436
H  H818  1  0.39630000  0.37260000  0.74300000  1.0 0.0625955436
H  H819  1  0.87260000  0.10370000  0.99300000  1.0 0.0625955436
H  H820  1  0.12740000  0.89630000  0.49300000  1.0 0.0625955436
H  H821  1  0.89630000  0.12740000  0.50700000  1.0 0.0625955436
H  H822  1  0.10370000  0.87260000  0.00700000  1.0 0.0625955436
H  H823  1  0.62740000  0.60370000  0.75700000  1.0 0.0625955436
H  H824  1  0.37260000  0.39630000  0.25700000  1.0 0.0625955436
H  H825  1  0.63160000  0.57390000  0.19720000  1.0 0.1070046081
H  H826  1  0.36840000  0.42610000  0.69720000  1.0 0.1070046081
H  H827  1  0.92610000  0.13160000  0.94720000  1.0 0.1070046081
H  H828  1  0.07390000  0.86840000  0.44720000  1.0 0.1070046081
H  H829  1  0.86840000  0.07390000  0.55280000  1.0 0.1070046081
H  H830  1  0.13160000  0.92610000  0.05280000  1.0 0.1070046081
H  H831  1  0.57390000  0.63160000  0.80280000  1.0 0.1070046081
H  H832  1  0.42610000  0.36840000  0.30280000  1.0 0.1070046081
H  H833  1  0.58320000  0.64040000  0.15030000  1.0 0.0903443152
H  H834  1  0.41680000  0.35960000  0.65030000  1.0 0.0903443152
H  H835  1  0.85960000  0.08320000  0.90030000  1.0 0.0903443152
H  H836  1  0.14040000  0.91680000  0.40030000  1.0 0.0903443152
H  H837  1  0.91680000  0.14040000  0.59970000  1.0 0.0903443152
H  H838  1  0.08320000  0.85960000  0.09970000  1.0 0.0903443152
H  H839  1  0.64040000  0.58320000  0.84970000  1.0 0.0903443152
H  H840  1  0.35960000  0.41680000  0.34970000  1.0 0.0903443152
H  H841  1  0.55820000  0.53810000  0.16110000  1.0 0.0903443152
H  H842  1  0.44180000  0.46190000  0.66110000  1.0 0.0903443152
H  H843  1  0.96190000  0.05820000  0.91110000  1.0 0.0903443152
H  H844  1  0.03810000  0.94180000  0.41110000  1.0 0.0903443152
H  H845  1  0.94180000  0.03810000  0.58890000  1.0 0.0903443152
H  H846  1  0.05820000  0.96190000  0.08890000  1.0 0.0903443152
H  H847  1  0.53810000  0.55820000  0.83890000  1.0 0.0903443152
H  H848  1  0.46190000  0.44180000  0.33890000  1.0 0.0903443152
H  H849  1  0.49790000  0.61710000  0.18920000  1.0 0.0806680577
H  H850  1  0.50210000  0.38290000  0.68920000  1.0 0.0806680577
H  H851  1  0.88290000  0.99790000  0.93920000  1.0 0.0806680577
H  H852  1  0.11710000  0.00210000  0.43920000  1.0 0.0806680577
H  H853  1  0.00210000  0.11710000  0.56080000  1.0 0.0806680577
H  H854  1  0.99790000  0.88290000  0.06080000  1.0 0.0806680577
H  H855  1  0.61710000  0.49790000  0.81080000  1.0 0.0806680577
H  H856  1  0.38290000  0.50210000  0.31080000  1.0 0.0806680577
H  H857  1  0.45500000  0.55890000  0.22000000  1.0 0.0903443152
H  H858  1  0.54500000  0.44110000  0.72000000  1.0 0.0903443152
H  H859  1  0.94110000  0.95500000  0.97000000  1.0 0.0903443152
H  H860  1  0.05890000  0.04500000  0.47000000  1.0 0.0903443152
H  H861  1  0.04500000  0.05890000  0.53000000  1.0 0.0903443152
H  H862  1  0.95500000  0.94110000  0.03000000  1.0 0.0903443152
H  H863  1  0.55890000  0.45500000  0.78000000  1.0 0.0903443152
H  H864  1  0.44110000  0.54500000  0.28000000  1.0 0.0903443152
H  H865  1  0.46090000  0.53650000  0.18110000  1.0 0.0989618205
H  H866  1  0.53910000  0.46350000  0.68110000  1.0 0.0989618205
H  H867  1  0.96350000  0.96090000  0.93110000  1.0 0.0989618205
H  H868  1  0.03650000  0.03910000  0.43110000  1.0 0.0989618205
H  H869  1  0.03910000  0.03650000  0.56890000  1.0 0.0989618205
H  H870  1  0.96090000  0.96350000  0.06890000  1.0 0.0989618205
H  H871  1  0.53650000  0.46090000  0.81890000  1.0 0.0989618205
H  H872  1  0.46350000  0.53910000  0.31890000  1.0 0.0989618205
H  H873  1  0.56630000  0.84450000  0.26470000  1.0 0.0806680577
H  H874  1  0.43370000  0.15550000  0.76470000  1.0 0.0806680577
H  H875  1  0.65550000  0.06630000  0.01470000  1.0 0.0806680577
H  H876  1  0.34450000  0.93370000  0.51470000  1.0 0.0806680577
H  H877  1  0.93370000  0.34450000  0.48530000  1.0 0.0806680577
H  H878  1  0.06630000  0.65550000  0.98530000  1.0 0.0806680577
H  H879  1  0.84450000  0.56630000  0.73530000  1.0 0.0806680577
H  H880  1  0.15550000  0.43370000  0.23530000  1.0 0.0806680577
H  H881  1  0.63290000  0.78980000  0.26520000  1.0 0.0714606214
H  H882  1  0.36710000  0.21020000  0.76520000  1.0 0.0714606214
H  H883  1  0.71020000  0.13290000  0.01520000  1.0 0.0714606214
H  H884  1  0.28980000  0.86710000  0.51520000  1.0 0.0714606214
H  H885  1  0.86710000  0.28980000  0.48480000  1.0 0.0714606214
H  H886  1  0.13290000  0.71020000  0.98480000  1.0 0.0714606214
H  H887  1  0.78980000  0.63290000  0.73480000  1.0 0.0714606214
H  H888  1  0.21020000  0.36710000  0.23480000  1.0 0.0714606214
H  H889  1  0.60200000  0.75610000  0.19690000  1.0 0.0989618205
H  H890  1  0.39800000  0.24390000  0.69690000  1.0 0.0989618205
H  H891  1  0.74390000  0.10200000  0.94690000  1.0 0.0989618205
H  H892  1  0.25610000  0.89800000  0.44690000  1.0 0.0989618205
H  H893  1  0.89800000  0.25610000  0.55310000  1.0 0.0989618205
H  H894  1  0.10200000  0.74390000  0.05310000  1.0 0.0989618205
H  H895  1  0.75610000  0.60200000  0.80310000  1.0 0.0989618205
H  H896  1  0.24390000  0.39800000  0.30310000  1.0 0.0989618205
H  H897  1  0.59180000  0.69610000  0.25910000  1.0 0.0806680577
H  H898  1  0.40820000  0.30390000  0.75910000  1.0 0.0806680577
H  H899  1  0.80390000  0.09180000  0.00910000  1.0 0.0806680577
H  H900  1  0.19610000  0.90820000  0.50910000  1.0 0.0806680577
H  H901  1  0.90820000  0.19610000  0.49090000  1.0 0.0806680577
H  H902  1  0.09180000  0.80390000  0.99090000  1.0 0.0806680577
H  H903  1  0.69610000  0.59180000  0.74090000  1.0 0.0806680577
H  H904  1  0.30390000  0.40820000  0.24090000  1.0 0.0806680577
H  H905  1  0.50980000  0.74380000  0.22560000  1.0 0.0903443152
H  H906  1  0.49020000  0.25620000  0.72560000  1.0 0.0903443152
H  H907  1  0.75620000  0.00980000  0.97560000  1.0 0.0903443152
H  H908  1  0.24380000  0.99020000  0.47560000  1.0 0.0903443152
H  H909  1  0.99020000  0.24380000  0.52440000  1.0 0.0903443152
H  H910  1  0.00980000  0.75620000  0.02440000  1.0 0.0903443152
H  H911  1  0.74380000  0.50980000  0.77440000  1.0 0.0903443152
H  H912  1  0.25620000  0.49020000  0.27440000  1.0 0.0903443152
H  H913  1  0.49310000  0.66860000  0.25900000  1.0 0.0989618205
H  H914  1  0.50690000  0.33140000  0.75900000  1.0 0.0989618205
H  H915  1  0.83140000  0.99310000  0.00900000  1.0 0.0989618205
H  H916  1  0.16860000  0.00690000  0.50900000  1.0 0.0989618205
H  H917  1  0.00690000  0.16860000  0.49100000  1.0 0.0989618205
H  H918  1  0.99310000  0.83140000  0.99100000  1.0 0.0989618205
H  H919  1  0.66860000  0.49310000  0.74100000  1.0 0.0989618205
H  H920  1  0.33140000  0.50690000  0.24100000  1.0 0.0989618205
H  H921  1  0.51010000  0.69750000  0.29370000  1.0 0.1070046081
H  H922  1  0.48990000  0.30250000  0.79370000  1.0 0.1070046081
H  H923  1  0.80250000  0.01010000  0.04370000  1.0 0.1070046081
H  H924  1  0.19750000  0.98990000  0.54370000  1.0 0.1070046081
H  H925  1  0.98990000  0.19750000  0.45630000  1.0 0.1070046081
H  H926  1  0.01010000  0.80250000  0.95630000  1.0 0.1070046081
H  H927  1  0.69750000  0.51010000  0.70630000  1.0 0.1070046081
H  H928  1  0.30250000  0.48990000  0.20630000  1.0 0.1070046081
H  H929  1  0.21320000  0.20230000  0.80640000  1.0 0.2813340329
H  H930  1  0.78680000  0.79770000  0.30640000  1.0 0.2813340329
H  H931  1  0.29770000  0.71320000  0.55640000  1.0 0.2813340329
H  H932  1  0.70230000  0.28680000  0.05640000  1.0 0.2813340329
H  H933  1  0.28680000  0.70230000  0.94360000  1.0 0.2813340329
H  H934  1  0.71320000  0.29770000  0.44360000  1.0 0.2813340329
H  H935  1  0.20230000  0.21320000  0.19360000  1.0 0.2813340329
H  H936  1  0.79770000  0.78680000  0.69360000  1.0 0.2813340329
H  H937  1  0.00270000  0.53650000  0.87870000  1.0 0.2696538111
H  H938  1  0.99730000  0.46350000  0.37870000  1.0 0.2696538111
H  H939  1  0.96350000  0.50270000  0.62870000  1.0 0.2696538111
H  H940  1  0.03650000  0.49730000  0.12870000  1.0 0.2696538111
H  H941  1  0.49730000  0.03650000  0.87130000  1.0 0.2696538111
H  H942  1  0.50270000  0.96350000  0.37130000  1.0 0.2696538111
H  H943  1  0.53650000  0.00270000  0.12130000  1.0 0.2696538111
H  H944  1  0.46350000  0.99730000  0.62130000  1.0 0.2696538111
H  H945  1  0.92560000  0.62280000  0.24710000  1.0 0.3048124412
H  H946  1  0.07440000  0.37720000  0.74710000  1.0 0.3048124412
H  H947  1  0.87720000  0.42560000  0.99710000  1.0 0.3048124412
H  H948  1  0.12280000  0.57440000  0.49710000  1.0 0.3048124412
H  H949  1  0.57440000  0.12280000  0.50290000  1.0 0.3048124412
H  H950  1  0.42560000  0.87720000  0.00290000  1.0 0.3048124412
H  H951  1  0.62280000  0.92560000  0.75290000  1.0 0.3048124412
H  H952  1  0.37720000  0.07440000  0.25290000  1.0 0.3048124412
H  H953  1  0.99940000  0.99730000  0.00690000  1.0 0.2596280267
H  H954  1  0.00060000  0.00270000  0.50690000  1.0 0.2596280267
H  H955  1  0.50270000  0.49940000  0.75690000  1.0 0.2596280267
H  H956  1  0.49730000  0.50060000  0.25690000  1.0 0.2596280267
H  H957  1  0.50060000  0.49730000  0.74310000  1.0 0.2596280267
H  H958  1  0.49940000  0.50270000  0.24310000  1.0 0.2596280267
H  H959  1  0.99730000  0.99940000  0.99310000  1.0 0.2596280267
H  H960  1  0.00270000  0.00060000  0.49310000  1.0 0.2596280267
H  H961  1  0.14330000  0.30680000  0.92710000  1.0 0.247374556
H  H962  1  0.85670000  0.69320000  0.42710000  1.0 0.247374556
H  H963  1  0.19320000  0.64330000  0.67710000  1.0 0.247374556
H  H964  1  0.80680000  0.35670000  0.17710000  1.0 0.247374556
H  H965  1  0.35670000  0.80680000  0.82290000  1.0 0.247374556
H  H966  1  0.64330000  0.19320000  0.32290000  1.0 0.247374556
H  H967  1  0.30680000  0.14330000  0.07290000  1.0 0.247374556
H  H968  1  0.69320000  0.85670000  0.57290000  1.0 0.247374556
H  H969  1  0.07670000  0.35960000  0.93110000  1.0 0.1269886221
H  H970  1  0.92330000  0.64040000  0.43110000  1.0 0.1269886221
H  H971  1  0.14040000  0.57670000  0.68110000  1.0 0.1269886221
H  H972  1  0.85960000  0.42330000  0.18110000  1.0 0.1269886221
H  H973  1  0.42330000  0.85960000  0.81890000  1.0 0.1269886221
H  H974  1  0.57670000  0.14040000  0.31890000  1.0 0.1269886221
H  H975  1  0.35960000  0.07670000  0.06890000  1.0 0.1269886221
H  H976  1  0.64040000  0.92330000  0.56890000  1.0 0.1269886221
H  H977  1  0.04350000  0.32060000  0.91020000  1.0 0.1222357252
H  H978  1  0.95650000  0.67940000  0.41020000  1.0 0.1222357252
H  H979  1  0.17940000  0.54350000  0.66020000  1.0 0.1222357252
H  H980  1  0.82060000  0.45650000  0.16020000  1.0 0.1222357252
H  H981  1  0.45650000  0.82060000  0.83980000  1.0 0.1222357252
H  H982  1  0.54350000  0.17940000  0.33980000  1.0 0.1222357252
H  H983  1  0.32060000  0.04350000  0.08980000  1.0 0.1222357252
H  H984  1  0.67940000  0.95650000  0.58980000  1.0 0.1222357252
H  H985  1  0.82760000  0.69180000  0.07780000  1.0 0.2813340329
H  H986  1  0.17240000  0.30820000  0.57780000  1.0 0.2813340329
H  H987  1  0.80820000  0.32760000  0.82780000  1.0 0.2813340329
H  H988  1  0.19180000  0.67240000  0.32780000  1.0 0.2813340329
H  H989  1  0.67240000  0.19180000  0.67220000  1.0 0.2813340329
H  H990  1  0.32760000  0.80820000  0.17220000  1.0 0.2813340329
H  H991  1  0.69180000  0.82760000  0.92220000  1.0 0.2813340329
H  H992  1  0.30820000  0.17240000  0.42220000  1.0 0.2813340329
H  H993  1  0.86200000  0.59450000  0.08200000  1.0 0.1222357252
H  H994  1  0.13800000  0.40550000  0.58200000  1.0 0.1222357252
H  H995  1  0.90550000  0.36200000  0.83200000  1.0 0.1222357252
H  H996  1  0.09450000  0.63800000  0.33200000  1.0 0.1222357252
H  H997  1  0.63800000  0.09450000  0.66800000  1.0 0.1222357252
H  H998  1  0.36200000  0.90550000  0.16800000  1.0 0.1222357252
H  H999  1  0.59450000  0.86200000  0.91800000  1.0 0.1222357252
H  H1000  1  0.40550000  0.13800000  0.41800000  1.0 0.1222357252
H  H1001  1  0.81390000  0.61630000  0.10090000  1.0 0.0806680577
H  H1002  1  0.18610000  0.38370000  0.60090000  1.0 0.0806680577
H  H1003  1  0.88370000  0.31390000  0.85090000  1.0 0.0806680577
H  H1004  1  0.11630000  0.68610000  0.35090000  1.0 0.0806680577
H  H1005  1  0.68610000  0.11630000  0.64910000  1.0 0.0806680577
H  H1006  1  0.31390000  0.88370000  0.14910000  1.0 0.0806680577
H  H1007  1  0.61630000  0.81390000  0.89910000  1.0 0.0806680577
H  H1008  1  0.38370000  0.18610000  0.39910000  1.0 0.0806680577
C  C1  1  0.17374000  0.53206000  0.00629000  1.0 0.2095522126
C  C2  1  0.82626000  0.46794000  0.50629000  1.0 0.2095522126
C  C3  1  0.96794000  0.67374000  0.75629000  1.0 0.2095522126
C  C4  1  0.03206000  0.32626000  0.25629000  1.0 0.2095522126
C  C5  1  0.32626000  0.03206000  0.74371000  1.0 0.2095522126
C  C6  1  0.67374000  0.96794000  0.24371000  1.0 0.2095522126
C  C7  1  0.53206000  0.17374000  0.99371000  1.0 0.2095522126
C  C8  1  0.46794000  0.82626000  0.49371000  1.0 0.2095522126
C  C9  1  0.20316000  0.58013000  0.00013000  1.0 0.0267450256
C  C10  1  0.79684000  0.41987000  0.50013000  1.0 0.0267450256
C  C11  1  0.91987000  0.70316000  0.75013000  1.0 0.0267450256
C  C12  1  0.08013000  0.29684000  0.25013000  1.0 0.0267450256
C  C13  1  0.29684000  0.08013000  0.74987000  1.0 0.0267450256
C  C14  1  0.70316000  0.91987000  0.24987000  1.0 0.0267450256
C  C15  1  0.58013000  0.20316000  0.99987000  1.0 0.0267450256
C  C16  1  0.41987000  0.79684000  0.49987000  1.0 0.0267450256
C  C17  1  0.25068000  0.57048000  0.98308000  1.0 0.0714606214
C  C18  1  0.74932000  0.42952000  0.48308000  1.0 0.0714606214
C  C19  1  0.92952000  0.75068000  0.73308000  1.0 0.0714606214
C  C20  1  0.07048000  0.24932000  0.23308000  1.0 0.0714606214
C  C21  1  0.24932000  0.07048000  0.76692000  1.0 0.0714606214
C  C22  1  0.75068000  0.92952000  0.26692000  1.0 0.0714606214
C  C23  1  0.57048000  0.25068000  0.01692000  1.0 0.0714606214
C  C24  1  0.42952000  0.74932000  0.51692000  1.0 0.0714606214
C  C25  1  0.28007000  0.52719000  0.99789000  1.0 0.0100700596
C  C26  1  0.71993000  0.47281000  0.49789000  1.0 0.0100700596
C  C27  1  0.97281000  0.78007000  0.74789000  1.0 0.0100700596
C  C28  1  0.02719000  0.21993000  0.24789000  1.0 0.0100700596
C  C29  1  0.21993000  0.02719000  0.75211000  1.0 0.0100700596
C  C30  1  0.78007000  0.97281000  0.25211000  1.0 0.0100700596
C  C31  1  0.52719000  0.28007000  0.00211000  1.0 0.0100700596
C  C32  1  0.47281000  0.71993000  0.50211000  1.0 0.0100700596
C  C33  1  0.24719000  0.48206000  0.00425000  1.0 0.0714606214
C  C34  1  0.75281000  0.51794000  0.50425000  1.0 0.0714606214
C  C35  1  0.01794000  0.74719000  0.75425000  1.0 0.0714606214
C  C36  1  0.98206000  0.25281000  0.25425000  1.0 0.0714606214
C  C37  1  0.25281000  0.98206000  0.74575000  1.0 0.0714606214
C  C38  1  0.74719000  0.01794000  0.24575000  1.0 0.0714606214
C  C39  1  0.48206000  0.24719000  0.99575000  1.0 0.0714606214
C  C40  1  0.51794000  0.75281000  0.49575000  1.0 0.0714606214
C  C41  1  0.27150000  0.44220000  0.02784000  1.0 -0.0284493836
C  C42  1  0.72850000  0.55780000  0.52784000  1.0 -0.0284493836
C  C43  1  0.05780000  0.77150000  0.77784000  1.0 -0.0284493836
C  C44  1  0.94220000  0.22850000  0.27784000  1.0 -0.0284493836
C  C45  1  0.22850000  0.94220000  0.72216000  1.0 -0.0284493836
C  C46  1  0.77150000  0.05780000  0.22216000  1.0 -0.0284493836
C  C47  1  0.44220000  0.27150000  0.97216000  1.0 -0.0284493836
C  C48  1  0.55780000  0.72850000  0.47216000  1.0 -0.0284493836
C  C49  1  0.36509000  0.51780000  0.97897000  1.0 0.1606633891
C  C50  1  0.63491000  0.48220000  0.47897000  1.0 0.1606633891
C  C51  1  0.98220000  0.86509000  0.72897000  1.0 0.1606633891
C  C52  1  0.01780000  0.13491000  0.22897000  1.0 0.1606633891
C  C53  1  0.13491000  0.01780000  0.77103000  1.0 0.1606633891
C  C54  1  0.86509000  0.98220000  0.27103000  1.0 0.1606633891
C  C55  1  0.51780000  0.36509000  0.02103000  1.0 0.1606633891
C  C56  1  0.48220000  0.63491000  0.52103000  1.0 0.1606633891
C  C57  1  0.38931000  0.55389000  0.95216000  1.0 0.0625955436
C  C58  1  0.61069000  0.44611000  0.45216000  1.0 0.0625955436
C  C59  1  0.94611000  0.88931000  0.70216000  1.0 0.0714606214
C  C60  1  0.05389000  0.11069000  0.20216000  1.0 0.0625955436
C  C61  1  0.11069000  0.05389000  0.79784000  1.0 0.0625955436
C  C62  1  0.88931000  0.94611000  0.29784000  1.0 0.0625955436
C  C63  1  0.55389000  0.38931000  0.04784000  1.0 0.0625955436
C  C64  1  0.44611000  0.61069000  0.54784000  1.0 0.0625955436
C  C65  1  0.38580000  0.53080000  0.91640000  1.0 0.0903443152
C  C66  1  0.61420000  0.46920000  0.41640000  1.0 0.0903443152
C  C67  1  0.96920000  0.88580000  0.66640000  1.0 0.0903443152
C  C68  1  0.03080000  0.11420000  0.16640000  1.0 0.0903443152
C  C69  1  0.11420000  0.03080000  0.83360000  1.0 0.0903443152
C  C70  1  0.88580000  0.96920000  0.33360000  1.0 0.0903443152
C  C71  1  0.53080000  0.38580000  0.08360000  1.0 0.0903443152
C  C72  1  0.46920000  0.61420000  0.58360000  1.0 0.0903443152
C  C73  1  0.40331000  0.47633000  0.91491000  1.0 0.0100700596
C  C74  1  0.59669000  0.52367000  0.41491000  1.0 0.0100700596
C  C75  1  0.02367000  0.90331000  0.66491000  1.0 0.0100700596
C  C76  1  0.97633000  0.09669000  0.16491000  1.0 0.0100700596
C  C77  1  0.09669000  0.97633000  0.83509000  1.0 0.0100700596
C  C78  1  0.90331000  0.02367000  0.33509000  1.0 0.0100700596
C  C79  1  0.47633000  0.40331000  0.08509000  1.0 0.0100700596
C  C80  1  0.52367000  0.59669000  0.58509000  1.0 0.0100700596
C  C81  1  0.37805000  0.44762000  0.94410000  1.0 0.0806680577
C  C82  1  0.62195000  0.55238000  0.44410000  1.0 0.0806680577
C  C83  1  0.05238000  0.87805000  0.69410000  1.0 0.0806680577
C  C84  1  0.94762000  0.12195000  0.19410000  1.0 0.0806680577
C  C85  1  0.12195000  0.94762000  0.80590000  1.0 0.0806680577
C  C86  1  0.87805000  0.05238000  0.30590000  1.0 0.0806680577
C  C87  1  0.44762000  0.37805000  0.05590000  1.0 0.0806680577
C  C88  1  0.55238000  0.62195000  0.55590000  1.0 0.0806680577
C  C89  1  0.40210000  0.39530000  0.94696000  1.0 -0.0504362413
C  C90  1  0.59790000  0.60470000  0.44696000  1.0 -0.0504362413
C  C91  1  0.10470000  0.90210000  0.69696000  1.0 -0.0504362413
C  C92  1  0.89530000  0.09790000  0.19696000  1.0 -0.0504362413
C  C93  1  0.09790000  0.89530000  0.80304000  1.0 -0.0504362413
C  C94  1  0.90210000  0.10470000  0.30304000  1.0 -0.0504362413
C  C95  1  0.39530000  0.40210000  0.05304000  1.0 -0.0504362413
C  C96  1  0.60470000  0.59790000  0.55304000  1.0 -0.0504362413
C  C97  1  0.42215000  0.43277000  0.86150000  1.0 0.1918607289
C  C98  1  0.57785000  0.56723000  0.36150000  1.0 0.1918607289
C  C99  1  0.06723000  0.92215000  0.61150000  1.0 0.1918607289
C  C100  1  0.93277000  0.07785000  0.11150000  1.0 0.1918607289
C  C101  1  0.07785000  0.93277000  0.88850000  1.0 0.1918607289
C  C102  1  0.92215000  0.06723000  0.38850000  1.0 0.1918607289
C  C103  1  0.43277000  0.42215000  0.13850000  1.0 0.1918607289
C  C104  1  0.56723000  0.57785000  0.63850000  1.0 0.1918607289
C  C105  1  0.41410000  0.44940000  0.82305000  1.0 0.0420096583
C  C106  1  0.58590000  0.55060000  0.32305000  1.0 0.0420096583
C  C107  1  0.05060000  0.91410000  0.57305000  1.0 0.0420096583
C  C108  1  0.94940000  0.08590000  0.07305000  1.0 0.0420096583
C  C109  1  0.08590000  0.94940000  0.92695000  1.0 0.0420096583
C  C110  1  0.91410000  0.05060000  0.42695000  1.0 0.0420096583
C  C111  1  0.44940000  0.41410000  0.17695000  1.0 0.0420096583
C  C112  1  0.55060000  0.58590000  0.67695000  1.0 0.0420096583
C  C113  1  0.36424000  0.43465000  0.81177000  1.0 0.0806680577
C  C114  1  0.63576000  0.56535000  0.31177000  1.0 0.0806680577
C  C115  1  0.06535000  0.86424000  0.56177000  1.0 0.0806680577
C  C116  1  0.93465000  0.13576000  0.06177000  1.0 0.0806680577
C  C117  1  0.13576000  0.93465000  0.93823000  1.0 0.0806680577
C  C118  1  0.86424000  0.06535000  0.43823000  1.0 0.0806680577
C  C119  1  0.43465000  0.36424000  0.18823000  1.0 0.0806680577
C  C120  1  0.56535000  0.63576000  0.68823000  1.0 0.0806680577
C  C121  1  0.35616000  0.38084000  0.81690000  1.0 0.0100700596
C  C122  1  0.64384000  0.61916000  0.31690000  1.0 0.0100700596
C  C123  1  0.11916000  0.85616000  0.56690000  1.0 0.0100700596
C  C124  1  0.88084000  0.14384000  0.06690000  1.0 0.0100700596
C  C125  1  0.14384000  0.88084000  0.93310000  1.0 0.0100700596
C  C126  1  0.85616000  0.11916000  0.43310000  1.0 0.0100700596
C  C127  1  0.38084000  0.35616000  0.18310000  1.0 0.0100700596
C  C128  1  0.61916000  0.64384000  0.68310000  1.0 0.0100700596
C  C129  1  0.36831000  0.36575000  0.85451000  1.0 0.0625955436
C  C130  1  0.63169000  0.63425000  0.35451000  1.0 0.0625955436
C  C131  1  0.13425000  0.86831000  0.60451000  1.0 0.0625955436
C  C132  1  0.86575000  0.13169000  0.10451000  1.0 0.0625955436
C  C133  1  0.13169000  0.86575000  0.89549000  1.0 0.0625955436
C  C134  1  0.86831000  0.13425000  0.39549000  1.0 0.0625955436
C  C135  1  0.36575000  0.36831000  0.14549000  1.0 0.0625955436
C  C136  1  0.63425000  0.63169000  0.64549000  1.0 0.0625955436
C  C137  1  0.36760000  0.30980000  0.85822000  1.0 -0.0504362413
C  C138  1  0.63240000  0.69020000  0.35822000  1.0 -0.0504362413
C  C139  1  0.19020000  0.86760000  0.60822000  1.0 -0.0504362413
C  C140  1  0.80980000  0.13240000  0.10822000  1.0 -0.0504362413
C  C141  1  0.13240000  0.80980000  0.89178000  1.0 -0.0504362413
C  C142  1  0.86760000  0.19020000  0.39178000  1.0 -0.0504362413
C  C143  1  0.30980000  0.36760000  0.14178000  1.0 -0.0504362413
C  C144  1  0.69020000  0.63240000  0.64178000  1.0 -0.0504362413
C  C145  1  0.29515000  0.33370000  0.78537000  1.0 0.1606633891
C  C146  1  0.70485000  0.66630000  0.28537000  1.0 0.1606633891
C  C147  1  0.16630000  0.79515000  0.53537000  1.0 0.1606633891
C  C148  1  0.83370000  0.20485000  0.03537000  1.0 0.1606633891
C  C149  1  0.20485000  0.83370000  0.96463000  1.0 0.1606633891
C  C150  1  0.79515000  0.16630000  0.46463000  1.0 0.1606633891
C  C151  1  0.33370000  0.29515000  0.21463000  1.0 0.1606633891
C  C152  1  0.66630000  0.70485000  0.71463000  1.0 0.1606633891
C  C153  1  0.26248000  0.35630000  0.75694000  1.0 0.0511320997
C  C154  1  0.73752000  0.64370000  0.25694000  1.0 0.0511320997
C  C155  1  0.14370000  0.76248000  0.50694000  1.0 0.0511320997
C  C156  1  0.85630000  0.23752000  0.00694000  1.0 0.0511320997
C  C157  1  0.23752000  0.85630000  0.99306000  1.0 0.0511320997
C  C158  1  0.76248000  0.14370000  0.49306000  1.0 0.0511320997
C  C159  1  0.35630000  0.26248000  0.24306000  1.0 0.0511320997
C  C160  1  0.64370000  0.73752000  0.74306000  1.0 0.0511320997
C  C161  1  0.21490000  0.37530000  0.77588000  1.0 0.0903443152
C  C162  1  0.78510000  0.62470000  0.27588000  1.0 0.0903443152
C  C163  1  0.12470000  0.71490000  0.52588000  1.0 0.0903443152
C  C164  1  0.87530000  0.28510000  0.02588000  1.0 0.0903443152
C  C165  1  0.28510000  0.87530000  0.97412000  1.0 0.0903443152
C  C166  1  0.71490000  0.12470000  0.47412000  1.0 0.0903443152
C  C167  1  0.37530000  0.21490000  0.22412000  1.0 0.0903443152
C  C168  1  0.62470000  0.78510000  0.72412000  1.0 0.0903443152
C  C169  1  0.19190000  0.33540000  0.79742000  1.0 0.0100700596
C  C170  1  0.80810000  0.66460000  0.29742000  1.0 0.0100700596
C  C171  1  0.16460000  0.69190000  0.54742000  1.0 0.0100700596
C  C172  1  0.83540000  0.30810000  0.04742000  1.0 0.0100700596
C  C173  1  0.30810000  0.83540000  0.95258000  1.0 0.0100700596
C  C174  1  0.69190000  0.16460000  0.45258000  1.0 0.0100700596
C  C175  1  0.33540000  0.19190000  0.20258000  1.0 0.0100700596
C  C176  1  0.66460000  0.80810000  0.70258000  1.0 0.0100700596
C  C177  1  0.23004000  0.30764000  0.82077000  1.0 0.0714606214
C  C178  1  0.76996000  0.69236000  0.32077000  1.0 0.0714606214
C  C179  1  0.19236000  0.73004000  0.57077000  1.0 0.0714606214
C  C180  1  0.80764000  0.26996000  0.07077000  1.0 0.0714606214
C  C181  1  0.26996000  0.80764000  0.92923000  1.0 0.0714606214
C  C182  1  0.73004000  0.19236000  0.42923000  1.0 0.0714606214
C  C183  1  0.30764000  0.23004000  0.17923000  1.0 0.0714606214
C  C184  1  0.69236000  0.76996000  0.67923000  1.0 0.0714606214
C  C185  1  0.20860000  0.26050000  0.83720000  1.0 -0.0427700526
C  C186  1  0.79140000  0.73950000  0.33720000  1.0 -0.0427700526
C  C187  1  0.23950000  0.70860000  0.58720000  1.0 -0.0427700526
C  C188  1  0.76050000  0.29140000  0.08720000  1.0 -0.0427700526
C  C189  1  0.29140000  0.76050000  0.91280000  1.0 -0.0427700526
C  C190  1  0.70860000  0.23950000  0.41280000  1.0 -0.0427700526
C  C191  1  0.26050000  0.20860000  0.16280000  1.0 -0.0427700526
C  C192  1  0.73950000  0.79140000  0.66280000  1.0 -0.0427700526
C  C193  1  0.10713000  0.34414000  0.81656000  1.0 0.1790976924
C  C194  1  0.89287000  0.65586000  0.31656000  1.0 0.1790976924
C  C195  1  0.15586000  0.60713000  0.56656000  1.0 0.1790976924
C  C196  1  0.84414000  0.39287000  0.06656000  1.0 0.1790976924
C  C197  1  0.39287000  0.84414000  0.93344000  1.0 0.1790976924
C  C198  1  0.60713000  0.15586000  0.43344000  1.0 0.1790976924
C  C199  1  0.34414000  0.10713000  0.18344000  1.0 0.1790976924
C  C200  1  0.65586000  0.89287000  0.68344000  1.0 0.1790976924
C  C201  1  0.07650000  0.38927000  0.80600000  1.0 0.0201419629
C  C202  1  0.92350000  0.61073000  0.30600000  1.0 0.0267450256
C  C203  1  0.11073000  0.57650000  0.55600000  1.0 0.0201419629
C  C204  1  0.88927000  0.42350000  0.05600000  1.0 0.0267450256
C  C205  1  0.42350000  0.88927000  0.94400000  1.0 0.0267450256
C  C206  1  0.57650000  0.11073000  0.44400000  1.0 0.0267450256
C  C207  1  0.38927000  0.07650000  0.19400000  1.0 0.0201419629
C  C208  1  0.61073000  0.92350000  0.69400000  1.0 0.0267450256
C  C209  1  0.08055000  0.42639000  0.83561000  1.0 0.0714606214
C  C210  1  0.91945000  0.57361000  0.33561000  1.0 0.0714606214
C  C211  1  0.07361000  0.58055000  0.58561000  1.0 0.0714606214
C  C212  1  0.92639000  0.41945000  0.08561000  1.0 0.0714606214
C  C213  1  0.41945000  0.92639000  0.91439000  1.0 0.0714606214
C  C214  1  0.58055000  0.07361000  0.41439000  1.0 0.0714606214
C  C215  1  0.42639000  0.08055000  0.16439000  1.0 0.0714606214
C  C216  1  0.57361000  0.91945000  0.66439000  1.0 0.0714606214
C  C217  1  0.06660000  0.40470000  0.87028000  1.0 0.0201419629
C  C218  1  0.93340000  0.59530000  0.37028000  1.0 0.0100700596
C  C219  1  0.09530000  0.56660000  0.62028000  1.0 0.0100700596
C  C220  1  0.90470000  0.43340000  0.12028000  1.0 0.0100700596
C  C221  1  0.43340000  0.90470000  0.87972000  1.0 0.0100700596
C  C222  1  0.56660000  0.09530000  0.37972000  1.0 0.0100700596
C  C223  1  0.40470000  0.06660000  0.12972000  1.0 0.0201419629
C  C224  1  0.59530000  0.93340000  0.62972000  1.0 0.0100700596
C  C225  1  0.09372000  0.35507000  0.87891000  1.0 -0.0090775449
C  C226  1  0.90628000  0.64493000  0.37891000  1.0 -0.0090775449
C  C227  1  0.14493000  0.59372000  0.62891000  1.0 -0.0090775449
C  C228  1  0.85507000  0.40628000  0.12891000  1.0 -0.0037644374
C  C229  1  0.40628000  0.85507000  0.87109000  1.0 -0.0037644374
C  C230  1  0.59372000  0.14493000  0.37109000  1.0 -0.0090775449
C  C231  1  0.35507000  0.09372000  0.12109000  1.0 -0.0037644374
C  C232  1  0.64493000  0.90628000  0.62109000  1.0 -0.0090775449
C  C233  1  0.07740000  0.33340000  0.91290000  1.0 -0.0504362413
C  C234  1  0.92260000  0.66666667  0.41290000  1.0 -0.0504362413
C  C235  1  0.16660000  0.57740000  0.66290000  1.0 -0.0504362413
C  C236  1  0.83340000  0.42260000  0.16290000  1.0 -0.0504362413
C  C237  1  0.42260000  0.83340000  0.83710000  1.0 -0.0504362413
C  C238  1  0.57740000  0.16660000  0.33710000  1.0 -0.0504362413
C  C239  1  0.33340000  0.07740000  0.08710000  1.0 -0.0504362413
C  C240  1  0.66666667  0.92260000  0.58710000  1.0 -0.0504362413
C  C241  1  0.04213000  0.45840000  0.91946000  1.0 0.1606633891
C  C242  1  0.95787000  0.54160000  0.41946000  1.0 0.1606633891
C  C243  1  0.04160000  0.54213000  0.66946000  1.0 0.1606633891
C  C244  1  0.95840000  0.45787000  0.16946000  1.0 0.1606633891
C  C245  1  0.45787000  0.95840000  0.83054000  1.0 0.1606633891
C  C246  1  0.54213000  0.04160000  0.33054000  1.0 0.1606633891
C  C247  1  0.45840000  0.04213000  0.08054000  1.0 0.1606633891
C  C248  1  0.54160000  0.95787000  0.58054000  1.0 0.1606633891
C  C249  1  0.04618000  0.51650000  0.91768000  1.0 0.0420096583
C  C250  1  0.95382000  0.48350000  0.41768000  1.0 0.0420096583
C  C251  1  0.98350000  0.54618000  0.66768000  1.0 0.0420096583
C  C252  1  0.01650000  0.45382000  0.16768000  1.0 0.0420096583
C  C253  1  0.45382000  0.01650000  0.83232000  1.0 0.0420096583
C  C254  1  0.54618000  0.98350000  0.33232000  1.0 0.0420096583
C  C255  1  0.51650000  0.04618000  0.08232000  1.0 0.0420096583
C  C256  1  0.48350000  0.95382000  0.58232000  1.0 0.0420096583
C  C257  1  0.09652000  0.53132000  0.93264000  1.0 0.0903443152
C  C258  1  0.90348000  0.46868000  0.43264000  1.0 0.0903443152
C  C259  1  0.96868000  0.59652000  0.68264000  1.0 0.0903443152
C  C260  1  0.03132000  0.40348000  0.18264000  1.0 0.0903443152
C  C261  1  0.40348000  0.03132000  0.81736000  1.0 0.0903443152
C  C262  1  0.59652000  0.96868000  0.31736000  1.0 0.0903443152
C  C263  1  0.53132000  0.09652000  0.06736000  1.0 0.0903443152
C  C264  1  0.46868000  0.90348000  0.56736000  1.0 0.0903443152
C  C265  1  0.10879000  0.50600000  0.96821000  1.0 0.0022776772
C  C266  1  0.89121000  0.49400000  0.46821000  1.0 0.0022776772
C  C267  1  0.99400000  0.60879000  0.71821000  1.0 0.0022776772
C  C268  1  0.00600000  0.39121000  0.21821000  1.0 0.0022776772
C  C269  1  0.39121000  0.00600000  0.78179000  1.0 0.0022776772
C  C270  1  0.60879000  0.99400000  0.28179000  1.0 0.0022776772
C  C271  1  0.50600000  0.10879000  0.03179000  1.0 0.0022776772
C  C272  1  0.49400000  0.89121000  0.53179000  1.0 0.0022776772
C  C273  1  0.09620000  0.45018000  0.96767000  1.0 0.0625955436
C  C274  1  0.90380000  0.54982000  0.46767000  1.0 0.0625955436
C  C275  1  0.04982000  0.59620000  0.71767000  1.0 0.0625955436
C  C276  1  0.95018000  0.40380000  0.21767000  1.0 0.0625955436
C  C277  1  0.40380000  0.95018000  0.78233000  1.0 0.0625955436
C  C278  1  0.59620000  0.04982000  0.28233000  1.0 0.0625955436
C  C279  1  0.45018000  0.09620000  0.03233000  1.0 0.0625955436
C  C280  1  0.54982000  0.90380000  0.53233000  1.0 0.0625955436
C  C281  1  0.10100000  0.42610000  0.00299000  1.0 -0.0504362413
C  C282  1  0.89900000  0.57390000  0.50299000  1.0 -0.0504362413
C  C283  1  0.07390000  0.60100000  0.75299000  1.0 -0.0504362413
C  C284  1  0.92610000  0.39900000  0.25299000  1.0 -0.0504362413
C  C285  1  0.39900000  0.92610000  0.74701000  1.0 -0.0504362413
C  C286  1  0.60100000  0.07390000  0.24701000  1.0 -0.0504362413
C  C287  1  0.42610000  0.10100000  0.99701000  1.0 -0.0504362413
C  C288  1  0.57390000  0.89900000  0.49701000  1.0 -0.0504362413
C  C289  1  0.46884000  0.93364000  0.16508000  1.0 0.1467953669
C  C290  1  0.53116000  0.06636000  0.66508000  1.0 0.1467953669
C  C291  1  0.56636000  0.96884000  0.91508000  1.0 0.1467953669
C  C292  1  0.43364000  0.03116000  0.41508000  1.0 0.1467953669
C  C293  1  0.03116000  0.43364000  0.58492000  1.0 0.1467953669
C  C294  1  0.96884000  0.56636000  0.08492000  1.0 0.1467953669
C  C295  1  0.93364000  0.46884000  0.83492000  1.0 0.1467953669
C  C296  1  0.06636000  0.53116000  0.33492000  1.0 0.1467953669
C  C297  1  0.52332000  0.94044000  0.16441000  1.0 0.0201419629
C  C298  1  0.47668000  0.05956000  0.66441000  1.0 0.0201419629
C  C299  1  0.55956000  0.02332000  0.91441000  1.0 0.0201419629
C  C300  1  0.44044000  0.97668000  0.41441000  1.0 0.0201419629
C  C301  1  0.97668000  0.44044000  0.58559000  1.0 0.0201419629
C  C302  1  0.02332000  0.55956000  0.08559000  1.0 0.0201419629
C  C303  1  0.94044000  0.52332000  0.83559000  1.0 0.0201419629
C  C304  1  0.05956000  0.47668000  0.33559000  1.0 0.0201419629
C  C305  1  0.54645000  0.89364000  0.17828000  1.0 0.0903443152
C  C306  1  0.45355000  0.10636000  0.67828000  1.0 0.0903443152
C  C307  1  0.60636000  0.04645000  0.92828000  1.0 0.0903443152
C  C308  1  0.39364000  0.95355000  0.42828000  1.0 0.0903443152
C  C309  1  0.95355000  0.39364000  0.57172000  1.0 0.0903443152
C  C310  1  0.04645000  0.60636000  0.07172000  1.0 0.0903443152
C  C311  1  0.89364000  0.54645000  0.82172000  1.0 0.0903443152
C  C312  1  0.10636000  0.45355000  0.32172000  1.0 0.0903443152
C  C313  1  0.52616000  0.87829000  0.21362000  1.0 0.0022776772
C  C314  1  0.47384000  0.12171000  0.71362000  1.0 0.0022776772
C  C315  1  0.62171000  0.02616000  0.96362000  1.0 0.0022776772
C  C316  1  0.37829000  0.97384000  0.46362000  1.0 0.0022776772
C  C317  1  0.97384000  0.37829000  0.53638000  1.0 0.0022776772
C  C318  1  0.02616000  0.62171000  0.03638000  1.0 0.0022776772
C  C319  1  0.87829000  0.52616000  0.78638000  1.0 0.0022776772
C  C320  1  0.12171000  0.47384000  0.28638000  1.0 0.0022776772
C  C321  1  0.46951000  0.87864000  0.21395000  1.0 0.0625955436
C  C322  1  0.53049000  0.12136000  0.71395000  1.0 0.0625955436
C  C323  1  0.62136000  0.96951000  0.96395000  1.0 0.0625955436
C  C324  1  0.37864000  0.03049000  0.46395000  1.0 0.0625955436
C  C325  1  0.03049000  0.37864000  0.53605000  1.0 0.0625955436
C  C326  1  0.96951000  0.62136000  0.03605000  1.0 0.0625955436
C  C327  1  0.87864000  0.46951000  0.78605000  1.0 0.0625955436
C  C328  1  0.12136000  0.53049000  0.28605000  1.0 0.0625955436
C  C329  1  0.44806000  0.87201000  0.25077000  1.0 -0.0504362413
C  C330  1  0.55194000  0.12799000  0.75077000  1.0 -0.0504362413
C  C331  1  0.62799000  0.94806000  0.00077000  1.0 -0.0504362413
C  C332  1  0.37201000  0.05194000  0.50077000  1.0 -0.0504362413
C  C333  1  0.05194000  0.37201000  0.49923000  1.0 -0.0504362413
C  C334  1  0.94806000  0.62799000  0.99923000  1.0 -0.0504362413
C  C335  1  0.87201000  0.44806000  0.74923000  1.0 -0.0504362413
C  C336  1  0.12799000  0.55194000  0.24923000  1.0 -0.0504362413
C  C337  1  0.36998000  0.83988000  0.06393000  1.0 0.1711386163
C  C338  1  0.63002000  0.16012000  0.56393000  1.0 0.1711386163
C  C339  1  0.66012000  0.86998000  0.81393000  1.0 0.1711386163
C  C340  1  0.33988000  0.13002000  0.31393000  1.0 0.1711386163
C  C341  1  0.13002000  0.33988000  0.68607000  1.0 0.1711386163
C  C342  1  0.86998000  0.66012000  0.18607000  1.0 0.1711386163
C  C343  1  0.83988000  0.36998000  0.93607000  1.0 0.1711386163
C  C344  1  0.16012000  0.63002000  0.43607000  1.0 0.1711386163
C  C345  1  0.41036000  0.87493000  0.05366000  1.0 0.0100700596
C  C346  1  0.58964000  0.12507000  0.55366000  1.0 0.0100700596
C  C347  1  0.62507000  0.91036000  0.80366000  1.0 0.0100700596
C  C348  1  0.37493000  0.08964000  0.30366000  1.0 0.0100700596
C  C349  1  0.08964000  0.37493000  0.69634000  1.0 0.0100700596
C  C350  1  0.91036000  0.62507000  0.19634000  1.0 0.0100700596
C  C351  1  0.87493000  0.41036000  0.94634000  1.0 0.0100700596
C  C352  1  0.12507000  0.58964000  0.44634000  1.0 0.0100700596
C  C353  1  0.44620000  0.88370000  0.08284000  1.0 0.0989618205
C  C354  1  0.55380000  0.11630000  0.58284000  1.0 0.0989618205
C  C355  1  0.61630000  0.94620000  0.83284000  1.0 0.0989618205
C  C356  1  0.38370000  0.05380000  0.33284000  1.0 0.0989618205
C  C357  1  0.05380000  0.38370000  0.66716000  1.0 0.0989618205
C  C358  1  0.94620000  0.61630000  0.16716000  1.0 0.0989618205
C  C359  1  0.88370000  0.44620000  0.91716000  1.0 0.0989618205
C  C360  1  0.11630000  0.55380000  0.41716000  1.0 0.0989618205
C  C361  1  0.41860000  0.89578000  0.11776000  1.0 0.0022776772
C  C362  1  0.58140000  0.10422000  0.61776000  1.0 0.0022776772
C  C363  1  0.60422000  0.91860000  0.86776000  1.0 0.0022776772
C  C364  1  0.39578000  0.08140000  0.36776000  1.0 0.0022776772
C  C365  1  0.08140000  0.39578000  0.63224000  1.0 0.0022776772
C  C366  1  0.91860000  0.60422000  0.13224000  1.0 0.0022776772
C  C367  1  0.89578000  0.41860000  0.88224000  1.0 0.0022776772
C  C368  1  0.10422000  0.58140000  0.38224000  1.0 0.0022776772
C  C369  1  0.37910000  0.86113000  0.12477000  1.0 -0.0090775449
C  C370  1  0.62090000  0.13887000  0.62477000  1.0 -0.0090775449
C  C371  1  0.63887000  0.87910000  0.87477000  1.0 -0.0158514288
C  C372  1  0.36113000  0.12090000  0.37477000  1.0 -0.0090775449
C  C373  1  0.12090000  0.36113000  0.62523000  1.0 -0.0090775449
C  C374  1  0.87910000  0.63887000  0.12523000  1.0 -0.0090775449
C  C375  1  0.86113000  0.37910000  0.87523000  1.0 -0.0090775449
C  C376  1  0.13887000  0.62090000  0.37523000  1.0 -0.0090775449
C  C377  1  0.34790000  0.87580000  0.15676000  1.0 -0.0504362413
C  C378  1  0.65210000  0.12420000  0.65676000  1.0 -0.0504362413
C  C379  1  0.62420000  0.84790000  0.90676000  1.0 -0.0504362413
C  C380  1  0.37580000  0.15210000  0.40676000  1.0 -0.0504362413
C  C381  1  0.15210000  0.37580000  0.59324000  1.0 -0.0504362413
C  C382  1  0.84790000  0.62420000  0.09324000  1.0 -0.0504362413
C  C383  1  0.87580000  0.34790000  0.84324000  1.0 -0.0504362413
C  C384  1  0.12420000  0.65210000  0.34324000  1.0 -0.0504362413
C  C385  1  0.37069000  0.64900000  0.04262000  1.0 0.1711386163
C  C386  1  0.62931000  0.35100000  0.54262000  1.0 0.1711386163
C  C387  1  0.85100000  0.87069000  0.79262000  1.0 0.1711386163
C  C388  1  0.14900000  0.12931000  0.29262000  1.0 0.1711386163
C  C389  1  0.12931000  0.14900000  0.70738000  1.0 0.1711386163
C  C390  1  0.87069000  0.85100000  0.20738000  1.0 0.1711386163
C  C391  1  0.64900000  0.37069000  0.95738000  1.0 0.1711386163
C  C392  1  0.35100000  0.62931000  0.45738000  1.0 0.1711386163
C  C393  1  0.38590000  0.68173000  0.01181000  1.0 0.0201419629
C  C394  1  0.61410000  0.31827000  0.51181000  1.0 0.0201419629
C  C395  1  0.81827000  0.88590000  0.76181000  1.0 0.0201419629
C  C396  1  0.18173000  0.11410000  0.26181000  1.0 0.0201419629
C  C397  1  0.11410000  0.18173000  0.73819000  1.0 0.0201419629
C  C398  1  0.88590000  0.81827000  0.23819000  1.0 0.0201419629
C  C399  1  0.68173000  0.38590000  0.98819000  1.0 0.0201419629
C  C400  1  0.31827000  0.61410000  0.48819000  1.0 0.0201419629
C  C401  1  0.40543000  0.73084000  0.02704000  1.0 0.0989618205
C  C402  1  0.59457000  0.26916000  0.52704000  1.0 0.0989618205
C  C403  1  0.76916000  0.90543000  0.77704000  1.0 0.0989618205
C  C404  1  0.23084000  0.09457000  0.27704000  1.0 0.0989618205
C  C405  1  0.09457000  0.23084000  0.72296000  1.0 0.0989618205
C  C406  1  0.90543000  0.76916000  0.22296000  1.0 0.0989618205
C  C407  1  0.73084000  0.40543000  0.97296000  1.0 0.0989618205
C  C408  1  0.26916000  0.59457000  0.47296000  1.0 0.0989618205
C  C409  1  0.36679000  0.75157000  0.05185000  1.0 -0.0037644374
C  C410  1  0.63321000  0.24843000  0.55185000  1.0 -0.0037644374
C  C411  1  0.74843000  0.86679000  0.80185000  1.0 -0.0037644374
C  C412  1  0.25157000  0.13321000  0.30185000  1.0 -0.0037644374
C  C413  1  0.13321000  0.25157000  0.69815000  1.0 -0.0037644374
C  C414  1  0.86679000  0.74843000  0.19815000  1.0 -0.0037644374
C  C415  1  0.75157000  0.36679000  0.94815000  1.0 -0.0037644374
C  C416  1  0.24843000  0.63321000  0.44815000  1.0 -0.0037644374
C  C417  1  0.34820000  0.71630000  0.07815000  1.0 0.0625955436
C  C418  1  0.65180000  0.28370000  0.57815000  1.0 0.0625955436
C  C419  1  0.78370000  0.84820000  0.82815000  1.0 0.0625955436
C  C420  1  0.21630000  0.15180000  0.32815000  1.0 0.0625955436
C  C421  1  0.15180000  0.21630000  0.67185000  1.0 0.0625955436
C  C422  1  0.84820000  0.78370000  0.17185000  1.0 0.0625955436
C  C423  1  0.71630000  0.34820000  0.92185000  1.0 0.0625955436
C  C424  1  0.28370000  0.65180000  0.42185000  1.0 0.0625955436
C  C425  1  0.30330000  0.73770000  0.09770000  1.0 -0.0427700526
C  C426  1  0.69670000  0.26230000  0.59770000  1.0 -0.0427700526
C  C427  1  0.76230000  0.80330000  0.84770000  1.0 -0.0427700526
C  C428  1  0.23770000  0.19670000  0.34770000  1.0 -0.0427700526
C  C429  1  0.19670000  0.23770000  0.65230000  1.0 -0.0427700526
C  C430  1  0.80330000  0.76230000  0.15230000  1.0 -0.0427700526
C  C431  1  0.73770000  0.30330000  0.90230000  1.0 -0.0427700526
C  C432  1  0.26230000  0.69670000  0.40230000  1.0 -0.0427700526
C  C433  1  0.50278000  0.54106000  0.10891000  1.0 0.1790976924
C  C434  1  0.49722000  0.45894000  0.60891000  1.0 0.1790976924
C  C435  1  0.95894000  0.00278000  0.85891000  1.0 0.1790976924
C  C436  1  0.04106000  0.99722000  0.35891000  1.0 0.1790976924
C  C437  1  0.99722000  0.04106000  0.64109000  1.0 0.1790976924
C  C438  1  0.00278000  0.95894000  0.14109000  1.0 0.1790976924
C  C439  1  0.54106000  0.50278000  0.89109000  1.0 0.1790976924
C  C440  1  0.45894000  0.49722000  0.39109000  1.0 0.1790976924
C  C441  1  0.51540000  0.55450000  0.06947000  1.0 0.0420096583
C  C442  1  0.48460000  0.44550000  0.56947000  1.0 0.0420096583
C  C443  1  0.94550000  0.01540000  0.81947000  1.0 0.0420096583
C  C444  1  0.05450000  0.98460000  0.31947000  1.0 0.0420096583
C  C445  1  0.98460000  0.05450000  0.68053000  1.0 0.0420096583
C  C446  1  0.01540000  0.94550000  0.18053000  1.0 0.0420096583
C  C447  1  0.55450000  0.51540000  0.93053000  1.0 0.0420096583
C  C448  1  0.44550000  0.48460000  0.43053000  1.0 0.0420096583
C  C449  1  0.48590000  0.59830000  0.05827000  1.0 0.0714606214
C  C450  1  0.51410000  0.40170000  0.55827000  1.0 0.0714606214
C  C451  1  0.90170000  0.98590000  0.80827000  1.0 0.0714606214
C  C452  1  0.09830000  0.01410000  0.30827000  1.0 0.0714606214
C  C453  1  0.01410000  0.09830000  0.69173000  1.0 0.0714606214
C  C454  1  0.98590000  0.90170000  0.19173000  1.0 0.0714606214
C  C455  1  0.59830000  0.48590000  0.94173000  1.0 0.0714606214
C  C456  1  0.40170000  0.51410000  0.44173000  1.0 0.0714606214
C  C457  1  0.43177000  0.59399000  0.06679000  1.0 0.0022776772
C  C458  1  0.56823000  0.40601000  0.56679000  1.0 0.0022776772
C  C459  1  0.90601000  0.93177000  0.81679000  1.0 0.0022776772
C  C460  1  0.09399000  0.06823000  0.31679000  1.0 0.0022776772
C  C461  1  0.06823000  0.09399000  0.68321000  1.0 0.0022776772
C  C462  1  0.93177000  0.90601000  0.18321000  1.0 0.0022776772
C  C463  1  0.59399000  0.43177000  0.93321000  1.0 0.0022776772
C  C464  1  0.40601000  0.56823000  0.43321000  1.0 0.0022776772
C  C465  1  0.42263000  0.57451000  0.10491000  1.0 0.0625955436
C  C466  1  0.57737000  0.42549000  0.60491000  1.0 0.0625955436
C  C467  1  0.92549000  0.92263000  0.85491000  1.0 0.0625955436
C  C468  1  0.07451000  0.07737000  0.35491000  1.0 0.0625955436
C  C469  1  0.07737000  0.07451000  0.64509000  1.0 0.0625955436
C  C470  1  0.92263000  0.92549000  0.14509000  1.0 0.0625955436
C  C471  1  0.57451000  0.42263000  0.89509000  1.0 0.0625955436
C  C472  1  0.42549000  0.57737000  0.39509000  1.0 0.0625955436
C  C473  1  0.37012000  0.56130000  0.11184000  1.0 -0.0679676487
C  C474  1  0.62988000  0.43870000  0.61184000  1.0 -0.0679676487
C  C475  1  0.93870000  0.87012000  0.86184000  1.0 -0.0679676487
C  C476  1  0.06130000  0.12988000  0.36184000  1.0 -0.0679676487
C  C477  1  0.12988000  0.06130000  0.63816000  1.0 -0.0679676487
C  C478  1  0.87012000  0.93870000  0.13816000  1.0 -0.0679676487
C  C479  1  0.56130000  0.37012000  0.88816000  1.0 -0.0679676487
C  C480  1  0.43870000  0.62988000  0.38816000  1.0 -0.0679676487
C  C481  1  0.58527000  0.62578000  0.22019000  1.0 0.1606633891
C  C482  1  0.41473000  0.37422000  0.72019000  1.0 0.1606633891
C  C483  1  0.87422000  0.08527000  0.97019000  1.0 0.1606633891
C  C484  1  0.12578000  0.91473000  0.47019000  1.0 0.1606633891
C  C485  1  0.91473000  0.12578000  0.52981000  1.0 0.1606633891
C  C486  1  0.08527000  0.87422000  0.02981000  1.0 0.1606633891
C  C487  1  0.62578000  0.58527000  0.77981000  1.0 0.1606633891
C  C488  1  0.37422000  0.41473000  0.27981000  1.0 0.1606633891
C  C489  1  0.62153000  0.60840000  0.19122000  1.0 0.0420096583
C  C490  1  0.37847000  0.39160000  0.69122000  1.0 0.0420096583
C  C491  1  0.89160000  0.12153000  0.94122000  1.0 0.0420096583
C  C492  1  0.10840000  0.87847000  0.44122000  1.0 0.0420096583
C  C493  1  0.87847000  0.10840000  0.55878000  1.0 0.0420096583
C  C494  1  0.12153000  0.89160000  0.05878000  1.0 0.0420096583
C  C495  1  0.60840000  0.62153000  0.80878000  1.0 0.0420096583
C  C496  1  0.39160000  0.37847000  0.30878000  1.0 0.0420096583
C  C497  1  0.59400000  0.60640000  0.15662000  1.0 0.0903443152
C  C498  1  0.40600000  0.39360000  0.65662000  1.0 0.0903443152
C  C499  1  0.89360000  0.09400000  0.90662000  1.0 0.0903443152
C  C500  1  0.10640000  0.90600000  0.40662000  1.0 0.0903443152
C  C501  1  0.90600000  0.10640000  0.59338000  1.0 0.0903443152
C  C502  1  0.09400000  0.89360000  0.09338000  1.0 0.0903443152
C  C503  1  0.60640000  0.59400000  0.84338000  1.0 0.0903443152
C  C504  1  0.39360000  0.40600000  0.34338000  1.0 0.0903443152
C  C505  1  0.54790000  0.57348000  0.16027000  1.0 0.0100700596
C  C506  1  0.45210000  0.42652000  0.66027000  1.0 0.0100700596
C  C507  1  0.92652000  0.04790000  0.91027000  1.0 0.0100700596
C  C508  1  0.07348000  0.95210000  0.41027000  1.0 0.0100700596
C  C509  1  0.95210000  0.07348000  0.58973000  1.0 0.0100700596
C  C510  1  0.04790000  0.92652000  0.08973000  1.0 0.0100700596
C  C511  1  0.57348000  0.54790000  0.83973000  1.0 0.0100700596
C  C512  1  0.42652000  0.45210000  0.33973000  1.0 0.0100700596
C  C513  1  0.51623000  0.58584000  0.19379000  1.0 0.0714606214
C  C514  1  0.48377000  0.41416000  0.69379000  1.0 0.0714606214
C  C515  1  0.91416000  0.01623000  0.94379000  1.0 0.0714606214
C  C516  1  0.08584000  0.98377000  0.44379000  1.0 0.0714606214
C  C517  1  0.98377000  0.08584000  0.55621000  1.0 0.0714606214
C  C518  1  0.01623000  0.91416000  0.05621000  1.0 0.0714606214
C  C519  1  0.58584000  0.51623000  0.80621000  1.0 0.0714606214
C  C520  1  0.41416000  0.48377000  0.30621000  1.0 0.0714606214
C  C521  1  0.47910000  0.54590000  0.20272000  1.0 -0.1300105536
C  C522  1  0.52090000  0.45410000  0.70272000  1.0 -0.1300105536
C  C523  1  0.95410000  0.97910000  0.95272000  1.0 -0.1300105536
C  C524  1  0.04590000  0.02090000  0.45272000  1.0 -0.1300105536
C  C525  1  0.02090000  0.04590000  0.54728000  1.0 -0.1300105536
C  C526  1  0.97910000  0.95410000  0.04728000  1.0 -0.1300105536
C  C527  1  0.54590000  0.47910000  0.79728000  1.0 -0.1300105536
C  C528  1  0.45410000  0.52090000  0.29728000  1.0 -0.1300105536
C  C529  1  0.56391000  0.81424000  0.24976000  1.0 0.1790976924
C  C530  1  0.43609000  0.18576000  0.74976000  1.0 0.1790976924
C  C531  1  0.68576000  0.06391000  0.99976000  1.0 0.1790976924
C  C532  1  0.31424000  0.93609000  0.49976000  1.0 0.1790976924
C  C533  1  0.93609000  0.31424000  0.50024000  1.0 0.1790976924
C  C534  1  0.06391000  0.68576000  0.00024000  1.0 0.1790976924
C  C535  1  0.81424000  0.56391000  0.75024000  1.0 0.1790976924
C  C536  1  0.18576000  0.43609000  0.25024000  1.0 0.1790976924
C  C537  1  0.61619000  0.79655000  0.24217000  1.0 0.0625955436
C  C538  1  0.38381000  0.20345000  0.74217000  1.0 0.0625955436
C  C539  1  0.70345000  0.11619000  0.99217000  1.0 0.0625955436
C  C540  1  0.29655000  0.88381000  0.49217000  1.0 0.0625955436
C  C541  1  0.88381000  0.29655000  0.50783000  1.0 0.0625955436
C  C542  1  0.11619000  0.70345000  0.00783000  1.0 0.0625955436
C  C543  1  0.79655000  0.61619000  0.75783000  1.0 0.0625955436
C  C544  1  0.20345000  0.38381000  0.25783000  1.0 0.0625955436
C  C545  1  0.61361000  0.74816000  0.22126000  1.0 0.0903443152
C  C546  1  0.38639000  0.25184000  0.72126000  1.0 0.0903443152
C  C547  1  0.75184000  0.11361000  0.97126000  1.0 0.0903443152
C  C548  1  0.24816000  0.88639000  0.47126000  1.0 0.0903443152
C  C549  1  0.88639000  0.24816000  0.52874000  1.0 0.0903443152
C  C550  1  0.11361000  0.75184000  0.02874000  1.0 0.0903443152
C  C551  1  0.74816000  0.61361000  0.77874000  1.0 0.0903443152
C  C552  1  0.25184000  0.38639000  0.27874000  1.0 0.0903443152
C  C553  1  0.57674000  0.71099000  0.23756000  1.0 -0.0090775449
C  C554  1  0.42326000  0.28901000  0.73756000  1.0 -0.0090775449
C  C555  1  0.78901000  0.07674000  0.98756000  1.0 -0.0090775449
C  C556  1  0.21099000  0.92326000  0.48756000  1.0 -0.0090775449
C  C557  1  0.92326000  0.21099000  0.51244000  1.0 -0.0090775449
C  C558  1  0.07674000  0.78901000  0.01244000  1.0 -0.0090775449
C  C559  1  0.71099000  0.57674000  0.76244000  1.0 -0.0090775449
C  C560  1  0.28901000  0.42326000  0.26244000  1.0 -0.0090775449
C  C561  1  0.52785000  0.73465000  0.24758000  1.0 0.0806680577
C  C562  1  0.47215000  0.26535000  0.74758000  1.0 0.0806680577
C  C563  1  0.76535000  0.02785000  0.99758000  1.0 0.0806680577
C  C564  1  0.23465000  0.97215000  0.49758000  1.0 0.0806680577
C  C565  1  0.97215000  0.23465000  0.50242000  1.0 0.0806680577
C  C566  1  0.02785000  0.76535000  0.00242000  1.0 0.0806680577
C  C567  1  0.73465000  0.52785000  0.75242000  1.0 0.0806680577
C  C568  1  0.26535000  0.47215000  0.25242000  1.0 0.0806680577
C  C569  1  0.49510000  0.70150000  0.27003000  1.0 -0.0563951619
C  C570  1  0.50490000  0.29850000  0.77003000  1.0 -0.0563951619
C  C571  1  0.79850000  0.99510000  0.02003000  1.0 -0.0563951619
C  C572  1  0.20150000  0.00490000  0.52003000  1.0 -0.0563951619
C  C573  1  0.00490000  0.20150000  0.47997000  1.0 -0.0563951619
C  C574  1  0.99510000  0.79850000  0.97997000  1.0 -0.0563951619
C  C575  1  0.70150000  0.49510000  0.72997000  1.0 -0.0563951619
C  C576  1  0.29850000  0.50490000  0.22997000  1.0 -0.0563951619
O  O1  1  0.02500000  0.32350000  0.91330000  1.0 -0.396907814
O  O2  1  0.97500000  0.67650000  0.41330000  1.0 -0.396907814
O  O3  1  0.17650000  0.52500000  0.66330000  1.0 -0.3938370754
O  O4  1  0.82350000  0.47500000  0.16330000  1.0 -0.396907814
O  O5  1  0.47500000  0.82350000  0.83670000  1.0 -0.396907814
O  O6  1  0.52500000  0.17650000  0.33670000  1.0 -0.3938370754
O  O7  1  0.32350000  0.02500000  0.08670000  1.0 -0.3938370754
O  O8  1  0.67650000  0.97500000  0.58670000  1.0 -0.3938370754
O  O9  1  0.33333333  0.92610000  0.15660000  1.0 -0.4307388196
O  O10  1  0.66666667  0.07390000  0.65660000  1.0 -0.4307388196
O  O11  1  0.57390000  0.83333000  0.90660000  1.0 -0.4307388196
O  O12  1  0.42610000  0.16667000  0.40660000  1.0 -0.4307388196
O  O13  1  0.16667000  0.42610000  0.59340000  1.0 -0.4307388196
O  O14  1  0.83333000  0.57390000  0.09340000  1.0 -0.4307388196
O  O15  1  0.92610000  0.33333333  0.84340000  1.0 -0.4307388196
O  O16  1  0.07390000  0.66666667  0.34340000  1.0 -0.4307388196
O  O17  1  0.20319000  0.49723000  0.02391000  1.0 -0.2796251243
O  O18  1  0.79681000  0.50277000  0.52391000  1.0 -0.2796251243
O  O19  1  0.00277000  0.70319000  0.77391000  1.0 -0.2796251243
O  O20  1  0.99723000  0.29681000  0.27391000  1.0 -0.2796251243
O  O21  1  0.29681000  0.99723000  0.72609000  1.0 -0.2796251243
O  O22  1  0.70319000  0.00277000  0.22609000  1.0 -0.2796251243
O  O23  1  0.49723000  0.20319000  0.97609000  1.0 -0.2796251243
O  O24  1  0.50277000  0.79681000  0.47609000  1.0 -0.2796251243
O  O25  1  0.17526000  0.61510000  0.98188000  1.0 -0.4906003792
O  O26  1  0.82474000  0.38490000  0.48188000  1.0 -0.4906003792
O  O27  1  0.88490000  0.67526000  0.73188000  1.0 -0.4906003792
O  O28  1  0.11510000  0.32474000  0.23188000  1.0 -0.4906003792
O  O29  1  0.32474000  0.11510000  0.76812000  1.0 -0.4906003792
O  O30  1  0.67526000  0.88490000  0.26812000  1.0 -0.4906003792
O  O31  1  0.61510000  0.17526000  0.01812000  1.0 -0.4906003792
O  O32  1  0.38490000  0.82474000  0.51812000  1.0 -0.4906003792
O  O33  1  0.28005000  0.61363000  0.98351000  1.0 -0.6032280857
O  O34  1  0.71995000  0.38637000  0.48351000  1.0 -0.6032280857
O  O35  1  0.88637000  0.78005000  0.73351000  1.0 -0.6032280857
O  O36  1  0.11363000  0.21995000  0.23351000  1.0 -0.6032280857
O  O37  1  0.21995000  0.11363000  0.76649000  1.0 -0.6032280857
O  O38  1  0.78005000  0.88637000  0.26649000  1.0 -0.6032280857
O  O39  1  0.61363000  0.28005000  0.01649000  1.0 -0.6032280857
O  O40  1  0.38637000  0.71995000  0.51649000  1.0 -0.6032280857
O  O41  1  0.31574000  0.51432000  0.97129000  1.0 -0.2703486277
O  O42  1  0.68426000  0.48568000  0.47129000  1.0 -0.2703486277
O  O43  1  0.98568000  0.81574000  0.72129000  1.0 -0.2703486277
O  O44  1  0.01432000  0.18426000  0.22129000  1.0 -0.2703486277
O  O45  1  0.18426000  0.01432000  0.77871000  1.0 -0.2703486277
O  O46  1  0.81574000  0.98568000  0.27871000  1.0 -0.2703486277
O  O47  1  0.51432000  0.31574000  0.02871000  1.0 -0.2703486277
O  O48  1  0.48568000  0.68426000  0.52871000  1.0 -0.2703486277
O  O49  1  0.24460000  0.39993000  0.02972000  1.0 -0.4235173712
O  O50  1  0.75540000  0.60007000  0.52972000  1.0 -0.4307388196
O  O51  1  0.10007000  0.74460000  0.77972000  1.0 -0.4307388196
O  O52  1  0.89993000  0.25540000  0.27972000  1.0 -0.4307388196
O  O53  1  0.25540000  0.89993000  0.72028000  1.0 -0.4307388196
O  O54  1  0.74460000  0.10007000  0.22028000  1.0 -0.4235173712
O  O55  1  0.39993000  0.24460000  0.97028000  1.0 -0.4307388196
O  O56  1  0.60007000  0.75540000  0.47028000  1.0 -0.4307388196
O  O57  1  0.38796000  0.47007000  0.97758000  1.0 -0.3123453902
O  O58  1  0.61204000  0.52993000  0.47758000  1.0 -0.3123453902
O  O59  1  0.02993000  0.88796000  0.72758000  1.0 -0.3123453902
O  O60  1  0.97007000  0.11204000  0.22758000  1.0 -0.3123453902
O  O61  1  0.11204000  0.97007000  0.77242000  1.0 -0.3123453902
O  O62  1  0.88796000  0.02993000  0.27242000  1.0 -0.3123453902
O  O63  1  0.47007000  0.38796000  0.02242000  1.0 -0.3123453902
O  O64  1  0.52993000  0.61204000  0.52242000  1.0 -0.3123453902
O  O65  1  0.36985000  0.60000000  0.95514000  1.0 -0.4496869206
O  O66  1  0.63015000  0.40000000  0.45514000  1.0 -0.4496869206
O  O67  1  0.90000000  0.86985000  0.70514000  1.0 -0.4496869206
O  O68  1  0.10000000  0.13015000  0.20514000  1.0 -0.4496869206
O  O69  1  0.13015000  0.10000000  0.79486000  1.0 -0.4496869206
O  O70  1  0.86985000  0.90000000  0.29486000  1.0 -0.4496869206
O  O71  1  0.60000000  0.36985000  0.04486000  1.0 -0.4496869206
O  O72  1  0.40000000  0.63015000  0.54486000  1.0 -0.4496869206
O  O73  1  0.41233000  0.55922000  0.89093000  1.0 -0.5096746168
O  O74  1  0.58767000  0.44078000  0.39093000  1.0 -0.5096746168
O  O75  1  0.94078000  0.91233000  0.64093000  1.0 -0.5096746168
O  O76  1  0.05922000  0.08767000  0.14093000  1.0 -0.5096746168
O  O77  1  0.08767000  0.05922000  0.85907000  1.0 -0.5096746168
O  O78  1  0.91233000  0.94078000  0.35907000  1.0 -0.5096746168
O  O79  1  0.55922000  0.41233000  0.10907000  1.0 -0.5096746168
O  O80  1  0.44078000  0.58767000  0.60907000  1.0 -0.5096746168
O  O81  1  0.38753000  0.45759000  0.88129000  1.0 -0.2703486277
O  O82  1  0.61247000  0.54241000  0.38129000  1.0 -0.2703486277
O  O83  1  0.04241000  0.88753000  0.63129000  1.0 -0.2703486277
O  O84  1  0.95759000  0.11247000  0.13129000  1.0 -0.2703486277
O  O85  1  0.11247000  0.95759000  0.86871000  1.0 -0.2703486277
O  O86  1  0.88753000  0.04241000  0.36871000  1.0 -0.2703486277
O  O87  1  0.45759000  0.38753000  0.11871000  1.0 -0.2703486277
O  O88  1  0.54241000  0.61247000  0.61871000  1.0 -0.2703486277
O  O89  1  0.45399000  0.39590000  0.95089000  1.0 -0.4796635577
O  O90  1  0.54601000  0.60410000  0.45089000  1.0 -0.4796635577
O  O91  1  0.10410000  0.95399000  0.70089000  1.0 -0.4796635577
O  O92  1  0.89590000  0.04601000  0.20089000  1.0 -0.4796635577
O  O93  1  0.04601000  0.89590000  0.79911000  1.0 -0.4796635577
O  O94  1  0.95399000  0.10410000  0.29911000  1.0 -0.4796635577
O  O95  1  0.39590000  0.45399000  0.04911000  1.0 -0.4796635577
O  O96  1  0.60410000  0.54601000  0.54911000  1.0 -0.4796635577
O  O97  1  0.41756000  0.38133000  0.86399000  1.0 -0.2703486277
O  O98  1  0.58244000  0.61867000  0.36399000  1.0 -0.2703486277
O  O99  1  0.11867000  0.91756000  0.61399000  1.0 -0.2703486277
O  O100  1  0.88133000  0.08244000  0.11399000  1.0 -0.2703486277
O  O101  1  0.08244000  0.88133000  0.88601000  1.0 -0.2703486277
O  O102  1  0.91756000  0.11867000  0.38601000  1.0 -0.2703486277
O  O103  1  0.38133000  0.41756000  0.13601000  1.0 -0.2703486277
O  O104  1  0.61867000  0.58244000  0.63601000  1.0 -0.2703486277
O  O105  1  0.42328000  0.50123000  0.82130000  1.0 -0.5003720457
O  O106  1  0.57672000  0.49877000  0.32130000  1.0 -0.5003720457
O  O107  1  0.99877000  0.92328000  0.57130000  1.0 -0.5003720457
O  O108  1  0.00123000  0.07672000  0.07130000  1.0 -0.5003720457
O  O109  1  0.07672000  0.00123000  0.92870000  1.0 -0.5003720457
O  O110  1  0.92328000  0.99877000  0.42870000  1.0 -0.5003720457
O  O111  1  0.50123000  0.42328000  0.17870000  1.0 -0.5003720457
O  O112  1  0.49877000  0.57672000  0.67870000  1.0 -0.5003720457
O  O113  1  0.35543000  0.44835000  0.77612000  1.0 -0.5003720457
O  O114  1  0.64457000  0.55165000  0.27612000  1.0 -0.5003720457
O  O115  1  0.05165000  0.85543000  0.52612000  1.0 -0.5003720457
O  O116  1  0.94835000  0.14457000  0.02612000  1.0 -0.5003720457
O  O117  1  0.14457000  0.94835000  0.97388000  1.0 -0.5003720457
O  O118  1  0.85543000  0.05165000  0.47388000  1.0 -0.5003720457
O  O119  1  0.44835000  0.35543000  0.22388000  1.0 -0.5003720457
O  O120  1  0.55165000  0.64457000  0.72388000  1.0 -0.5003720457
O  O121  1  0.30656000  0.36938000  0.81015000  1.0 -0.2594145365
O  O122  1  0.69344000  0.63062000  0.31015000  1.0 -0.2594145365
O  O123  1  0.13062000  0.80656000  0.56015000  1.0 -0.2594145365
O  O124  1  0.86938000  0.19344000  0.06015000  1.0 -0.2594145365
O  O125  1  0.19344000  0.86938000  0.93985000  1.0 -0.2594145365
O  O126  1  0.80656000  0.13062000  0.43985000  1.0 -0.2594145365
O  O127  1  0.36938000  0.30656000  0.18985000  1.0 -0.2594145365
O  O128  1  0.63062000  0.69344000  0.68985000  1.0 -0.2594145365
O  O129  1  0.40171000  0.28545000  0.83550000  1.0 -0.4735242596
O  O130  1  0.59829000  0.71455000  0.33550000  1.0 -0.4735242596
O  O131  1  0.21455000  0.90171000  0.58550000  1.0 -0.4735242596
O  O132  1  0.78545000  0.09829000  0.08550000  1.0 -0.4735242596
O  O133  1  0.09829000  0.78545000  0.91450000  1.0 -0.4735242596
O  O134  1  0.90171000  0.21455000  0.41450000  1.0 -0.4735242596
O  O135  1  0.28545000  0.40171000  0.16450000  1.0 -0.4735242596
O  O136  1  0.71455000  0.59829000  0.66450000  1.0 -0.4735242596
O  O137  1  0.27078000  0.29294000  0.80028000  1.0 -0.3393597272
O  O138  1  0.72922000  0.70706000  0.30028000  1.0 -0.3393597272
O  O139  1  0.20706000  0.77078000  0.55028000  1.0 -0.3393597272
O  O140  1  0.79294000  0.22922000  0.05028000  1.0 -0.3393597272
O  O141  1  0.22922000  0.79294000  0.94972000  1.0 -0.3393597272
O  O142  1  0.77078000  0.20706000  0.44972000  1.0 -0.3393597272
O  O143  1  0.29294000  0.27078000  0.19972000  1.0 -0.3393597272
O  O144  1  0.70706000  0.72922000  0.69972000  1.0 -0.3393597272
O  O145  1  0.28536000  0.39604000  0.73958000  1.0 -0.4796635577
O  O146  1  0.71464000  0.60396000  0.23958000  1.0 -0.4735242596
O  O147  1  0.10396000  0.78536000  0.48958000  1.0 -0.4796635577
O  O148  1  0.89604000  0.21464000  0.98958000  1.0 -0.4796635577
O  O149  1  0.21464000  0.89604000  0.01042000  1.0 -0.4796635577
O  O150  1  0.78536000  0.10396000  0.51042000  1.0 -0.4796635577
O  O151  1  0.39604000  0.28536000  0.26042000  1.0 -0.4796635577
O  O152  1  0.60396000  0.71464000  0.76042000  1.0 -0.4735242596
O  O153  1  0.18213000  0.39291000  0.74980000  1.0 -0.5267390507
O  O154  1  0.81787000  0.60709000  0.24980000  1.0 -0.5267390507
O  O155  1  0.10709000  0.68213000  0.49980000  1.0 -0.5267390507
O  O156  1  0.89291000  0.31787000  0.99980000  1.0 -0.5267390507
O  O157  1  0.31787000  0.89291000  0.00020000  1.0 -0.5267390507
O  O158  1  0.68213000  0.10709000  0.50020000  1.0 -0.5267390507
O  O159  1  0.39291000  0.18213000  0.25020000  1.0 -0.5267390507
O  O160  1  0.60709000  0.81787000  0.75020000  1.0 -0.5267390507
O  O161  1  0.15642000  0.35687000  0.82026000  1.0 -0.2703486277
O  O162  1  0.84358000  0.64313000  0.32026000  1.0 -0.2703486277
O  O163  1  0.14313000  0.65642000  0.57026000  1.0 -0.2703486277
O  O164  1  0.85687000  0.34358000  0.07026000  1.0 -0.2703486277
O  O165  1  0.34358000  0.85687000  0.92974000  1.0 -0.2703486277
O  O166  1  0.65642000  0.14313000  0.42974000  1.0 -0.2703486277
O  O167  1  0.35687000  0.15642000  0.17974000  1.0 -0.2703486277
O  O168  1  0.64313000  0.84358000  0.67974000  1.0 -0.2703486277
O  O169  1  0.19030000  0.22964000  0.81021000  1.0 -0.4796635577
O  O170  1  0.80970000  0.77036000  0.31021000  1.0 -0.4796635577
O  O171  1  0.27036000  0.69030000  0.56021000  1.0 -0.4796635577
O  O172  1  0.72964000  0.30970000  0.06021000  1.0 -0.4796635577
O  O173  1  0.30970000  0.72964000  0.93979000  1.0 -0.4796635577
O  O174  1  0.69030000  0.27036000  0.43979000  1.0 -0.4796635577
O  O175  1  0.22964000  0.19030000  0.18979000  1.0 -0.4796635577
O  O176  1  0.77036000  0.80970000  0.68979000  1.0 -0.4796635577
O  O177  1  0.08855000  0.32286000  0.84895000  1.0 -0.2796251243
O  O178  1  0.91145000  0.67714000  0.34895000  1.0 -0.2796251243
O  O179  1  0.17714000  0.58855000  0.59895000  1.0 -0.2703486277
O  O180  1  0.82286000  0.41145000  0.09895000  1.0 -0.2703486277
O  O181  1  0.41145000  0.82286000  0.90105000  1.0 -0.2703486277
O  O182  1  0.58855000  0.17714000  0.40105000  1.0 -0.2796251243
O  O183  1  0.32286000  0.08855000  0.15105000  1.0 -0.2703486277
O  O184  1  0.67714000  0.91145000  0.65105000  1.0 -0.2703486277
O  O185  1  0.09247000  0.40850000  0.77475000  1.0 -0.4735242596
O  O186  1  0.90753000  0.59150000  0.27475000  1.0 -0.4735242596
O  O187  1  0.09150000  0.59247000  0.52475000  1.0 -0.4735242596
O  O188  1  0.90850000  0.40753000  0.02475000  1.0 -0.4735242596
O  O189  1  0.40753000  0.90850000  0.97525000  1.0 -0.4735242596
O  O190  1  0.59247000  0.09150000  0.47525000  1.0 -0.4735242596
O  O191  1  0.40850000  0.09247000  0.22525000  1.0 -0.4735242596
O  O192  1  0.59150000  0.90753000  0.72525000  1.0 -0.4735242596
O  O193  1  0.04910000  0.46763000  0.82722000  1.0 -0.5801961655
O  O194  1  0.95090000  0.53237000  0.32722000  1.0 -0.5801961655
O  O195  1  0.03237000  0.54910000  0.57722000  1.0 -0.5801961655
O  O196  1  0.96763000  0.45090000  0.07722000  1.0 -0.5801961655
O  O197  1  0.45090000  0.96763000  0.92278000  1.0 -0.5801961655
O  O198  1  0.54910000  0.03237000  0.42278000  1.0 -0.5801961655
O  O199  1  0.46763000  0.04910000  0.17278000  1.0 -0.5801961655
O  O200  1  0.53237000  0.95090000  0.67278000  1.0 -0.5801961655
O  O201  1  0.07865000  0.43974000  0.89656000  1.0 -0.2703486277
O  O202  1  0.92135000  0.56026000  0.39656000  1.0 -0.2703486277
O  O203  1  0.06026000  0.57865000  0.64656000  1.0 -0.2703486277
O  O204  1  0.93974000  0.42135000  0.14656000  1.0 -0.2703486277
O  O205  1  0.42135000  0.93974000  0.85344000  1.0 -0.2703486277
O  O206  1  0.57865000  0.06026000  0.35344000  1.0 -0.2703486277
O  O207  1  0.43974000  0.07865000  0.10344000  1.0 -0.2703486277
O  O208  1  0.56026000  0.92135000  0.60344000  1.0 -0.2703486277
O  O209  1  0.04857000  0.44246000  0.95420000  1.0 -0.3178126524
O  O210  1  0.95143000  0.55754000  0.45420000  1.0 -0.3178126524
O  O211  1  0.05754000  0.54857000  0.70420000  1.0 -0.3178126524
O  O212  1  0.94246000  0.45143000  0.20420000  1.0 -0.3178126524
O  O213  1  0.45143000  0.94246000  0.79580000  1.0 -0.3178126524
O  O214  1  0.54857000  0.05754000  0.29580000  1.0 -0.3178126524
O  O215  1  0.44246000  0.04857000  0.04580000  1.0 -0.3178126524
O  O216  1  0.55754000  0.95143000  0.54580000  1.0 -0.3178126524
O  O217  1  0.03819000  0.53478000  0.88332000  1.0 -0.4386958088
O  O218  1  0.96181000  0.46522000  0.38332000  1.0 -0.4386958088
O  O219  1  0.96522000  0.53819000  0.63332000  1.0 -0.4386958088
O  O220  1  0.03478000  0.46181000  0.13332000  1.0 -0.4386958088
O  O221  1  0.46181000  0.03478000  0.86668000  1.0 -0.4307388196
O  O222  1  0.53819000  0.96522000  0.36668000  1.0 -0.4386958088
O  O223  1  0.53478000  0.03819000  0.11668000  1.0 -0.4386958088
O  O224  1  0.46522000  0.96181000  0.61668000  1.0 -0.4386958088
O  O225  1  0.09693000  0.58354000  0.93639000  1.0 -0.5096746168
O  O226  1  0.90307000  0.41646000  0.43639000  1.0 -0.5096746168
O  O227  1  0.91646000  0.59693000  0.68639000  1.0 -0.5096746168
O  O228  1  0.08354000  0.40307000  0.18639000  1.0 -0.5096746168
O  O229  1  0.40307000  0.08354000  0.81361000  1.0 -0.5096746168
O  O230  1  0.59693000  0.91646000  0.31361000  1.0 -0.5096746168
O  O231  1  0.58354000  0.09693000  0.06361000  1.0 -0.5096746168
O  O232  1  0.41646000  0.90307000  0.56361000  1.0 -0.5096746168
O  O233  1  0.16017000  0.51417000  0.97334000  1.0 -0.2796251243
O  O234  1  0.83983000  0.48583000  0.47334000  1.0 -0.2796251243
O  O235  1  0.98583000  0.66017000  0.72334000  1.0 -0.2796251243
O  O236  1  0.01417000  0.33983000  0.22334000  1.0 -0.2796251243
O  O237  1  0.33983000  0.01417000  0.77666000  1.0 -0.2796251243
O  O238  1  0.66017000  0.98583000  0.27666000  1.0 -0.2796251243
O  O239  1  0.51417000  0.16017000  0.02666000  1.0 -0.2796251243
O  O240  1  0.48583000  0.83983000  0.52666000  1.0 -0.2796251243
O  O241  1  0.06485000  0.44745000  0.02472000  1.0 -0.4906003792
O  O242  1  0.93515000  0.55255000  0.52472000  1.0 -0.4906003792
O  O243  1  0.05255000  0.56485000  0.77472000  1.0 -0.4906003792
O  O244  1  0.94745000  0.43515000  0.27472000  1.0 -0.4906003792
O  O245  1  0.43515000  0.94745000  0.72528000  1.0 -0.4906003792
O  O246  1  0.56485000  0.05255000  0.22528000  1.0 -0.4906003792
O  O247  1  0.44745000  0.06485000  0.97528000  1.0 -0.4906003792
O  O248  1  0.55255000  0.93515000  0.47528000  1.0 -0.4906003792
O  O249  1  0.45250000  0.92588000  0.20093000  1.0 -0.346930326
O  O250  1  0.54750000  0.07412000  0.70093000  1.0 -0.3393597272
O  O251  1  0.57412000  0.95250000  0.95093000  1.0 -0.3393597272
O  O252  1  0.42588000  0.04750000  0.45093000  1.0 -0.3393597272
O  O253  1  0.04750000  0.42588000  0.54907000  1.0 -0.3393597272
O  O254  1  0.95250000  0.57412000  0.04907000  1.0 -0.3393597272
O  O255  1  0.92588000  0.45250000  0.79907000  1.0 -0.346930326
O  O256  1  0.07412000  0.54750000  0.29907000  1.0 -0.3393597272
O  O257  1  0.53922000  0.94877000  0.12838000  1.0 -0.4386958088
O  O258  1  0.46078000  0.05123000  0.62838000  1.0 -0.4386958088
O  O259  1  0.55123000  0.03922000  0.87838000  1.0 -0.4386958088
O  O260  1  0.44877000  0.96078000  0.37838000  1.0 -0.4386958088
O  O261  1  0.96078000  0.44877000  0.62162000  1.0 -0.4386958088
O  O262  1  0.03922000  0.55123000  0.12162000  1.0 -0.4386958088
O  O263  1  0.94877000  0.53922000  0.87162000  1.0 -0.4386958088
O  O264  1  0.05123000  0.46078000  0.37162000  1.0 -0.4386958088
O  O265  1  0.59949000  0.90182000  0.18221000  1.0 -0.516085884
O  O266  1  0.40051000  0.09818000  0.68221000  1.0 -0.516085884
O  O267  1  0.59818000  0.09949000  0.93221000  1.0 -0.516085884
O  O268  1  0.40182000  0.90051000  0.43221000  1.0 -0.516085884
O  O269  1  0.90051000  0.40182000  0.56779000  1.0 -0.516085884
O  O270  1  0.09949000  0.59818000  0.06779000  1.0 -0.516085884
O  O271  1  0.90182000  0.59949000  0.81779000  1.0 -0.516085884
O  O272  1  0.09818000  0.40051000  0.31779000  1.0 -0.516085884
O  O273  1  0.54066000  0.82719000  0.21827000  1.0 -0.2796251243
O  O274  1  0.45934000  0.17281000  0.71827000  1.0 -0.2796251243
O  O275  1  0.67281000  0.04066000  0.96827000  1.0 -0.2796251243
O  O276  1  0.32719000  0.95934000  0.46827000  1.0 -0.2796251243
O  O277  1  0.95934000  0.32719000  0.53173000  1.0 -0.2796251243
O  O278  1  0.04066000  0.67281000  0.03173000  1.0 -0.2796251243
O  O279  1  0.82719000  0.54066000  0.78173000  1.0 -0.2796251243
O  O280  1  0.17281000  0.45934000  0.28173000  1.0 -0.2796251243
O  O281  1  0.46539000  0.90688000  0.27465000  1.0 -0.4906003792
O  O282  1  0.53461000  0.09312000  0.77465000  1.0 -0.4906003792
O  O283  1  0.59312000  0.96539000  0.02465000  1.0 -0.4906003792
O  O284  1  0.40688000  0.03461000  0.52465000  1.0 -0.4906003792
O  O285  1  0.03461000  0.40688000  0.47535000  1.0 -0.4906003792
O  O286  1  0.96539000  0.59312000  0.97535000  1.0 -0.4906003792
O  O287  1  0.90688000  0.46539000  0.72535000  1.0 -0.4906003792
O  O288  1  0.09312000  0.53461000  0.22535000  1.0 -0.4906003792
O  O289  1  0.34543000  0.85792000  0.09537000  1.0 -0.2897864757
O  O290  1  0.65457000  0.14208000  0.59537000  1.0 -0.2897864757
O  O291  1  0.64208000  0.84543000  0.84537000  1.0 -0.2897864757
O  O292  1  0.35792000  0.15457000  0.34537000  1.0 -0.2897864757
O  O293  1  0.15457000  0.35792000  0.65463000  1.0 -0.2897864757
O  O294  1  0.84543000  0.64208000  0.15463000  1.0 -0.2897864757
O  O295  1  0.85792000  0.34543000  0.90463000  1.0 -0.2897864757
O  O296  1  0.14208000  0.65457000  0.40463000  1.0 -0.2897864757
O  O297  1  0.43569000  0.85787000  0.02346000  1.0 -0.4629174443
O  O298  1  0.56431000  0.14213000  0.52346000  1.0 -0.4629174443
O  O299  1  0.64213000  0.93569000  0.77346000  1.0 -0.4629174443
O  O300  1  0.35787000  0.06431000  0.27346000  1.0 -0.4629174443
O  O301  1  0.06431000  0.35787000  0.72654000  1.0 -0.4629174443
O  O302  1  0.93569000  0.64213000  0.22654000  1.0 -0.4629174443
O  O303  1  0.85787000  0.43569000  0.97654000  1.0 -0.4629174443
O  O304  1  0.14213000  0.56431000  0.47654000  1.0 -0.4629174443
O  O305  1  0.47830000  0.92208000  0.07344000  1.0 -0.5741705457
O  O306  1  0.52170000  0.07792000  0.57344000  1.0 -0.5741705457
O  O307  1  0.57792000  0.97830000  0.82344000  1.0 -0.5741705457
O  O308  1  0.42208000  0.02170000  0.32344000  1.0 -0.5741705457
O  O309  1  0.02170000  0.42208000  0.67656000  1.0 -0.5741705457
O  O310  1  0.97830000  0.57792000  0.17656000  1.0 -0.5741705457
O  O311  1  0.92208000  0.47830000  0.92656000  1.0 -0.5741705457
O  O312  1  0.07792000  0.52170000  0.42656000  1.0 -0.5741705457
O  O313  1  0.45511000  0.89177000  0.14485000  1.0 -0.2594145365
O  O314  1  0.54489000  0.10823000  0.64485000  1.0 -0.2594145365
O  O315  1  0.60823000  0.95511000  0.89485000  1.0 -0.2594145365
O  O316  1  0.39177000  0.04489000  0.39485000  1.0 -0.2594145365
O  O317  1  0.04489000  0.39177000  0.60515000  1.0 -0.2594145365
O  O318  1  0.95511000  0.60823000  0.10515000  1.0 -0.2594145365
O  O319  1  0.89177000  0.45511000  0.85515000  1.0 -0.2594145365
O  O320  1  0.10823000  0.54489000  0.35515000  1.0 -0.2594145365
O  O321  1  0.33190000  0.67279000  0.06116000  1.0 -0.2897864757
O  O322  1  0.66810000  0.32721000  0.56116000  1.0 -0.2897864757
O  O323  1  0.82721000  0.83190000  0.81116000  1.0 -0.2897864757
O  O324  1  0.17279000  0.16810000  0.31116000  1.0 -0.2897864757
O  O325  1  0.16810000  0.17279000  0.68884000  1.0 -0.2897864757
O  O326  1  0.83190000  0.82721000  0.18884000  1.0 -0.2897864757
O  O327  1  0.67279000  0.33190000  0.93884000  1.0 -0.2897864757
O  O328  1  0.32721000  0.66810000  0.43884000  1.0 -0.2897864757
O  O329  1  0.42148000  0.65868000  0.98919000  1.0 -0.4386958088
O  O330  1  0.57852000  0.34132000  0.48919000  1.0 -0.4386958088
O  O331  1  0.84132000  0.92148000  0.73919000  1.0 -0.4386958088
O  O332  1  0.15868000  0.07852000  0.23919000  1.0 -0.4386958088
O  O333  1  0.07852000  0.15868000  0.76081000  1.0 -0.4386958088
O  O334  1  0.92148000  0.84132000  0.26081000  1.0 -0.4386958088
O  O335  1  0.65868000  0.42148000  0.01081000  1.0 -0.4386958088
O  O336  1  0.34132000  0.57852000  0.51081000  1.0 -0.4386958088
O  O337  1  0.41904000  0.76301000  0.00015000  1.0 -0.5003720457
O  O338  1  0.58096000  0.23699000  0.50015000  1.0 -0.5003720457
O  O339  1  0.73699000  0.91904000  0.75015000  1.0 -0.5003720457
O  O340  1  0.26301000  0.08096000  0.25015000  1.0 -0.5003720457
O  O341  1  0.08096000  0.26301000  0.74985000  1.0 -0.5003720457
O  O342  1  0.91904000  0.73699000  0.24985000  1.0 -0.5003720457
O  O343  1  0.76301000  0.41904000  0.99985000  1.0 -0.5003720457
O  O344  1  0.23699000  0.58096000  0.49985000  1.0 -0.5003720457
O  O345  1  0.38943000  0.79274000  0.07029000  1.0 -0.2594145365
O  O346  1  0.61057000  0.20726000  0.57029000  1.0 -0.2594145365
O  O347  1  0.70726000  0.88943000  0.82029000  1.0 -0.2703486277
O  O348  1  0.29274000  0.11057000  0.32029000  1.0 -0.2703486277
O  O349  1  0.11057000  0.29274000  0.67971000  1.0 -0.2703486277
O  O350  1  0.88943000  0.70726000  0.17971000  1.0 -0.2594145365
O  O351  1  0.79274000  0.38943000  0.92971000  1.0 -0.2703486277
O  O352  1  0.20726000  0.61057000  0.42971000  1.0 -0.2594145365
O  O353  1  0.26564000  0.75220000  0.07447000  1.0 -0.4796635577
O  O354  1  0.73436000  0.24780000  0.57447000  1.0 -0.4796635577
O  O355  1  0.74780000  0.76564000  0.82447000  1.0 -0.4796635577
O  O356  1  0.25220000  0.23436000  0.32447000  1.0 -0.4796635577
O  O357  1  0.23436000  0.25220000  0.67553000  1.0 -0.4796635577
O  O358  1  0.76564000  0.74780000  0.17553000  1.0 -0.4796635577
O  O359  1  0.75220000  0.26564000  0.92553000  1.0 -0.4796635577
O  O360  1  0.24780000  0.73436000  0.42553000  1.0 -0.4796635577
O  O361  1  0.45294000  0.53240000  0.11189000  1.0 -0.2897864757
O  O362  1  0.54706000  0.46760000  0.61189000  1.0 -0.2897864757
O  O363  1  0.96760000  0.95294000  0.86189000  1.0 -0.2897864757
O  O364  1  0.03240000  0.04706000  0.36189000  1.0 -0.2897864757
O  O365  1  0.04706000  0.03240000  0.63811000  1.0 -0.2897864757
O  O366  1  0.95294000  0.96760000  0.13811000  1.0 -0.2897864757
O  O367  1  0.53240000  0.45294000  0.88811000  1.0 -0.2897864757
O  O368  1  0.46760000  0.54706000  0.38811000  1.0 -0.2897864757
O  O369  1  0.56585000  0.56110000  0.06697000  1.0 -0.4735242596
O  O370  1  0.43415000  0.43890000  0.56697000  1.0 -0.4735242596
O  O371  1  0.93890000  0.06585000  0.81697000  1.0 -0.4735242596
O  O372  1  0.06110000  0.93415000  0.31697000  1.0 -0.4735242596
O  O373  1  0.93415000  0.06110000  0.68303000  1.0 -0.4735242596
O  O374  1  0.06585000  0.93890000  0.18303000  1.0 -0.4735242596
O  O375  1  0.56110000  0.56585000  0.93303000  1.0 -0.4735242596
O  O376  1  0.43890000  0.43415000  0.43303000  1.0 -0.4735242596
O  O377  1  0.49540000  0.60488000  0.02228000  1.0 -0.5096746168
O  O378  1  0.50460000  0.39512000  0.52228000  1.0 -0.5096746168
O  O379  1  0.89512000  0.99540000  0.77228000  1.0 -0.5096746168
O  O380  1  0.10488000  0.00460000  0.27228000  1.0 -0.5096746168
O  O381  1  0.00460000  0.10488000  0.72772000  1.0 -0.5096746168
O  O382  1  0.99540000  0.89512000  0.22772000  1.0 -0.5096746168
O  O383  1  0.60488000  0.49540000  0.97772000  1.0 -0.5096746168
O  O384  1  0.39512000  0.50460000  0.47772000  1.0 -0.5096746168
O  O385  1  0.41076000  0.64073000  0.06394000  1.0 -0.2796251243
O  O386  1  0.58924000  0.35927000  0.56394000  1.0 -0.2796251243
O  O387  1  0.85927000  0.91076000  0.81394000  1.0 -0.2796251243
O  O388  1  0.14073000  0.08924000  0.31394000  1.0 -0.2796251243
O  O389  1  0.08924000  0.14073000  0.68606000  1.0 -0.2796251243
O  O390  1  0.91076000  0.85927000  0.18606000  1.0 -0.2796251243
O  O391  1  0.64073000  0.41076000  0.93606000  1.0 -0.2796251243
O  O392  1  0.35927000  0.58924000  0.43606000  1.0 -0.2796251243
O  O393  1  0.34922000  0.52848000  0.08487000  1.0 -0.516085884
O  O394  1  0.65078000  0.47152000  0.58487000  1.0 -0.516085884
O  O395  1  0.97152000  0.84922000  0.83487000  1.0 -0.516085884
O  O396  1  0.02848000  0.15078000  0.33487000  1.0 -0.5096746168
O  O397  1  0.15078000  0.02848000  0.66513000  1.0 -0.516085884
O  O398  1  0.84922000  0.97152000  0.16513000  1.0 -0.516085884
O  O399  1  0.52848000  0.34922000  0.91513000  1.0 -0.516085884
O  O400  1  0.47152000  0.65078000  0.41513000  1.0 -0.516085884
O  O401  1  0.54506000  0.59237000  0.22469000  1.0 -0.2594145365
O  O402  1  0.45494000  0.40763000  0.72469000  1.0 -0.2594145365
O  O403  1  0.90763000  0.04506000  0.97469000  1.0 -0.2594145365
O  O404  1  0.09237000  0.95494000  0.47469000  1.0 -0.2594145365
O  O405  1  0.95494000  0.09237000  0.52531000  1.0 -0.2594145365
O  O406  1  0.04506000  0.90763000  0.02531000  1.0 -0.2594145365
O  O407  1  0.59237000  0.54506000  0.77531000  1.0 -0.2594145365
O  O408  1  0.40763000  0.45494000  0.27531000  1.0 -0.2594145365
O  O409  1  0.66414000  0.63703000  0.19065000  1.0 -0.4386958088
O  O410  1  0.33586000  0.36297000  0.69065000  1.0 -0.4386958088
O  O411  1  0.86297000  0.16414000  0.94065000  1.0 -0.4386958088
O  O412  1  0.13703000  0.83586000  0.44065000  1.0 -0.4386958088
O  O413  1  0.83586000  0.13703000  0.55935000  1.0 -0.4386958088
O  O414  1  0.16414000  0.86297000  0.05935000  1.0 -0.4386958088
O  O415  1  0.63703000  0.66414000  0.80935000  1.0 -0.4386958088
O  O416  1  0.36297000  0.33586000  0.30935000  1.0 -0.4386958088
O  O417  1  0.62212000  0.58785000  0.12915000  1.0 -0.4386958088
O  O418  1  0.37788000  0.41215000  0.62915000  1.0 -0.4496869206
O  O419  1  0.91215000  0.12212000  0.87915000  1.0 -0.4496869206
O  O420  1  0.08785000  0.87788000  0.37915000  1.0 -0.4496869206
O  O421  1  0.87788000  0.08785000  0.62085000  1.0 -0.4496869206
O  O422  1  0.12212000  0.91215000  0.12085000  1.0 -0.4386958088
O  O423  1  0.58785000  0.62212000  0.87085000  1.0 -0.4386958088
O  O424  1  0.41215000  0.37788000  0.37085000  1.0 -0.4386958088
O  O425  1  0.51787000  0.58163000  0.12978000  1.0 -0.302169458
O  O426  1  0.48213000  0.41837000  0.62978000  1.0 -0.302169458
O  O427  1  0.91837000  0.01787000  0.87978000  1.0 -0.302169458
O  O428  1  0.08163000  0.98213000  0.37978000  1.0 -0.302169458
O  O429  1  0.98213000  0.08163000  0.62022000  1.0 -0.302169458
O  O430  1  0.01787000  0.91837000  0.12022000  1.0 -0.302169458
O  O431  1  0.58163000  0.51787000  0.87022000  1.0 -0.302169458
O  O432  1  0.41837000  0.48213000  0.37022000  1.0 -0.302169458
O  O433  1  0.50318000  0.50270000  0.21742000  1.0 -0.4235173712
O  O434  1  0.49682000  0.49730000  0.71742000  1.0 -0.4235173712
O  O435  1  0.99730000  0.00318000  0.96742000  1.0 -0.4235173712
O  O436  1  0.00270000  0.99682000  0.46742000  1.0 -0.4235173712
O  O437  1  0.99682000  0.00270000  0.53258000  1.0 -0.4235173712
O  O438  1  0.00318000  0.99730000  0.03258000  1.0 -0.4235173712
O  O439  1  0.50270000  0.50318000  0.78258000  1.0 -0.4235173712
O  O440  1  0.49730000  0.49682000  0.28258000  1.0 -0.4235173712
O  O441  1  0.53429000  0.77797000  0.26900000  1.0 -0.2796251243
O  O442  1  0.46571000  0.22203000  0.76900000  1.0 -0.2796251243
O  O443  1  0.72203000  0.03429000  0.01900000  1.0 -0.2796251243
O  O444  1  0.27797000  0.96571000  0.51900000  1.0 -0.2796251243
O  O445  1  0.96571000  0.27797000  0.48100000  1.0 -0.2796251243
O  O446  1  0.03429000  0.72203000  0.98100000  1.0 -0.2796251243
O  O447  1  0.77797000  0.53429000  0.73100000  1.0 -0.2796251243
O  O448  1  0.22203000  0.46571000  0.23100000  1.0 -0.2796251243
O  O449  1  0.64334000  0.83006000  0.22419000  1.0 -0.4906003792
O  O450  1  0.35666000  0.16994000  0.72419000  1.0 -0.4906003792
O  O451  1  0.66994000  0.14334000  0.97419000  1.0 -0.4906003792
O  O452  1  0.33006000  0.85666000  0.47419000  1.0 -0.4906003792
O  O453  1  0.85666000  0.33006000  0.52581000  1.0 -0.4906003792
O  O454  1  0.14334000  0.66994000  0.02581000  1.0 -0.4906003792
O  O455  1  0.83006000  0.64334000  0.77581000  1.0 -0.4906003792
O  O456  1  0.16994000  0.35666000  0.27581000  1.0 -0.4906003792
O  O457  1  0.65986000  0.72808000  0.21858000  1.0 -0.5267390507
O  O458  1  0.34014000  0.27192000  0.71858000  1.0 -0.5267390507
O  O459  1  0.77192000  0.15986000  0.96858000  1.0 -0.5267390507
O  O460  1  0.22808000  0.84014000  0.46858000  1.0 -0.5267390507
O  O461  1  0.84014000  0.22808000  0.53142000  1.0 -0.5267390507
O  O462  1  0.15986000  0.77192000  0.03142000  1.0 -0.5267390507
O  O463  1  0.72808000  0.65986000  0.78142000  1.0 -0.5267390507
O  O464  1  0.27192000  0.34014000  0.28142000  1.0 -0.5267390507
O  O465  1  0.56761000  0.67321000  0.21259000  1.0 -0.2897864757
O  O466  1  0.43239000  0.32679000  0.71259000  1.0 -0.2897864757
O  O467  1  0.82679000  0.06761000  0.96259000  1.0 -0.2897864757
O  O468  1  0.17321000  0.93239000  0.46259000  1.0 -0.2897864757
O  O469  1  0.93239000  0.17321000  0.53741000  1.0 -0.2897864757
O  O470  1  0.06761000  0.82679000  0.03741000  1.0 -0.2897864757
O  O471  1  0.67321000  0.56761000  0.78741000  1.0 -0.2897864757
O  O472  1  0.32679000  0.43239000  0.28741000  1.0 -0.2897864757
O  O473  1  0.44710000  0.72089000  0.27375000  1.0 -0.4386958088
O  O474  1  0.55290000  0.27911000  0.77375000  1.0 -0.4386958088
O  O475  1  0.77911000  0.94710000  0.02375000  1.0 -0.4386958088
O  O476  1  0.22089000  0.05290000  0.52375000  1.0 -0.4386958088
O  O477  1  0.05290000  0.22089000  0.47625000  1.0 -0.4386958088
O  O478  1  0.94710000  0.77911000  0.97625000  1.0 -0.4386958088
O  O479  1  0.72089000  0.44710000  0.72625000  1.0 -0.4386958088
O  O480  1  0.27911000  0.55290000  0.22625000  1.0 -0.4386958088
O  O481  1  0.11000000  0.29400000  0.92420000  1.0 -0.396907814
O  O482  1  0.89000000  0.70600000  0.42420000  1.0 -0.396907814
O  O483  1  0.20600000  0.61000000  0.67420000  1.0 -0.3938370754
O  O484  1  0.79400000  0.39000000  0.17420000  1.0 -0.396907814
O  O485  1  0.39000000  0.79400000  0.82580000  1.0 -0.3938370754
O  O486  1  0.61000000  0.20600000  0.32580000  1.0 -0.396907814
O  O487  1  0.29400000  0.11000000  0.07580000  1.0 -0.396907814
O  O488  1  0.70600000  0.89000000  0.57580000  1.0 -0.396907814
O  O489  1  0.84700000  0.66450000  0.06800000  1.0 -0.396907814
O  O490  1  0.15300000  0.33550000  0.56800000  1.0 -0.396907814
O  O491  1  0.83550000  0.34700000  0.81800000  1.0 -0.396907814
O  O492  1  0.16450000  0.65300000  0.31800000  1.0 -0.396907814
O  O493  1  0.65300000  0.16450000  0.68200000  1.0 -0.396907814
O  O494  1  0.34700000  0.83550000  0.18200000  1.0 -0.396907814
O  O495  1  0.66450000  0.84700000  0.93200000  1.0 -0.396907814
O  O496  1  0.33550000  0.15300000  0.43200000  1.0 -0.396907814
