# DDEC6 charges by PACMAN v1.1 (https://github.com/mtap-research/PACMAN-charge/)
data_MANBEM_FSR_pacman
_symmetry_space_group_name_H-M   'P 1'
_cell_length_a   25.34820000
_cell_length_b   25.34820000
_cell_length_c   25.34820000
_cell_angle_alpha   90.00000000
_cell_angle_beta   90.00000000
_cell_angle_gamma   90.00000000
_symmetry_Int_Tables_number   1
_chemical_formula_structural   Zr3C216(N3O8)2
_chemical_formula_sum   'Zr6 C432 N12 O32'
_cell_volume   16287.01045990
_cell_formula_units_Z   2
loop_
 _symmetry_equiv_pos_site_id
 _symmetry_equiv_pos_as_xyz
  1  'x, y, z'
loop_
 _atom_site_type_symbol
 _atom_site_label
 _atom_site_symmetry_multiplicity
 _atom_site_fract_x
 _atom_site_fract_y
 _atom_site_fract_z
 _atom_site_occupancy
 _atom_site_charge
Zr  Zr1  1  0.50000000  0.50000000  0.59772000  1.0 2.4207492561
Zr  Zr2  1  0.50000000  0.50000000  0.40228000  1.0 2.4207492561
Zr  Zr3  1  0.59772000  0.50000000  0.50000000  1.0 2.4207492561
Zr  Zr4  1  0.40228000  0.50000000  0.50000000  1.0 2.4207492561
Zr  Zr5  1  0.50000000  0.59772000  0.50000000  1.0 2.4207492561
Zr  Zr6  1  0.50000000  0.40228000  0.50000000  1.0 2.4207492561
C  C1  1  0.78380000  0.53740000  0.82590000  1.0 -0.0096711203
C  C2  1  0.82460000  0.53840000  0.86490000  1.0 -0.0505578992
C  C3  1  0.84010000  0.53470000  0.97310000  1.0 0.0246767645
C  C4  1  0.79660000  0.55350000  0.94300000  1.0 -0.0289589482
C  C5  1  0.75340000  0.57350000  0.97490000  1.0 0.0260899484
C  C6  1  0.70630000  0.58960000  0.94070000  1.0 0.0023981317
C  C7  1  0.21620000  0.46260000  0.82590000  1.0 -0.0096711203
C  C8  1  0.17540000  0.46160000  0.86490000  1.0 -0.0505578992
C  C9  1  0.15990000  0.46530000  0.97310000  1.0 0.0246767645
C  C10  1  0.20340000  0.44650000  0.94300000  1.0 -0.0289589482
C  C11  1  0.24660000  0.42650000  0.97490000  1.0 0.0260899484
C  C12  1  0.29370000  0.41040000  0.94070000  1.0 -1.7158e-06
C  C13  1  0.21620000  0.53740000  0.17410000  1.0 -0.0096711203
C  C14  1  0.17540000  0.53840000  0.13510000  1.0 -0.0557206407
C  C15  1  0.15990000  0.53470000  0.02690000  1.0 0.0246767645
C  C16  1  0.20340000  0.55350000  0.05700000  1.0 -0.0289589482
C  C17  1  0.24660000  0.57350000  0.02510000  1.0 0.0246767645
C  C18  1  0.29370000  0.58960000  0.05930000  1.0 0.0023981317
C  C19  1  0.78380000  0.46260000  0.17410000  1.0 -0.0096711203
C  C20  1  0.82460000  0.46160000  0.13510000  1.0 -0.0557206407
C  C21  1  0.84010000  0.46530000  0.02690000  1.0 0.0246767645
C  C22  1  0.79660000  0.44650000  0.05700000  1.0 -0.0289589482
C  C23  1  0.75340000  0.42650000  0.02510000  1.0 0.0246767645
C  C24  1  0.70630000  0.41040000  0.05930000  1.0 0.0023981317
C  C25  1  0.82590000  0.78380000  0.53740000  1.0 -0.0096711203
C  C26  1  0.86490000  0.82460000  0.53840000  1.0 -0.0505578992
C  C27  1  0.97310000  0.84010000  0.53470000  1.0 0.0246767645
C  C28  1  0.94300000  0.79660000  0.55350000  1.0 -0.0289589482
C  C29  1  0.97490000  0.75340000  0.57350000  1.0 0.0260899484
C  C30  1  0.94070000  0.70630000  0.58960000  1.0 0.0023981317
C  C31  1  0.82590000  0.21620000  0.46260000  1.0 -0.0096711203
C  C32  1  0.86490000  0.17540000  0.46160000  1.0 -0.0505578992
C  C33  1  0.97310000  0.15990000  0.46530000  1.0 0.0246767645
C  C34  1  0.94300000  0.20340000  0.44650000  1.0 -0.0289589482
C  C35  1  0.97490000  0.24660000  0.42650000  1.0 0.0260899484
C  C36  1  0.94070000  0.29370000  0.41040000  1.0 0.0023981317
C  C37  1  0.17410000  0.21620000  0.53740000  1.0 -0.0096711203
C  C38  1  0.13510000  0.17540000  0.53840000  1.0 -0.0505578992
C  C39  1  0.02690000  0.15990000  0.53470000  1.0 0.0246767645
C  C40  1  0.05700000  0.20340000  0.55350000  1.0 -0.0289589482
C  C41  1  0.02510000  0.24660000  0.57350000  1.0 0.0246767645
C  C42  1  0.05930000  0.29370000  0.58960000  1.0 0.0023981317
C  C43  1  0.17410000  0.78380000  0.46260000  1.0 -0.0096711203
C  C44  1  0.13510000  0.82460000  0.46160000  1.0 -0.0505578992
C  C45  1  0.02690000  0.84010000  0.46530000  1.0 0.0246767645
C  C46  1  0.05700000  0.79660000  0.44650000  1.0 -0.0289589482
C  C47  1  0.02510000  0.75340000  0.42650000  1.0 0.0246767645
C  C48  1  0.05930000  0.70630000  0.41040000  1.0 0.0023981317
C  C49  1  0.53740000  0.82590000  0.78380000  1.0 -0.0096711203
C  C50  1  0.53840000  0.86490000  0.82460000  1.0 -0.0505578992
C  C51  1  0.53470000  0.97310000  0.84010000  1.0 0.0246767645
C  C52  1  0.55350000  0.94300000  0.79660000  1.0 -0.0289589482
C  C53  1  0.57350000  0.97490000  0.75340000  1.0 0.0260899484
C  C54  1  0.58960000  0.94070000  0.70630000  1.0 0.0023981317
C  C55  1  0.46260000  0.82590000  0.21620000  1.0 -0.0096711203
C  C56  1  0.46160000  0.86490000  0.17540000  1.0 -0.0557206407
C  C57  1  0.46530000  0.97310000  0.15990000  1.0 0.0246767645
C  C58  1  0.44650000  0.94300000  0.20340000  1.0 -0.0289589482
C  C59  1  0.42650000  0.97490000  0.24660000  1.0 0.0260899484
C  C60  1  0.41040000  0.94070000  0.29370000  1.0 0.0023981317
C  C61  1  0.53740000  0.17410000  0.21620000  1.0 -0.0096711203
C  C62  1  0.53840000  0.13510000  0.17540000  1.0 -0.0557206407
C  C63  1  0.53470000  0.02690000  0.15990000  1.0 0.0246767645
C  C64  1  0.55350000  0.05700000  0.20340000  1.0 -0.0289589482
C  C65  1  0.57350000  0.02510000  0.24660000  1.0 0.0246767645
C  C66  1  0.58960000  0.05930000  0.29370000  1.0 0.0023981317
C  C67  1  0.46260000  0.17410000  0.78380000  1.0 -0.0096711203
C  C68  1  0.46160000  0.13510000  0.82460000  1.0 -0.0505578992
C  C69  1  0.46530000  0.02690000  0.84010000  1.0 0.0246767645
C  C70  1  0.44650000  0.05700000  0.79660000  1.0 -0.0289589482
C  C71  1  0.42650000  0.02510000  0.75340000  1.0 0.0246767645
C  C72  1  0.41040000  0.05930000  0.70630000  1.0 0.0023981317
C  C73  1  0.53740000  0.78380000  0.17410000  1.0 -0.0096711203
C  C74  1  0.53840000  0.82460000  0.13510000  1.0 -0.0557206407
C  C75  1  0.53470000  0.84010000  0.02690000  1.0 0.0246767645
C  C76  1  0.55350000  0.79660000  0.05700000  1.0 -0.0289589482
C  C77  1  0.57350000  0.75340000  0.02510000  1.0 0.0260899484
C  C78  1  0.58960000  0.70630000  0.05930000  1.0 0.0023981317
C  C79  1  0.46260000  0.21620000  0.17410000  1.0 -0.0096711203
C  C80  1  0.46160000  0.17540000  0.13510000  1.0 -0.0557206407
C  C81  1  0.46530000  0.15990000  0.02690000  1.0 0.0246767645
C  C82  1  0.44650000  0.20340000  0.05700000  1.0 -0.0289589482
C  C83  1  0.42650000  0.24660000  0.02510000  1.0 0.0246767645
C  C84  1  0.41040000  0.29370000  0.05930000  1.0 0.0023981317
C  C85  1  0.53740000  0.21620000  0.82590000  1.0 -0.0096711203
C  C86  1  0.53840000  0.17540000  0.86490000  1.0 -0.0505578992
C  C87  1  0.53470000  0.15990000  0.97310000  1.0 0.0246767645
C  C88  1  0.55350000  0.20340000  0.94300000  1.0 -0.0289589482
C  C89  1  0.57350000  0.24660000  0.97490000  1.0 0.0260899484
C  C90  1  0.58960000  0.29370000  0.94070000  1.0 0.0023981317
C  C91  1  0.46260000  0.78380000  0.82590000  1.0 -0.0096711203
C  C92  1  0.46160000  0.82460000  0.86490000  1.0 -0.0505578992
C  C93  1  0.46530000  0.84010000  0.97310000  1.0 0.0246767645
C  C94  1  0.44650000  0.79660000  0.94300000  1.0 -0.0289589482
C  C95  1  0.42650000  0.75340000  0.97490000  1.0 0.0260899484
C  C96  1  0.41040000  0.70630000  0.94070000  1.0 0.0023981317
C  C97  1  0.78380000  0.82590000  0.46260000  1.0 -0.0096711203
C  C98  1  0.82460000  0.86490000  0.46160000  1.0 -0.0505578992
C  C99  1  0.84010000  0.97310000  0.46530000  1.0 0.0246767645
C  C100  1  0.79660000  0.94300000  0.44650000  1.0 -0.0289589482
C  C101  1  0.75340000  0.97490000  0.42650000  1.0 0.0260899484
C  C102  1  0.70630000  0.94070000  0.41040000  1.0 0.0023981317
C  C103  1  0.21620000  0.82590000  0.53740000  1.0 -0.0096711203
C  C104  1  0.17540000  0.86490000  0.53840000  1.0 -0.0505578992
C  C105  1  0.15990000  0.97310000  0.53470000  1.0 0.0246767645
C  C106  1  0.20340000  0.94300000  0.55350000  1.0 -0.0289589482
C  C107  1  0.24660000  0.97490000  0.57350000  1.0 0.0260899484
C  C108  1  0.29370000  0.94070000  0.58960000  1.0 0.0023981317
C  C109  1  0.21620000  0.17410000  0.46260000  1.0 -0.0096711203
C  C110  1  0.17540000  0.13510000  0.46160000  1.0 -0.0505578992
C  C111  1  0.15990000  0.02690000  0.46530000  1.0 0.0246767645
C  C112  1  0.20340000  0.05700000  0.44650000  1.0 -0.0289589482
C  C113  1  0.24660000  0.02510000  0.42650000  1.0 0.0246767645
C  C114  1  0.29370000  0.05930000  0.41040000  1.0 0.0023981317
C  C115  1  0.78380000  0.17410000  0.53740000  1.0 -0.0096711203
C  C116  1  0.82460000  0.13510000  0.53840000  1.0 -0.0505578992
C  C117  1  0.84010000  0.02690000  0.53470000  1.0 0.0246767645
C  C118  1  0.79660000  0.05700000  0.55350000  1.0 -0.0289589482
C  C119  1  0.75340000  0.02510000  0.57350000  1.0 0.0246767645
C  C120  1  0.70630000  0.05930000  0.58960000  1.0 0.0023981317
C  C121  1  0.82590000  0.53740000  0.21620000  1.0 -0.0096711203
C  C122  1  0.86490000  0.53840000  0.17540000  1.0 -0.0557206407
C  C123  1  0.97310000  0.53470000  0.15990000  1.0 0.0246767645
C  C124  1  0.94300000  0.55350000  0.20340000  1.0 -0.0289589482
C  C125  1  0.97490000  0.57350000  0.24660000  1.0 0.0260899484
C  C126  1  0.94070000  0.58960000  0.29370000  1.0 0.0023981317
C  C127  1  0.82590000  0.46260000  0.78380000  1.0 -0.0096711203
C  C128  1  0.86490000  0.46160000  0.82460000  1.0 -0.0505578992
C  C129  1  0.97310000  0.46530000  0.84010000  1.0 0.0246767645
C  C130  1  0.94300000  0.44650000  0.79660000  1.0 -0.0289589482
C  C131  1  0.97490000  0.42650000  0.75340000  1.0 0.0260899484
C  C132  1  0.94070000  0.41040000  0.70630000  1.0 0.0023981317
C  C133  1  0.17410000  0.53740000  0.78380000  1.0 -0.0096711203
C  C134  1  0.13510000  0.53840000  0.82460000  1.0 -0.0505578992
C  C135  1  0.02690000  0.53470000  0.84010000  1.0 0.0246767645
C  C136  1  0.05700000  0.55350000  0.79660000  1.0 -0.0289589482
C  C137  1  0.02510000  0.57350000  0.75340000  1.0 0.0246767645
C  C138  1  0.05930000  0.58960000  0.70630000  1.0 0.0023981317
C  C139  1  0.17410000  0.46260000  0.21620000  1.0 -0.0096711203
C  C140  1  0.13510000  0.46160000  0.17540000  1.0 -0.0557206407
C  C141  1  0.02690000  0.46530000  0.15990000  1.0 0.0246767645
C  C142  1  0.05700000  0.44650000  0.20340000  1.0 -0.0289589482
C  C143  1  0.02510000  0.42650000  0.24660000  1.0 0.0246767645
C  C144  1  0.05930000  0.41040000  0.29370000  1.0 0.0023981317
C  C145  1  0.21620000  0.46260000  0.17410000  1.0 -0.0096711203
C  C146  1  0.17540000  0.46160000  0.13510000  1.0 -0.0557206407
C  C147  1  0.15990000  0.46530000  0.02690000  1.0 0.0246767645
C  C148  1  0.20340000  0.44650000  0.05700000  1.0 -0.0289589482
C  C149  1  0.24660000  0.42650000  0.02510000  1.0 0.0246767645
C  C150  1  0.29370000  0.41040000  0.05930000  1.0 0.0023981317
C  C151  1  0.78380000  0.53740000  0.17410000  1.0 -0.0096711203
C  C152  1  0.82460000  0.53840000  0.13510000  1.0 -0.0557206407
C  C153  1  0.84010000  0.53470000  0.02690000  1.0 0.0246767645
C  C154  1  0.79660000  0.55350000  0.05700000  1.0 -0.0289589482
C  C155  1  0.75340000  0.57350000  0.02510000  1.0 0.0260899484
C  C156  1  0.70630000  0.58960000  0.05930000  1.0 0.0023981317
C  C157  1  0.78380000  0.46260000  0.82590000  1.0 -0.0096711203
C  C158  1  0.82460000  0.46160000  0.86490000  1.0 -0.0505578992
C  C159  1  0.84010000  0.46530000  0.97310000  1.0 0.0246767645
C  C160  1  0.79660000  0.44650000  0.94300000  1.0 -0.0289589482
C  C161  1  0.75340000  0.42650000  0.97490000  1.0 0.0260899484
C  C162  1  0.70630000  0.41040000  0.94070000  1.0 0.0023981317
C  C163  1  0.21620000  0.53740000  0.82590000  1.0 -0.0096711203
C  C164  1  0.17540000  0.53840000  0.86490000  1.0 -0.0505578992
C  C165  1  0.15990000  0.53470000  0.97310000  1.0 0.0246767645
C  C166  1  0.20340000  0.55350000  0.94300000  1.0 -0.0289589482
C  C167  1  0.24660000  0.57350000  0.97490000  1.0 0.0260899484
C  C168  1  0.29370000  0.58960000  0.94070000  1.0 -1.7158e-06
C  C169  1  0.17410000  0.21620000  0.46260000  1.0 -0.0096711203
C  C170  1  0.13510000  0.17540000  0.46160000  1.0 -0.0505578992
C  C171  1  0.02690000  0.15990000  0.46530000  1.0 0.0246767645
C  C172  1  0.05700000  0.20340000  0.44650000  1.0 -0.0289589482
C  C173  1  0.02510000  0.24660000  0.42650000  1.0 0.0246767645
C  C174  1  0.05930000  0.29370000  0.41040000  1.0 0.0023981317
C  C175  1  0.17410000  0.78380000  0.53740000  1.0 -0.0096711203
C  C176  1  0.13510000  0.82460000  0.53840000  1.0 -0.0505578992
C  C177  1  0.02690000  0.84010000  0.53470000  1.0 0.0246767645
C  C178  1  0.05700000  0.79660000  0.55350000  1.0 -0.0289589482
C  C179  1  0.02510000  0.75340000  0.57350000  1.0 0.0246767645
C  C180  1  0.05930000  0.70630000  0.58960000  1.0 0.0023981317
C  C181  1  0.82590000  0.78380000  0.46260000  1.0 -0.0096711203
C  C182  1  0.86490000  0.82460000  0.46160000  1.0 -0.0505578992
C  C183  1  0.97310000  0.84010000  0.46530000  1.0 0.0246767645
C  C184  1  0.94300000  0.79660000  0.44650000  1.0 -0.0289589482
C  C185  1  0.97490000  0.75340000  0.42650000  1.0 0.0260899484
C  C186  1  0.94070000  0.70630000  0.41040000  1.0 0.0023981317
C  C187  1  0.82590000  0.21620000  0.53740000  1.0 -0.0096711203
C  C188  1  0.86490000  0.17540000  0.53840000  1.0 -0.0505578992
C  C189  1  0.97310000  0.15990000  0.53470000  1.0 0.0246767645
C  C190  1  0.94300000  0.20340000  0.55350000  1.0 -0.0289589482
C  C191  1  0.97490000  0.24660000  0.57350000  1.0 0.0260899484
C  C192  1  0.94070000  0.29370000  0.58960000  1.0 0.0023981317
C  C193  1  0.46260000  0.17410000  0.21620000  1.0 -0.0096711203
C  C194  1  0.46160000  0.13510000  0.17540000  1.0 -0.0557206407
C  C195  1  0.46530000  0.02690000  0.15990000  1.0 0.0246767645
C  C196  1  0.44650000  0.05700000  0.20340000  1.0 -0.0289589482
C  C197  1  0.42650000  0.02510000  0.24660000  1.0 0.0246767645
C  C198  1  0.41040000  0.05930000  0.29370000  1.0 0.0023981317
C  C199  1  0.53740000  0.17410000  0.78380000  1.0 -0.0096711203
C  C200  1  0.53840000  0.13510000  0.82460000  1.0 -0.0505578992
C  C201  1  0.53470000  0.02690000  0.84010000  1.0 0.0246767645
C  C202  1  0.55350000  0.05700000  0.79660000  1.0 -0.0289589482
C  C203  1  0.57350000  0.02510000  0.75340000  1.0 0.0246767645
C  C204  1  0.58960000  0.05930000  0.70630000  1.0 0.0023981317
C  C205  1  0.46260000  0.82590000  0.78380000  1.0 -0.0096711203
C  C206  1  0.46160000  0.86490000  0.82460000  1.0 -0.0505578992
C  C207  1  0.46530000  0.97310000  0.84010000  1.0 0.0246767645
C  C208  1  0.44650000  0.94300000  0.79660000  1.0 -0.0289589482
C  C209  1  0.42650000  0.97490000  0.75340000  1.0 0.0260899484
C  C210  1  0.41040000  0.94070000  0.70630000  1.0 0.0023981317
C  C211  1  0.53740000  0.82590000  0.21620000  1.0 -0.0096711203
C  C212  1  0.53840000  0.86490000  0.17540000  1.0 -0.0557206407
C  C213  1  0.53470000  0.97310000  0.15990000  1.0 0.0246767645
C  C214  1  0.55350000  0.94300000  0.20340000  1.0 -0.0289589482
C  C215  1  0.57350000  0.97490000  0.24660000  1.0 0.0260899484
C  C216  1  0.58960000  0.94070000  0.29370000  1.0 0.0023981317
C  C217  1  0.46260000  0.21620000  0.82590000  1.0 -0.0096711203
C  C218  1  0.46160000  0.17540000  0.86490000  1.0 -0.0505578992
C  C219  1  0.46530000  0.15990000  0.97310000  1.0 0.0246767645
C  C220  1  0.44650000  0.20340000  0.94300000  1.0 -0.0289589482
C  C221  1  0.42650000  0.24660000  0.97490000  1.0 0.0260899484
C  C222  1  0.41040000  0.29370000  0.94070000  1.0 -1.7158e-06
C  C223  1  0.53740000  0.78380000  0.82590000  1.0 -0.0096711203
C  C224  1  0.53840000  0.82460000  0.86490000  1.0 -0.0505578992
C  C225  1  0.53470000  0.84010000  0.97310000  1.0 0.0246767645
C  C226  1  0.55350000  0.79660000  0.94300000  1.0 -0.0289589482
C  C227  1  0.57350000  0.75340000  0.97490000  1.0 0.0260899484
C  C228  1  0.58960000  0.70630000  0.94070000  1.0 0.0023981317
C  C229  1  0.46260000  0.78380000  0.17410000  1.0 -0.0096711203
C  C230  1  0.46160000  0.82460000  0.13510000  1.0 -0.0557206407
C  C231  1  0.46530000  0.84010000  0.02690000  1.0 0.0246767645
C  C232  1  0.44650000  0.79660000  0.05700000  1.0 -0.0289589482
C  C233  1  0.42650000  0.75340000  0.02510000  1.0 0.0260899484
C  C234  1  0.41040000  0.70630000  0.05930000  1.0 0.0023981317
C  C235  1  0.53740000  0.21620000  0.17410000  1.0 -0.0096711203
C  C236  1  0.53840000  0.17540000  0.13510000  1.0 -0.0557206407
C  C237  1  0.53470000  0.15990000  0.02690000  1.0 0.0246767645
C  C238  1  0.55350000  0.20340000  0.05700000  1.0 -0.0289589482
C  C239  1  0.57350000  0.24660000  0.02510000  1.0 0.0246767645
C  C240  1  0.58960000  0.29370000  0.05930000  1.0 0.0023981317
C  C241  1  0.21620000  0.17410000  0.53740000  1.0 -0.0096711203
C  C242  1  0.17540000  0.13510000  0.53840000  1.0 -0.0505578992
C  C243  1  0.15990000  0.02690000  0.53470000  1.0 0.0246767645
C  C244  1  0.20340000  0.05700000  0.55350000  1.0 -0.0289589482
C  C245  1  0.24660000  0.02510000  0.57350000  1.0 0.0246767645
C  C246  1  0.29370000  0.05930000  0.58960000  1.0 0.0023981317
C  C247  1  0.78380000  0.17410000  0.46260000  1.0 -0.0096711203
C  C248  1  0.82460000  0.13510000  0.46160000  1.0 -0.0505578992
C  C249  1  0.84010000  0.02690000  0.46530000  1.0 0.0246767645
C  C250  1  0.79660000  0.05700000  0.44650000  1.0 -0.0289589482
C  C251  1  0.75340000  0.02510000  0.42650000  1.0 0.0246767645
C  C252  1  0.70630000  0.05930000  0.41040000  1.0 0.0023981317
C  C253  1  0.78380000  0.82590000  0.53740000  1.0 -0.0096711203
C  C254  1  0.82460000  0.86490000  0.53840000  1.0 -0.0505578992
C  C255  1  0.84010000  0.97310000  0.53470000  1.0 0.0246767645
C  C256  1  0.79660000  0.94300000  0.55350000  1.0 -0.0289589482
C  C257  1  0.75340000  0.97490000  0.57350000  1.0 0.0260899484
C  C258  1  0.70630000  0.94070000  0.58960000  1.0 0.0023981317
C  C259  1  0.21620000  0.82590000  0.46260000  1.0 -0.0096711203
C  C260  1  0.17540000  0.86490000  0.46160000  1.0 -0.0505578992
C  C261  1  0.15990000  0.97310000  0.46530000  1.0 0.0246767645
C  C262  1  0.20340000  0.94300000  0.44650000  1.0 -0.0289589482
C  C263  1  0.24660000  0.97490000  0.42650000  1.0 0.0260899484
C  C264  1  0.29370000  0.94070000  0.41040000  1.0 0.0023981317
C  C265  1  0.17410000  0.46260000  0.78380000  1.0 -0.0096711203
C  C266  1  0.13510000  0.46160000  0.82460000  1.0 -0.0505578992
C  C267  1  0.02690000  0.46530000  0.84010000  1.0 0.0246767645
C  C268  1  0.05700000  0.44650000  0.79660000  1.0 -0.0289589482
C  C269  1  0.02510000  0.42650000  0.75340000  1.0 0.0246767645
C  C270  1  0.05930000  0.41040000  0.70630000  1.0 0.0023981317
C  C271  1  0.17410000  0.53740000  0.21620000  1.0 -0.0096711203
C  C272  1  0.13510000  0.53840000  0.17540000  1.0 -0.0557206407
C  C273  1  0.02690000  0.53470000  0.15990000  1.0 0.0246767645
C  C274  1  0.05700000  0.55350000  0.20340000  1.0 -0.0289589482
C  C275  1  0.02510000  0.57350000  0.24660000  1.0 0.0246767645
C  C276  1  0.05930000  0.58960000  0.29370000  1.0 0.0023981317
C  C277  1  0.82590000  0.46260000  0.21620000  1.0 -0.0096711203
C  C278  1  0.86490000  0.46160000  0.17540000  1.0 -0.0557206407
C  C279  1  0.97310000  0.46530000  0.15990000  1.0 0.0246767645
C  C280  1  0.94300000  0.44650000  0.20340000  1.0 -0.0289589482
C  C281  1  0.97490000  0.42650000  0.24660000  1.0 0.0260899484
C  C282  1  0.94070000  0.41040000  0.29370000  1.0 0.0023981317
C  C283  1  0.82590000  0.53740000  0.78380000  1.0 -0.0096711203
C  C284  1  0.86490000  0.53840000  0.82460000  1.0 -0.0505578992
C  C285  1  0.97310000  0.53470000  0.84010000  1.0 0.0246767645
C  C286  1  0.94300000  0.55350000  0.79660000  1.0 -0.0289589482
C  C287  1  0.97490000  0.57350000  0.75340000  1.0 0.0260899484
C  C288  1  0.94070000  0.58960000  0.70630000  1.0 0.0023981317
C  C289  1  0.62422000  0.50000000  0.62422000  1.0 0.716376249
C  C290  1  0.66640000  0.50000000  0.66640000  1.0 -0.0289589482
C  C291  1  0.78560000  0.50000000  0.78560000  1.0 0.0557088892
C  C292  1  0.86362000  0.50000000  0.86362000  1.0 0.0495362757
C  C293  1  0.90583000  0.50000000  0.90583000  1.0 -0.1204235166
C  C294  1  0.74411000  0.50000000  0.74411000  1.0 0.0557088892
C  C295  1  0.37578000  0.50000000  0.62422000  1.0 0.716376249
C  C296  1  0.33360000  0.50000000  0.66640000  1.0 -0.0289589482
C  C297  1  0.21440000  0.50000000  0.78560000  1.0 0.0557088892
C  C298  1  0.13638000  0.50000000  0.86362000  1.0 0.0495362757
C  C299  1  0.09417000  0.50000000  0.90583000  1.0 -0.1204235166
C  C300  1  0.25589000  0.50000000  0.74411000  1.0 0.0557088892
C  C301  1  0.37578000  0.50000000  0.37578000  1.0 0.716376249
C  C302  1  0.33360000  0.50000000  0.33360000  1.0 -0.0289589482
C  C303  1  0.21440000  0.50000000  0.21440000  1.0 0.0557088892
C  C304  1  0.13638000  0.50000000  0.13638000  1.0 0.0495362757
C  C305  1  0.09417000  0.50000000  0.09417000  1.0 -0.1204235166
C  C306  1  0.25589000  0.50000000  0.25589000  1.0 0.0557088892
C  C307  1  0.62422000  0.50000000  0.37578000  1.0 0.716376249
C  C308  1  0.66640000  0.50000000  0.33360000  1.0 -0.0289589482
C  C309  1  0.78560000  0.50000000  0.21440000  1.0 0.0557088892
C  C310  1  0.86362000  0.50000000  0.13638000  1.0 0.0495362757
C  C311  1  0.90583000  0.50000000  0.09417000  1.0 -0.1204235166
C  C312  1  0.74411000  0.50000000  0.25589000  1.0 0.0557088892
C  C313  1  0.62422000  0.62422000  0.50000000  1.0 0.716376249
C  C314  1  0.66640000  0.66640000  0.50000000  1.0 -0.0289589482
C  C315  1  0.78560000  0.78560000  0.50000000  1.0 0.0557088892
C  C316  1  0.86362000  0.86362000  0.50000000  1.0 0.0495362757
C  C317  1  0.90583000  0.90583000  0.50000000  1.0 -0.1204235166
C  C318  1  0.74411000  0.74411000  0.50000000  1.0 0.0557088892
C  C319  1  0.62422000  0.37578000  0.50000000  1.0 0.716376249
C  C320  1  0.66640000  0.33360000  0.50000000  1.0 -0.0289589482
C  C321  1  0.78560000  0.21440000  0.50000000  1.0 0.0557088892
C  C322  1  0.86362000  0.13638000  0.50000000  1.0 0.0495362757
C  C323  1  0.90583000  0.09417000  0.50000000  1.0 -0.1204235166
C  C324  1  0.74411000  0.25589000  0.50000000  1.0 0.0557088892
C  C325  1  0.37578000  0.37578000  0.50000000  1.0 0.716376249
C  C326  1  0.33360000  0.33360000  0.50000000  1.0 -0.0289589482
C  C327  1  0.21440000  0.21440000  0.50000000  1.0 0.0557088892
C  C328  1  0.13638000  0.13638000  0.50000000  1.0 0.0495362757
C  C329  1  0.09417000  0.09417000  0.50000000  1.0 -0.1204235166
C  C330  1  0.25589000  0.25589000  0.50000000  1.0 0.0557088892
C  C331  1  0.37578000  0.62422000  0.50000000  1.0 0.716376249
C  C332  1  0.33360000  0.66640000  0.50000000  1.0 -0.0289589482
C  C333  1  0.21440000  0.78560000  0.50000000  1.0 0.0557088892
C  C334  1  0.13638000  0.86362000  0.50000000  1.0 0.0495362757
C  C335  1  0.09417000  0.90583000  0.50000000  1.0 -0.1204235166
C  C336  1  0.25589000  0.74411000  0.50000000  1.0 0.0557088892
C  C337  1  0.50000000  0.62422000  0.62422000  1.0 0.716376249
C  C338  1  0.50000000  0.66640000  0.66640000  1.0 -0.0289589482
C  C339  1  0.50000000  0.78560000  0.78560000  1.0 0.0557088892
C  C340  1  0.50000000  0.86362000  0.86362000  1.0 0.0495362757
C  C341  1  0.50000000  0.90583000  0.90583000  1.0 -0.1204235166
C  C342  1  0.50000000  0.74411000  0.74411000  1.0 0.0557088892
C  C343  1  0.50000000  0.62422000  0.37578000  1.0 0.716376249
C  C344  1  0.50000000  0.66640000  0.33360000  1.0 -0.0289589482
C  C345  1  0.50000000  0.78560000  0.21440000  1.0 0.0557088892
C  C346  1  0.50000000  0.86362000  0.13638000  1.0 0.0495362757
C  C347  1  0.50000000  0.90583000  0.09417000  1.0 -0.1204235166
C  C348  1  0.50000000  0.74411000  0.25589000  1.0 0.0557088892
C  C349  1  0.50000000  0.37578000  0.37578000  1.0 0.716376249
C  C350  1  0.50000000  0.33360000  0.33360000  1.0 -0.0289589482
C  C351  1  0.50000000  0.21440000  0.21440000  1.0 0.0557088892
C  C352  1  0.50000000  0.13638000  0.13638000  1.0 0.0495362757
C  C353  1  0.50000000  0.09417000  0.09417000  1.0 -0.1204235166
C  C354  1  0.50000000  0.25589000  0.25589000  1.0 0.0557088892
C  C355  1  0.50000000  0.37578000  0.62422000  1.0 0.716376249
C  C356  1  0.50000000  0.33360000  0.66640000  1.0 -0.0289589482
C  C357  1  0.50000000  0.21440000  0.78560000  1.0 0.0557088892
C  C358  1  0.50000000  0.13638000  0.86362000  1.0 0.0495362757
C  C359  1  0.50000000  0.09417000  0.90583000  1.0 -0.1204235166
C  C360  1  0.50000000  0.25589000  0.74411000  1.0 0.0557088892
C  C361  1  0.89123000  0.50000000  0.95560000  1.0 0.1599841376
C  C362  1  0.75740000  0.50000000  0.69200000  1.0 -0.0505578992
C  C363  1  0.71810000  0.50000000  0.65300000  1.0 0.0495362757
C  C364  1  0.10877000  0.50000000  0.95560000  1.0 0.1599841376
C  C365  1  0.24260000  0.50000000  0.69200000  1.0 -0.0505578992
C  C366  1  0.28190000  0.50000000  0.65300000  1.0 0.0495362757
C  C367  1  0.10877000  0.50000000  0.04440000  1.0 0.1599841376
C  C368  1  0.24260000  0.50000000  0.30800000  1.0 -0.0505578992
C  C369  1  0.28190000  0.50000000  0.34700000  1.0 0.0495362757
C  C370  1  0.89123000  0.50000000  0.04440000  1.0 0.1599841376
C  C371  1  0.75740000  0.50000000  0.30800000  1.0 -0.0505578992
C  C372  1  0.71810000  0.50000000  0.34700000  1.0 0.0495362757
C  C373  1  0.95560000  0.89123000  0.50000000  1.0 0.1599841376
C  C374  1  0.69200000  0.75740000  0.50000000  1.0 -0.0505578992
C  C375  1  0.65300000  0.71810000  0.50000000  1.0 0.0495362757
C  C376  1  0.95560000  0.10877000  0.50000000  1.0 0.1599841376
C  C377  1  0.69200000  0.24260000  0.50000000  1.0 -0.0505578992
C  C378  1  0.65300000  0.28190000  0.50000000  1.0 0.0495362757
C  C379  1  0.04440000  0.10877000  0.50000000  1.0 0.1599841376
C  C380  1  0.30800000  0.24260000  0.50000000  1.0 -0.0505578992
C  C381  1  0.34700000  0.28190000  0.50000000  1.0 0.0495362757
C  C382  1  0.04440000  0.89123000  0.50000000  1.0 0.1599841376
C  C383  1  0.30800000  0.75740000  0.50000000  1.0 -0.0505578992
C  C384  1  0.34700000  0.71810000  0.50000000  1.0 0.0495362757
C  C385  1  0.50000000  0.95560000  0.89123000  1.0 0.1599841376
C  C386  1  0.50000000  0.69200000  0.75740000  1.0 -0.0505578992
C  C387  1  0.50000000  0.65300000  0.71810000  1.0 0.0495362757
C  C388  1  0.50000000  0.95560000  0.10877000  1.0 0.1599841376
C  C389  1  0.50000000  0.69200000  0.24260000  1.0 -0.0505578992
C  C390  1  0.50000000  0.65300000  0.28190000  1.0 0.0495362757
C  C391  1  0.50000000  0.04440000  0.10877000  1.0 0.1599841376
C  C392  1  0.50000000  0.30800000  0.24260000  1.0 -0.0505578992
C  C393  1  0.50000000  0.34700000  0.28190000  1.0 0.0495362757
C  C394  1  0.50000000  0.04440000  0.89123000  1.0 0.1599841376
C  C395  1  0.50000000  0.30800000  0.75740000  1.0 -0.0505578992
C  C396  1  0.50000000  0.34700000  0.71810000  1.0 0.0495362757
C  C397  1  0.50000000  0.89123000  0.04440000  1.0 0.1599841376
C  C398  1  0.50000000  0.75740000  0.30800000  1.0 -0.0505578992
C  C399  1  0.50000000  0.71810000  0.34700000  1.0 0.0495362757
C  C400  1  0.50000000  0.10877000  0.04440000  1.0 0.1599841376
C  C401  1  0.50000000  0.24260000  0.30800000  1.0 -0.0505578992
C  C402  1  0.50000000  0.28190000  0.34700000  1.0 0.0495362757
C  C403  1  0.50000000  0.10877000  0.95560000  1.0 0.1599841376
C  C404  1  0.50000000  0.24260000  0.69200000  1.0 -0.0505578992
C  C405  1  0.50000000  0.28190000  0.65300000  1.0 0.0495362757
C  C406  1  0.50000000  0.89123000  0.95560000  1.0 0.1599841376
C  C407  1  0.50000000  0.75740000  0.69200000  1.0 -0.0505578992
C  C408  1  0.50000000  0.71810000  0.65300000  1.0 0.0495362757
C  C409  1  0.89123000  0.95560000  0.50000000  1.0 0.1599841376
C  C410  1  0.75740000  0.69200000  0.50000000  1.0 -0.0505578992
C  C411  1  0.71810000  0.65300000  0.50000000  1.0 0.0495362757
C  C412  1  0.10877000  0.95560000  0.50000000  1.0 0.1599841376
C  C413  1  0.24260000  0.69200000  0.50000000  1.0 -0.0505578992
C  C414  1  0.28190000  0.65300000  0.50000000  1.0 0.0495362757
C  C415  1  0.10877000  0.04440000  0.50000000  1.0 0.1599841376
C  C416  1  0.24260000  0.30800000  0.50000000  1.0 -0.0505578992
C  C417  1  0.28190000  0.34700000  0.50000000  1.0 0.0495362757
C  C418  1  0.89123000  0.04440000  0.50000000  1.0 0.1599841376
C  C419  1  0.75740000  0.30800000  0.50000000  1.0 -0.0505578992
C  C420  1  0.71810000  0.34700000  0.50000000  1.0 0.0495362757
C  C421  1  0.95560000  0.50000000  0.10877000  1.0 0.1599841376
C  C422  1  0.69200000  0.50000000  0.24260000  1.0 -0.0505578992
C  C423  1  0.65300000  0.50000000  0.28190000  1.0 0.0495362757
C  C424  1  0.95560000  0.50000000  0.89123000  1.0 0.1599841376
C  C425  1  0.69200000  0.50000000  0.75740000  1.0 -0.0505578992
C  C426  1  0.65300000  0.50000000  0.71810000  1.0 0.0495362757
C  C427  1  0.04440000  0.50000000  0.89123000  1.0 0.1599841376
C  C428  1  0.30800000  0.50000000  0.75740000  1.0 -0.0505578992
C  C429  1  0.34700000  0.50000000  0.71810000  1.0 0.0495362757
C  C430  1  0.04440000  0.50000000  0.10877000  1.0 0.1599841376
C  C431  1  0.30800000  0.50000000  0.24260000  1.0 -0.0505578992
C  C432  1  0.34700000  0.50000000  0.28190000  1.0 0.0495362757
N  N1  1  0.92180000  0.50000000  0.00000000  1.0 -0.2223602282
N  N2  1  0.07820000  0.50000000  0.00000000  1.0 -0.2223602282
N  N3  1  0.00000000  0.92180000  0.50000000  1.0 -0.2223602282
N  N4  1  0.00000000  0.07820000  0.50000000  1.0 -0.2223602282
N  N5  1  0.50000000  0.00000000  0.92180000  1.0 -0.2223602282
N  N6  1  0.50000000  0.00000000  0.07820000  1.0 -0.2223602282
N  N7  1  0.50000000  0.92180000  0.00000000  1.0 -0.2223602282
N  N8  1  0.50000000  0.07820000  0.00000000  1.0 -0.2223602282
N  N9  1  0.92180000  0.00000000  0.50000000  1.0 -0.2223602282
N  N10  1  0.07820000  0.00000000  0.50000000  1.0 -0.2223602282
N  N11  1  0.00000000  0.50000000  0.07820000  1.0 -0.2223602282
N  N12  1  0.00000000  0.50000000  0.92180000  1.0 -0.2223602282
O  O1  1  0.45167000  0.45167000  0.54833000  1.0 -1.0794648438
O  O2  1  0.54833000  0.54833000  0.54833000  1.0 -1.0794648438
O  O3  1  0.54833000  0.45167000  0.45167000  1.0 -1.0794648438
O  O4  1  0.45167000  0.54833000  0.45167000  1.0 -1.0794648438
O  O5  1  0.45167000  0.45167000  0.45167000  1.0 -1.0794648438
O  O6  1  0.54833000  0.54833000  0.45167000  1.0 -1.0794648438
O  O7  1  0.45167000  0.54833000  0.54833000  1.0 -1.0794648438
O  O8  1  0.54833000  0.45167000  0.54833000  1.0 -1.0794648438
O  O9  1  0.57626000  0.50000000  0.64114000  1.0 -0.5800974279
O  O10  1  0.42374000  0.50000000  0.64114000  1.0 -0.5800974279
O  O11  1  0.42374000  0.50000000  0.35886000  1.0 -0.5800974279
O  O12  1  0.57626000  0.50000000  0.35886000  1.0 -0.5800974279
O  O13  1  0.64114000  0.57626000  0.50000000  1.0 -0.5800974279
O  O14  1  0.64114000  0.42374000  0.50000000  1.0 -0.5800974279
O  O15  1  0.35886000  0.42374000  0.50000000  1.0 -0.5800974279
O  O16  1  0.35886000  0.57626000  0.50000000  1.0 -0.5800974279
O  O17  1  0.50000000  0.64114000  0.57626000  1.0 -0.5800974279
O  O18  1  0.50000000  0.64114000  0.42374000  1.0 -0.5800974279
O  O19  1  0.50000000  0.35886000  0.42374000  1.0 -0.5800974279
O  O20  1  0.50000000  0.35886000  0.57626000  1.0 -0.5800974279
O  O21  1  0.50000000  0.57626000  0.35886000  1.0 -0.5800974279
O  O22  1  0.50000000  0.42374000  0.35886000  1.0 -0.5800974279
O  O23  1  0.50000000  0.42374000  0.64114000  1.0 -0.5800974279
O  O24  1  0.50000000  0.57626000  0.64114000  1.0 -0.5800974279
O  O25  1  0.57626000  0.64114000  0.50000000  1.0 -0.5800974279
O  O26  1  0.42374000  0.64114000  0.50000000  1.0 -0.5800974279
O  O27  1  0.42374000  0.35886000  0.50000000  1.0 -0.5800974279
O  O28  1  0.57626000  0.35886000  0.50000000  1.0 -0.5800974279
O  O29  1  0.64114000  0.50000000  0.42374000  1.0 -0.5800974279
O  O30  1  0.64114000  0.50000000  0.57626000  1.0 -0.5800974279
O  O31  1  0.35886000  0.50000000  0.57626000  1.0 -0.5800974279
O  O32  1  0.35886000  0.50000000  0.42374000  1.0 -0.5800974279
