# DDEC6 charges by PACMAN v1.1 (https://github.com/mtap-research/PACMAN-charge/)
data_MANLIX_FSR_pacman
_symmetry_space_group_name_H-M   'P 1'
_cell_length_a   27.88430000
_cell_length_b   27.88430000
_cell_length_c   27.88430000
_cell_angle_alpha   109.47100000
_cell_angle_beta   109.47100000
_cell_angle_gamma   109.47100000
_symmetry_Int_Tables_number   1
_chemical_formula_structural   ZnH60(C19N2)3
_chemical_formula_sum   'Zn8 H480 C456 N48'
_cell_volume   16690.17523582
_cell_formula_units_Z   8
loop_
 _symmetry_equiv_pos_site_id
 _symmetry_equiv_pos_as_xyz
  1  'x, y, z'
loop_
 _atom_site_type_symbol
 _atom_site_label
 _atom_site_symmetry_multiplicity
 _atom_site_fract_x
 _atom_site_fract_y
 _atom_site_fract_z
 _atom_site_occupancy
 _atom_site_charge
Zn  Zn1  1  0.00000000  0.00000000  0.00000000  1.0 0.5096470014
Zn  Zn2  1  0.00000000  0.50000000  0.00000000  1.0 0.5096470014
Zn  Zn3  1  0.50000000  0.50000000  0.00000000  1.0 0.5096470014
Zn  Zn4  1  0.50000000  0.00000000  0.50000000  1.0 0.5096470014
Zn  Zn5  1  0.50000000  0.00000000  0.00000000  1.0 0.5096470014
Zn  Zn6  1  0.00000000  0.00000000  0.50000000  1.0 0.5096470014
Zn  Zn7  1  0.00000000  0.50000000  0.50000000  1.0 0.5096470014
Zn  Zn8  1  0.50000000  0.50000000  0.50000000  1.0 0.5096470014
H  H1  1  0.92720000  0.05950000  0.97470000  1.0 0.1116796361
H  H2  1  0.05950000  0.58480000  0.13230000  1.0 0.1116796361
H  H3  1  0.57280000  0.54750000  0.13230000  1.0 0.1116796361
H  H4  1  0.97470000  0.92720000  0.05950000  1.0 0.1116796361
H  H5  1  0.58480000  0.95250000  0.52530000  1.0 0.1116796361
H  H6  1  0.54750000  0.91520000  0.97470000  1.0 0.1116796361
H  H7  1  0.92720000  0.36770000  0.95250000  1.0 0.1116796361
H  H8  1  0.95250000  0.92720000  0.36770000  1.0 0.1116796361
H  H9  1  0.91520000  0.44050000  0.36770000  1.0 0.1116796361
H  H10  1  0.36770000  0.91520000  0.44050000  1.0 0.1116796361
H  H11  1  0.44050000  0.57280000  0.52530000  1.0 0.1116796361
H  H12  1  0.91520000  0.97470000  0.54750000  1.0 0.1116796361
H  H13  1  0.52530000  0.58480000  0.95250000  1.0 0.1116796361
H  H14  1  0.57280000  0.52530000  0.44050000  1.0 0.1116796361
H  H15  1  0.13230000  0.57280000  0.54750000  1.0 0.1116796361
H  H16  1  0.58480000  0.13230000  0.05950000  1.0 0.1116796361
H  H17  1  0.05950000  0.97470000  0.92720000  1.0 0.1116796361
H  H18  1  0.13230000  0.05950000  0.58480000  1.0 0.1116796361
H  H19  1  0.97470000  0.54750000  0.91520000  1.0 0.1116796361
H  H20  1  0.36770000  0.95250000  0.92720000  1.0 0.1116796361
H  H21  1  0.44050000  0.36770000  0.91520000  1.0 0.1116796361
H  H22  1  0.52530000  0.44050000  0.57280000  1.0 0.1116796361
H  H23  1  0.95250000  0.52530000  0.58480000  1.0 0.1116796361
H  H24  1  0.54750000  0.13230000  0.57280000  1.0 0.1116796361
H  H25  1  0.07280000  0.94050000  0.02530000  1.0 0.1116796361
H  H26  1  0.94050000  0.41520000  0.86770000  1.0 0.1116796361
H  H27  1  0.42720000  0.45250000  0.86770000  1.0 0.1116796361
H  H28  1  0.02530000  0.07280000  0.94050000  1.0 0.1116796361
H  H29  1  0.41520000  0.04750000  0.47470000  1.0 0.1116796361
H  H30  1  0.45250000  0.08480000  0.02530000  1.0 0.1116796361
H  H31  1  0.07280000  0.63230000  0.04750000  1.0 0.1116796361
H  H32  1  0.04750000  0.07280000  0.63230000  1.0 0.1116796361
H  H33  1  0.08480000  0.55950000  0.63230000  1.0 0.1116796361
H  H34  1  0.63230000  0.08480000  0.55950000  1.0 0.1116796361
H  H35  1  0.55950000  0.42720000  0.47470000  1.0 0.1116796361
H  H36  1  0.08480000  0.02530000  0.45250000  1.0 0.1116796361
H  H37  1  0.47470000  0.41520000  0.04750000  1.0 0.1116796361
H  H38  1  0.42720000  0.47470000  0.55950000  1.0 0.1116796361
H  H39  1  0.86770000  0.42720000  0.45250000  1.0 0.1116796361
H  H40  1  0.41520000  0.86770000  0.94050000  1.0 0.1116796361
H  H41  1  0.94050000  0.02530000  0.07280000  1.0 0.1116796361
H  H42  1  0.86770000  0.94050000  0.41520000  1.0 0.1116796361
H  H43  1  0.02530000  0.45250000  0.08480000  1.0 0.1116796361
H  H44  1  0.63230000  0.04750000  0.07280000  1.0 0.1116796361
H  H45  1  0.55950000  0.63230000  0.08480000  1.0 0.1116796361
H  H46  1  0.47470000  0.55950000  0.42720000  1.0 0.1116796361
H  H47  1  0.04750000  0.47470000  0.41520000  1.0 0.1116796361
H  H48  1  0.45250000  0.86770000  0.42720000  1.0 0.1116796361
H  H49  1  0.82890000  0.03660000  0.91950000  1.0 0.1569004259
H  H50  1  0.03660000  0.61710000  0.20770000  1.0 0.1569004259
H  H51  1  0.67110000  0.59060000  0.20770000  1.0 0.1569004259
H  H52  1  0.91950000  0.82890000  0.03660000  1.0 0.1569004259
H  H53  1  0.61710000  0.90940000  0.58050000  1.0 0.1569004259
H  H54  1  0.59060000  0.88290000  0.91950000  1.0 0.1569004259
H  H55  1  0.82890000  0.29230000  0.90940000  1.0 0.1569004259
H  H56  1  0.90940000  0.82890000  0.29230000  1.0 0.1569004259
H  H57  1  0.88290000  0.46340000  0.29230000  1.0 0.1569004259
H  H58  1  0.29230000  0.88290000  0.46340000  1.0 0.1569004259
H  H59  1  0.46340000  0.67110000  0.58050000  1.0 0.1569004259
H  H60  1  0.88290000  0.91950000  0.59060000  1.0 0.1569004259
H  H61  1  0.58050000  0.61710000  0.90940000  1.0 0.1569004259
H  H62  1  0.67110000  0.58050000  0.46340000  1.0 0.1569004259
H  H63  1  0.20770000  0.67110000  0.59060000  1.0 0.1569004259
H  H64  1  0.61710000  0.20770000  0.03660000  1.0 0.1569004259
H  H65  1  0.03660000  0.91950000  0.82890000  1.0 0.1569004259
H  H66  1  0.20770000  0.03660000  0.61710000  1.0 0.1569004259
H  H67  1  0.91950000  0.59060000  0.88290000  1.0 0.1569004259
H  H68  1  0.29230000  0.90940000  0.82890000  1.0 0.1569004259
H  H69  1  0.46340000  0.29230000  0.88290000  1.0 0.1569004259
H  H70  1  0.58050000  0.46340000  0.67110000  1.0 0.1569004259
H  H71  1  0.90940000  0.58050000  0.61710000  1.0 0.1569004259
H  H72  1  0.59060000  0.20770000  0.67110000  1.0 0.1569004259
H  H73  1  0.17110000  0.96340000  0.08050000  1.0 0.1569004259
H  H74  1  0.96340000  0.38290000  0.79230000  1.0 0.1569004259
H  H75  1  0.32890000  0.40940000  0.79230000  1.0 0.1569004259
H  H76  1  0.08050000  0.17110000  0.96340000  1.0 0.1569004259
H  H77  1  0.38290000  0.09060000  0.41950000  1.0 0.1569004259
H  H78  1  0.40940000  0.11710000  0.08050000  1.0 0.1569004259
H  H79  1  0.17110000  0.70770000  0.09060000  1.0 0.1569004259
H  H80  1  0.09060000  0.17110000  0.70770000  1.0 0.1569004259
H  H81  1  0.11710000  0.53660000  0.70770000  1.0 0.1569004259
H  H82  1  0.70770000  0.11710000  0.53660000  1.0 0.1569004259
H  H83  1  0.53660000  0.32890000  0.41950000  1.0 0.1569004259
H  H84  1  0.11710000  0.08050000  0.40940000  1.0 0.1569004259
H  H85  1  0.41950000  0.38290000  0.09060000  1.0 0.1569004259
H  H86  1  0.32890000  0.41950000  0.53660000  1.0 0.1569004259
H  H87  1  0.79230000  0.32890000  0.40940000  1.0 0.1569004259
H  H88  1  0.38290000  0.79230000  0.96340000  1.0 0.1569004259
H  H89  1  0.96340000  0.08050000  0.17110000  1.0 0.1569004259
H  H90  1  0.79230000  0.96340000  0.38290000  1.0 0.1569004259
H  H91  1  0.08050000  0.40940000  0.11710000  1.0 0.1569004259
H  H92  1  0.70770000  0.09060000  0.17110000  1.0 0.1569004259
H  H93  1  0.53660000  0.70770000  0.11710000  1.0 0.1569004259
H  H94  1  0.41950000  0.53660000  0.32890000  1.0 0.1569004259
H  H95  1  0.09060000  0.41950000  0.38290000  1.0 0.1569004259
H  H96  1  0.40940000  0.79230000  0.32890000  1.0 0.1569004259
H  H97  1  0.77950000  0.88050000  0.90540000  1.0 0.1569004259
H  H98  1  0.88050000  0.47510000  0.10100000  1.0 0.1569004259
H  H99  1  0.72050000  0.62590000  0.10100000  1.0 0.1569004259
H  H100  1  0.90540000  0.77950000  0.88050000  1.0 0.1569004259
H  H101  1  0.47510000  0.87410000  0.59460000  1.0 0.1569004259
H  H102  1  0.62590000  0.02490000  0.90540000  1.0 0.1569004259
H  H103  1  0.77950000  0.39900000  0.87410000  1.0 0.1569004259
H  H104  1  0.87410000  0.77950000  0.39900000  1.0 0.1569004259
H  H105  1  0.02490000  0.61950000  0.39900000  1.0 0.1569004259
H  H106  1  0.39900000  0.02490000  0.61950000  1.0 0.1569004259
H  H107  1  0.61950000  0.72050000  0.59460000  1.0 0.1569004259
H  H108  1  0.02490000  0.90540000  0.62590000  1.0 0.1569004259
H  H109  1  0.59460000  0.47510000  0.87410000  1.0 0.1569004259
H  H110  1  0.72050000  0.59460000  0.61950000  1.0 0.1569004259
H  H111  1  0.10100000  0.72050000  0.62590000  1.0 0.1569004259
H  H112  1  0.47510000  0.10100000  0.88050000  1.0 0.1569004259
H  H113  1  0.88050000  0.90540000  0.77950000  1.0 0.1569004259
H  H114  1  0.10100000  0.88050000  0.47510000  1.0 0.1569004259
H  H115  1  0.90540000  0.62590000  0.02490000  1.0 0.1569004259
H  H116  1  0.39900000  0.87410000  0.77950000  1.0 0.1569004259
H  H117  1  0.61950000  0.39900000  0.02490000  1.0 0.1569004259
H  H118  1  0.59460000  0.61950000  0.72050000  1.0 0.1569004259
H  H119  1  0.87410000  0.59460000  0.47510000  1.0 0.1569004259
H  H120  1  0.62590000  0.10100000  0.72050000  1.0 0.1569004259
H  H121  1  0.22050000  0.11950000  0.09460000  1.0 0.1569004259
H  H122  1  0.11950000  0.52490000  0.89900000  1.0 0.1569004259
H  H123  1  0.27950000  0.37410000  0.89900000  1.0 0.1569004259
H  H124  1  0.09460000  0.22050000  0.11950000  1.0 0.1569004259
H  H125  1  0.52490000  0.12590000  0.40540000  1.0 0.1569004259
H  H126  1  0.37410000  0.97510000  0.09460000  1.0 0.1569004259
H  H127  1  0.22050000  0.60100000  0.12590000  1.0 0.1569004259
H  H128  1  0.12590000  0.22050000  0.60100000  1.0 0.1569004259
H  H129  1  0.97510000  0.38050000  0.60100000  1.0 0.1569004259
H  H130  1  0.60100000  0.97510000  0.38050000  1.0 0.1569004259
H  H131  1  0.38050000  0.27950000  0.40540000  1.0 0.1569004259
H  H132  1  0.97510000  0.09460000  0.37410000  1.0 0.1569004259
H  H133  1  0.40540000  0.52490000  0.12590000  1.0 0.1569004259
H  H134  1  0.27950000  0.40540000  0.38050000  1.0 0.1569004259
H  H135  1  0.89900000  0.27950000  0.37410000  1.0 0.1569004259
H  H136  1  0.52490000  0.89900000  0.11950000  1.0 0.1569004259
H  H137  1  0.11950000  0.09460000  0.22050000  1.0 0.1569004259
H  H138  1  0.89900000  0.11950000  0.52490000  1.0 0.1569004259
H  H139  1  0.09460000  0.37410000  0.97510000  1.0 0.1569004259
H  H140  1  0.60100000  0.12590000  0.22050000  1.0 0.1569004259
H  H141  1  0.38050000  0.60100000  0.97510000  1.0 0.1569004259
H  H142  1  0.40540000  0.38050000  0.27950000  1.0 0.1569004259
H  H143  1  0.12590000  0.40540000  0.52490000  1.0 0.1569004259
H  H144  1  0.37410000  0.89900000  0.27950000  1.0 0.1569004259
H  H145  1  0.86930000  0.90620000  0.95690000  1.0 0.1116796361
H  H146  1  0.90620000  0.44930000  0.03690000  1.0 0.1116796361
H  H147  1  0.63070000  0.58760000  0.03690000  1.0 0.1116796361
H  H148  1  0.95690000  0.86930000  0.90620000  1.0 0.1116796361
H  H149  1  0.44930000  0.91240000  0.54310000  1.0 0.1116796361
H  H150  1  0.58760000  0.05070000  0.95690000  1.0 0.1116796361
H  H151  1  0.86930000  0.46310000  0.91240000  1.0 0.1116796361
H  H152  1  0.91240000  0.86930000  0.46310000  1.0 0.1116796361
H  H153  1  0.05070000  0.59380000  0.46310000  1.0 0.1116796361
H  H154  1  0.46310000  0.05070000  0.59380000  1.0 0.1116796361
H  H155  1  0.59380000  0.63070000  0.54310000  1.0 0.1116796361
H  H156  1  0.05070000  0.95690000  0.58760000  1.0 0.1116796361
H  H157  1  0.54310000  0.44930000  0.91240000  1.0 0.1116796361
H  H158  1  0.63070000  0.54310000  0.59380000  1.0 0.1116796361
H  H159  1  0.03690000  0.63070000  0.58760000  1.0 0.1116796361
H  H160  1  0.44930000  0.03690000  0.90620000  1.0 0.1116796361
H  H161  1  0.90620000  0.95690000  0.86930000  1.0 0.1116796361
H  H162  1  0.03690000  0.90620000  0.44930000  1.0 0.1116796361
H  H163  1  0.95690000  0.58760000  0.05070000  1.0 0.1116796361
H  H164  1  0.46310000  0.91240000  0.86930000  1.0 0.1116796361
H  H165  1  0.59380000  0.46310000  0.05070000  1.0 0.1116796361
H  H166  1  0.54310000  0.59380000  0.63070000  1.0 0.1116796361
H  H167  1  0.91240000  0.54310000  0.44930000  1.0 0.1116796361
H  H168  1  0.58760000  0.03690000  0.63070000  1.0 0.1116796361
H  H169  1  0.13070000  0.09380000  0.04310000  1.0 0.1116796361
H  H170  1  0.09380000  0.55070000  0.96310000  1.0 0.1116796361
H  H171  1  0.36930000  0.41240000  0.96310000  1.0 0.1116796361
H  H172  1  0.04310000  0.13070000  0.09380000  1.0 0.1116796361
H  H173  1  0.55070000  0.08760000  0.45690000  1.0 0.1116796361
H  H174  1  0.41240000  0.94930000  0.04310000  1.0 0.1116796361
H  H175  1  0.13070000  0.53690000  0.08760000  1.0 0.1116796361
H  H176  1  0.08760000  0.13070000  0.53690000  1.0 0.1116796361
H  H177  1  0.94930000  0.40620000  0.53690000  1.0 0.1116796361
H  H178  1  0.53690000  0.94930000  0.40620000  1.0 0.1116796361
H  H179  1  0.40620000  0.36930000  0.45690000  1.0 0.1116796361
H  H180  1  0.94930000  0.04310000  0.41240000  1.0 0.1116796361
H  H181  1  0.45690000  0.55070000  0.08760000  1.0 0.1116796361
H  H182  1  0.36930000  0.45690000  0.40620000  1.0 0.1116796361
H  H183  1  0.96310000  0.36930000  0.41240000  1.0 0.1116796361
H  H184  1  0.55070000  0.96310000  0.09380000  1.0 0.1116796361
H  H185  1  0.09380000  0.04310000  0.13070000  1.0 0.1116796361
H  H186  1  0.96310000  0.09380000  0.55070000  1.0 0.1116796361
H  H187  1  0.04310000  0.41240000  0.94930000  1.0 0.1116796361
H  H188  1  0.53690000  0.08760000  0.13070000  1.0 0.1116796361
H  H189  1  0.40620000  0.53690000  0.94930000  1.0 0.1116796361
H  H190  1  0.45690000  0.40620000  0.36930000  1.0 0.1116796361
H  H191  1  0.08760000  0.45690000  0.55070000  1.0 0.1116796361
H  H192  1  0.41240000  0.96310000  0.36930000  1.0 0.1116796361
H  H193  1  0.77380000  0.91620000  0.80660000  1.0 0.1194524612
H  H194  1  0.91620000  0.60960000  0.14240000  1.0 0.1194524612
H  H195  1  0.72620000  0.53280000  0.14240000  1.0 0.1194524612
H  H196  1  0.80660000  0.77380000  0.91620000  1.0 0.1194524612
H  H197  1  0.60960000  0.96720000  0.69340000  1.0 0.1194524612
H  H198  1  0.53280000  0.89040000  0.80660000  1.0 0.1194524612
H  H199  1  0.77380000  0.35760000  0.96720000  1.0 0.1194524612
H  H200  1  0.96720000  0.77380000  0.35760000  1.0 0.1194524612
H  H201  1  0.89040000  0.58380000  0.35760000  1.0 0.1194524612
H  H202  1  0.35760000  0.89040000  0.58380000  1.0 0.1194524612
H  H203  1  0.58380000  0.72620000  0.69340000  1.0 0.1194524612
H  H204  1  0.89040000  0.80660000  0.53280000  1.0 0.1194524612
H  H205  1  0.69340000  0.60960000  0.96720000  1.0 0.1194524612
H  H206  1  0.72620000  0.69340000  0.58380000  1.0 0.1194524612
H  H207  1  0.14240000  0.72620000  0.53280000  1.0 0.1194524612
H  H208  1  0.60960000  0.14240000  0.91620000  1.0 0.1194524612
H  H209  1  0.91620000  0.80660000  0.77380000  1.0 0.1194524612
H  H210  1  0.14240000  0.91620000  0.60960000  1.0 0.1194524612
H  H211  1  0.80660000  0.53280000  0.89040000  1.0 0.1194524612
H  H212  1  0.35760000  0.96720000  0.77380000  1.0 0.1194524612
H  H213  1  0.58380000  0.35760000  0.89040000  1.0 0.1194524612
H  H214  1  0.69340000  0.58380000  0.72620000  1.0 0.1194524612
H  H215  1  0.96720000  0.69340000  0.60960000  1.0 0.1194524612
H  H216  1  0.53280000  0.14240000  0.72620000  1.0 0.1194524612
H  H217  1  0.22620000  0.08380000  0.19340000  1.0 0.1194524612
H  H218  1  0.08380000  0.39040000  0.85760000  1.0 0.1194524612
H  H219  1  0.27380000  0.46720000  0.85760000  1.0 0.1194524612
H  H220  1  0.19340000  0.22620000  0.08380000  1.0 0.1194524612
H  H221  1  0.39040000  0.03280000  0.30660000  1.0 0.1194524612
H  H222  1  0.46720000  0.10960000  0.19340000  1.0 0.1194524612
H  H223  1  0.22620000  0.64240000  0.03280000  1.0 0.1194524612
H  H224  1  0.03280000  0.22620000  0.64240000  1.0 0.1194524612
H  H225  1  0.10960000  0.41620000  0.64240000  1.0 0.1194524612
H  H226  1  0.64240000  0.10960000  0.41620000  1.0 0.1194524612
H  H227  1  0.41620000  0.27380000  0.30660000  1.0 0.1194524612
H  H228  1  0.10960000  0.19340000  0.46720000  1.0 0.1194524612
H  H229  1  0.30660000  0.39040000  0.03280000  1.0 0.1194524612
H  H230  1  0.27380000  0.30660000  0.41620000  1.0 0.1194524612
H  H231  1  0.85760000  0.27380000  0.46720000  1.0 0.1194524612
H  H232  1  0.39040000  0.85760000  0.08380000  1.0 0.1194524612
H  H233  1  0.08380000  0.19340000  0.22620000  1.0 0.1194524612
H  H234  1  0.85760000  0.08380000  0.39040000  1.0 0.1194524612
H  H235  1  0.19340000  0.46720000  0.10960000  1.0 0.1194524612
H  H236  1  0.64240000  0.03280000  0.22620000  1.0 0.1194524612
H  H237  1  0.41620000  0.64240000  0.10960000  1.0 0.1194524612
H  H238  1  0.30660000  0.41620000  0.27380000  1.0 0.1194524612
H  H239  1  0.03280000  0.30660000  0.39040000  1.0 0.1194524612
H  H240  1  0.46720000  0.85760000  0.27380000  1.0 0.1194524612
H  H241  1  0.72970000  0.91850000  0.75620000  1.0 0.1316173271
H  H242  1  0.91850000  0.66230000  0.18880000  1.0 0.1316173271
H  H243  1  0.77030000  0.52650000  0.18880000  1.0 0.1316173271
H  H244  1  0.75620000  0.72970000  0.91850000  1.0 0.1316173271
H  H245  1  0.66230000  0.97350000  0.74380000  1.0 0.1316173271
H  H246  1  0.52650000  0.83770000  0.75620000  1.0 0.1316173271
H  H247  1  0.72970000  0.31120000  0.97350000  1.0 0.1316173271
H  H248  1  0.97350000  0.72970000  0.31120000  1.0 0.1316173271
H  H249  1  0.83770000  0.58150000  0.31120000  1.0 0.1316173271
H  H250  1  0.31120000  0.83770000  0.58150000  1.0 0.1316173271
H  H251  1  0.58150000  0.77030000  0.74380000  1.0 0.1316173271
H  H252  1  0.83770000  0.75620000  0.52650000  1.0 0.1316173271
H  H253  1  0.74380000  0.66230000  0.97350000  1.0 0.1316173271
H  H254  1  0.77030000  0.74380000  0.58150000  1.0 0.1316173271
H  H255  1  0.18880000  0.77030000  0.52650000  1.0 0.1316173271
H  H256  1  0.66230000  0.18880000  0.91850000  1.0 0.1316173271
H  H257  1  0.91850000  0.75620000  0.72970000  1.0 0.1316173271
H  H258  1  0.18880000  0.91850000  0.66230000  1.0 0.1316173271
H  H259  1  0.75620000  0.52650000  0.83770000  1.0 0.1316173271
H  H260  1  0.31120000  0.97350000  0.72970000  1.0 0.1316173271
H  H261  1  0.58150000  0.31120000  0.83770000  1.0 0.1316173271
H  H262  1  0.74380000  0.58150000  0.77030000  1.0 0.1316173271
H  H263  1  0.97350000  0.74380000  0.66230000  1.0 0.1316173271
H  H264  1  0.52650000  0.18880000  0.77030000  1.0 0.1316173271
H  H265  1  0.27030000  0.08150000  0.24380000  1.0 0.1316173271
H  H266  1  0.08150000  0.33770000  0.81120000  1.0 0.1316173271
H  H267  1  0.22970000  0.47350000  0.81120000  1.0 0.1316173271
H  H268  1  0.24380000  0.27030000  0.08150000  1.0 0.1316173271
H  H269  1  0.33770000  0.02650000  0.25620000  1.0 0.1316173271
H  H270  1  0.47350000  0.16230000  0.24380000  1.0 0.1316173271
H  H271  1  0.27030000  0.68880000  0.02650000  1.0 0.1316173271
H  H272  1  0.02650000  0.27030000  0.68880000  1.0 0.1316173271
H  H273  1  0.16230000  0.41850000  0.68880000  1.0 0.1316173271
H  H274  1  0.68880000  0.16230000  0.41850000  1.0 0.1316173271
H  H275  1  0.41850000  0.22970000  0.25620000  1.0 0.1316173271
H  H276  1  0.16230000  0.24380000  0.47350000  1.0 0.1316173271
H  H277  1  0.25620000  0.33770000  0.02650000  1.0 0.1316173271
H  H278  1  0.22970000  0.25620000  0.41850000  1.0 0.1316173271
H  H279  1  0.81120000  0.22970000  0.47350000  1.0 0.1316173271
H  H280  1  0.33770000  0.81120000  0.08150000  1.0 0.1316173271
H  H281  1  0.08150000  0.24380000  0.27030000  1.0 0.1316173271
H  H282  1  0.81120000  0.08150000  0.33770000  1.0 0.1316173271
H  H283  1  0.24380000  0.47350000  0.16230000  1.0 0.1316173271
H  H284  1  0.68880000  0.02650000  0.27030000  1.0 0.1316173271
H  H285  1  0.41850000  0.68880000  0.16230000  1.0 0.1316173271
H  H286  1  0.25620000  0.41850000  0.22970000  1.0 0.1316173271
H  H287  1  0.02650000  0.25620000  0.33770000  1.0 0.1316173271
H  H288  1  0.47350000  0.81120000  0.22970000  1.0 0.1316173271
H  H289  1  0.71580000  0.85840000  0.75440000  1.0 0.1194524612
H  H290  1  0.85840000  0.60400000  0.14260000  1.0 0.1194524612
H  H291  1  0.78420000  0.53860000  0.14260000  1.0 0.1194524612
H  H292  1  0.75440000  0.71580000  0.85840000  1.0 0.1194524612
H  H293  1  0.60400000  0.96140000  0.74560000  1.0 0.1194524612
H  H294  1  0.53860000  0.89600000  0.75440000  1.0 0.1194524612
H  H295  1  0.71580000  0.35740000  0.96140000  1.0 0.1194524612
H  H296  1  0.96140000  0.71580000  0.35740000  1.0 0.1194524612
H  H297  1  0.89600000  0.64160000  0.35740000  1.0 0.1194524612
H  H298  1  0.35740000  0.89600000  0.64160000  1.0 0.1194524612
H  H299  1  0.64160000  0.78420000  0.74560000  1.0 0.1194524612
H  H300  1  0.89600000  0.75440000  0.53860000  1.0 0.1194524612
H  H301  1  0.74560000  0.60400000  0.96140000  1.0 0.1194524612
H  H302  1  0.78420000  0.74560000  0.64160000  1.0 0.1194524612
H  H303  1  0.14260000  0.78420000  0.53860000  1.0 0.1194524612
H  H304  1  0.60400000  0.14260000  0.85840000  1.0 0.1194524612
H  H305  1  0.85840000  0.75440000  0.71580000  1.0 0.1194524612
H  H306  1  0.14260000  0.85840000  0.60400000  1.0 0.1194524612
H  H307  1  0.75440000  0.53860000  0.89600000  1.0 0.1194524612
H  H308  1  0.35740000  0.96140000  0.71580000  1.0 0.1194524612
H  H309  1  0.64160000  0.35740000  0.89600000  1.0 0.1194524612
H  H310  1  0.74560000  0.64160000  0.78420000  1.0 0.1194524612
H  H311  1  0.96140000  0.74560000  0.60400000  1.0 0.1194524612
H  H312  1  0.53860000  0.14260000  0.78420000  1.0 0.1194524612
H  H313  1  0.28420000  0.14160000  0.24560000  1.0 0.1194524612
H  H314  1  0.14160000  0.39600000  0.85740000  1.0 0.1194524612
H  H315  1  0.21580000  0.46140000  0.85740000  1.0 0.1194524612
H  H316  1  0.24560000  0.28420000  0.14160000  1.0 0.1194524612
H  H317  1  0.39600000  0.03860000  0.25440000  1.0 0.1194524612
H  H318  1  0.46140000  0.10400000  0.24560000  1.0 0.1194524612
H  H319  1  0.28420000  0.64260000  0.03860000  1.0 0.1194524612
H  H320  1  0.03860000  0.28420000  0.64260000  1.0 0.1194524612
H  H321  1  0.10400000  0.35840000  0.64260000  1.0 0.1194524612
H  H322  1  0.64260000  0.10400000  0.35840000  1.0 0.1194524612
H  H323  1  0.35840000  0.21580000  0.25440000  1.0 0.1194524612
H  H324  1  0.10400000  0.24560000  0.46140000  1.0 0.1194524612
H  H325  1  0.25440000  0.39600000  0.03860000  1.0 0.1194524612
H  H326  1  0.21580000  0.25440000  0.35840000  1.0 0.1194524612
H  H327  1  0.85740000  0.21580000  0.46140000  1.0 0.1194524612
H  H328  1  0.39600000  0.85740000  0.14160000  1.0 0.1194524612
H  H329  1  0.14160000  0.24560000  0.28420000  1.0 0.1194524612
H  H330  1  0.85740000  0.14160000  0.39600000  1.0 0.1194524612
H  H331  1  0.24560000  0.46140000  0.10400000  1.0 0.1194524612
H  H332  1  0.64260000  0.03860000  0.28420000  1.0 0.1194524612
H  H333  1  0.35840000  0.64260000  0.10400000  1.0 0.1194524612
H  H334  1  0.25440000  0.35840000  0.21580000  1.0 0.1194524612
H  H335  1  0.03860000  0.25440000  0.39600000  1.0 0.1194524612
H  H336  1  0.46140000  0.85740000  0.21580000  1.0 0.1194524612
H  H337  1  0.71120000  0.99240000  0.98840000  1.0 -0.001708418
H  H338  1  0.99240000  0.50400000  0.28120000  1.0 -0.001708418
H  H339  1  0.78880000  0.77720000  0.28120000  1.0 -0.001708418
H  H340  1  0.98840000  0.71120000  0.99240000  1.0 -0.001708418
H  H341  1  0.50400000  0.72280000  0.51160000  1.0 -0.001708418
H  H342  1  0.77720000  0.99600000  0.98840000  1.0 -0.001708418
H  H343  1  0.71120000  0.21880000  0.72280000  1.0 -0.001708418
H  H344  1  0.72280000  0.71120000  0.21880000  1.0 -0.001708418
H  H345  1  0.99600000  0.50760000  0.21880000  1.0 -0.001708418
H  H346  1  0.21880000  0.99600000  0.50760000  1.0 -0.001708418
H  H347  1  0.50760000  0.78880000  0.51160000  1.0 -0.001708418
H  H348  1  0.99600000  0.98840000  0.77720000  1.0 -0.001708418
H  H349  1  0.51160000  0.50400000  0.72280000  1.0 -0.001708418
H  H350  1  0.78880000  0.51160000  0.50760000  1.0 -0.001708418
H  H351  1  0.28120000  0.78880000  0.77720000  1.0 -0.001708418
H  H352  1  0.50400000  0.28120000  0.99240000  1.0 -0.001708418
H  H353  1  0.99240000  0.98840000  0.71120000  1.0 -0.001708418
H  H354  1  0.28120000  0.99240000  0.50400000  1.0 -0.0069873248
H  H355  1  0.98840000  0.77720000  0.99600000  1.0 -0.001708418
H  H356  1  0.21880000  0.72280000  0.71120000  1.0 -0.001708418
H  H357  1  0.50760000  0.21880000  0.99600000  1.0 -0.001708418
H  H358  1  0.51160000  0.50760000  0.78880000  1.0 -0.001708418
H  H359  1  0.72280000  0.51160000  0.50400000  1.0 0.004145931
H  H360  1  0.77720000  0.28120000  0.78880000  1.0 -0.001708418
H  H361  1  0.28880000  0.00760000  0.01160000  1.0 -0.001708418
H  H362  1  0.00760000  0.49600000  0.71880000  1.0 -0.001708418
H  H363  1  0.21120000  0.22280000  0.71880000  1.0 -0.001708418
H  H364  1  0.01160000  0.28880000  0.00760000  1.0 -0.001708418
H  H365  1  0.49600000  0.27720000  0.48840000  1.0 -0.001708418
H  H366  1  0.22280000  0.00400000  0.01160000  1.0 -0.001708418
H  H367  1  0.28880000  0.78120000  0.27720000  1.0 -0.001708418
H  H368  1  0.27720000  0.28880000  0.78120000  1.0 -0.001708418
H  H369  1  0.00400000  0.49240000  0.78120000  1.0 -0.001708418
H  H370  1  0.78120000  0.00400000  0.49240000  1.0 -0.001708418
H  H371  1  0.49240000  0.21120000  0.48840000  1.0 -0.001708418
H  H372  1  0.00400000  0.01160000  0.22280000  1.0 -0.001708418
H  H373  1  0.48840000  0.49600000  0.27720000  1.0 -0.001708418
H  H374  1  0.21120000  0.48840000  0.49240000  1.0 -0.001708418
H  H375  1  0.71880000  0.21120000  0.22280000  1.0 -0.001708418
H  H376  1  0.49600000  0.71880000  0.00760000  1.0 -0.001708418
H  H377  1  0.00760000  0.01160000  0.28880000  1.0 -0.001708418
H  H378  1  0.71880000  0.00760000  0.49600000  1.0 -0.001708418
H  H379  1  0.01160000  0.22280000  0.00400000  1.0 -0.001708418
H  H380  1  0.78120000  0.27720000  0.28880000  1.0 -0.0069873248
H  H381  1  0.49240000  0.78120000  0.00400000  1.0 -0.001708418
H  H382  1  0.48840000  0.49240000  0.21120000  1.0 -0.001708418
H  H383  1  0.27720000  0.48840000  0.49600000  1.0 -0.001708418
H  H384  1  0.22280000  0.71880000  0.21120000  1.0 -0.001708418
H  H385  1  0.76910000  0.02480000  0.98830000  1.0 0.0073655177
H  H386  1  0.02480000  0.53650000  0.25570000  1.0 0.004145931
H  H387  1  0.73090000  0.71920000  0.25570000  1.0 0.0073655177
H  H388  1  0.98830000  0.76910000  0.02480000  1.0 0.0073655177
H  H389  1  0.53650000  0.78080000  0.51170000  1.0 0.004145931
H  H390  1  0.71920000  0.96350000  0.98830000  1.0 0.0073655177
H  H391  1  0.76910000  0.24430000  0.78080000  1.0 0.0073655177
H  H392  1  0.78080000  0.76910000  0.24430000  1.0 0.0073655177
H  H393  1  0.96350000  0.47520000  0.24430000  1.0 0.0073655177
H  H394  1  0.24430000  0.96350000  0.47520000  1.0 0.004145931
H  H395  1  0.47520000  0.73090000  0.51170000  1.0 -0.001708418
H  H396  1  0.96350000  0.98830000  0.71920000  1.0 0.0073655177
H  H397  1  0.51170000  0.53650000  0.78080000  1.0 0.004145931
H  H398  1  0.73090000  0.51170000  0.47520000  1.0 0.0073655177
H  H399  1  0.25570000  0.73090000  0.71920000  1.0 0.004145931
H  H400  1  0.53650000  0.25570000  0.02480000  1.0 0.0073655177
H  H401  1  0.02480000  0.98830000  0.76910000  1.0 0.004145931
H  H402  1  0.25570000  0.02480000  0.53650000  1.0 0.004145931
H  H403  1  0.98830000  0.71920000  0.96350000  1.0 0.0073655177
H  H404  1  0.24430000  0.78080000  0.76910000  1.0 0.004145931
H  H405  1  0.47520000  0.24430000  0.96350000  1.0 0.0073655177
H  H406  1  0.51170000  0.47520000  0.73090000  1.0 0.004145931
H  H407  1  0.78080000  0.51170000  0.53650000  1.0 0.0073655177
H  H408  1  0.71920000  0.25570000  0.73090000  1.0 0.0073655177
H  H409  1  0.23090000  0.97520000  0.01170000  1.0 0.004145931
H  H410  1  0.97520000  0.46350000  0.74430000  1.0 0.0073655177
H  H411  1  0.26910000  0.28080000  0.74430000  1.0 0.004145931
H  H412  1  0.01170000  0.23090000  0.97520000  1.0 0.004145931
H  H413  1  0.46350000  0.21920000  0.48830000  1.0 0.004145931
H  H414  1  0.28080000  0.03650000  0.01170000  1.0 0.004145931
H  H415  1  0.23090000  0.75570000  0.21920000  1.0 0.0073655177
H  H416  1  0.21920000  0.23090000  0.75570000  1.0 0.004145931
H  H417  1  0.03650000  0.52480000  0.75570000  1.0 0.004145931
H  H418  1  0.75570000  0.03650000  0.52480000  1.0 0.0073655177
H  H419  1  0.52480000  0.26910000  0.48830000  1.0 0.004145931
H  H420  1  0.03650000  0.01170000  0.28080000  1.0 -0.001708418
H  H421  1  0.48830000  0.46350000  0.21920000  1.0 0.004145931
H  H422  1  0.26910000  0.48830000  0.52480000  1.0 0.004145931
H  H423  1  0.74430000  0.26910000  0.28080000  1.0 0.0073655177
H  H424  1  0.46350000  0.74430000  0.97520000  1.0 0.004145931
H  H425  1  0.97520000  0.01170000  0.23090000  1.0 0.004145931
H  H426  1  0.74430000  0.97520000  0.46350000  1.0 0.0073655177
H  H427  1  0.01170000  0.28080000  0.03650000  1.0 0.004145931
H  H428  1  0.75570000  0.21920000  0.23090000  1.0 0.0073655177
H  H429  1  0.52480000  0.75570000  0.03650000  1.0 0.004145931
H  H430  1  0.48830000  0.52480000  0.26910000  1.0 0.004145931
H  H431  1  0.21920000  0.48830000  0.46350000  1.0 0.004145931
H  H432  1  0.28080000  0.74430000  0.26910000  1.0 0.0073655177
H  H433  1  0.75220000  0.96530000  0.98830000  1.0 0.0073655177
H  H434  1  0.96530000  0.47700000  0.21310000  1.0 0.0073655177
H  H435  1  0.74780000  0.73610000  0.21310000  1.0 0.0073655177
H  H436  1  0.98830000  0.75220000  0.96530000  1.0 0.0073655177
H  H437  1  0.47700000  0.76390000  0.51170000  1.0 0.0073655177
H  H438  1  0.73610000  0.02300000  0.98830000  1.0 0.0073655177
H  H439  1  0.75220000  0.28690000  0.76390000  1.0 0.0073655177
H  H440  1  0.76390000  0.75220000  0.28690000  1.0 0.0073655177
H  H441  1  0.02300000  0.53470000  0.28690000  1.0 0.0073655177
H  H442  1  0.28690000  0.02300000  0.53470000  1.0 0.0073655177
H  H443  1  0.53470000  0.74780000  0.51170000  1.0 0.0073655177
H  H444  1  0.02300000  0.98830000  0.73610000  1.0 0.0073655177
H  H445  1  0.51170000  0.47700000  0.76390000  1.0 0.0073655177
H  H446  1  0.74780000  0.51170000  0.53470000  1.0 0.004145931
H  H447  1  0.21310000  0.74780000  0.73610000  1.0 0.0073655177
H  H448  1  0.47700000  0.21310000  0.96530000  1.0 0.0073655177
H  H449  1  0.96530000  0.98830000  0.75220000  1.0 0.0073655177
H  H450  1  0.21310000  0.96530000  0.47700000  1.0 0.0073655177
H  H451  1  0.98830000  0.73610000  0.02300000  1.0 0.0073655177
H  H452  1  0.28690000  0.76390000  0.75220000  1.0 0.0073655177
H  H453  1  0.53470000  0.28690000  0.02300000  1.0 0.004145931
H  H454  1  0.51170000  0.53470000  0.74780000  1.0 0.0073655177
H  H455  1  0.76390000  0.51170000  0.47700000  1.0 0.0073655177
H  H456  1  0.73610000  0.21310000  0.74780000  1.0 0.0073655177
H  H457  1  0.24780000  0.03470000  0.01170000  1.0 0.0073655177
H  H458  1  0.03470000  0.52300000  0.78690000  1.0 0.0073655177
H  H459  1  0.25220000  0.26390000  0.78690000  1.0 0.0073655177
H  H460  1  0.01170000  0.24780000  0.03470000  1.0 0.0073655177
H  H461  1  0.52300000  0.23610000  0.48830000  1.0 0.0073655177
H  H462  1  0.26390000  0.97700000  0.01170000  1.0 0.0073655177
H  H463  1  0.24780000  0.71310000  0.23610000  1.0 0.0073655177
H  H464  1  0.23610000  0.24780000  0.71310000  1.0 0.0073655177
H  H465  1  0.97700000  0.46530000  0.71310000  1.0 0.0073655177
H  H466  1  0.71310000  0.97700000  0.46530000  1.0 0.0073655177
H  H467  1  0.46530000  0.25220000  0.48830000  1.0 0.0073655177
H  H468  1  0.97700000  0.01170000  0.26390000  1.0 0.0073655177
H  H469  1  0.48830000  0.52300000  0.23610000  1.0 0.0073655177
H  H470  1  0.25220000  0.48830000  0.46530000  1.0 0.0073655177
H  H471  1  0.78690000  0.25220000  0.26390000  1.0 0.0073655177
H  H472  1  0.52300000  0.78690000  0.03470000  1.0 0.0073655177
H  H473  1  0.03470000  0.01170000  0.24780000  1.0 0.0073655177
H  H474  1  0.78690000  0.03470000  0.52300000  1.0 0.0073655177
H  H475  1  0.01170000  0.26390000  0.97700000  1.0 0.0073655177
H  H476  1  0.71310000  0.23610000  0.24780000  1.0 0.0073655177
H  H477  1  0.46530000  0.71310000  0.97700000  1.0 0.0073655177
H  H478  1  0.48830000  0.46530000  0.25220000  1.0 0.0073655177
H  H479  1  0.23610000  0.48830000  0.52300000  1.0 0.0073655177
H  H480  1  0.26390000  0.78690000  0.25220000  1.0 0.0073655177
C  C1  1  0.89688000  0.02193000  0.95929000  1.0 0.0695087701
C  C2  1  0.02193000  0.56264000  0.12505000  1.0 0.0695087701
C  C3  1  0.60312000  0.56241000  0.12505000  1.0 0.0695087701
C  C4  1  0.95929000  0.89688000  0.02193000  1.0 0.0695087701
C  C5  1  0.56264000  0.93759000  0.54071000  1.0 0.0695087701
C  C6  1  0.56241000  0.93736000  0.95929000  1.0 0.0695087701
C  C7  1  0.89688000  0.37495000  0.93759000  1.0 0.0695087701
C  C8  1  0.93759000  0.89688000  0.37495000  1.0 0.0695087701
C  C9  1  0.93736000  0.47807000  0.37495000  1.0 0.0695087701
C  C10  1  0.37495000  0.93736000  0.47807000  1.0 0.0695087701
C  C11  1  0.47807000  0.60312000  0.54071000  1.0 0.0695087701
C  C12  1  0.93736000  0.95929000  0.56241000  1.0 0.0695087701
C  C13  1  0.54071000  0.56264000  0.93759000  1.0 0.0695087701
C  C14  1  0.60312000  0.54071000  0.47807000  1.0 0.0695087701
C  C15  1  0.12505000  0.60312000  0.56241000  1.0 0.0695087701
C  C16  1  0.56264000  0.12505000  0.02193000  1.0 0.0695087701
C  C17  1  0.02193000  0.95929000  0.89688000  1.0 0.0695087701
C  C18  1  0.12505000  0.02193000  0.56264000  1.0 0.0695087701
C  C19  1  0.95929000  0.56241000  0.93736000  1.0 0.0695087701
C  C20  1  0.37495000  0.93759000  0.89688000  1.0 0.0695087701
C  C21  1  0.47807000  0.37495000  0.93736000  1.0 0.0695087701
C  C22  1  0.54071000  0.47807000  0.60312000  1.0 0.0695087701
C  C23  1  0.93759000  0.54071000  0.56264000  1.0 0.0695087701
C  C24  1  0.56241000  0.12505000  0.60312000  1.0 0.0695087701
C  C25  1  0.10312000  0.97807000  0.04071000  1.0 0.0695087701
C  C26  1  0.97807000  0.43736000  0.87495000  1.0 0.0695087701
C  C27  1  0.39688000  0.43759000  0.87495000  1.0 0.0695087701
C  C28  1  0.04071000  0.10312000  0.97807000  1.0 0.0695087701
C  C29  1  0.43736000  0.06241000  0.45929000  1.0 0.0695087701
C  C30  1  0.43759000  0.06264000  0.04071000  1.0 0.0695087701
C  C31  1  0.10312000  0.62505000  0.06241000  1.0 0.0695087701
C  C32  1  0.06241000  0.10312000  0.62505000  1.0 0.0695087701
C  C33  1  0.06264000  0.52193000  0.62505000  1.0 0.0695087701
C  C34  1  0.62505000  0.06264000  0.52193000  1.0 0.0695087701
C  C35  1  0.52193000  0.39688000  0.45929000  1.0 0.0695087701
C  C36  1  0.06264000  0.04071000  0.43759000  1.0 0.0695087701
C  C37  1  0.45929000  0.43736000  0.06241000  1.0 0.0695087701
C  C38  1  0.39688000  0.45929000  0.52193000  1.0 0.0695087701
C  C39  1  0.87495000  0.39688000  0.43759000  1.0 0.0695087701
C  C40  1  0.43736000  0.87495000  0.97807000  1.0 0.0695087701
C  C41  1  0.97807000  0.04071000  0.10312000  1.0 0.0695087701
C  C42  1  0.87495000  0.97807000  0.43736000  1.0 0.0695087701
C  C43  1  0.04071000  0.43759000  0.06264000  1.0 0.0695087701
C  C44  1  0.62505000  0.06241000  0.10312000  1.0 0.0695087701
C  C45  1  0.52193000  0.62505000  0.06264000  1.0 0.0695087701
C  C46  1  0.45929000  0.52193000  0.39688000  1.0 0.0695087701
C  C47  1  0.06241000  0.45929000  0.43736000  1.0 0.0695087701
C  C48  1  0.43759000  0.87495000  0.39688000  1.0 0.0695087701
C  C49  1  0.83690000  0.00921000  0.92691000  1.0 -0.1896196711
C  C50  1  0.00921000  0.58230000  0.17231000  1.0 -0.1896196711
C  C51  1  0.66310000  0.59001000  0.17231000  1.0 -0.1896196711
C  C52  1  0.92691000  0.83690000  0.00921000  1.0 -0.1896196711
C  C53  1  0.58230000  0.90999000  0.57309000  1.0 -0.1896196711
C  C54  1  0.59001000  0.91770000  0.92691000  1.0 -0.1896196711
C  C55  1  0.83690000  0.32769000  0.90999000  1.0 -0.1896196711
C  C56  1  0.90999000  0.83690000  0.32769000  1.0 -0.1896196711
C  C57  1  0.91770000  0.49079000  0.32769000  1.0 -0.1896196711
C  C58  1  0.32769000  0.91770000  0.49079000  1.0 -0.1896196711
C  C59  1  0.49079000  0.66310000  0.57309000  1.0 -0.1896196711
C  C60  1  0.91770000  0.92691000  0.59001000  1.0 -0.1896196711
C  C61  1  0.57309000  0.58230000  0.90999000  1.0 -0.1896196711
C  C62  1  0.66310000  0.57309000  0.49079000  1.0 -0.1896196711
C  C63  1  0.17231000  0.66310000  0.59001000  1.0 -0.1896196711
C  C64  1  0.58230000  0.17231000  0.00921000  1.0 -0.1896196711
C  C65  1  0.00921000  0.92691000  0.83690000  1.0 -0.1896196711
C  C66  1  0.17231000  0.00921000  0.58230000  1.0 -0.1896196711
C  C67  1  0.92691000  0.59001000  0.91770000  1.0 -0.1896196711
C  C68  1  0.32769000  0.90999000  0.83690000  1.0 -0.1896196711
C  C69  1  0.49079000  0.32769000  0.91770000  1.0 -0.1896196711
C  C70  1  0.57309000  0.49079000  0.66310000  1.0 -0.1896196711
C  C71  1  0.90999000  0.57309000  0.58230000  1.0 -0.1896196711
C  C72  1  0.59001000  0.17231000  0.66310000  1.0 -0.1896196711
C  C73  1  0.16310000  0.99079000  0.07309000  1.0 -0.1896196711
C  C74  1  0.99079000  0.41770000  0.82769000  1.0 -0.1896196711
C  C75  1  0.33690000  0.40999000  0.82769000  1.0 -0.1896196711
C  C76  1  0.07309000  0.16310000  0.99079000  1.0 -0.1896196711
C  C77  1  0.41770000  0.09001000  0.42691000  1.0 -0.1896196711
C  C78  1  0.40999000  0.08230000  0.07309000  1.0 -0.1896196711
C  C79  1  0.16310000  0.67231000  0.09001000  1.0 -0.1896196711
C  C80  1  0.09001000  0.16310000  0.67231000  1.0 -0.1896196711
C  C81  1  0.08230000  0.50921000  0.67231000  1.0 -0.1896196711
C  C82  1  0.67231000  0.08230000  0.50921000  1.0 -0.1896196711
C  C83  1  0.50921000  0.33690000  0.42691000  1.0 -0.1896196711
C  C84  1  0.08230000  0.07309000  0.40999000  1.0 -0.1896196711
C  C85  1  0.42691000  0.41770000  0.09001000  1.0 -0.1896196711
C  C86  1  0.33690000  0.42691000  0.50921000  1.0 -0.1896196711
C  C87  1  0.82769000  0.33690000  0.40999000  1.0 -0.1896196711
C  C88  1  0.41770000  0.82769000  0.99079000  1.0 -0.1896196711
C  C89  1  0.99079000  0.07309000  0.16310000  1.0 -0.1896196711
C  C90  1  0.82769000  0.99079000  0.41770000  1.0 -0.1896196711
C  C91  1  0.07309000  0.40999000  0.08230000  1.0 -0.1896196711
C  C92  1  0.67231000  0.09001000  0.16310000  1.0 -0.1896196711
C  C93  1  0.50921000  0.67231000  0.08230000  1.0 -0.1896196711
C  C94  1  0.42691000  0.50921000  0.33690000  1.0 -0.1896196711
C  C95  1  0.09001000  0.42691000  0.41770000  1.0 -0.1896196711
C  C96  1  0.40999000  0.82769000  0.33690000  1.0 -0.1896196711
C  C97  1  0.79307000  0.95518000  0.90793000  1.0 0.0864977761
C  C98  1  0.95518000  0.54725000  0.16211000  1.0 0.0864977761
C  C99  1  0.70693000  0.61486000  0.16211000  1.0 0.0864977761
C  C100  1  0.90793000  0.79307000  0.95518000  1.0 0.0864977761
C  C101  1  0.54725000  0.88514000  0.59207000  1.0 0.0864977761
C  C102  1  0.61486000  0.95275000  0.90793000  1.0 0.0864977761
C  C103  1  0.79307000  0.33789000  0.88514000  1.0 0.0864977761
C  C104  1  0.88514000  0.79307000  0.33789000  1.0 0.0864977761
C  C105  1  0.95275000  0.54482000  0.33789000  1.0 0.0864977761
C  C106  1  0.33789000  0.95275000  0.54482000  1.0 0.0864977761
C  C107  1  0.54482000  0.70693000  0.59207000  1.0 0.0864977761
C  C108  1  0.95275000  0.90793000  0.61486000  1.0 0.0864977761
C  C109  1  0.59207000  0.54725000  0.88514000  1.0 0.0864977761
C  C110  1  0.70693000  0.59207000  0.54482000  1.0 0.0864977761
C  C111  1  0.16211000  0.70693000  0.61486000  1.0 0.0864977761
C  C112  1  0.54725000  0.16211000  0.95518000  1.0 0.0864977761
C  C113  1  0.95518000  0.90793000  0.79307000  1.0 0.0864977761
C  C114  1  0.16211000  0.95518000  0.54725000  1.0 0.0864977761
C  C115  1  0.90793000  0.61486000  0.95275000  1.0 0.0864977761
C  C116  1  0.33789000  0.88514000  0.79307000  1.0 0.0864977761
C  C117  1  0.54482000  0.33789000  0.95275000  1.0 0.0864977761
C  C118  1  0.59207000  0.54482000  0.70693000  1.0 0.0864977761
C  C119  1  0.88514000  0.59207000  0.54725000  1.0 0.0864977761
C  C120  1  0.61486000  0.16211000  0.70693000  1.0 0.0864977761
C  C121  1  0.20693000  0.04482000  0.09207000  1.0 0.0864977761
C  C122  1  0.04482000  0.45275000  0.83789000  1.0 0.0864977761
C  C123  1  0.29307000  0.38514000  0.83789000  1.0 0.0864977761
C  C124  1  0.09207000  0.20693000  0.04482000  1.0 0.0864977761
C  C125  1  0.45275000  0.11486000  0.40793000  1.0 0.0864977761
C  C126  1  0.38514000  0.04725000  0.09207000  1.0 0.0864977761
C  C127  1  0.20693000  0.66211000  0.11486000  1.0 0.0864977761
C  C128  1  0.11486000  0.20693000  0.66211000  1.0 0.0864977761
C  C129  1  0.04725000  0.45518000  0.66211000  1.0 0.0864977761
C  C130  1  0.66211000  0.04725000  0.45518000  1.0 0.0864977761
C  C131  1  0.45518000  0.29307000  0.40793000  1.0 0.0864977761
C  C132  1  0.04725000  0.09207000  0.38514000  1.0 0.0864977761
C  C133  1  0.40793000  0.45275000  0.11486000  1.0 0.0864977761
C  C134  1  0.29307000  0.40793000  0.45518000  1.0 0.0864977761
C  C135  1  0.83789000  0.29307000  0.38514000  1.0 0.0864977761
C  C136  1  0.45275000  0.83789000  0.04482000  1.0 0.0864977761
C  C137  1  0.04482000  0.09207000  0.20693000  1.0 0.0864977761
C  C138  1  0.83789000  0.04482000  0.45275000  1.0 0.0864977761
C  C139  1  0.09207000  0.38514000  0.04725000  1.0 0.0864977761
C  C140  1  0.66211000  0.11486000  0.20693000  1.0 0.0864977761
C  C141  1  0.45518000  0.66211000  0.04725000  1.0 0.0864977761
C  C142  1  0.40793000  0.45518000  0.29307000  1.0 0.0864977761
C  C143  1  0.11486000  0.40793000  0.45275000  1.0 0.0864977761
C  C144  1  0.38514000  0.83789000  0.29307000  1.0 0.0864977761
C  C145  1  0.80852000  0.91822000  0.91910000  1.0 -0.171398627
C  C146  1  0.91822000  0.49912000  0.10970000  1.0 -0.171398627
C  C147  1  0.69148000  0.61058000  0.10970000  1.0 -0.171398627
C  C148  1  0.91910000  0.80852000  0.91822000  1.0 -0.171398627
C  C149  1  0.49912000  0.88942000  0.58090000  1.0 -0.171398627
C  C150  1  0.61058000  0.00088000  0.91910000  1.0 -0.171398627
C  C151  1  0.80852000  0.39030000  0.88942000  1.0 -0.171398627
C  C152  1  0.88942000  0.80852000  0.39030000  1.0 -0.171398627
C  C153  1  0.00088000  0.58178000  0.39030000  1.0 -0.171398627
C  C154  1  0.39030000  0.00088000  0.58178000  1.0 -0.171398627
C  C155  1  0.58178000  0.69148000  0.58090000  1.0 -0.171398627
C  C156  1  0.00088000  0.91910000  0.61058000  1.0 -0.171398627
C  C157  1  0.58090000  0.49912000  0.88942000  1.0 -0.171398627
C  C158  1  0.69148000  0.58090000  0.58178000  1.0 -0.171398627
C  C159  1  0.10970000  0.69148000  0.61058000  1.0 -0.171398627
C  C160  1  0.49912000  0.10970000  0.91822000  1.0 -0.171398627
C  C161  1  0.91822000  0.91910000  0.80852000  1.0 -0.171398627
C  C162  1  0.10970000  0.91822000  0.49912000  1.0 -0.171398627
C  C163  1  0.91910000  0.61058000  0.00088000  1.0 -0.171398627
C  C164  1  0.39030000  0.88942000  0.80852000  1.0 -0.171398627
C  C165  1  0.58178000  0.39030000  0.00088000  1.0 -0.171398627
C  C166  1  0.58090000  0.58178000  0.69148000  1.0 -0.171398627
C  C167  1  0.88942000  0.58090000  0.49912000  1.0 -0.171398627
C  C168  1  0.61058000  0.10970000  0.69148000  1.0 -0.171398627
C  C169  1  0.19148000  0.08178000  0.08090000  1.0 -0.171398627
C  C170  1  0.08178000  0.50088000  0.89030000  1.0 -0.171398627
C  C171  1  0.30852000  0.38942000  0.89030000  1.0 -0.171398627
C  C172  1  0.08090000  0.19148000  0.08178000  1.0 -0.171398627
C  C173  1  0.50088000  0.11058000  0.41910000  1.0 -0.171398627
C  C174  1  0.38942000  0.99912000  0.08090000  1.0 -0.171398627
C  C175  1  0.19148000  0.60970000  0.11058000  1.0 -0.171398627
C  C176  1  0.11058000  0.19148000  0.60970000  1.0 -0.171398627
C  C177  1  0.99912000  0.41822000  0.60970000  1.0 -0.171398627
C  C178  1  0.60970000  0.99912000  0.41822000  1.0 -0.171398627
C  C179  1  0.41822000  0.30852000  0.41910000  1.0 -0.171398627
C  C180  1  0.99912000  0.08090000  0.38942000  1.0 -0.171398627
C  C181  1  0.41910000  0.50088000  0.11058000  1.0 -0.171398627
C  C182  1  0.30852000  0.41910000  0.41822000  1.0 -0.171398627
C  C183  1  0.89030000  0.30852000  0.38942000  1.0 -0.171398627
C  C184  1  0.50088000  0.89030000  0.08178000  1.0 -0.171398627
C  C185  1  0.08178000  0.08090000  0.19148000  1.0 -0.171398627
C  C186  1  0.89030000  0.08178000  0.50088000  1.0 -0.171398627
C  C187  1  0.08090000  0.38942000  0.99912000  1.0 -0.171398627
C  C188  1  0.60970000  0.11058000  0.19148000  1.0 -0.171398627
C  C189  1  0.41822000  0.60970000  0.99912000  1.0 -0.171398627
C  C190  1  0.41910000  0.41822000  0.30852000  1.0 -0.171398627
C  C191  1  0.11058000  0.41910000  0.50088000  1.0 -0.171398627
C  C192  1  0.38942000  0.89030000  0.30852000  1.0 -0.171398627
C  C193  1  0.86215000  0.93332000  0.94809000  1.0 -0.0372874903
C  C194  1  0.93332000  0.48523000  0.07117000  1.0 -0.0372874903
C  C195  1  0.63785000  0.58594000  0.07117000  1.0 -0.0372874903
C  C196  1  0.94809000  0.86215000  0.93332000  1.0 -0.0372874903
C  C197  1  0.48523000  0.91406000  0.55191000  1.0 -0.0372874903
C  C198  1  0.58594000  0.01477000  0.94809000  1.0 -0.0372874903
C  C199  1  0.86215000  0.42883000  0.91406000  1.0 -0.0372874903
C  C200  1  0.91406000  0.86215000  0.42883000  1.0 -0.0372874903
C  C201  1  0.01477000  0.56668000  0.42883000  1.0 -0.0372874903
C  C202  1  0.42883000  0.01477000  0.56668000  1.0 -0.0372874903
C  C203  1  0.56668000  0.63785000  0.55191000  1.0 -0.0372874903
C  C204  1  0.01477000  0.94809000  0.58594000  1.0 -0.0372874903
C  C205  1  0.55191000  0.48523000  0.91406000  1.0 -0.0372874903
C  C206  1  0.63785000  0.55191000  0.56668000  1.0 -0.0372874903
C  C207  1  0.07117000  0.63785000  0.58594000  1.0 -0.0372874903
C  C208  1  0.48523000  0.07117000  0.93332000  1.0 -0.0372874903
C  C209  1  0.93332000  0.94809000  0.86215000  1.0 -0.0372874903
C  C210  1  0.07117000  0.93332000  0.48523000  1.0 -0.0372874903
C  C211  1  0.94809000  0.58594000  0.01477000  1.0 -0.0372874903
C  C212  1  0.42883000  0.91406000  0.86215000  1.0 -0.0372874903
C  C213  1  0.56668000  0.42883000  0.01477000  1.0 -0.0372874903
C  C214  1  0.55191000  0.56668000  0.63785000  1.0 -0.0372874903
C  C215  1  0.91406000  0.55191000  0.48523000  1.0 -0.0372874903
C  C216  1  0.58594000  0.07117000  0.63785000  1.0 -0.0372874903
C  C217  1  0.13785000  0.06668000  0.05191000  1.0 -0.0372874903
C  C218  1  0.06668000  0.51477000  0.92883000  1.0 -0.0372874903
C  C219  1  0.36215000  0.41406000  0.92883000  1.0 -0.0372874903
C  C220  1  0.05191000  0.13785000  0.06668000  1.0 -0.0372874903
C  C221  1  0.51477000  0.08594000  0.44809000  1.0 -0.0372874903
C  C222  1  0.41406000  0.98523000  0.05191000  1.0 -0.0372874903
C  C223  1  0.13785000  0.57117000  0.08594000  1.0 -0.0372874903
C  C224  1  0.08594000  0.13785000  0.57117000  1.0 -0.0372874903
C  C225  1  0.98523000  0.43332000  0.57117000  1.0 -0.0372874903
C  C226  1  0.57117000  0.98523000  0.43332000  1.0 -0.0372874903
C  C227  1  0.43332000  0.36215000  0.44809000  1.0 -0.0372874903
C  C228  1  0.98523000  0.05191000  0.41406000  1.0 -0.0372874903
C  C229  1  0.44809000  0.51477000  0.08594000  1.0 -0.0372874903
C  C230  1  0.36215000  0.44809000  0.43332000  1.0 -0.0372874903
C  C231  1  0.92883000  0.36215000  0.41406000  1.0 -0.0372874903
C  C232  1  0.51477000  0.92883000  0.06668000  1.0 -0.0372874903
C  C233  1  0.06668000  0.05191000  0.13785000  1.0 -0.0372874903
C  C234  1  0.92883000  0.06668000  0.51477000  1.0 -0.0372874903
C  C235  1  0.05191000  0.41406000  0.98523000  1.0 -0.0372874903
C  C236  1  0.57117000  0.08594000  0.13785000  1.0 -0.0372874903
C  C237  1  0.43332000  0.57117000  0.98523000  1.0 -0.0372874903
C  C238  1  0.44809000  0.43332000  0.36215000  1.0 -0.0372874903
C  C239  1  0.08594000  0.44809000  0.51477000  1.0 -0.0372874903
C  C240  1  0.41406000  0.92883000  0.36215000  1.0 -0.0372874903
C  C241  1  0.73714000  0.98714000  0.97428000  1.0 -0.1557043547
C  C242  1  0.98714000  0.51286000  0.25000000  1.0 -0.1531636934
C  C243  1  0.76286000  0.73714000  0.25000000  1.0 -0.1557043547
C  C244  1  0.97428000  0.73714000  0.98714000  1.0 -0.1557043547
C  C245  1  0.51286000  0.76286000  0.52572000  1.0 -0.1531636934
C  C246  1  0.73714000  0.25000000  0.76286000  1.0 -0.1531636934
C  C247  1  0.25000000  0.98714000  0.51286000  1.0 -0.1531636934
C  C248  1  0.98714000  0.97428000  0.73714000  1.0 -0.1557043547
C  C249  1  0.52572000  0.51286000  0.76286000  1.0 -0.1531636934
C  C250  1  0.76286000  0.52572000  0.51286000  1.0 -0.1557043547
C  C251  1  0.25000000  0.76286000  0.73714000  1.0 -0.1531636934
C  C252  1  0.51286000  0.25000000  0.98714000  1.0 -0.1531636934
C  C253  1  0.26286000  0.01286000  0.02572000  1.0 -0.1531636934
C  C254  1  0.01286000  0.48714000  0.75000000  1.0 -0.1531636934
C  C255  1  0.23714000  0.26286000  0.75000000  1.0 -0.1531636934
C  C256  1  0.02572000  0.26286000  0.01286000  1.0 -0.1531636934
C  C257  1  0.48714000  0.23714000  0.47428000  1.0 -0.1531636934
C  C258  1  0.26286000  0.75000000  0.23714000  1.0 -0.1557043547
C  C259  1  0.75000000  0.01286000  0.48714000  1.0 -0.1531636934
C  C260  1  0.01286000  0.02572000  0.26286000  1.0 -0.1531636934
C  C261  1  0.47428000  0.48714000  0.23714000  1.0 -0.1531636934
C  C262  1  0.23714000  0.47428000  0.48714000  1.0 -0.1531636934
C  C263  1  0.75000000  0.23714000  0.26286000  1.0 -0.1531636934
C  C264  1  0.48714000  0.75000000  0.01286000  1.0 -0.1531636934
C  C265  1  0.70201000  0.95201000  0.90402000  1.0 -0.0069873248
C  C266  1  0.95201000  0.54799000  0.25000000  1.0 -0.0069873248
C  C267  1  0.79799000  0.70201000  0.25000000  1.0 -0.0069873248
C  C268  1  0.90402000  0.70201000  0.95201000  1.0 -0.0069873248
C  C269  1  0.54799000  0.79799000  0.59598000  1.0 -0.0069873248
C  C270  1  0.70201000  0.25000000  0.79799000  1.0 -0.0069873248
C  C271  1  0.25000000  0.95201000  0.54799000  1.0 -0.0069873248
C  C272  1  0.95201000  0.90402000  0.70201000  1.0 -0.0069873248
C  C273  1  0.59598000  0.54799000  0.79799000  1.0 -0.0069873248
C  C274  1  0.79799000  0.59598000  0.54799000  1.0 -0.0069873248
C  C275  1  0.25000000  0.79799000  0.70201000  1.0 -0.0069873248
C  C276  1  0.54799000  0.25000000  0.95201000  1.0 -0.0069873248
C  C277  1  0.29799000  0.04799000  0.09598000  1.0 -0.0069873248
C  C278  1  0.04799000  0.45201000  0.75000000  1.0 -0.0069873248
C  C279  1  0.20201000  0.29799000  0.75000000  1.0 -0.0069873248
C  C280  1  0.09598000  0.29799000  0.04799000  1.0 -0.0069873248
C  C281  1  0.45201000  0.20201000  0.40402000  1.0 -0.0069873248
C  C282  1  0.29799000  0.75000000  0.20201000  1.0 -0.0069873248
C  C283  1  0.75000000  0.04799000  0.45201000  1.0 -0.0069873248
C  C284  1  0.04799000  0.09598000  0.29799000  1.0 -0.0069873248
C  C285  1  0.40402000  0.45201000  0.20201000  1.0 -0.0069873248
C  C286  1  0.20201000  0.40402000  0.45201000  1.0 -0.0069873248
C  C287  1  0.75000000  0.20201000  0.29799000  1.0 -0.0069873248
C  C288  1  0.45201000  0.75000000  0.04799000  1.0 -0.0069873248
C  C289  1  0.73173000  0.93978000  0.87527000  1.0 -0.0699441002
C  C290  1  0.93978000  0.56451000  0.20805000  1.0 -0.0699441002
C  C291  1  0.76827000  0.64354000  0.20805000  1.0 -0.0699441002
C  C292  1  0.87527000  0.73173000  0.93978000  1.0 -0.0699441002
C  C293  1  0.56451000  0.85646000  0.62473000  1.0 -0.0699441002
C  C294  1  0.64354000  0.93549000  0.87527000  1.0 -0.0699441002
C  C295  1  0.73173000  0.29195000  0.85646000  1.0 -0.0699441002
C  C296  1  0.85646000  0.73173000  0.29195000  1.0 -0.0699441002
C  C297  1  0.93549000  0.56022000  0.29195000  1.0 -0.0699441002
C  C298  1  0.29195000  0.93549000  0.56022000  1.0 -0.0699441002
C  C299  1  0.56022000  0.76827000  0.62473000  1.0 -0.0699441002
C  C300  1  0.93549000  0.87527000  0.64354000  1.0 -0.0699441002
C  C301  1  0.62473000  0.56451000  0.85646000  1.0 -0.0699441002
C  C302  1  0.76827000  0.62473000  0.56022000  1.0 -0.0699441002
C  C303  1  0.20805000  0.76827000  0.64354000  1.0 -0.0699441002
C  C304  1  0.56451000  0.20805000  0.93978000  1.0 -0.0699441002
C  C305  1  0.93978000  0.87527000  0.73173000  1.0 -0.0699441002
C  C306  1  0.20805000  0.93978000  0.56451000  1.0 -0.0699441002
C  C307  1  0.87527000  0.64354000  0.93549000  1.0 -0.0699441002
C  C308  1  0.29195000  0.85646000  0.73173000  1.0 -0.0699441002
C  C309  1  0.56022000  0.29195000  0.93549000  1.0 -0.0699441002
C  C310  1  0.62473000  0.56022000  0.76827000  1.0 -0.0699441002
C  C311  1  0.85646000  0.62473000  0.56451000  1.0 -0.0699441002
C  C312  1  0.64354000  0.20805000  0.76827000  1.0 -0.0699441002
C  C313  1  0.26827000  0.06022000  0.12473000  1.0 -0.0699441002
C  C314  1  0.06022000  0.43549000  0.79195000  1.0 -0.0699441002
C  C315  1  0.23173000  0.35646000  0.79195000  1.0 -0.0699441002
C  C316  1  0.12473000  0.26827000  0.06022000  1.0 -0.0699441002
C  C317  1  0.43549000  0.14354000  0.37527000  1.0 -0.0699441002
C  C318  1  0.35646000  0.06451000  0.12473000  1.0 -0.0699441002
C  C319  1  0.26827000  0.70805000  0.14354000  1.0 -0.0699441002
C  C320  1  0.14354000  0.26827000  0.70805000  1.0 -0.0699441002
C  C321  1  0.06451000  0.43978000  0.70805000  1.0 -0.0699441002
C  C322  1  0.70805000  0.06451000  0.43978000  1.0 -0.0699441002
C  C323  1  0.43978000  0.23173000  0.37527000  1.0 -0.0699441002
C  C324  1  0.06451000  0.12473000  0.35646000  1.0 -0.0699441002
C  C325  1  0.37527000  0.43549000  0.14354000  1.0 -0.0699441002
C  C326  1  0.23173000  0.37527000  0.43978000  1.0 -0.0699441002
C  C327  1  0.79195000  0.23173000  0.35646000  1.0 -0.0699441002
C  C328  1  0.43549000  0.79195000  0.06022000  1.0 -0.0699441002
C  C329  1  0.06022000  0.12473000  0.26827000  1.0 -0.0699441002
C  C330  1  0.79195000  0.06022000  0.43549000  1.0 -0.0699441002
C  C331  1  0.12473000  0.35646000  0.06451000  1.0 -0.0699441002
C  C332  1  0.70805000  0.14354000  0.26827000  1.0 -0.0699441002
C  C333  1  0.43978000  0.70805000  0.06451000  1.0 -0.0699441002
C  C334  1  0.37527000  0.43978000  0.23173000  1.0 -0.0699441002
C  C335  1  0.14354000  0.37527000  0.43549000  1.0 -0.0699441002
C  C336  1  0.35646000  0.79195000  0.23173000  1.0 -0.0699441002
C  C337  1  0.70110000  0.91026000  0.81376000  1.0 0.0695087701
C  C338  1  0.91026000  0.59650000  0.20916000  1.0 0.0695087701
C  C339  1  0.79890000  0.61266000  0.20916000  1.0 0.0695087701
C  C340  1  0.81376000  0.70110000  0.91026000  1.0 0.0695087701
C  C341  1  0.59650000  0.88734000  0.68624000  1.0 0.0695087701
C  C342  1  0.61266000  0.90350000  0.81376000  1.0 0.0695087701
C  C343  1  0.70110000  0.29084000  0.88734000  1.0 0.0695087701
C  C344  1  0.88734000  0.70110000  0.29084000  1.0 0.0695087701
C  C345  1  0.90350000  0.58974000  0.29084000  1.0 0.0695087701
C  C346  1  0.29084000  0.90350000  0.58974000  1.0 0.0695087701
C  C347  1  0.58974000  0.79890000  0.68624000  1.0 0.0695087701
C  C348  1  0.90350000  0.81376000  0.61266000  1.0 0.0695087701
C  C349  1  0.68624000  0.59650000  0.88734000  1.0 0.0695087701
C  C350  1  0.79890000  0.68624000  0.58974000  1.0 0.0695087701
C  C351  1  0.20916000  0.79890000  0.61266000  1.0 0.0695087701
C  C352  1  0.59650000  0.20916000  0.91026000  1.0 0.0695087701
C  C353  1  0.91026000  0.81376000  0.70110000  1.0 0.0695087701
C  C354  1  0.20916000  0.91026000  0.59650000  1.0 0.0695087701
C  C355  1  0.81376000  0.61266000  0.90350000  1.0 0.0695087701
C  C356  1  0.29084000  0.88734000  0.70110000  1.0 0.0695087701
C  C357  1  0.58974000  0.29084000  0.90350000  1.0 0.0695087701
C  C358  1  0.68624000  0.58974000  0.79890000  1.0 0.0695087701
C  C359  1  0.88734000  0.68624000  0.59650000  1.0 0.0695087701
C  C360  1  0.61266000  0.20916000  0.79890000  1.0 0.0695087701
C  C361  1  0.29890000  0.08974000  0.18624000  1.0 0.0695087701
C  C362  1  0.08974000  0.40350000  0.79084000  1.0 0.0695087701
C  C363  1  0.20110000  0.38734000  0.79084000  1.0 0.0695087701
C  C364  1  0.18624000  0.29890000  0.08974000  1.0 0.0695087701
C  C365  1  0.40350000  0.11266000  0.31376000  1.0 0.0695087701
C  C366  1  0.38734000  0.09650000  0.18624000  1.0 0.0695087701
C  C367  1  0.29890000  0.70916000  0.11266000  1.0 0.0695087701
C  C368  1  0.11266000  0.29890000  0.70916000  1.0 0.0695087701
C  C369  1  0.09650000  0.41026000  0.70916000  1.0 0.0695087701
C  C370  1  0.70916000  0.09650000  0.41026000  1.0 0.0695087701
C  C371  1  0.41026000  0.20110000  0.31376000  1.0 0.0695087701
C  C372  1  0.09650000  0.18624000  0.38734000  1.0 0.0695087701
C  C373  1  0.31376000  0.40350000  0.11266000  1.0 0.0695087701
C  C374  1  0.20110000  0.31376000  0.41026000  1.0 0.0695087701
C  C375  1  0.79084000  0.20110000  0.38734000  1.0 0.0695087701
C  C376  1  0.40350000  0.79084000  0.08974000  1.0 0.0695087701
C  C377  1  0.08974000  0.18624000  0.29890000  1.0 0.0695087701
C  C378  1  0.79084000  0.08974000  0.40350000  1.0 0.0695087701
C  C379  1  0.18624000  0.38734000  0.09650000  1.0 0.0695087701
C  C380  1  0.70916000  0.11266000  0.29890000  1.0 0.0695087701
C  C381  1  0.41026000  0.70916000  0.09650000  1.0 0.0695087701
C  C382  1  0.31376000  0.41026000  0.20110000  1.0 0.0695087701
C  C383  1  0.11266000  0.31376000  0.40350000  1.0 0.0695087701
C  C384  1  0.38734000  0.79084000  0.20110000  1.0 0.0695087701
C  C385  1  0.64124000  0.89124000  0.78248000  1.0 -0.0314701511
C  C386  1  0.89124000  0.60876000  0.25000000  1.0 -0.0314701511
C  C387  1  0.85876000  0.64124000  0.25000000  1.0 -0.0314701511
C  C388  1  0.78248000  0.64124000  0.89124000  1.0 -0.0314701511
C  C389  1  0.60876000  0.85876000  0.71752000  1.0 -0.0314701511
C  C390  1  0.64124000  0.25000000  0.85876000  1.0 -0.0314701511
C  C391  1  0.25000000  0.89124000  0.60876000  1.0 -0.0314701511
C  C392  1  0.89124000  0.78248000  0.64124000  1.0 -0.0314701511
C  C393  1  0.71752000  0.60876000  0.85876000  1.0 -0.0314701511
C  C394  1  0.85876000  0.71752000  0.60876000  1.0 -0.0314701511
C  C395  1  0.25000000  0.85876000  0.64124000  1.0 -0.0314701511
C  C396  1  0.60876000  0.25000000  0.89124000  1.0 -0.0314701511
C  C397  1  0.35876000  0.10876000  0.21752000  1.0 -0.0314701511
C  C398  1  0.10876000  0.39124000  0.75000000  1.0 -0.0314701511
C  C399  1  0.14124000  0.35876000  0.75000000  1.0 -0.0314701511
C  C400  1  0.21752000  0.35876000  0.10876000  1.0 -0.0314701511
C  C401  1  0.39124000  0.14124000  0.28248000  1.0 -0.0314701511
C  C402  1  0.35876000  0.75000000  0.14124000  1.0 -0.0314701511
C  C403  1  0.75000000  0.10876000  0.39124000  1.0 -0.0314701511
C  C404  1  0.10876000  0.21752000  0.35876000  1.0 -0.0314701511
C  C405  1  0.28248000  0.39124000  0.14124000  1.0 -0.0314701511
C  C406  1  0.14124000  0.28248000  0.39124000  1.0 -0.0314701511
C  C407  1  0.75000000  0.14124000  0.35876000  1.0 -0.0314701511
C  C408  1  0.39124000  0.75000000  0.10876000  1.0 -0.0314701511
C  C409  1  0.73309000  0.89989000  0.77958000  1.0 -0.4344914659
C  C410  1  0.89989000  0.62031000  0.16680000  1.0 -0.4344914659
C  C411  1  0.76691000  0.54649000  0.16680000  1.0 -0.4344914659
C  C412  1  0.77958000  0.73309000  0.89989000  1.0 -0.4344914659
C  C413  1  0.62031000  0.95351000  0.72042000  1.0 -0.4344914659
C  C414  1  0.54649000  0.87969000  0.77958000  1.0 -0.4344914659
C  C415  1  0.73309000  0.33320000  0.95351000  1.0 -0.4344914659
C  C416  1  0.95351000  0.73309000  0.33320000  1.0 -0.4344914659
C  C417  1  0.87969000  0.60011000  0.33320000  1.0 -0.4344914659
C  C418  1  0.33320000  0.87969000  0.60011000  1.0 -0.4344914659
C  C419  1  0.60011000  0.76691000  0.72042000  1.0 -0.4344914659
C  C420  1  0.87969000  0.77958000  0.54649000  1.0 -0.4344914659
C  C421  1  0.72042000  0.62031000  0.95351000  1.0 -0.4344914659
C  C422  1  0.76691000  0.72042000  0.60011000  1.0 -0.4344914659
C  C423  1  0.16680000  0.76691000  0.54649000  1.0 -0.4344914659
C  C424  1  0.62031000  0.16680000  0.89989000  1.0 -0.4344914659
C  C425  1  0.89989000  0.77958000  0.73309000  1.0 -0.4344914659
C  C426  1  0.16680000  0.89989000  0.62031000  1.0 -0.4344914659
C  C427  1  0.77958000  0.54649000  0.87969000  1.0 -0.4344914659
C  C428  1  0.33320000  0.95351000  0.73309000  1.0 -0.4344914659
C  C429  1  0.60011000  0.33320000  0.87969000  1.0 -0.4344914659
C  C430  1  0.72042000  0.60011000  0.76691000  1.0 -0.4344914659
C  C431  1  0.95351000  0.72042000  0.62031000  1.0 -0.4344914659
C  C432  1  0.54649000  0.16680000  0.76691000  1.0 -0.4344914659
C  C433  1  0.26691000  0.10011000  0.22042000  1.0 -0.4344914659
C  C434  1  0.10011000  0.37969000  0.83320000  1.0 -0.4344914659
C  C435  1  0.23309000  0.45351000  0.83320000  1.0 -0.4344914659
C  C436  1  0.22042000  0.26691000  0.10011000  1.0 -0.4344914659
C  C437  1  0.37969000  0.04649000  0.27958000  1.0 -0.4344914659
C  C438  1  0.45351000  0.12031000  0.22042000  1.0 -0.4344914659
C  C439  1  0.26691000  0.66680000  0.04649000  1.0 -0.4344914659
C  C440  1  0.04649000  0.26691000  0.66680000  1.0 -0.4344914659
C  C441  1  0.12031000  0.39989000  0.66680000  1.0 -0.4344914659
C  C442  1  0.66680000  0.12031000  0.39989000  1.0 -0.4344914659
C  C443  1  0.39989000  0.23309000  0.27958000  1.0 -0.4344914659
C  C444  1  0.12031000  0.22042000  0.45351000  1.0 -0.4344914659
C  C445  1  0.27958000  0.37969000  0.04649000  1.0 -0.4344914659
C  C446  1  0.23309000  0.27958000  0.39989000  1.0 -0.4344914659
C  C447  1  0.83320000  0.23309000  0.45351000  1.0 -0.4344914659
C  C448  1  0.37969000  0.83320000  0.10011000  1.0 -0.4344914659
C  C449  1  0.10011000  0.22042000  0.26691000  1.0 -0.4344914659
C  C450  1  0.83320000  0.10011000  0.37969000  1.0 -0.4344914659
C  C451  1  0.22042000  0.45351000  0.12031000  1.0 -0.4344914659
C  C452  1  0.66680000  0.04649000  0.26691000  1.0 -0.4344914659
C  C453  1  0.39989000  0.66680000  0.12031000  1.0 -0.4344914659
C  C454  1  0.27958000  0.39989000  0.23309000  1.0 -0.4344914659
C  C455  1  0.04649000  0.27958000  0.37969000  1.0 -0.4344914659
C  C456  1  0.45351000  0.83320000  0.23309000  1.0 -0.4344914659
N  N1  1  0.91074000  0.98474000  0.96796000  1.0 -0.2300048655
N  N2  1  0.98474000  0.51678000  0.07400000  1.0 -0.2300048655
N  N3  1  0.58926000  0.55722000  0.07400000  1.0 -0.2300048655
N  N4  1  0.96796000  0.91074000  0.98474000  1.0 -0.2300048655
N  N5  1  0.51678000  0.94278000  0.53204000  1.0 -0.2300048655
N  N6  1  0.55722000  0.98322000  0.96796000  1.0 -0.2300048655
N  N7  1  0.91074000  0.42600000  0.94278000  1.0 -0.2300048655
N  N8  1  0.94278000  0.91074000  0.42600000  1.0 -0.2300048655
N  N9  1  0.98322000  0.51526000  0.42600000  1.0 -0.2300048655
N  N10  1  0.42600000  0.98322000  0.51526000  1.0 -0.2300048655
N  N11  1  0.51526000  0.58926000  0.53204000  1.0 -0.2300048655
N  N12  1  0.98322000  0.96796000  0.55722000  1.0 -0.2300048655
N  N13  1  0.53204000  0.51678000  0.94278000  1.0 -0.2300048655
N  N14  1  0.58926000  0.53204000  0.51526000  1.0 -0.2300048655
N  N15  1  0.07400000  0.58926000  0.55722000  1.0 -0.2300048655
N  N16  1  0.51678000  0.07400000  0.98474000  1.0 -0.2300048655
N  N17  1  0.98474000  0.96796000  0.91074000  1.0 -0.2300048655
N  N18  1  0.07400000  0.98474000  0.51678000  1.0 -0.2300048655
N  N19  1  0.96796000  0.55722000  0.98322000  1.0 -0.2300048655
N  N20  1  0.42600000  0.94278000  0.91074000  1.0 -0.2300048655
N  N21  1  0.51526000  0.42600000  0.98322000  1.0 -0.2300048655
N  N22  1  0.53204000  0.51526000  0.58926000  1.0 -0.2300048655
N  N23  1  0.94278000  0.53204000  0.51678000  1.0 -0.2300048655
N  N24  1  0.55722000  0.07400000  0.58926000  1.0 -0.2300048655
N  N25  1  0.08926000  0.01526000  0.03204000  1.0 -0.2300048655
N  N26  1  0.01526000  0.48322000  0.92600000  1.0 -0.2300048655
N  N27  1  0.41074000  0.44278000  0.92600000  1.0 -0.2300048655
N  N28  1  0.03204000  0.08926000  0.01526000  1.0 -0.2300048655
N  N29  1  0.48322000  0.05722000  0.46796000  1.0 -0.2300048655
N  N30  1  0.44278000  0.01678000  0.03204000  1.0 -0.2300048655
N  N31  1  0.08926000  0.57400000  0.05722000  1.0 -0.2300048655
N  N32  1  0.05722000  0.08926000  0.57400000  1.0 -0.2300048655
N  N33  1  0.01678000  0.48474000  0.57400000  1.0 -0.2300048655
N  N34  1  0.57400000  0.01678000  0.48474000  1.0 -0.2300048655
N  N35  1  0.48474000  0.41074000  0.46796000  1.0 -0.2300048655
N  N36  1  0.01678000  0.03204000  0.44278000  1.0 -0.2300048655
N  N37  1  0.46796000  0.48322000  0.05722000  1.0 -0.2300048655
N  N38  1  0.41074000  0.46796000  0.48474000  1.0 -0.2300048655
N  N39  1  0.92600000  0.41074000  0.44278000  1.0 -0.2300048655
N  N40  1  0.48322000  0.92600000  0.01526000  1.0 -0.2300048655
N  N41  1  0.01526000  0.03204000  0.08926000  1.0 -0.2300048655
N  N42  1  0.92600000  0.01526000  0.48322000  1.0 -0.2300048655
N  N43  1  0.03204000  0.44278000  0.01678000  1.0 -0.2300048655
N  N44  1  0.57400000  0.05722000  0.08926000  1.0 -0.2300048655
N  N45  1  0.48474000  0.57400000  0.01678000  1.0 -0.2300048655
N  N46  1  0.46796000  0.48474000  0.41074000  1.0 -0.2300048655
N  N47  1  0.05722000  0.46796000  0.48322000  1.0 -0.2300048655
N  N48  1  0.44278000  0.92600000  0.41074000  1.0 -0.2300048655
