# DDEC6 charges by PACMAN v1.1 (https://github.com/mtap-research/PACMAN-charge/)
data_MANLOD_FSR_pacman
_symmetry_space_group_name_H-M   'P 1'
_cell_length_a   28.34240000
_cell_length_b   28.34240000
_cell_length_c   28.34240000
_cell_angle_alpha   109.47100000
_cell_angle_beta   109.47100000
_cell_angle_gamma   109.47100000
_symmetry_Int_Tables_number   1
_chemical_formula_structural   CdH60(C19N2)3
_chemical_formula_sum   'Cd8 H480 C456 N48'
_cell_volume   17526.35183906
_cell_formula_units_Z   8
loop_
 _symmetry_equiv_pos_site_id
 _symmetry_equiv_pos_as_xyz
  1  'x, y, z'
loop_
 _atom_site_type_symbol
 _atom_site_label
 _atom_site_symmetry_multiplicity
 _atom_site_fract_x
 _atom_site_fract_y
 _atom_site_fract_z
 _atom_site_occupancy
 _atom_site_charge
Cd  Cd1  1  0.00000000  0.00000000  0.00000000  1.0 0.6081283718
Cd  Cd2  1  0.00000000  0.50000000  0.00000000  1.0 0.6081283718
Cd  Cd3  1  0.00000000  0.00000000  0.50000000  1.0 0.6037833124
Cd  Cd4  1  0.50000000  0.00000000  0.00000000  1.0 0.6081283718
Cd  Cd5  1  0.50000000  0.50000000  0.50000000  1.0 0.6037833124
Cd  Cd6  1  0.50000000  0.00000000  0.50000000  1.0 0.6037833124
Cd  Cd7  1  0.50000000  0.50000000  0.00000000  1.0 0.6081283718
Cd  Cd8  1  0.00000000  0.50000000  0.50000000  1.0 0.6037833124
H  H1  1  0.91920000  0.05500000  0.97300000  1.0 0.1180260773
H  H2  1  0.05500000  0.58200000  0.13580000  1.0 0.1180260773
H  H3  1  0.94620000  0.91920000  0.36420000  1.0 0.1180260773
H  H4  1  0.55380000  0.91800000  0.97300000  1.0 0.1180260773
H  H5  1  0.44500000  0.58080000  0.52700000  1.0 0.1180260773
H  H6  1  0.97300000  0.91920000  0.05500000  1.0 0.1180260773
H  H7  1  0.91920000  0.36420000  0.94620000  1.0 0.1180260773
H  H8  1  0.91800000  0.97300000  0.55380000  1.0 0.1180260773
H  H9  1  0.58200000  0.13580000  0.05500000  1.0 0.1180260773
H  H10  1  0.58080000  0.52700000  0.44500000  1.0 0.1180260773
H  H11  1  0.05500000  0.97300000  0.91920000  1.0 0.1180260773
H  H12  1  0.52700000  0.44500000  0.58080000  1.0 0.1180260773
H  H13  1  0.97300000  0.55380000  0.91800000  1.0 0.1180260773
H  H14  1  0.36420000  0.94620000  0.91920000  1.0 0.1180260773
H  H15  1  0.13580000  0.05500000  0.58200000  1.0 0.1180260773
H  H16  1  0.58200000  0.94620000  0.52700000  1.0 0.1180260773
H  H17  1  0.58080000  0.55380000  0.13580000  1.0 0.1180260773
H  H18  1  0.91800000  0.44500000  0.36420000  1.0 0.1180260773
H  H19  1  0.36420000  0.91800000  0.44500000  1.0 0.1180260773
H  H20  1  0.52700000  0.58200000  0.94620000  1.0 0.1180260773
H  H21  1  0.13580000  0.58080000  0.55380000  1.0 0.1180260773
H  H22  1  0.44500000  0.36420000  0.91800000  1.0 0.1180260773
H  H23  1  0.55380000  0.13580000  0.58080000  1.0 0.1180260773
H  H24  1  0.94620000  0.52700000  0.58200000  1.0 0.1180260773
H  H25  1  0.08080000  0.94500000  0.02700000  1.0 0.1180260773
H  H26  1  0.94500000  0.41800000  0.86420000  1.0 0.1180260773
H  H27  1  0.05380000  0.08080000  0.63580000  1.0 0.1180260773
H  H28  1  0.44620000  0.08200000  0.02700000  1.0 0.1180260773
H  H29  1  0.55500000  0.41920000  0.47300000  1.0 0.1180260773
H  H30  1  0.02700000  0.08080000  0.94500000  1.0 0.1180260773
H  H31  1  0.08080000  0.63580000  0.05380000  1.0 0.1180260773
H  H32  1  0.08200000  0.02700000  0.44620000  1.0 0.1180260773
H  H33  1  0.41800000  0.86420000  0.94500000  1.0 0.1180260773
H  H34  1  0.41920000  0.47300000  0.55500000  1.0 0.1180260773
H  H35  1  0.94500000  0.02700000  0.08080000  1.0 0.1180260773
H  H36  1  0.47300000  0.55500000  0.41920000  1.0 0.1180260773
H  H37  1  0.02700000  0.44620000  0.08200000  1.0 0.1180260773
H  H38  1  0.63580000  0.05380000  0.08080000  1.0 0.1180260773
H  H39  1  0.86420000  0.94500000  0.41800000  1.0 0.1180260773
H  H40  1  0.41800000  0.05380000  0.47300000  1.0 0.1180260773
H  H41  1  0.41920000  0.44620000  0.86420000  1.0 0.1180260773
H  H42  1  0.08200000  0.55500000  0.63580000  1.0 0.1180260773
H  H43  1  0.63580000  0.08200000  0.55500000  1.0 0.1180260773
H  H44  1  0.47300000  0.41800000  0.05380000  1.0 0.1180260773
H  H45  1  0.86420000  0.41920000  0.44620000  1.0 0.1180260773
H  H46  1  0.55500000  0.63580000  0.08200000  1.0 0.1180260773
H  H47  1  0.44620000  0.86420000  0.41920000  1.0 0.1180260773
H  H48  1  0.05380000  0.47300000  0.41800000  1.0 0.1180260773
H  H49  1  0.82290000  0.03160000  0.91910000  1.0 0.1509298817
H  H50  1  0.03160000  0.61250000  0.20870000  1.0 0.1509298817
H  H51  1  0.90380000  0.82290000  0.29130000  1.0 0.1509298817
H  H52  1  0.59620000  0.88750000  0.91910000  1.0 0.1509298817
H  H53  1  0.46840000  0.67710000  0.58090000  1.0 0.1509298817
H  H54  1  0.91910000  0.82290000  0.03160000  1.0 0.1509298817
H  H55  1  0.82290000  0.29130000  0.90380000  1.0 0.1509298817
H  H56  1  0.88750000  0.91910000  0.59620000  1.0 0.1509298817
H  H57  1  0.61250000  0.20870000  0.03160000  1.0 0.1509298817
H  H58  1  0.67710000  0.58090000  0.46840000  1.0 0.1509298817
H  H59  1  0.03160000  0.91910000  0.82290000  1.0 0.1509298817
H  H60  1  0.58090000  0.46840000  0.67710000  1.0 0.1509298817
H  H61  1  0.91910000  0.59620000  0.88750000  1.0 0.1509298817
H  H62  1  0.29130000  0.90380000  0.82290000  1.0 0.1509298817
H  H63  1  0.20870000  0.03160000  0.61250000  1.0 0.1509298817
H  H64  1  0.61250000  0.90380000  0.58090000  1.0 0.1509298817
H  H65  1  0.67710000  0.59620000  0.20870000  1.0 0.1509298817
H  H66  1  0.88750000  0.46840000  0.29130000  1.0 0.1509298817
H  H67  1  0.29130000  0.88750000  0.46840000  1.0 0.1509298817
H  H68  1  0.58090000  0.61250000  0.90380000  1.0 0.1509298817
H  H69  1  0.20870000  0.67710000  0.59620000  1.0 0.1509298817
H  H70  1  0.46840000  0.29130000  0.88750000  1.0 0.1509298817
H  H71  1  0.59620000  0.20870000  0.67710000  1.0 0.1509298817
H  H72  1  0.90380000  0.58090000  0.61250000  1.0 0.1509298817
H  H73  1  0.17710000  0.96840000  0.08090000  1.0 0.1509298817
H  H74  1  0.96840000  0.38750000  0.79130000  1.0 0.1509298817
H  H75  1  0.09620000  0.17710000  0.70870000  1.0 0.1509298817
H  H76  1  0.40380000  0.11250000  0.08090000  1.0 0.1509298817
H  H77  1  0.53160000  0.32290000  0.41910000  1.0 0.1509298817
H  H78  1  0.08090000  0.17710000  0.96840000  1.0 0.1509298817
H  H79  1  0.17710000  0.70870000  0.09620000  1.0 0.1509298817
H  H80  1  0.11250000  0.08090000  0.40380000  1.0 0.1509298817
H  H81  1  0.38750000  0.79130000  0.96840000  1.0 0.1509298817
H  H82  1  0.32290000  0.41910000  0.53160000  1.0 0.1509298817
H  H83  1  0.96840000  0.08090000  0.17710000  1.0 0.1509298817
H  H84  1  0.41910000  0.53160000  0.32290000  1.0 0.1509298817
H  H85  1  0.08090000  0.40380000  0.11250000  1.0 0.1509298817
H  H86  1  0.70870000  0.09620000  0.17710000  1.0 0.1509298817
H  H87  1  0.79130000  0.96840000  0.38750000  1.0 0.1509298817
H  H88  1  0.38750000  0.09620000  0.41910000  1.0 0.1509298817
H  H89  1  0.32290000  0.40380000  0.79130000  1.0 0.1509298817
H  H90  1  0.11250000  0.53160000  0.70870000  1.0 0.1509298817
H  H91  1  0.70870000  0.11250000  0.53160000  1.0 0.1509298817
H  H92  1  0.41910000  0.38750000  0.09620000  1.0 0.1509298817
H  H93  1  0.79130000  0.32290000  0.40380000  1.0 0.1509298817
H  H94  1  0.53160000  0.70870000  0.11250000  1.0 0.1509298817
H  H95  1  0.40380000  0.79130000  0.32290000  1.0 0.1509298817
H  H96  1  0.09620000  0.41910000  0.38750000  1.0 0.1509298817
H  H97  1  0.77700000  0.87770000  0.90090000  1.0 0.157749472
H  H98  1  0.87770000  0.47680000  0.10070000  1.0 0.157749472
H  H99  1  0.87610000  0.77700000  0.39930000  1.0 0.157749472
H  H100  1  0.62390000  0.02320000  0.90090000  1.0 0.157749472
H  H101  1  0.62230000  0.72300000  0.59910000  1.0 0.157749472
H  H102  1  0.90090000  0.77700000  0.87770000  1.0 0.157749472
H  H103  1  0.77700000  0.39930000  0.87610000  1.0 0.157749472
H  H104  1  0.02320000  0.90090000  0.62390000  1.0 0.157749472
H  H105  1  0.47680000  0.10070000  0.87770000  1.0 0.157749472
H  H106  1  0.72300000  0.59910000  0.62230000  1.0 0.157749472
H  H107  1  0.87770000  0.90090000  0.77700000  1.0 0.157749472
H  H108  1  0.59910000  0.62230000  0.72300000  1.0 0.157749472
H  H109  1  0.90090000  0.62390000  0.02320000  1.0 0.157749472
H  H110  1  0.39930000  0.87610000  0.77700000  1.0 0.157749472
H  H111  1  0.10070000  0.87770000  0.47680000  1.0 0.157749472
H  H112  1  0.47680000  0.87610000  0.59910000  1.0 0.157749472
H  H113  1  0.72300000  0.62390000  0.10070000  1.0 0.157749472
H  H114  1  0.02320000  0.62230000  0.39930000  1.0 0.157749472
H  H115  1  0.39930000  0.02320000  0.62230000  1.0 0.157749472
H  H116  1  0.59910000  0.47680000  0.87610000  1.0 0.157749472
H  H117  1  0.10070000  0.72300000  0.62390000  1.0 0.157749472
H  H118  1  0.62230000  0.39930000  0.02320000  1.0 0.157749472
H  H119  1  0.62390000  0.10070000  0.72300000  1.0 0.157749472
H  H120  1  0.87610000  0.59910000  0.47680000  1.0 0.157749472
H  H121  1  0.22300000  0.12230000  0.09910000  1.0 0.157749472
H  H122  1  0.12230000  0.52320000  0.89930000  1.0 0.157749472
H  H123  1  0.12390000  0.22300000  0.60070000  1.0 0.157749472
H  H124  1  0.37610000  0.97680000  0.09910000  1.0 0.157749472
H  H125  1  0.37770000  0.27700000  0.40090000  1.0 0.157749472
H  H126  1  0.09910000  0.22300000  0.12230000  1.0 0.157749472
H  H127  1  0.22300000  0.60070000  0.12390000  1.0 0.157749472
H  H128  1  0.97680000  0.09910000  0.37610000  1.0 0.157749472
H  H129  1  0.52320000  0.89930000  0.12230000  1.0 0.157749472
H  H130  1  0.27700000  0.40090000  0.37770000  1.0 0.157749472
H  H131  1  0.12230000  0.09910000  0.22300000  1.0 0.157749472
H  H132  1  0.40090000  0.37770000  0.27700000  1.0 0.157749472
H  H133  1  0.09910000  0.37610000  0.97680000  1.0 0.157749472
H  H134  1  0.60070000  0.12390000  0.22300000  1.0 0.157749472
H  H135  1  0.89930000  0.12230000  0.52320000  1.0 0.157749472
H  H136  1  0.52320000  0.12390000  0.40090000  1.0 0.157749472
H  H137  1  0.27700000  0.37610000  0.89930000  1.0 0.157749472
H  H138  1  0.97680000  0.37770000  0.60070000  1.0 0.157749472
H  H139  1  0.60070000  0.97680000  0.37770000  1.0 0.157749472
H  H140  1  0.40090000  0.52320000  0.12390000  1.0 0.157749472
H  H141  1  0.89930000  0.27700000  0.37610000  1.0 0.157749472
H  H142  1  0.37770000  0.60070000  0.97680000  1.0 0.157749472
H  H143  1  0.37610000  0.89930000  0.27700000  1.0 0.157749472
H  H144  1  0.12390000  0.40090000  0.52320000  1.0 0.157749472
H  H145  1  0.86480000  0.90380000  0.95140000  1.0 0.1111594069
H  H146  1  0.90380000  0.45240000  0.03900000  1.0 0.1111594069
H  H147  1  0.91340000  0.86480000  0.46100000  1.0 0.1111594069
H  H148  1  0.58660000  0.04760000  0.95140000  1.0 0.1111594069
H  H149  1  0.59620000  0.63520000  0.54860000  1.0 0.1111594069
H  H150  1  0.95140000  0.86480000  0.90380000  1.0 0.1111594069
H  H151  1  0.86480000  0.46100000  0.91340000  1.0 0.1111594069
H  H152  1  0.04760000  0.95140000  0.58660000  1.0 0.1111594069
H  H153  1  0.45240000  0.03900000  0.90380000  1.0 0.1111594069
H  H154  1  0.63520000  0.54860000  0.59620000  1.0 0.1111594069
H  H155  1  0.90380000  0.95140000  0.86480000  1.0 0.1111594069
H  H156  1  0.54860000  0.59620000  0.63520000  1.0 0.1111594069
H  H157  1  0.95140000  0.58660000  0.04760000  1.0 0.1111594069
H  H158  1  0.46100000  0.91340000  0.86480000  1.0 0.1111594069
H  H159  1  0.03900000  0.90380000  0.45240000  1.0 0.1111594069
H  H160  1  0.45240000  0.91340000  0.54860000  1.0 0.1111594069
H  H161  1  0.63520000  0.58660000  0.03900000  1.0 0.1111594069
H  H162  1  0.04760000  0.59620000  0.46100000  1.0 0.1111594069
H  H163  1  0.46100000  0.04760000  0.59620000  1.0 0.1111594069
H  H164  1  0.54860000  0.45240000  0.91340000  1.0 0.1111594069
H  H165  1  0.03900000  0.63520000  0.58660000  1.0 0.1111594069
H  H166  1  0.59620000  0.46100000  0.04760000  1.0 0.1111594069
H  H167  1  0.58660000  0.03900000  0.63520000  1.0 0.1111594069
H  H168  1  0.91340000  0.54860000  0.45240000  1.0 0.1111594069
H  H169  1  0.13520000  0.09620000  0.04860000  1.0 0.1111594069
H  H170  1  0.09620000  0.54760000  0.96100000  1.0 0.1111594069
H  H171  1  0.08660000  0.13520000  0.53900000  1.0 0.1111594069
H  H172  1  0.41340000  0.95240000  0.04860000  1.0 0.1111594069
H  H173  1  0.40380000  0.36480000  0.45140000  1.0 0.1111594069
H  H174  1  0.04860000  0.13520000  0.09620000  1.0 0.1111594069
H  H175  1  0.13520000  0.53900000  0.08660000  1.0 0.1111594069
H  H176  1  0.95240000  0.04860000  0.41340000  1.0 0.1111594069
H  H177  1  0.54760000  0.96100000  0.09620000  1.0 0.1111594069
H  H178  1  0.36480000  0.45140000  0.40380000  1.0 0.1111594069
H  H179  1  0.09620000  0.04860000  0.13520000  1.0 0.1111594069
H  H180  1  0.45140000  0.40380000  0.36480000  1.0 0.1111594069
H  H181  1  0.04860000  0.41340000  0.95240000  1.0 0.1111594069
H  H182  1  0.53900000  0.08660000  0.13520000  1.0 0.1111594069
H  H183  1  0.96100000  0.09620000  0.54760000  1.0 0.1111594069
H  H184  1  0.54760000  0.08660000  0.45140000  1.0 0.1111594069
H  H185  1  0.36480000  0.41340000  0.96100000  1.0 0.1111594069
H  H186  1  0.95240000  0.40380000  0.53900000  1.0 0.1111594069
H  H187  1  0.53900000  0.95240000  0.40380000  1.0 0.1111594069
H  H188  1  0.45140000  0.54760000  0.08660000  1.0 0.1111594069
H  H189  1  0.96100000  0.36480000  0.41340000  1.0 0.1111594069
H  H190  1  0.40380000  0.53900000  0.95240000  1.0 0.1111594069
H  H191  1  0.41340000  0.96100000  0.36480000  1.0 0.1111594069
H  H192  1  0.08660000  0.45140000  0.54760000  1.0 0.1111594069
H  H193  1  0.76950000  0.91440000  0.80510000  1.0 0.1180260773
H  H194  1  0.91440000  0.60930000  0.14490000  1.0 0.1180260773
H  H195  1  0.96440000  0.76950000  0.35510000  1.0 0.1180260773
H  H196  1  0.53560000  0.89070000  0.80510000  1.0 0.1180260773
H  H197  1  0.58560000  0.73050000  0.69490000  1.0 0.1180260773
H  H198  1  0.80510000  0.76950000  0.91440000  1.0 0.1180260773
H  H199  1  0.76950000  0.35510000  0.96440000  1.0 0.1180260773
H  H200  1  0.89070000  0.80510000  0.53560000  1.0 0.1180260773
H  H201  1  0.60930000  0.14490000  0.91440000  1.0 0.1180260773
H  H202  1  0.73050000  0.69490000  0.58560000  1.0 0.1180260773
H  H203  1  0.91440000  0.80510000  0.76950000  1.0 0.1180260773
H  H204  1  0.69490000  0.58560000  0.73050000  1.0 0.1180260773
H  H205  1  0.80510000  0.53560000  0.89070000  1.0 0.1180260773
H  H206  1  0.35510000  0.96440000  0.76950000  1.0 0.1180260773
H  H207  1  0.14490000  0.91440000  0.60930000  1.0 0.1180260773
H  H208  1  0.60930000  0.96440000  0.69490000  1.0 0.1180260773
H  H209  1  0.73050000  0.53560000  0.14490000  1.0 0.1180260773
H  H210  1  0.89070000  0.58560000  0.35510000  1.0 0.1180260773
H  H211  1  0.35510000  0.89070000  0.58560000  1.0 0.1180260773
H  H212  1  0.69490000  0.60930000  0.96440000  1.0 0.1180260773
H  H213  1  0.14490000  0.73050000  0.53560000  1.0 0.1180260773
H  H214  1  0.58560000  0.35510000  0.89070000  1.0 0.1180260773
H  H215  1  0.53560000  0.14490000  0.73050000  1.0 0.1180260773
H  H216  1  0.96440000  0.69490000  0.60930000  1.0 0.1180260773
H  H217  1  0.23050000  0.08560000  0.19490000  1.0 0.1180260773
H  H218  1  0.08560000  0.39070000  0.85510000  1.0 0.1180260773
H  H219  1  0.03560000  0.23050000  0.64490000  1.0 0.1180260773
H  H220  1  0.46440000  0.10930000  0.19490000  1.0 0.1180260773
H  H221  1  0.41440000  0.26950000  0.30510000  1.0 0.1180260773
H  H222  1  0.19490000  0.23050000  0.08560000  1.0 0.1180260773
H  H223  1  0.23050000  0.64490000  0.03560000  1.0 0.1180260773
H  H224  1  0.10930000  0.19490000  0.46440000  1.0 0.1180260773
H  H225  1  0.39070000  0.85510000  0.08560000  1.0 0.1180260773
H  H226  1  0.26950000  0.30510000  0.41440000  1.0 0.1180260773
H  H227  1  0.08560000  0.19490000  0.23050000  1.0 0.1180260773
H  H228  1  0.30510000  0.41440000  0.26950000  1.0 0.1180260773
H  H229  1  0.19490000  0.46440000  0.10930000  1.0 0.1180260773
H  H230  1  0.64490000  0.03560000  0.23050000  1.0 0.1180260773
H  H231  1  0.85510000  0.08560000  0.39070000  1.0 0.1180260773
H  H232  1  0.39070000  0.03560000  0.30510000  1.0 0.1180260773
H  H233  1  0.26950000  0.46440000  0.85510000  1.0 0.1180260773
H  H234  1  0.10930000  0.41440000  0.64490000  1.0 0.1180260773
H  H235  1  0.64490000  0.10930000  0.41440000  1.0 0.1180260773
H  H236  1  0.30510000  0.39070000  0.03560000  1.0 0.1180260773
H  H237  1  0.85510000  0.26950000  0.46440000  1.0 0.1180260773
H  H238  1  0.41440000  0.64490000  0.10930000  1.0 0.1180260773
H  H239  1  0.46440000  0.85510000  0.26950000  1.0 0.1180260773
H  H240  1  0.03560000  0.30510000  0.39070000  1.0 0.1180260773
H  H241  1  0.72570000  0.91610000  0.75520000  1.0 0.1323036401
H  H242  1  0.91610000  0.66090000  0.19040000  1.0 0.1323036401
H  H243  1  0.97050000  0.72570000  0.30960000  1.0 0.1323036401
H  H244  1  0.52950000  0.83910000  0.75520000  1.0 0.1323036401
H  H245  1  0.58390000  0.77430000  0.74480000  1.0 0.1323036401
H  H246  1  0.75520000  0.72570000  0.91610000  1.0 0.1323036401
H  H247  1  0.72570000  0.30960000  0.97050000  1.0 0.1323036401
H  H248  1  0.83910000  0.75520000  0.52950000  1.0 0.1323036401
H  H249  1  0.66090000  0.19040000  0.91610000  1.0 0.1323036401
H  H250  1  0.77430000  0.74480000  0.58390000  1.0 0.1323036401
H  H251  1  0.91610000  0.75520000  0.72570000  1.0 0.1323036401
H  H252  1  0.74480000  0.58390000  0.77430000  1.0 0.1323036401
H  H253  1  0.75520000  0.52950000  0.83910000  1.0 0.1323036401
H  H254  1  0.30960000  0.97050000  0.72570000  1.0 0.1323036401
H  H255  1  0.19040000  0.91610000  0.66090000  1.0 0.1323036401
H  H256  1  0.66090000  0.97050000  0.74480000  1.0 0.1323036401
H  H257  1  0.77430000  0.52950000  0.19040000  1.0 0.1323036401
H  H258  1  0.83910000  0.58390000  0.30960000  1.0 0.1323036401
H  H259  1  0.30960000  0.83910000  0.58390000  1.0 0.1323036401
H  H260  1  0.74480000  0.66090000  0.97050000  1.0 0.1323036401
H  H261  1  0.19040000  0.77430000  0.52950000  1.0 0.1323036401
H  H262  1  0.58390000  0.30960000  0.83910000  1.0 0.1323036401
H  H263  1  0.52950000  0.19040000  0.77430000  1.0 0.1323036401
H  H264  1  0.97050000  0.74480000  0.66090000  1.0 0.1323036401
H  H265  1  0.27430000  0.08390000  0.24480000  1.0 0.1323036401
H  H266  1  0.08390000  0.33910000  0.80960000  1.0 0.1323036401
H  H267  1  0.02950000  0.27430000  0.69040000  1.0 0.1323036401
H  H268  1  0.47050000  0.16090000  0.24480000  1.0 0.1323036401
H  H269  1  0.41610000  0.22570000  0.25520000  1.0 0.1323036401
H  H270  1  0.24480000  0.27430000  0.08390000  1.0 0.1323036401
H  H271  1  0.27430000  0.69040000  0.02950000  1.0 0.1323036401
H  H272  1  0.16090000  0.24480000  0.47050000  1.0 0.1323036401
H  H273  1  0.33910000  0.80960000  0.08390000  1.0 0.1323036401
H  H274  1  0.22570000  0.25520000  0.41610000  1.0 0.1323036401
H  H275  1  0.08390000  0.24480000  0.27430000  1.0 0.1323036401
H  H276  1  0.25520000  0.41610000  0.22570000  1.0 0.1323036401
H  H277  1  0.24480000  0.47050000  0.16090000  1.0 0.1323036401
H  H278  1  0.69040000  0.02950000  0.27430000  1.0 0.1323036401
H  H279  1  0.80960000  0.08390000  0.33910000  1.0 0.1323036401
H  H280  1  0.33910000  0.02950000  0.25520000  1.0 0.1323036401
H  H281  1  0.22570000  0.47050000  0.80960000  1.0 0.1323036401
H  H282  1  0.16090000  0.41610000  0.69040000  1.0 0.1323036401
H  H283  1  0.69040000  0.16090000  0.41610000  1.0 0.1323036401
H  H284  1  0.25520000  0.33910000  0.02950000  1.0 0.1323036401
H  H285  1  0.80960000  0.22570000  0.47050000  1.0 0.1323036401
H  H286  1  0.41610000  0.69040000  0.16090000  1.0 0.1323036401
H  H287  1  0.47050000  0.80960000  0.22570000  1.0 0.1323036401
H  H288  1  0.02950000  0.25520000  0.33910000  1.0 0.1323036401
H  H289  1  0.71120000  0.85790000  0.75570000  1.0 0.1180260773
H  H290  1  0.85790000  0.60220000  0.14670000  1.0 0.1180260773
H  H291  1  0.95550000  0.71120000  0.35330000  1.0 0.1180260773
H  H292  1  0.54450000  0.89780000  0.75570000  1.0 0.1180260773
H  H293  1  0.64210000  0.78880000  0.74430000  1.0 0.1180260773
H  H294  1  0.75570000  0.71120000  0.85790000  1.0 0.1180260773
H  H295  1  0.71120000  0.35330000  0.95550000  1.0 0.1180260773
H  H296  1  0.89780000  0.75570000  0.54450000  1.0 0.1180260773
H  H297  1  0.60220000  0.14670000  0.85790000  1.0 0.1180260773
H  H298  1  0.78880000  0.74430000  0.64210000  1.0 0.1180260773
H  H299  1  0.85790000  0.75570000  0.71120000  1.0 0.1180260773
H  H300  1  0.74430000  0.64210000  0.78880000  1.0 0.1180260773
H  H301  1  0.75570000  0.54450000  0.89780000  1.0 0.1180260773
H  H302  1  0.35330000  0.95550000  0.71120000  1.0 0.1180260773
H  H303  1  0.14670000  0.85790000  0.60220000  1.0 0.1180260773
H  H304  1  0.60220000  0.95550000  0.74430000  1.0 0.1180260773
H  H305  1  0.78880000  0.54450000  0.14670000  1.0 0.1180260773
H  H306  1  0.89780000  0.64210000  0.35330000  1.0 0.1180260773
H  H307  1  0.35330000  0.89780000  0.64210000  1.0 0.1180260773
H  H308  1  0.74430000  0.60220000  0.95550000  1.0 0.1180260773
H  H309  1  0.14670000  0.78880000  0.54450000  1.0 0.1180260773
H  H310  1  0.64210000  0.35330000  0.89780000  1.0 0.1180260773
H  H311  1  0.54450000  0.14670000  0.78880000  1.0 0.1180260773
H  H312  1  0.95550000  0.74430000  0.60220000  1.0 0.1180260773
H  H313  1  0.28880000  0.14210000  0.24430000  1.0 0.1180260773
H  H314  1  0.14210000  0.39780000  0.85330000  1.0 0.1180260773
H  H315  1  0.04450000  0.28880000  0.64670000  1.0 0.1180260773
H  H316  1  0.45550000  0.10220000  0.24430000  1.0 0.1180260773
H  H317  1  0.35790000  0.21120000  0.25570000  1.0 0.1180260773
H  H318  1  0.24430000  0.28880000  0.14210000  1.0 0.1180260773
H  H319  1  0.28880000  0.64670000  0.04450000  1.0 0.1180260773
H  H320  1  0.10220000  0.24430000  0.45550000  1.0 0.1180260773
H  H321  1  0.39780000  0.85330000  0.14210000  1.0 0.1180260773
H  H322  1  0.21120000  0.25570000  0.35790000  1.0 0.1180260773
H  H323  1  0.14210000  0.24430000  0.28880000  1.0 0.1180260773
H  H324  1  0.25570000  0.35790000  0.21120000  1.0 0.1180260773
H  H325  1  0.24430000  0.45550000  0.10220000  1.0 0.1180260773
H  H326  1  0.64670000  0.04450000  0.28880000  1.0 0.1180260773
H  H327  1  0.85330000  0.14210000  0.39780000  1.0 0.1180260773
H  H328  1  0.39780000  0.04450000  0.25570000  1.0 0.1180260773
H  H329  1  0.21120000  0.45550000  0.85330000  1.0 0.1180260773
H  H330  1  0.10220000  0.35790000  0.64670000  1.0 0.1180260773
H  H331  1  0.64670000  0.10220000  0.35790000  1.0 0.1180260773
H  H332  1  0.25570000  0.39780000  0.04450000  1.0 0.1180260773
H  H333  1  0.85330000  0.21120000  0.45550000  1.0 0.1180260773
H  H334  1  0.35790000  0.64670000  0.10220000  1.0 0.1180260773
H  H335  1  0.45550000  0.85330000  0.21120000  1.0 0.1180260773
H  H336  1  0.04450000  0.25570000  0.39780000  1.0 0.1180260773
H  H337  1  0.70920000  0.98890000  0.98410000  1.0 0.0096927033
H  H338  1  0.98890000  0.50480000  0.27970000  1.0 0.0022361091
H  H339  1  0.72510000  0.70920000  0.22030000  1.0 0.0096927033
H  H340  1  0.77490000  0.99520000  0.98410000  1.0 0.0022361091
H  H341  1  0.51110000  0.79080000  0.51590000  1.0 0.0096927033
H  H342  1  0.98410000  0.70920000  0.98890000  1.0 0.0096927033
H  H343  1  0.70920000  0.22030000  0.72510000  1.0 0.0096927033
H  H344  1  0.99520000  0.98410000  0.77490000  1.0 0.0096927033
H  H345  1  0.50480000  0.27970000  0.98890000  1.0 0.0096927033
H  H346  1  0.79080000  0.51590000  0.51110000  1.0 0.0022361091
H  H347  1  0.98890000  0.98410000  0.70920000  1.0 0.0096927033
H  H348  1  0.51590000  0.51110000  0.79080000  1.0 0.0096927033
H  H349  1  0.98410000  0.77490000  0.99520000  1.0 0.0096927033
H  H350  1  0.22030000  0.72510000  0.70920000  1.0 0.0096927033
H  H351  1  0.27970000  0.98890000  0.50480000  1.0 0.0096927033
H  H352  1  0.50480000  0.72510000  0.51590000  1.0 0.0096927033
H  H353  1  0.79080000  0.77490000  0.27970000  1.0 0.0096927033
H  H354  1  0.99520000  0.51110000  0.22030000  1.0 0.0096927033
H  H355  1  0.22030000  0.99520000  0.51110000  1.0 0.0022361091
H  H356  1  0.51590000  0.50480000  0.72510000  1.0 0.0096927033
H  H357  1  0.27970000  0.79080000  0.77490000  1.0 0.0096927033
H  H358  1  0.51110000  0.22030000  0.99520000  1.0 0.0096927033
H  H359  1  0.77490000  0.27970000  0.79080000  1.0 0.0096927033
H  H360  1  0.72510000  0.51590000  0.50480000  1.0 0.0022361091
H  H361  1  0.29080000  0.01110000  0.01590000  1.0 0.0022361091
H  H362  1  0.01110000  0.49520000  0.72030000  1.0 0.0096927033
H  H363  1  0.27490000  0.29080000  0.77970000  1.0 0.0096927033
H  H364  1  0.22510000  0.00480000  0.01590000  1.0 0.0096927033
H  H365  1  0.48890000  0.20920000  0.48410000  1.0 0.0096927033
H  H366  1  0.01590000  0.29080000  0.01110000  1.0 0.0096927033
H  H367  1  0.29080000  0.77970000  0.27490000  1.0 0.0096927033
H  H368  1  0.00480000  0.01590000  0.22510000  1.0 0.0022361091
H  H369  1  0.49520000  0.72030000  0.01110000  1.0 0.0096927033
H  H370  1  0.20920000  0.48410000  0.48890000  1.0 0.0096927033
H  H371  1  0.01110000  0.01590000  0.29080000  1.0 0.0022361091
H  H372  1  0.48410000  0.48890000  0.20920000  1.0 0.0096927033
H  H373  1  0.01590000  0.22510000  0.00480000  1.0 0.0096927033
H  H374  1  0.77970000  0.27490000  0.29080000  1.0 0.0096927033
H  H375  1  0.72030000  0.01110000  0.49520000  1.0 0.0096927033
H  H376  1  0.49520000  0.27490000  0.48410000  1.0 0.0096927033
H  H377  1  0.20920000  0.22510000  0.72030000  1.0 0.0096927033
H  H378  1  0.00480000  0.48890000  0.77970000  1.0 0.0096927033
H  H379  1  0.77970000  0.00480000  0.48890000  1.0 0.0096927033
H  H380  1  0.48410000  0.49520000  0.27490000  1.0 0.0096927033
H  H381  1  0.72030000  0.20920000  0.22510000  1.0 0.0022361091
H  H382  1  0.48890000  0.77970000  0.00480000  1.0 0.0096927033
H  H383  1  0.22510000  0.72030000  0.20920000  1.0 0.0096927033
H  H384  1  0.27490000  0.48410000  0.49520000  1.0 0.0096927033
H  H385  1  0.76560000  0.02280000  0.98400000  1.0 0.0096927033
H  H386  1  0.02280000  0.53880000  0.25720000  1.0 0.0096927033
H  H387  1  0.78160000  0.76560000  0.24280000  1.0 0.0096927033
H  H388  1  0.71840000  0.96120000  0.98400000  1.0 0.0096927033
H  H389  1  0.47720000  0.73440000  0.51600000  1.0 0.0096927033
H  H390  1  0.98400000  0.76560000  0.02280000  1.0 0.0096927033
H  H391  1  0.76560000  0.24280000  0.78160000  1.0 0.0096927033
H  H392  1  0.96120000  0.98400000  0.71840000  1.0 0.0096927033
H  H393  1  0.53880000  0.25720000  0.02280000  1.0 0.0096927033
H  H394  1  0.73440000  0.51600000  0.47720000  1.0 0.0096927033
H  H395  1  0.02280000  0.98400000  0.76560000  1.0 0.0096927033
H  H396  1  0.51600000  0.47720000  0.73440000  1.0 0.0096927033
H  H397  1  0.98400000  0.71840000  0.96120000  1.0 0.0160813541
H  H398  1  0.24280000  0.78160000  0.76560000  1.0 0.0096927033
H  H399  1  0.25720000  0.02280000  0.53880000  1.0 0.0096927033
H  H400  1  0.53880000  0.78160000  0.51600000  1.0 0.0096927033
H  H401  1  0.73440000  0.71840000  0.25720000  1.0 0.0096927033
H  H402  1  0.96120000  0.47720000  0.24280000  1.0 0.0160813541
H  H403  1  0.24280000  0.96120000  0.47720000  1.0 0.0096927033
H  H404  1  0.51600000  0.53880000  0.78160000  1.0 0.0096927033
H  H405  1  0.25720000  0.73440000  0.71840000  1.0 0.0022361091
H  H406  1  0.47720000  0.24280000  0.96120000  1.0 0.0096927033
H  H407  1  0.71840000  0.25720000  0.73440000  1.0 0.0096927033
H  H408  1  0.78160000  0.51600000  0.53880000  1.0 0.0096927033
H  H409  1  0.23440000  0.97720000  0.01600000  1.0 0.0096927033
H  H410  1  0.97720000  0.46120000  0.74280000  1.0 0.0096927033
H  H411  1  0.21840000  0.23440000  0.75720000  1.0 0.0096927033
H  H412  1  0.28160000  0.03880000  0.01600000  1.0 0.0096927033
H  H413  1  0.52280000  0.26560000  0.48400000  1.0 0.0096927033
H  H414  1  0.01600000  0.23440000  0.97720000  1.0 0.0096927033
H  H415  1  0.23440000  0.75720000  0.21840000  1.0 0.0096927033
H  H416  1  0.03880000  0.01600000  0.28160000  1.0 0.0096927033
H  H417  1  0.46120000  0.74280000  0.97720000  1.0 0.0096927033
H  H418  1  0.26560000  0.48400000  0.52280000  1.0 0.0096927033
H  H419  1  0.97720000  0.01600000  0.23440000  1.0 0.0096927033
H  H420  1  0.48400000  0.52280000  0.26560000  1.0 0.0096927033
H  H421  1  0.01600000  0.28160000  0.03880000  1.0 0.0096927033
H  H422  1  0.75720000  0.21840000  0.23440000  1.0 0.0096927033
H  H423  1  0.74280000  0.97720000  0.46120000  1.0 0.0096927033
H  H424  1  0.46120000  0.21840000  0.48400000  1.0 0.0096927033
H  H425  1  0.26560000  0.28160000  0.74280000  1.0 0.0096927033
H  H426  1  0.03880000  0.52280000  0.75720000  1.0 0.0096927033
H  H427  1  0.75720000  0.03880000  0.52280000  1.0 0.0096927033
H  H428  1  0.48400000  0.46120000  0.21840000  1.0 0.0096927033
H  H429  1  0.74280000  0.26560000  0.28160000  1.0 0.0096927033
H  H430  1  0.52280000  0.75720000  0.03880000  1.0 0.0096927033
H  H431  1  0.28160000  0.74280000  0.26560000  1.0 0.0096927033
H  H432  1  0.21840000  0.48400000  0.46120000  1.0 0.0096927033
H  H433  1  0.75130000  0.96440000  0.98410000  1.0 0.0160813541
H  H434  1  0.96440000  0.48030000  0.21310000  1.0 0.0096927033
H  H435  1  0.76720000  0.75130000  0.28690000  1.0 0.0160813541
H  H436  1  0.73280000  0.01970000  0.98410000  1.0 0.0160813541
H  H437  1  0.53560000  0.74870000  0.51590000  1.0 0.0096927033
H  H438  1  0.98410000  0.75130000  0.96440000  1.0 0.0160813541
H  H439  1  0.75130000  0.28690000  0.76720000  1.0 0.0160813541
H  H440  1  0.01970000  0.98410000  0.73280000  1.0 0.0160813541
H  H441  1  0.48030000  0.21310000  0.96440000  1.0 0.0160813541
H  H442  1  0.74870000  0.51590000  0.53560000  1.0 0.0160813541
H  H443  1  0.96440000  0.98410000  0.75130000  1.0 0.0160813541
H  H444  1  0.51590000  0.53560000  0.74870000  1.0 0.0160813541
H  H445  1  0.98410000  0.73280000  0.01970000  1.0 0.0096927033
H  H446  1  0.28690000  0.76720000  0.75130000  1.0 0.0160813541
H  H447  1  0.21310000  0.96440000  0.48030000  1.0 0.0096927033
H  H448  1  0.48030000  0.76720000  0.51590000  1.0 0.0096927033
H  H449  1  0.74870000  0.73280000  0.21310000  1.0 0.0096927033
H  H450  1  0.01970000  0.53560000  0.28690000  1.0 0.0160813541
H  H451  1  0.28690000  0.01970000  0.53560000  1.0 0.0096927033
H  H452  1  0.51590000  0.48030000  0.76720000  1.0 0.0160813541
H  H453  1  0.21310000  0.74870000  0.73280000  1.0 0.0096927033
H  H454  1  0.53560000  0.28690000  0.01970000  1.0 0.0096927033
H  H455  1  0.73280000  0.21310000  0.74870000  1.0 0.0160813541
H  H456  1  0.76720000  0.51590000  0.48030000  1.0 0.0160813541
H  H457  1  0.24870000  0.03560000  0.01590000  1.0 0.0096927033
H  H458  1  0.03560000  0.51970000  0.78690000  1.0 0.0096927033
H  H459  1  0.23280000  0.24870000  0.71310000  1.0 0.0096927033
H  H460  1  0.26720000  0.98030000  0.01590000  1.0 0.0096927033
H  H461  1  0.46440000  0.25130000  0.48410000  1.0 0.0096927033
H  H462  1  0.01590000  0.24870000  0.03560000  1.0 0.0096927033
H  H463  1  0.24870000  0.71310000  0.23280000  1.0 0.0096927033
H  H464  1  0.98030000  0.01590000  0.26720000  1.0 0.0160813541
H  H465  1  0.51970000  0.78690000  0.03560000  1.0 0.0096927033
H  H466  1  0.25130000  0.48410000  0.46440000  1.0 0.0160813541
H  H467  1  0.03560000  0.01590000  0.24870000  1.0 0.0096927033
H  H468  1  0.48410000  0.46440000  0.25130000  1.0 0.0096927033
H  H469  1  0.01590000  0.26720000  0.98030000  1.0 0.0096927033
H  H470  1  0.71310000  0.23280000  0.24870000  1.0 0.0096927033
H  H471  1  0.78690000  0.03560000  0.51970000  1.0 0.0096927033
H  H472  1  0.51970000  0.23280000  0.48410000  1.0 0.0096927033
H  H473  1  0.25130000  0.26720000  0.78690000  1.0 0.0096927033
H  H474  1  0.98030000  0.46440000  0.71310000  1.0 0.0160813541
H  H475  1  0.71310000  0.98030000  0.46440000  1.0 0.0160813541
H  H476  1  0.48410000  0.51970000  0.23280000  1.0 0.0160813541
H  H477  1  0.78690000  0.25130000  0.26720000  1.0 0.0160813541
H  H478  1  0.46440000  0.71310000  0.98030000  1.0 0.0160813541
H  H479  1  0.26720000  0.78690000  0.25130000  1.0 0.0096927033
H  H480  1  0.23280000  0.48410000  0.51970000  1.0 0.0160813541
C  C1  1  0.88971000  0.01757000  0.95686000  1.0 0.0619923191
C  C2  1  0.01757000  0.56071000  0.12786000  1.0 0.0619923191
C  C3  1  0.93285000  0.88971000  0.37214000  1.0 0.0619923191
C  C4  1  0.56715000  0.93929000  0.95686000  1.0 0.0619923191
C  C5  1  0.48243000  0.61029000  0.54314000  1.0 0.0619923191
C  C6  1  0.95686000  0.88971000  0.01757000  1.0 0.0619923191
C  C7  1  0.88971000  0.37214000  0.93285000  1.0 0.0619923191
C  C8  1  0.93929000  0.95686000  0.56715000  1.0 0.0619923191
C  C9  1  0.56071000  0.12786000  0.01757000  1.0 0.0619923191
C  C10  1  0.61029000  0.54314000  0.48243000  1.0 0.0619923191
C  C11  1  0.01757000  0.95686000  0.88971000  1.0 0.0619923191
C  C12  1  0.54314000  0.48243000  0.61029000  1.0 0.0619923191
C  C13  1  0.95686000  0.56715000  0.93929000  1.0 0.0619923191
C  C14  1  0.37214000  0.93285000  0.88971000  1.0 0.0619923191
C  C15  1  0.12786000  0.01757000  0.56071000  1.0 0.0619923191
C  C16  1  0.56071000  0.93285000  0.54314000  1.0 0.0619923191
C  C17  1  0.61029000  0.56715000  0.12786000  1.0 0.0619923191
C  C18  1  0.93929000  0.48243000  0.37214000  1.0 0.0619923191
C  C19  1  0.37214000  0.93929000  0.48243000  1.0 0.0619923191
C  C20  1  0.54314000  0.56071000  0.93285000  1.0 0.0619923191
C  C21  1  0.12786000  0.61029000  0.56715000  1.0 0.0619923191
C  C22  1  0.48243000  0.37214000  0.93929000  1.0 0.0619923191
C  C23  1  0.56715000  0.12786000  0.61029000  1.0 0.0619923191
C  C24  1  0.93285000  0.54314000  0.56071000  1.0 0.0619923191
C  C25  1  0.11029000  0.98243000  0.04314000  1.0 0.0619923191
C  C26  1  0.98243000  0.43929000  0.87214000  1.0 0.0619923191
C  C27  1  0.06715000  0.11029000  0.62786000  1.0 0.0619923191
C  C28  1  0.43285000  0.06071000  0.04314000  1.0 0.0619923191
C  C29  1  0.51757000  0.38971000  0.45686000  1.0 0.0619923191
C  C30  1  0.04314000  0.11029000  0.98243000  1.0 0.0619923191
C  C31  1  0.11029000  0.62786000  0.06715000  1.0 0.0619923191
C  C32  1  0.06071000  0.04314000  0.43285000  1.0 0.0619923191
C  C33  1  0.43929000  0.87214000  0.98243000  1.0 0.0619923191
C  C34  1  0.38971000  0.45686000  0.51757000  1.0 0.0619923191
C  C35  1  0.98243000  0.04314000  0.11029000  1.0 0.0619923191
C  C36  1  0.45686000  0.51757000  0.38971000  1.0 0.0619923191
C  C37  1  0.04314000  0.43285000  0.06071000  1.0 0.0619923191
C  C38  1  0.62786000  0.06715000  0.11029000  1.0 0.0619923191
C  C39  1  0.87214000  0.98243000  0.43929000  1.0 0.0619923191
C  C40  1  0.43929000  0.06715000  0.45686000  1.0 0.0619923191
C  C41  1  0.38971000  0.43285000  0.87214000  1.0 0.0619923191
C  C42  1  0.06071000  0.51757000  0.62786000  1.0 0.0619923191
C  C43  1  0.62786000  0.06071000  0.51757000  1.0 0.0619923191
C  C44  1  0.45686000  0.43929000  0.06715000  1.0 0.0619923191
C  C45  1  0.87214000  0.38971000  0.43285000  1.0 0.0619923191
C  C46  1  0.51757000  0.62786000  0.06071000  1.0 0.0619923191
C  C47  1  0.43285000  0.87214000  0.38971000  1.0 0.0619923191
C  C48  1  0.06715000  0.45686000  0.43929000  1.0 0.0619923191
C  C49  1  0.83130000  0.00450000  0.92540000  1.0 -0.1902344856
C  C50  1  0.00450000  0.57910000  0.17320000  1.0 -0.1902344856
C  C51  1  0.90590000  0.83130000  0.32680000  1.0 -0.1902344856
C  C52  1  0.59410000  0.92090000  0.92540000  1.0 -0.1902344856
C  C53  1  0.49550000  0.66870000  0.57460000  1.0 -0.1902344856
C  C54  1  0.92540000  0.83130000  0.00450000  1.0 -0.1902344856
C  C55  1  0.83130000  0.32680000  0.90590000  1.0 -0.1902344856
C  C56  1  0.92090000  0.92540000  0.59410000  1.0 -0.1902344856
C  C57  1  0.57910000  0.17320000  0.00450000  1.0 -0.1902344856
C  C58  1  0.66870000  0.57460000  0.49550000  1.0 -0.1902344856
C  C59  1  0.00450000  0.92540000  0.83130000  1.0 -0.1902344856
C  C60  1  0.57460000  0.49550000  0.66870000  1.0 -0.1902344856
C  C61  1  0.92540000  0.59410000  0.92090000  1.0 -0.1902344856
C  C62  1  0.32680000  0.90590000  0.83130000  1.0 -0.1902344856
C  C63  1  0.17320000  0.00450000  0.57910000  1.0 -0.1902344856
C  C64  1  0.57910000  0.90590000  0.57460000  1.0 -0.1902344856
C  C65  1  0.66870000  0.59410000  0.17320000  1.0 -0.1902344856
C  C66  1  0.92090000  0.49550000  0.32680000  1.0 -0.1902344856
C  C67  1  0.32680000  0.92090000  0.49550000  1.0 -0.1902344856
C  C68  1  0.57460000  0.57910000  0.90590000  1.0 -0.1902344856
C  C69  1  0.17320000  0.66870000  0.59410000  1.0 -0.1902344856
C  C70  1  0.49550000  0.32680000  0.92090000  1.0 -0.1902344856
C  C71  1  0.59410000  0.17320000  0.66870000  1.0 -0.1902344856
C  C72  1  0.90590000  0.57460000  0.57910000  1.0 -0.1902344856
C  C73  1  0.16870000  0.99550000  0.07460000  1.0 -0.1902344856
C  C74  1  0.99550000  0.42090000  0.82680000  1.0 -0.1902344856
C  C75  1  0.09410000  0.16870000  0.67320000  1.0 -0.1902344856
C  C76  1  0.40590000  0.07910000  0.07460000  1.0 -0.1902344856
C  C77  1  0.50450000  0.33130000  0.42540000  1.0 -0.1902344856
C  C78  1  0.07460000  0.16870000  0.99550000  1.0 -0.1902344856
C  C79  1  0.16870000  0.67320000  0.09410000  1.0 -0.1902344856
C  C80  1  0.07910000  0.07460000  0.40590000  1.0 -0.1902344856
C  C81  1  0.42090000  0.82680000  0.99550000  1.0 -0.1902344856
C  C82  1  0.33130000  0.42540000  0.50450000  1.0 -0.1902344856
C  C83  1  0.99550000  0.07460000  0.16870000  1.0 -0.1902344856
C  C84  1  0.42540000  0.50450000  0.33130000  1.0 -0.1902344856
C  C85  1  0.07460000  0.40590000  0.07910000  1.0 -0.1902344856
C  C86  1  0.67320000  0.09410000  0.16870000  1.0 -0.1902344856
C  C87  1  0.82680000  0.99550000  0.42090000  1.0 -0.1902344856
C  C88  1  0.42090000  0.09410000  0.42540000  1.0 -0.1902344856
C  C89  1  0.33130000  0.40590000  0.82680000  1.0 -0.1902344856
C  C90  1  0.07910000  0.50450000  0.67320000  1.0 -0.1902344856
C  C91  1  0.67320000  0.07910000  0.50450000  1.0 -0.1902344856
C  C92  1  0.42540000  0.42090000  0.09410000  1.0 -0.1902344856
C  C93  1  0.82680000  0.33130000  0.40590000  1.0 -0.1902344856
C  C94  1  0.50450000  0.67320000  0.07910000  1.0 -0.1902344856
C  C95  1  0.40590000  0.82680000  0.33130000  1.0 -0.1902344856
C  C96  1  0.09410000  0.42540000  0.42090000  1.0 -0.1902344856
C  C97  1  0.78940000  0.95130000  0.90570000  1.0 0.0795174294
C  C98  1  0.95130000  0.54560000  0.16190000  1.0 0.0795174294
C  C99  1  0.88370000  0.78940000  0.33810000  1.0 0.0795174294
C  C100  1  0.61630000  0.95440000  0.90570000  1.0 0.0795174294
C  C101  1  0.54870000  0.71060000  0.59430000  1.0 0.0795174294
C  C102  1  0.90570000  0.78940000  0.95130000  1.0 0.0795174294
C  C103  1  0.78940000  0.33810000  0.88370000  1.0 0.0795174294
C  C104  1  0.95440000  0.90570000  0.61630000  1.0 0.0795174294
C  C105  1  0.54560000  0.16190000  0.95130000  1.0 0.0795174294
C  C106  1  0.71060000  0.59430000  0.54870000  1.0 0.0795174294
C  C107  1  0.95130000  0.90570000  0.78940000  1.0 0.0795174294
C  C108  1  0.59430000  0.54870000  0.71060000  1.0 0.0795174294
C  C109  1  0.90570000  0.61630000  0.95440000  1.0 0.0795174294
C  C110  1  0.33810000  0.88370000  0.78940000  1.0 0.0795174294
C  C111  1  0.16190000  0.95130000  0.54560000  1.0 0.0795174294
C  C112  1  0.54560000  0.88370000  0.59430000  1.0 0.0795174294
C  C113  1  0.71060000  0.61630000  0.16190000  1.0 0.0795174294
C  C114  1  0.95440000  0.54870000  0.33810000  1.0 0.0795174294
C  C115  1  0.33810000  0.95440000  0.54870000  1.0 0.0795174294
C  C116  1  0.59430000  0.54560000  0.88370000  1.0 0.0795174294
C  C117  1  0.16190000  0.71060000  0.61630000  1.0 0.0795174294
C  C118  1  0.54870000  0.33810000  0.95440000  1.0 0.0795174294
C  C119  1  0.61630000  0.16190000  0.71060000  1.0 0.0795174294
C  C120  1  0.88370000  0.59430000  0.54560000  1.0 0.0795174294
C  C121  1  0.21060000  0.04870000  0.09430000  1.0 0.0795174294
C  C122  1  0.04870000  0.45440000  0.83810000  1.0 0.0795174294
C  C123  1  0.11630000  0.21060000  0.66190000  1.0 0.0795174294
C  C124  1  0.38370000  0.04560000  0.09430000  1.0 0.0795174294
C  C125  1  0.45130000  0.28940000  0.40570000  1.0 0.0795174294
C  C126  1  0.09430000  0.21060000  0.04870000  1.0 0.0795174294
C  C127  1  0.21060000  0.66190000  0.11630000  1.0 0.0795174294
C  C128  1  0.04560000  0.09430000  0.38370000  1.0 0.0795174294
C  C129  1  0.45440000  0.83810000  0.04870000  1.0 0.0795174294
C  C130  1  0.28940000  0.40570000  0.45130000  1.0 0.0795174294
C  C131  1  0.04870000  0.09430000  0.21060000  1.0 0.0795174294
C  C132  1  0.40570000  0.45130000  0.28940000  1.0 0.0795174294
C  C133  1  0.09430000  0.38370000  0.04560000  1.0 0.0795174294
C  C134  1  0.66190000  0.11630000  0.21060000  1.0 0.0795174294
C  C135  1  0.83810000  0.04870000  0.45440000  1.0 0.0795174294
C  C136  1  0.45440000  0.11630000  0.40570000  1.0 0.0795174294
C  C137  1  0.28940000  0.38370000  0.83810000  1.0 0.0795174294
C  C138  1  0.04560000  0.45130000  0.66190000  1.0 0.0795174294
C  C139  1  0.66190000  0.04560000  0.45130000  1.0 0.0795174294
C  C140  1  0.40570000  0.45440000  0.11630000  1.0 0.0795174294
C  C141  1  0.83810000  0.28940000  0.38370000  1.0 0.0795174294
C  C142  1  0.45130000  0.66190000  0.04560000  1.0 0.0795174294
C  C143  1  0.38370000  0.83810000  0.28940000  1.0 0.0795174294
C  C144  1  0.11630000  0.40570000  0.45440000  1.0 0.0795174294
C  C145  1  0.80510000  0.91540000  0.91530000  1.0 -0.1729340009
C  C146  1  0.91540000  0.50010000  0.11030000  1.0 -0.1729340009
C  C147  1  0.88980000  0.80510000  0.38970000  1.0 -0.1729340009
C  C148  1  0.61020000  0.99990000  0.91530000  1.0 -0.1729340009
C  C149  1  0.58460000  0.69490000  0.58470000  1.0 -0.1729340009
C  C150  1  0.91530000  0.80510000  0.91540000  1.0 -0.1729340009
C  C151  1  0.80510000  0.38970000  0.88980000  1.0 -0.1729340009
C  C152  1  0.99990000  0.91530000  0.61020000  1.0 -0.1729340009
C  C153  1  0.50010000  0.11030000  0.91540000  1.0 -0.1729340009
C  C154  1  0.69490000  0.58470000  0.58460000  1.0 -0.1729340009
C  C155  1  0.91540000  0.91530000  0.80510000  1.0 -0.1729340009
C  C156  1  0.58470000  0.58460000  0.69490000  1.0 -0.1729340009
C  C157  1  0.91530000  0.61020000  0.99990000  1.0 -0.1729340009
C  C158  1  0.38970000  0.88980000  0.80510000  1.0 -0.1729340009
C  C159  1  0.11030000  0.91540000  0.50010000  1.0 -0.1729340009
C  C160  1  0.50010000  0.88980000  0.58470000  1.0 -0.1729340009
C  C161  1  0.69490000  0.61020000  0.11030000  1.0 -0.1729340009
C  C162  1  0.99990000  0.58460000  0.38970000  1.0 -0.1729340009
C  C163  1  0.38970000  0.99990000  0.58460000  1.0 -0.1729340009
C  C164  1  0.58470000  0.50010000  0.88980000  1.0 -0.1729340009
C  C165  1  0.11030000  0.69490000  0.61020000  1.0 -0.1729340009
C  C166  1  0.58460000  0.38970000  0.99990000  1.0 -0.1729340009
C  C167  1  0.61020000  0.11030000  0.69490000  1.0 -0.1729340009
C  C168  1  0.88980000  0.58470000  0.50010000  1.0 -0.1729340009
C  C169  1  0.19490000  0.08460000  0.08470000  1.0 -0.1729340009
C  C170  1  0.08460000  0.49990000  0.88970000  1.0 -0.1729340009
C  C171  1  0.11020000  0.19490000  0.61030000  1.0 -0.1729340009
C  C172  1  0.38980000  0.00010000  0.08470000  1.0 -0.1729340009
C  C173  1  0.41540000  0.30510000  0.41530000  1.0 -0.1729340009
C  C174  1  0.08470000  0.19490000  0.08460000  1.0 -0.1729340009
C  C175  1  0.19490000  0.61030000  0.11020000  1.0 -0.1729340009
C  C176  1  0.00010000  0.08470000  0.38980000  1.0 -0.1729340009
C  C177  1  0.49990000  0.88970000  0.08460000  1.0 -0.1729340009
C  C178  1  0.30510000  0.41530000  0.41540000  1.0 -0.1729340009
C  C179  1  0.08460000  0.08470000  0.19490000  1.0 -0.1729340009
C  C180  1  0.41530000  0.41540000  0.30510000  1.0 -0.1729340009
C  C181  1  0.08470000  0.38980000  0.00010000  1.0 -0.1729340009
C  C182  1  0.61030000  0.11020000  0.19490000  1.0 -0.1729340009
C  C183  1  0.88970000  0.08460000  0.49990000  1.0 -0.1729340009
C  C184  1  0.49990000  0.11020000  0.41530000  1.0 -0.1729340009
C  C185  1  0.30510000  0.38980000  0.88970000  1.0 -0.1729340009
C  C186  1  0.00010000  0.41540000  0.61030000  1.0 -0.1729340009
C  C187  1  0.61030000  0.00010000  0.41540000  1.0 -0.1729340009
C  C188  1  0.41530000  0.49990000  0.11020000  1.0 -0.1729340009
C  C189  1  0.88970000  0.30510000  0.38980000  1.0 -0.1729340009
C  C190  1  0.41540000  0.61030000  0.00010000  1.0 -0.1729340009
C  C191  1  0.38980000  0.88970000  0.30510000  1.0 -0.1729340009
C  C192  1  0.11020000  0.41530000  0.49990000  1.0 -0.1729340009
C  C193  1  0.85732000  0.93072000  0.94360000  1.0 -0.032154107
C  C194  1  0.93072000  0.48712000  0.07340000  1.0 -0.032154107
C  C195  1  0.91372000  0.85732000  0.42660000  1.0 -0.032154107
C  C196  1  0.58628000  0.01288000  0.94360000  1.0 -0.032154107
C  C197  1  0.56928000  0.64268000  0.55640000  1.0 -0.032154107
C  C198  1  0.94360000  0.85732000  0.93072000  1.0 -0.032154107
C  C199  1  0.85732000  0.42660000  0.91372000  1.0 -0.032154107
C  C200  1  0.01288000  0.94360000  0.58628000  1.0 -0.032154107
C  C201  1  0.48712000  0.07340000  0.93072000  1.0 -0.032154107
C  C202  1  0.64268000  0.55640000  0.56928000  1.0 -0.032154107
C  C203  1  0.93072000  0.94360000  0.85732000  1.0 -0.032154107
C  C204  1  0.55640000  0.56928000  0.64268000  1.0 -0.032154107
C  C205  1  0.94360000  0.58628000  0.01288000  1.0 -0.032154107
C  C206  1  0.42660000  0.91372000  0.85732000  1.0 -0.032154107
C  C207  1  0.07340000  0.93072000  0.48712000  1.0 -0.032154107
C  C208  1  0.48712000  0.91372000  0.55640000  1.0 -0.032154107
C  C209  1  0.64268000  0.58628000  0.07340000  1.0 -0.032154107
C  C210  1  0.01288000  0.56928000  0.42660000  1.0 -0.032154107
C  C211  1  0.42660000  0.01288000  0.56928000  1.0 -0.032154107
C  C212  1  0.55640000  0.48712000  0.91372000  1.0 -0.032154107
C  C213  1  0.07340000  0.64268000  0.58628000  1.0 -0.032154107
C  C214  1  0.56928000  0.42660000  0.01288000  1.0 -0.032154107
C  C215  1  0.58628000  0.07340000  0.64268000  1.0 -0.032154107
C  C216  1  0.91372000  0.55640000  0.48712000  1.0 -0.032154107
C  C217  1  0.14268000  0.06928000  0.05640000  1.0 -0.032154107
C  C218  1  0.06928000  0.51288000  0.92660000  1.0 -0.032154107
C  C219  1  0.08628000  0.14268000  0.57340000  1.0 -0.032154107
C  C220  1  0.41372000  0.98712000  0.05640000  1.0 -0.032154107
C  C221  1  0.43072000  0.35732000  0.44360000  1.0 -0.032154107
C  C222  1  0.05640000  0.14268000  0.06928000  1.0 -0.032154107
C  C223  1  0.14268000  0.57340000  0.08628000  1.0 -0.032154107
C  C224  1  0.98712000  0.05640000  0.41372000  1.0 -0.032154107
C  C225  1  0.51288000  0.92660000  0.06928000  1.0 -0.032154107
C  C226  1  0.35732000  0.44360000  0.43072000  1.0 -0.032154107
C  C227  1  0.06928000  0.05640000  0.14268000  1.0 -0.032154107
C  C228  1  0.44360000  0.43072000  0.35732000  1.0 -0.032154107
C  C229  1  0.05640000  0.41372000  0.98712000  1.0 -0.032154107
C  C230  1  0.57340000  0.08628000  0.14268000  1.0 -0.032154107
C  C231  1  0.92660000  0.06928000  0.51288000  1.0 -0.032154107
C  C232  1  0.51288000  0.08628000  0.44360000  1.0 -0.032154107
C  C233  1  0.35732000  0.41372000  0.92660000  1.0 -0.032154107
C  C234  1  0.98712000  0.43072000  0.57340000  1.0 -0.032154107
C  C235  1  0.57340000  0.98712000  0.43072000  1.0 -0.032154107
C  C236  1  0.44360000  0.51288000  0.08628000  1.0 -0.032154107
C  C237  1  0.92660000  0.35732000  0.41372000  1.0 -0.032154107
C  C238  1  0.43072000  0.57340000  0.98712000  1.0 -0.032154107
C  C239  1  0.41372000  0.92660000  0.35732000  1.0 -0.032154107
C  C240  1  0.08628000  0.44360000  0.51288000  1.0 -0.032154107
C  C241  1  0.73510000  0.98510000  0.97020000  1.0 -0.1729340009
C  C242  1  0.98510000  0.51490000  0.25000000  1.0 -0.1729340009
C  C243  1  0.76490000  0.73510000  0.25000000  1.0 -0.1729340009
C  C244  1  0.51490000  0.76490000  0.52980000  1.0 -0.1729340009
C  C245  1  0.97020000  0.73510000  0.98510000  1.0 -0.1729340009
C  C246  1  0.73510000  0.25000000  0.76490000  1.0 -0.1637465935
C  C247  1  0.98510000  0.97020000  0.73510000  1.0 -0.1729340009
C  C248  1  0.51490000  0.25000000  0.98510000  1.0 -0.1637465935
C  C249  1  0.76490000  0.52980000  0.51490000  1.0 -0.1637465935
C  C250  1  0.52980000  0.51490000  0.76490000  1.0 -0.1637465935
C  C251  1  0.25000000  0.76490000  0.73510000  1.0 -0.1637465935
C  C252  1  0.25000000  0.98510000  0.51490000  1.0 -0.1637465935
C  C253  1  0.26490000  0.01490000  0.02980000  1.0 -0.1637465935
C  C254  1  0.01490000  0.48510000  0.75000000  1.0 -0.1637465935
C  C255  1  0.23510000  0.26490000  0.75000000  1.0 -0.1637465935
C  C256  1  0.48510000  0.23510000  0.47020000  1.0 -0.1637465935
C  C257  1  0.02980000  0.26490000  0.01490000  1.0 -0.1637465935
C  C258  1  0.26490000  0.75000000  0.23510000  1.0 -0.1637465935
C  C259  1  0.01490000  0.02980000  0.26490000  1.0 -0.1637465935
C  C260  1  0.48510000  0.75000000  0.01490000  1.0 -0.1637465935
C  C261  1  0.23510000  0.47020000  0.48510000  1.0 -0.1729340009
C  C262  1  0.47020000  0.48510000  0.23510000  1.0 -0.1729340009
C  C263  1  0.75000000  0.23510000  0.26490000  1.0 -0.1729340009
C  C264  1  0.75000000  0.01490000  0.48510000  1.0 -0.1637465935
C  C265  1  0.70070000  0.95070000  0.90140000  1.0 -0.0025893015
C  C266  1  0.95070000  0.54930000  0.25000000  1.0 -0.0025893015
C  C267  1  0.79930000  0.70070000  0.25000000  1.0 -0.0025893015
C  C268  1  0.54930000  0.79930000  0.59860000  1.0 -0.0025893015
C  C269  1  0.90140000  0.70070000  0.95070000  1.0 -0.0025893015
C  C270  1  0.70070000  0.25000000  0.79930000  1.0 -0.0025893015
C  C271  1  0.95070000  0.90140000  0.70070000  1.0 -0.0025893015
C  C272  1  0.54930000  0.25000000  0.95070000  1.0 -0.0025893015
C  C273  1  0.79930000  0.59860000  0.54930000  1.0 -0.0025893015
C  C274  1  0.59860000  0.54930000  0.79930000  1.0 -0.0025893015
C  C275  1  0.25000000  0.79930000  0.70070000  1.0 -0.0025893015
C  C276  1  0.25000000  0.95070000  0.54930000  1.0 -0.0025893015
C  C277  1  0.29930000  0.04930000  0.09860000  1.0 -0.0025893015
C  C278  1  0.04930000  0.45070000  0.75000000  1.0 -0.0025893015
C  C279  1  0.20070000  0.29930000  0.75000000  1.0 -0.0025893015
C  C280  1  0.45070000  0.20070000  0.40140000  1.0 -0.0025893015
C  C281  1  0.09860000  0.29930000  0.04930000  1.0 -0.0025893015
C  C282  1  0.29930000  0.75000000  0.20070000  1.0 -0.0025893015
C  C283  1  0.04930000  0.09860000  0.29930000  1.0 -0.0025893015
C  C284  1  0.45070000  0.75000000  0.04930000  1.0 -0.0025893015
C  C285  1  0.20070000  0.40140000  0.45070000  1.0 -0.0025893015
C  C286  1  0.40140000  0.45070000  0.20070000  1.0 -0.0025893015
C  C287  1  0.75000000  0.20070000  0.29930000  1.0 -0.0025893015
C  C288  1  0.75000000  0.04930000  0.45070000  1.0 -0.0025893015
C  C289  1  0.72880000  0.93690000  0.87110000  1.0 -0.0533426771
C  C290  1  0.93690000  0.56580000  0.20810000  1.0 -0.0533426771
C  C291  1  0.85770000  0.72880000  0.29190000  1.0 -0.0533426771
C  C292  1  0.64230000  0.93420000  0.87110000  1.0 -0.0533426771
C  C293  1  0.56310000  0.77120000  0.62890000  1.0 -0.0533426771
C  C294  1  0.87110000  0.72880000  0.93690000  1.0 -0.0533426771
C  C295  1  0.72880000  0.29190000  0.85770000  1.0 -0.0533426771
C  C296  1  0.93420000  0.87110000  0.64230000  1.0 -0.0533426771
C  C297  1  0.56580000  0.20810000  0.93690000  1.0 -0.0533426771
C  C298  1  0.77120000  0.62890000  0.56310000  1.0 -0.0533426771
C  C299  1  0.93690000  0.87110000  0.72880000  1.0 -0.0533426771
C  C300  1  0.62890000  0.56310000  0.77120000  1.0 -0.0533426771
C  C301  1  0.87110000  0.64230000  0.93420000  1.0 -0.0533426771
C  C302  1  0.29190000  0.85770000  0.72880000  1.0 -0.0533426771
C  C303  1  0.20810000  0.93690000  0.56580000  1.0 -0.0533426771
C  C304  1  0.56580000  0.85770000  0.62890000  1.0 -0.0533426771
C  C305  1  0.77120000  0.64230000  0.20810000  1.0 -0.0533426771
C  C306  1  0.93420000  0.56310000  0.29190000  1.0 -0.0533426771
C  C307  1  0.29190000  0.93420000  0.56310000  1.0 -0.0533426771
C  C308  1  0.62890000  0.56580000  0.85770000  1.0 -0.0533426771
C  C309  1  0.20810000  0.77120000  0.64230000  1.0 -0.0533426771
C  C310  1  0.56310000  0.29190000  0.93420000  1.0 -0.0533426771
C  C311  1  0.64230000  0.20810000  0.77120000  1.0 -0.0533426771
C  C312  1  0.85770000  0.62890000  0.56580000  1.0 -0.0533426771
C  C313  1  0.27120000  0.06310000  0.12890000  1.0 -0.0533426771
C  C314  1  0.06310000  0.43420000  0.79190000  1.0 -0.0533426771
C  C315  1  0.14230000  0.27120000  0.70810000  1.0 -0.0533426771
C  C316  1  0.35770000  0.06580000  0.12890000  1.0 -0.0533426771
C  C317  1  0.43690000  0.22880000  0.37110000  1.0 -0.0533426771
C  C318  1  0.12890000  0.27120000  0.06310000  1.0 -0.0533426771
C  C319  1  0.27120000  0.70810000  0.14230000  1.0 -0.0533426771
C  C320  1  0.06580000  0.12890000  0.35770000  1.0 -0.0533426771
C  C321  1  0.43420000  0.79190000  0.06310000  1.0 -0.0533426771
C  C322  1  0.22880000  0.37110000  0.43690000  1.0 -0.0533426771
C  C323  1  0.06310000  0.12890000  0.27120000  1.0 -0.0533426771
C  C324  1  0.37110000  0.43690000  0.22880000  1.0 -0.0533426771
C  C325  1  0.12890000  0.35770000  0.06580000  1.0 -0.0533426771
C  C326  1  0.70810000  0.14230000  0.27120000  1.0 -0.0533426771
C  C327  1  0.79190000  0.06310000  0.43420000  1.0 -0.0533426771
C  C328  1  0.43420000  0.14230000  0.37110000  1.0 -0.0533426771
C  C329  1  0.22880000  0.35770000  0.79190000  1.0 -0.0533426771
C  C330  1  0.06580000  0.43690000  0.70810000  1.0 -0.0533426771
C  C331  1  0.70810000  0.06580000  0.43690000  1.0 -0.0533426771
C  C332  1  0.37110000  0.43420000  0.14230000  1.0 -0.0533426771
C  C333  1  0.79190000  0.22880000  0.35770000  1.0 -0.0533426771
C  C334  1  0.43690000  0.70810000  0.06580000  1.0 -0.0533426771
C  C335  1  0.35770000  0.79190000  0.22880000  1.0 -0.0533426771
C  C336  1  0.14230000  0.37110000  0.43420000  1.0 -0.0533426771
C  C337  1  0.70140000  0.91210000  0.81310000  1.0 0.0330370636
C  C338  1  0.91210000  0.59900000  0.21070000  1.0 0.0330370636
C  C339  1  0.88830000  0.70140000  0.28930000  1.0 0.0330370636
C  C340  1  0.61170000  0.90100000  0.81310000  1.0 0.0330370636
C  C341  1  0.58790000  0.79860000  0.68690000  1.0 0.0330370636
C  C342  1  0.81310000  0.70140000  0.91210000  1.0 0.0330370636
C  C343  1  0.70140000  0.28930000  0.88830000  1.0 0.0330370636
C  C344  1  0.90100000  0.81310000  0.61170000  1.0 0.0330370636
C  C345  1  0.59900000  0.21070000  0.91210000  1.0 0.0330370636
C  C346  1  0.79860000  0.68690000  0.58790000  1.0 0.0330370636
C  C347  1  0.91210000  0.81310000  0.70140000  1.0 0.0330370636
C  C348  1  0.68690000  0.58790000  0.79860000  1.0 0.0330370636
C  C349  1  0.81310000  0.61170000  0.90100000  1.0 0.0330370636
C  C350  1  0.28930000  0.88830000  0.70140000  1.0 0.0330370636
C  C351  1  0.21070000  0.91210000  0.59900000  1.0 0.0330370636
C  C352  1  0.59900000  0.88830000  0.68690000  1.0 0.0330370636
C  C353  1  0.79860000  0.61170000  0.21070000  1.0 0.0330370636
C  C354  1  0.90100000  0.58790000  0.28930000  1.0 0.0330370636
C  C355  1  0.28930000  0.90100000  0.58790000  1.0 0.0330370636
C  C356  1  0.68690000  0.59900000  0.88830000  1.0 0.0330370636
C  C357  1  0.21070000  0.79860000  0.61170000  1.0 0.0330370636
C  C358  1  0.58790000  0.28930000  0.90100000  1.0 0.0330370636
C  C359  1  0.61170000  0.21070000  0.79860000  1.0 0.0330370636
C  C360  1  0.88830000  0.68690000  0.59900000  1.0 0.0330370636
C  C361  1  0.29860000  0.08790000  0.18690000  1.0 0.0330370636
C  C362  1  0.08790000  0.40100000  0.78930000  1.0 0.0330370636
C  C363  1  0.11170000  0.29860000  0.71070000  1.0 0.0330370636
C  C364  1  0.38830000  0.09900000  0.18690000  1.0 0.0330370636
C  C365  1  0.41210000  0.20140000  0.31310000  1.0 0.0330370636
C  C366  1  0.18690000  0.29860000  0.08790000  1.0 0.0330370636
C  C367  1  0.29860000  0.71070000  0.11170000  1.0 0.0330370636
C  C368  1  0.09900000  0.18690000  0.38830000  1.0 0.0330370636
C  C369  1  0.40100000  0.78930000  0.08790000  1.0 0.0330370636
C  C370  1  0.20140000  0.31310000  0.41210000  1.0 0.0330370636
C  C371  1  0.08790000  0.18690000  0.29860000  1.0 0.0330370636
C  C372  1  0.31310000  0.41210000  0.20140000  1.0 0.0330370636
C  C373  1  0.18690000  0.38830000  0.09900000  1.0 0.0330370636
C  C374  1  0.71070000  0.11170000  0.29860000  1.0 0.0330370636
C  C375  1  0.78930000  0.08790000  0.40100000  1.0 0.0330370636
C  C376  1  0.40100000  0.11170000  0.31310000  1.0 0.0330370636
C  C377  1  0.20140000  0.38830000  0.78930000  1.0 0.0330370636
C  C378  1  0.09900000  0.41210000  0.71070000  1.0 0.0330370636
C  C379  1  0.71070000  0.09900000  0.41210000  1.0 0.0330370636
C  C380  1  0.31310000  0.40100000  0.11170000  1.0 0.0330370636
C  C381  1  0.78930000  0.20140000  0.38830000  1.0 0.0330370636
C  C382  1  0.41210000  0.71070000  0.09900000  1.0 0.0330370636
C  C383  1  0.38830000  0.78930000  0.20140000  1.0 0.0330370636
C  C384  1  0.11170000  0.31310000  0.40100000  1.0 0.0330370636
C  C385  1  0.64240000  0.89240000  0.78480000  1.0 -0.0093634959
C  C386  1  0.89240000  0.60760000  0.25000000  1.0 -0.0093634959
C  C387  1  0.85760000  0.64240000  0.25000000  1.0 -0.0093634959
C  C388  1  0.60760000  0.85760000  0.71520000  1.0 -0.0093634959
C  C389  1  0.78480000  0.64240000  0.89240000  1.0 -0.0093634959
C  C390  1  0.64240000  0.25000000  0.85760000  1.0 -0.0093634959
C  C391  1  0.89240000  0.78480000  0.64240000  1.0 -0.0093634959
C  C392  1  0.60760000  0.25000000  0.89240000  1.0 -0.0093634959
C  C393  1  0.85760000  0.71520000  0.60760000  1.0 -0.0093634959
C  C394  1  0.71520000  0.60760000  0.85760000  1.0 -0.0093634959
C  C395  1  0.25000000  0.85760000  0.64240000  1.0 -0.0093634959
C  C396  1  0.25000000  0.89240000  0.60760000  1.0 -0.0093634959
C  C397  1  0.35760000  0.10760000  0.21520000  1.0 -0.0093634959
C  C398  1  0.10760000  0.39240000  0.75000000  1.0 -0.0093634959
C  C399  1  0.14240000  0.35760000  0.75000000  1.0 -0.0093634959
C  C400  1  0.39240000  0.14240000  0.28480000  1.0 -0.0093634959
C  C401  1  0.21520000  0.35760000  0.10760000  1.0 -0.0093634959
C  C402  1  0.35760000  0.75000000  0.14240000  1.0 -0.0093634959
C  C403  1  0.10760000  0.21520000  0.35760000  1.0 -0.0093634959
C  C404  1  0.39240000  0.75000000  0.10760000  1.0 -0.0093634959
C  C405  1  0.14240000  0.28480000  0.39240000  1.0 -0.0093634959
C  C406  1  0.28480000  0.39240000  0.14240000  1.0 -0.0093634959
C  C407  1  0.75000000  0.14240000  0.35760000  1.0 -0.0093634959
C  C408  1  0.75000000  0.10760000  0.39240000  1.0 -0.0093634959
C  C409  1  0.72940000  0.89900000  0.77940000  1.0 -0.4231265028
C  C410  1  0.89900000  0.61960000  0.16960000  1.0 -0.4231265028
C  C411  1  0.95000000  0.72940000  0.33040000  1.0 -0.4231265028
C  C412  1  0.55000000  0.88040000  0.77940000  1.0 -0.4231265028
C  C413  1  0.60100000  0.77060000  0.72060000  1.0 -0.4231265028
C  C414  1  0.77940000  0.72940000  0.89900000  1.0 -0.4231265028
C  C415  1  0.72940000  0.33040000  0.95000000  1.0 -0.4231265028
C  C416  1  0.88040000  0.77940000  0.55000000  1.0 -0.4231265028
C  C417  1  0.61960000  0.16960000  0.89900000  1.0 -0.4231265028
C  C418  1  0.77060000  0.72060000  0.60100000  1.0 -0.4231265028
C  C419  1  0.89900000  0.77940000  0.72940000  1.0 -0.4231265028
C  C420  1  0.72060000  0.60100000  0.77060000  1.0 -0.4231265028
C  C421  1  0.77940000  0.55000000  0.88040000  1.0 -0.4231265028
C  C422  1  0.33040000  0.95000000  0.72940000  1.0 -0.4231265028
C  C423  1  0.16960000  0.89900000  0.61960000  1.0 -0.4231265028
C  C424  1  0.61960000  0.95000000  0.72060000  1.0 -0.4231265028
C  C425  1  0.77060000  0.55000000  0.16960000  1.0 -0.4231265028
C  C426  1  0.88040000  0.60100000  0.33040000  1.0 -0.4231265028
C  C427  1  0.33040000  0.88040000  0.60100000  1.0 -0.4231265028
C  C428  1  0.72060000  0.61960000  0.95000000  1.0 -0.4231265028
C  C429  1  0.16960000  0.77060000  0.55000000  1.0 -0.4231265028
C  C430  1  0.60100000  0.33040000  0.88040000  1.0 -0.4231265028
C  C431  1  0.55000000  0.16960000  0.77060000  1.0 -0.4231265028
C  C432  1  0.95000000  0.72060000  0.61960000  1.0 -0.4231265028
C  C433  1  0.27060000  0.10100000  0.22060000  1.0 -0.4231265028
C  C434  1  0.10100000  0.38040000  0.83040000  1.0 -0.4231265028
C  C435  1  0.05000000  0.27060000  0.66960000  1.0 -0.4231265028
C  C436  1  0.45000000  0.11960000  0.22060000  1.0 -0.4231265028
C  C437  1  0.39900000  0.22940000  0.27940000  1.0 -0.4231265028
C  C438  1  0.22060000  0.27060000  0.10100000  1.0 -0.4231265028
C  C439  1  0.27060000  0.66960000  0.05000000  1.0 -0.4231265028
C  C440  1  0.11960000  0.22060000  0.45000000  1.0 -0.4231265028
C  C441  1  0.38040000  0.83040000  0.10100000  1.0 -0.4231265028
C  C442  1  0.22940000  0.27940000  0.39900000  1.0 -0.4231265028
C  C443  1  0.10100000  0.22060000  0.27060000  1.0 -0.4231265028
C  C444  1  0.27940000  0.39900000  0.22940000  1.0 -0.4231265028
C  C445  1  0.22060000  0.45000000  0.11960000  1.0 -0.4231265028
C  C446  1  0.66960000  0.05000000  0.27060000  1.0 -0.4231265028
C  C447  1  0.83040000  0.10100000  0.38040000  1.0 -0.4231265028
C  C448  1  0.38040000  0.05000000  0.27940000  1.0 -0.4231265028
C  C449  1  0.22940000  0.45000000  0.83040000  1.0 -0.4231265028
C  C450  1  0.11960000  0.39900000  0.66960000  1.0 -0.4231265028
C  C451  1  0.66960000  0.11960000  0.39900000  1.0 -0.4231265028
C  C452  1  0.27940000  0.38040000  0.05000000  1.0 -0.4231265028
C  C453  1  0.83040000  0.22940000  0.45000000  1.0 -0.4231265028
C  C454  1  0.39900000  0.66960000  0.11960000  1.0 -0.4231265028
C  C455  1  0.45000000  0.83040000  0.22940000  1.0 -0.4231265028
C  C456  1  0.05000000  0.27940000  0.38040000  1.0 -0.4231265028
N  N1  1  0.90394000  0.98156000  0.96418000  1.0 -0.2512480526
N  N2  1  0.98156000  0.51738000  0.07762000  1.0 -0.2512480526
N  N3  1  0.93976000  0.90394000  0.42238000  1.0 -0.2512480526
N  N4  1  0.56024000  0.98262000  0.96418000  1.0 -0.2512480526
N  N5  1  0.51844000  0.59606000  0.53582000  1.0 -0.2512480526
N  N6  1  0.96418000  0.90394000  0.98156000  1.0 -0.2512480526
N  N7  1  0.90394000  0.42238000  0.93976000  1.0 -0.2512480526
N  N8  1  0.98262000  0.96418000  0.56024000  1.0 -0.2512480526
N  N9  1  0.51738000  0.07762000  0.98156000  1.0 -0.2512480526
N  N10  1  0.59606000  0.53582000  0.51844000  1.0 -0.2512480526
N  N11  1  0.98156000  0.96418000  0.90394000  1.0 -0.2512480526
N  N12  1  0.53582000  0.51844000  0.59606000  1.0 -0.2512480526
N  N13  1  0.96418000  0.56024000  0.98262000  1.0 -0.2512480526
N  N14  1  0.42238000  0.93976000  0.90394000  1.0 -0.2512480526
N  N15  1  0.07762000  0.98156000  0.51738000  1.0 -0.2512480526
N  N16  1  0.51738000  0.93976000  0.53582000  1.0 -0.2512480526
N  N17  1  0.59606000  0.56024000  0.07762000  1.0 -0.2512480526
N  N18  1  0.98262000  0.51844000  0.42238000  1.0 -0.2512480526
N  N19  1  0.42238000  0.98262000  0.51844000  1.0 -0.2512480526
N  N20  1  0.53582000  0.51738000  0.93976000  1.0 -0.2512480526
N  N21  1  0.07762000  0.59606000  0.56024000  1.0 -0.2512480526
N  N22  1  0.51844000  0.42238000  0.98262000  1.0 -0.2512480526
N  N23  1  0.56024000  0.07762000  0.59606000  1.0 -0.2512480526
N  N24  1  0.93976000  0.53582000  0.51738000  1.0 -0.2512480526
N  N25  1  0.09606000  0.01844000  0.03582000  1.0 -0.2512480526
N  N26  1  0.01844000  0.48262000  0.92238000  1.0 -0.2512480526
N  N27  1  0.06024000  0.09606000  0.57762000  1.0 -0.2512480526
N  N28  1  0.43976000  0.01738000  0.03582000  1.0 -0.2512480526
N  N29  1  0.48156000  0.40394000  0.46418000  1.0 -0.2512480526
N  N30  1  0.03582000  0.09606000  0.01844000  1.0 -0.2512480526
N  N31  1  0.09606000  0.57762000  0.06024000  1.0 -0.2512480526
N  N32  1  0.01738000  0.03582000  0.43976000  1.0 -0.2512480526
N  N33  1  0.48262000  0.92238000  0.01844000  1.0 -0.2512480526
N  N34  1  0.40394000  0.46418000  0.48156000  1.0 -0.2512480526
N  N35  1  0.01844000  0.03582000  0.09606000  1.0 -0.2512480526
N  N36  1  0.46418000  0.48156000  0.40394000  1.0 -0.2512480526
N  N37  1  0.03582000  0.43976000  0.01738000  1.0 -0.2512480526
N  N38  1  0.57762000  0.06024000  0.09606000  1.0 -0.2512480526
N  N39  1  0.92238000  0.01844000  0.48262000  1.0 -0.2512480526
N  N40  1  0.48262000  0.06024000  0.46418000  1.0 -0.2512480526
N  N41  1  0.40394000  0.43976000  0.92238000  1.0 -0.2512480526
N  N42  1  0.01738000  0.48156000  0.57762000  1.0 -0.2512480526
N  N43  1  0.57762000  0.01738000  0.48156000  1.0 -0.2512480526
N  N44  1  0.46418000  0.48262000  0.06024000  1.0 -0.2512480526
N  N45  1  0.92238000  0.40394000  0.43976000  1.0 -0.2512480526
N  N46  1  0.48156000  0.57762000  0.01738000  1.0 -0.2512480526
N  N47  1  0.43976000  0.92238000  0.40394000  1.0 -0.2512480526
N  N48  1  0.06024000  0.46418000  0.48262000  1.0 -0.2512480526
