# DDEC6 charges by PACMAN v1.1 (https://github.com/mtap-research/PACMAN-charge/)
data_MAPCIP_FSR_pacman
_symmetry_space_group_name_H-M   'P 1'
_cell_length_a   18.03390000
_cell_length_b   18.03390000
_cell_length_c   18.03390000
_cell_angle_alpha   129.93700000
_cell_angle_beta   129.93700000
_cell_angle_gamma   73.50800000
_symmetry_Int_Tables_number   1
_chemical_formula_structural   Ga4P5O23
_chemical_formula_sum   'Ga16 P20 O92'
_cell_volume   3365.08690059
_cell_formula_units_Z   4
loop_
 _symmetry_equiv_pos_site_id
 _symmetry_equiv_pos_as_xyz
  1  'x, y, z'
loop_
 _atom_site_type_symbol
 _atom_site_label
 _atom_site_symmetry_multiplicity
 _atom_site_fract_x
 _atom_site_fract_y
 _atom_site_fract_z
 _atom_site_occupancy
 _atom_site_charge
Ga  Ga1  1  0.43009000  0.12084000  0.70809000  1.0 1.4362355982
Ga  Ga2  1  0.87084000  0.66275000  0.19075000  1.0 1.4362355982
Ga  Ga3  1  0.41275000  0.72200000  0.29191000  1.0 1.4362355982
Ga  Ga4  1  0.47200000  0.68009000  0.80925000  1.0 1.4362355982
Ga  Ga5  1  0.31991000  0.12916000  0.79191000  1.0 1.4362355982
Ga  Ga6  1  0.87916000  0.58725000  0.30925000  1.0 1.4333328861
Ga  Ga7  1  0.33725000  0.52800000  0.20809000  1.0 1.4362355982
Ga  Ga8  1  0.27800000  0.56991000  0.69075000  1.0 1.4362355982
Ga  Ga9  1  0.22950000  0.89422000  0.47512000  1.0 1.458344813
Ga  Ga10  1  0.64422000  0.66910000  0.16472000  1.0 1.458344813
Ga  Ga11  1  0.41910000  0.75438000  0.52488000  1.0 1.458344813
Ga  Ga12  1  0.50438000  0.47950000  0.83528000  1.0 1.458344813
Ga  Ga13  1  0.52050000  0.35578000  0.02488000  1.0 1.458344813
Ga  Ga14  1  0.10578000  0.58090000  0.33528000  1.0 1.458344813
Ga  Ga15  1  0.33090000  0.49562000  0.97512000  1.0 1.458344813
Ga  Ga16  1  0.24562000  0.77050000  0.66472000  1.0 1.458344813
P  P1  1  0.20094000  0.10386000  0.55264000  1.0 1.4923884081
P  P2  1  0.85386000  0.80122000  0.40292000  1.0 1.4923884081
P  P3  1  0.55122000  0.64830000  0.44736000  1.0 1.4923884081
P  P4  1  0.39830000  0.45094000  0.59708000  1.0 1.4923884081
P  P5  1  0.54906000  0.14614000  0.94736000  1.0 1.4923884081
P  P6  1  0.89614000  0.44878000  0.09708000  1.0 1.4923884081
P  P7  1  0.19878000  0.60170000  0.05264000  1.0 1.4923884081
P  P8  1  0.35170000  0.79906000  0.90292000  1.0 1.4923884081
P  P9  1  0.16654000  0.94216000  0.63528000  1.0 1.5527733522
P  P10  1  0.69216000  0.55688000  0.27562000  1.0 1.5527733522
P  P11  1  0.30688000  0.53126000  0.36472000  1.0 1.5527733522
P  P12  1  0.28126000  0.41654000  0.72438000  1.0 1.5527733522
P  P13  1  0.58346000  0.30784000  0.86472000  1.0 1.5527733522
P  P14  1  0.05784000  0.69312000  0.22438000  1.0 1.5527733522
P  P15  1  0.44312000  0.71874000  0.13528000  1.0 1.5527733522
P  P16  1  0.46874000  0.83346000  0.77562000  1.0 1.5527733522
P  P17  1  0.33756000  0.33756000  0.00000000  1.0 1.5039097327
P  P18  1  0.08756000  0.58756000  0.50000000  1.0 1.505569424
P  P19  1  0.41244000  0.91244000  0.50000000  1.0 1.505569424
P  P20  1  0.66244000  0.66244000  0.00000000  1.0 1.5039097327
O  O1  1  0.30208000  0.13198000  0.59530000  1.0 -0.6001608153
O  O2  1  0.88198000  0.78668000  0.32990000  1.0 -0.6001608153
O  O3  1  0.53668000  0.70678000  0.40470000  1.0 -0.6001608153
O  O4  1  0.45678000  0.55208000  0.67010000  1.0 -0.6001608153
O  O5  1  0.44792000  0.11802000  0.90470000  1.0 -0.6001608153
O  O6  1  0.86802000  0.46332000  0.17010000  1.0 -0.6001608153
O  O7  1  0.21332000  0.54322000  0.09530000  1.0 -0.6001608153
O  O8  1  0.29322000  0.69792000  0.82990000  1.0 -0.6001608153
O  O9  1  0.15722000  0.89232000  0.52150000  1.0 -0.6185160359
O  O10  1  0.64232000  0.62082000  0.23510000  1.0 -0.6185160359
O  O11  1  0.37082000  0.63572000  0.47850000  1.0 -0.6185160359
O  O12  1  0.38572000  0.40722000  0.76490000  1.0 -0.6185160359
O  O13  1  0.59278000  0.35768000  0.97850000  1.0 -0.6185160359
O  O14  1  0.10768000  0.62918000  0.26490000  1.0 -0.6185160359
O  O15  1  0.37918000  0.61428000  0.02150000  1.0 -0.6185160359
O  O16  1  0.36428000  0.84278000  0.73510000  1.0 -0.6185160359
O  O17  1  0.21296000  0.13796000  0.66400000  1.0 -0.647997458
O  O18  1  0.88796000  0.72396000  0.42500000  1.0 -0.647997458
O  O19  1  0.47396000  0.54896000  0.33600000  1.0 -0.647997458
O  O20  1  0.29896000  0.46296000  0.57500000  1.0 -0.647997458
O  O21  1  0.53704000  0.11204000  0.83600000  1.0 -0.647997458
O  O22  1  0.86204000  0.52604000  0.07500000  1.0 -0.647997458
O  O23  1  0.27604000  0.70104000  0.16400000  1.0 -0.647997458
O  O24  1  0.45104000  0.78704000  0.92500000  1.0 -0.647997458
O  O25  1  0.17103000  0.87153000  0.65650000  1.0 -0.5716358029
O  O26  1  0.62153000  0.46503000  0.20050000  1.0 -0.5716358029
O  O27  1  0.21503000  0.51453000  0.34350000  1.0 -0.5716358029
O  O28  1  0.26453000  0.42103000  0.79950000  1.0 -0.5716358029
O  O29  1  0.57897000  0.37847000  0.84350000  1.0 -0.5716358029
O  O30  1  0.12847000  0.78497000  0.29950000  1.0 -0.5716358029
O  O31  1  0.53497000  0.73547000  0.15650000  1.0 -0.5716358029
O  O32  1  0.48547000  0.82897000  0.70050000  1.0 -0.5716358029
O  O33  1  0.49615000  0.21975000  0.74820000  1.0 -0.6185160359
O  O34  1  0.96975000  0.72155000  0.22360000  1.0 -0.6185160359
O  O35  1  0.47155000  0.74795000  0.25180000  1.0 -0.6185160359
O  O36  1  0.49795000  0.74615000  0.77640000  1.0 -0.6185160359
O  O37  1  0.25385000  0.03025000  0.75180000  1.0 -0.6185160359
O  O38  1  0.78025000  0.52845000  0.27640000  1.0 -0.6185160359
O  O39  1  0.27845000  0.50205000  0.24820000  1.0 -0.6185160359
O  O40  1  0.25205000  0.50385000  0.72360000  1.0 -0.6185160359
O  O41  1  0.67878000  0.26458000  0.88600000  1.0 -0.4924063278
O  O42  1  0.01458000  0.62858000  0.08580000  1.0 -0.4924063278
O  O43  1  0.37858000  0.79278000  0.11400000  1.0 -0.4924063278
O  O44  1  0.54278000  0.92878000  0.91420000  1.0 -0.4924063278
O  O45  1  0.07122000  0.98542000  0.61400000  1.0 -0.4924063278
O  O46  1  0.73542000  0.62142000  0.41420000  1.0 -0.4924063278
O  O47  1  0.37142000  0.45722000  0.38600000  1.0 -0.4924063278
O  O48  1  0.20722000  0.32122000  0.58580000  1.0 -0.4924063278
O  O49  1  0.29930000  0.79930000  0.50000000  1.0 -0.4062314523
O  O50  1  0.54930000  0.54930000  0.00000000  1.0 -0.3980907244
O  O51  1  0.45070000  0.45070000  0.00000000  1.0 -0.3980907244
O  O52  1  0.20070000  0.70070000  0.50000000  1.0 -0.4062314523
O  O53  1  0.44986000  0.36046000  0.07520000  1.0 -0.6001608153
O  O54  1  0.11046000  0.53526000  0.41060000  1.0 -0.6001608153
O  O55  1  0.28526000  0.37466000  0.92480000  1.0 -0.6001608153
O  O56  1  0.12466000  0.69986000  0.58940000  1.0 -0.6001608153
O  O57  1  0.30014000  0.88954000  0.42480000  1.0 -0.6001608153
O  O58  1  0.63954000  0.71474000  0.08940000  1.0 -0.6001608153
O  O59  1  0.46474000  0.87534000  0.57520000  1.0 -0.6001608153
O  O60  1  0.62534000  0.55014000  0.91060000  1.0 -0.6001608153
O  O61  1  0.34337000  0.01597000  0.65900000  1.0 -0.5716358029
O  O62  1  0.76597000  0.60697000  0.17260000  1.0 -0.5716358029
O  O63  1  0.35697000  0.68437000  0.34100000  1.0 -0.5620915037
O  O64  1  0.43437000  0.59337000  0.82740000  1.0 -0.5716358029
O  O65  1  0.40663000  0.23403000  0.84100000  1.0 -0.5716358029
O  O66  1  0.98403000  0.64303000  0.32740000  1.0 -0.5620915037
O  O67  1  0.39303000  0.56563000  0.15900000  1.0 -0.5620915037
O  O68  1  0.31563000  0.65663000  0.67260000  1.0 -0.5716358029
O  O69  1  0.31589000  0.38719000  0.09010000  1.0 -0.6391421226
O  O70  1  0.13719000  0.54709000  0.57130000  1.0 -0.6391421226
O  O71  1  0.29709000  0.22579000  0.90990000  1.0 -0.6391421226
O  O72  1  0.97579000  0.56589000  0.42870000  1.0 -0.6391421226
O  O73  1  0.43411000  0.86281000  0.40990000  1.0 -0.6391421226
O  O74  1  0.61281000  0.70291000  0.92870000  1.0 -0.6391421226
O  O75  1  0.45291000  0.02421000  0.59010000  1.0 -0.6391421226
O  O76  1  0.77421000  0.68411000  0.07130000  1.0 -0.6391421226
O  O77  1  0.62018000  0.09168000  0.99530000  1.0 -0.4419842293
O  O78  1  0.84168000  0.34638000  0.97150000  1.0 -0.4419842293
O  O79  1  0.09638000  0.62488000  0.00470000  1.0 -0.4419842293
O  O80  1  0.37488000  0.87018000  0.02850000  1.0 -0.4419842293
O  O81  1  0.12982000  0.15832000  0.50470000  1.0 -0.4419842293
O  O82  1  0.90832000  0.90362000  0.52850000  1.0 -0.4419842293
O  O83  1  0.65362000  0.62512000  0.49530000  1.0 -0.4419842293
O  O84  1  0.37512000  0.37982000  0.47150000  1.0 -0.4419842293
O  O85  1  0.58951000  0.25911000  0.04880000  1.0 -0.6920922441
O  O86  1  0.00911000  0.46031000  0.16960000  1.0 -0.6920922441
O  O87  1  0.21031000  0.54071000  0.95120000  1.0 -0.6920922441
O  O88  1  0.29071000  0.83951000  0.83040000  1.0 -0.6920922441
O  O89  1  0.16049000  0.99089000  0.45120000  1.0 -0.6920922441
O  O90  1  0.74089000  0.78969000  0.33040000  1.0 -0.6920922441
O  O91  1  0.53969000  0.70929000  0.54880000  1.0 -0.6920922441
O  O92  1  0.45929000  0.41049000  0.66960000  1.0 -0.6920922441
