# DDEC6 charges by PACMAN v1.1 (https://github.com/mtap-research/PACMAN-charge/)
data_MARDAM_ion_pacman
_symmetry_space_group_name_H-M   'P 1'
_cell_length_a   23.86420000
_cell_length_b   23.86420000
_cell_length_c   23.86420000
_cell_angle_alpha   96.51940000
_cell_angle_beta   96.51940000
_cell_angle_gamma   140.61700000
_symmetry_Int_Tables_number   1
_chemical_formula_structural   Co3H42C51(N11O9)2
_chemical_formula_sum   'Co12 H168 C204 N88 O72'
_cell_volume   8119.00151092
_cell_formula_units_Z   4
loop_
 _symmetry_equiv_pos_site_id
 _symmetry_equiv_pos_as_xyz
  1  'x, y, z'
loop_
 _atom_site_type_symbol
 _atom_site_label
 _atom_site_symmetry_multiplicity
 _atom_site_fract_x
 _atom_site_fract_y
 _atom_site_fract_z
 _atom_site_occupancy
 _atom_site_charge
Co  Co1  1  0.12500000  0.87500000  0.25000000  1.0 0.6066853141
Co  Co2  1  0.12500000  0.87500000  0.75000000  1.0 0.6049580113
Co  Co3  1  0.62500000  0.87500000  0.75000000  1.0 0.6066853141
Co  Co4  1  0.12500000  0.37500000  0.25000000  1.0 0.6066853141
Co  Co5  1  0.20694000  0.80282000  0.18242000  1.0 0.9152393476
Co  Co6  1  0.27452000  0.95694000  0.90412000  1.0 0.9152393476
Co  Co7  1  0.62040000  0.02452000  0.81758000  1.0 0.9152393476
Co  Co8  1  0.05282000  0.37040000  0.09588000  1.0 0.9152393476
Co  Co9  1  0.04306000  0.94718000  0.31758000  1.0 0.9152393476
Co  Co10  1  0.97548000  0.79306000  0.59588000  1.0 0.9152393476
Co  Co11  1  0.62960000  0.72548000  0.68242000  1.0 0.9152393476
Co  Co12  1  0.19718000  0.37960000  0.40412000  1.0 0.9152393476
H  H1  1  0.06600000  0.70860000  0.05020000  1.0 0.1295861649
H  H2  1  0.26580000  0.81600000  0.85740000  1.0 0.1295861649
H  H3  1  0.65840000  0.01580000  0.94980000  1.0 0.1295861649
H  H4  1  0.95860000  0.40840000  0.14260000  1.0 0.1295861649
H  H5  1  0.18400000  0.04140000  0.44980000  1.0 0.1295861649
H  H6  1  0.98420000  0.93400000  0.64260000  1.0 0.1295861649
H  H7  1  0.59160000  0.73420000  0.55020000  1.0 0.1295861649
H  H8  1  0.29140000  0.34160000  0.35740000  1.0 0.1295861649
H  H9  1  0.97490000  0.77460000  0.11750000  1.0 0.1295861649
H  H10  1  0.10740000  0.72490000  0.70030000  1.0 0.1295861649
H  H11  1  0.65710000  0.85740000  0.88250000  1.0 0.1295861649
H  H12  1  0.02460000  0.40710000  0.29970000  1.0 0.1295861649
H  H13  1  0.27510000  0.97540000  0.38250000  1.0 0.1295861649
H  H14  1  0.14260000  0.02510000  0.79970000  1.0 0.1295861649
H  H15  1  0.59290000  0.89260000  0.61750000  1.0 0.1295861649
H  H16  1  0.22540000  0.34290000  0.20030000  1.0 0.1295861649
H  H17  1  0.83220000  0.64040000  0.03540000  1.0 0.1384784965
H  H18  1  0.04680000  0.58220000  0.69180000  1.0 0.1384784965
H  H19  1  0.60500000  0.79680000  0.96460000  1.0 0.1384784965
H  H20  1  0.89040000  0.35500000  0.30820000  1.0 0.1384784965
H  H21  1  0.41780000  0.10960000  0.46460000  1.0 0.1384784965
H  H22  1  0.20320000  0.16780000  0.80820000  1.0 0.1384784965
H  H23  1  0.64500000  0.95320000  0.53540000  1.0 0.1384784965
H  H24  1  0.35960000  0.39500000  0.19180000  1.0 0.1384784965
H  H25  1  0.00770000  0.70360000  0.95750000  1.0 0.1384784965
H  H26  1  0.30020000  0.75770000  0.80410000  1.0 0.1384784965
H  H27  1  0.74610000  0.05020000  0.04250000  1.0 0.1384784965
H  H28  1  0.95360000  0.49610000  0.19590000  1.0 0.1384784965
H  H29  1  0.24230000  0.04640000  0.54250000  1.0 0.1384784965
H  H30  1  0.94980000  0.99230000  0.69590000  1.0 0.1384784965
H  H31  1  0.50390000  0.69980000  0.45750000  1.0 0.1384784965
H  H32  1  0.29640000  0.25390000  0.30410000  1.0 0.1384784965
H  H33  1  0.72750000  0.57050000  0.94340000  1.0 0.1384784965
H  H34  1  0.03410000  0.47750000  0.65700000  1.0 0.1384784965
H  H35  1  0.62710000  0.78410000  0.05660000  1.0 0.1384784965
H  H36  1  0.82050000  0.37710000  0.34300000  1.0 0.1384784965
H  H37  1  0.52250000  0.17950000  0.55660000  1.0 0.1384784965
H  H38  1  0.21590000  0.27250000  0.84300000  1.0 0.1384784965
H  H39  1  0.62290000  0.96590000  0.44340000  1.0 0.1384784965
H  H40  1  0.42950000  0.37290000  0.15700000  1.0 0.1384784965
H  H41  1  0.90130000  0.63060000  0.86530000  1.0 0.1295861649
H  H42  1  0.28600000  0.65130000  0.77070000  1.0 0.1295861649
H  H43  1  0.76530000  0.03600000  0.13470000  1.0 0.1295861649
H  H44  1  0.88060000  0.51530000  0.22930000  1.0 0.1295861649
H  H45  1  0.34870000  0.11940000  0.63470000  1.0 0.1295861649
H  H46  1  0.96400000  0.09870000  0.72930000  1.0 0.1295861649
H  H47  1  0.48470000  0.71400000  0.36530000  1.0 0.1295861649
H  H48  1  0.36940000  0.23470000  0.27070000  1.0 0.1295861649
H  H49  1  0.75650000  0.54790000  0.80240000  1.0 0.1384784965
H  H50  1  0.20410000  0.50650000  0.70860000  1.0 0.1384784965
H  H51  1  0.74550000  0.95410000  0.19760000  1.0 0.1384784965
H  H52  1  0.79790000  0.49550000  0.29140000  1.0 0.1384784965
H  H53  1  0.49350000  0.20210000  0.69760000  1.0 0.1384784965
H  H54  1  0.04590000  0.24350000  0.79140000  1.0 0.1384784965
H  H55  1  0.50450000  0.79590000  0.30240000  1.0 0.1384784965
H  H56  1  0.45210000  0.25450000  0.20860000  1.0 0.1384784965
H  H57  1  0.71730000  0.57060000  0.83050000  1.0 0.1478734724
H  H58  1  0.13680000  0.46730000  0.64670000  1.0 0.1478734724
H  H59  1  0.74010000  0.88680000  0.16950000  1.0 0.1478734724
H  H60  1  0.82060000  0.49010000  0.35330000  1.0 0.1478734724
H  H61  1  0.53270000  0.17940000  0.66950000  1.0 0.1478734724
H  H62  1  0.11320000  0.28270000  0.85330000  1.0 0.1478734724
H  H63  1  0.50990000  0.86320000  0.33050000  1.0 0.1478734724
H  H64  1  0.42940000  0.25990000  0.14670000  1.0 0.1478734724
H  H65  1  0.55660000  0.43820000  0.81060000  1.0 0.1384784965
H  H66  1  0.99600000  0.30660000  0.61840000  1.0 0.1384784965
H  H67  1  0.62760000  0.74600000  0.18940000  1.0 0.1384784965
H  H68  1  0.68820000  0.37760000  0.38160000  1.0 0.1384784965
H  H69  1  0.69340000  0.31180000  0.68940000  1.0 0.1384784965
H  H70  1  0.25400000  0.44340000  0.88160000  1.0 0.1384784965
H  H71  1  0.62240000  0.00400000  0.31060000  1.0 0.1384784965
H  H72  1  0.56180000  0.37240000  0.11840000  1.0 0.1384784965
H  H73  1  0.69980000  0.40990000  0.83510000  1.0 0.1295861649
H  H74  1  0.11470000  0.44980000  0.78990000  1.0 0.1295861649
H  H75  1  0.57480000  0.86470000  0.16490000  1.0 0.1295861649
H  H76  1  0.65990000  0.32480000  0.21010000  1.0 0.1295861649
H  H77  1  0.55020000  0.34010000  0.66490000  1.0 0.1295861649
H  H78  1  0.13530000  0.30020000  0.71010000  1.0 0.1295861649
H  H79  1  0.67520000  0.88530000  0.33510000  1.0 0.1295861649
H  H80  1  0.59010000  0.42520000  0.28990000  1.0 0.1295861649
H  H81  1  0.42210000  0.28460000  0.80570000  1.0 0.1384784965
H  H82  1  0.86640000  0.17210000  0.63750000  1.0 0.1384784965
H  H83  1  0.47890000  0.61640000  0.19430000  1.0 0.1384784965
H  H84  1  0.53460000  0.22890000  0.36250000  1.0 0.1384784965
H  H85  1  0.82790000  0.46540000  0.69430000  1.0 0.1384784965
H  H86  1  0.38360000  0.57790000  0.86250000  1.0 0.1384784965
H  H87  1  0.77110000  0.13360000  0.30570000  1.0 0.1384784965
H  H88  1  0.71540000  0.52110000  0.13750000  1.0 0.1384784965
H  H89  1  0.56820000  0.25690000  0.82910000  1.0 0.1478734724
H  H90  1  0.98910000  0.31820000  0.81130000  1.0 0.1478734724
H  H91  1  0.42780000  0.73910000  0.17090000  1.0 0.1478734724
H  H92  1  0.50690000  0.17780000  0.18870000  1.0 0.1478734724
H  H93  1  0.68180000  0.49310000  0.67090000  1.0 0.1478734724
H  H94  1  0.26090000  0.43180000  0.68870000  1.0 0.1478734724
H  H95  1  0.82220000  0.01090000  0.32910000  1.0 0.1478734724
H  H96  1  0.74310000  0.57220000  0.31130000  1.0 0.1478734724
H  H97  1  0.45030000  0.16430000  0.89640000  1.0 0.1295861649
H  H98  1  0.80390000  0.20030000  0.78600000  1.0 0.1295861649
H  H99  1  0.26790000  0.55390000  0.10360000  1.0 0.1295861649
H  H100  1  0.41430000  0.01790000  0.21400000  1.0 0.1295861649
H  H101  1  0.79970000  0.58570000  0.60360000  1.0 0.1295861649
H  H102  1  0.44610000  0.54970000  0.71400000  1.0 0.1295861649
H  H103  1  0.98210000  0.19610000  0.39640000  1.0 0.1295861649
H  H104  1  0.83570000  0.73210000  0.28600000  1.0 0.1295861649
H  H105  1  0.29670000  0.09080000  0.74390000  1.0 0.1295861649
H  H106  1  0.80280000  0.04670000  0.70590000  1.0 0.1295861649
H  H107  1  0.34690000  0.55280000  0.25610000  1.0 0.1295861649
H  H108  1  0.34080000  0.09690000  0.29410000  1.0 0.1295861649
H  H109  1  0.95330000  0.65920000  0.75610000  1.0 0.1295861649
H  H110  1  0.44720000  0.70330000  0.79410000  1.0 0.1295861649
H  H111  1  0.90310000  0.19720000  0.24390000  1.0 0.1295861649
H  H112  1  0.90920000  0.65310000  0.20590000  1.0 0.1295861649
H  H113  1  0.15040000  0.68650000  0.27170000  1.0 0.1295861649
H  H114  1  0.12870000  0.90040000  0.96390000  1.0 0.1295861649
H  H115  1  0.41480000  0.87870000  0.72830000  1.0 0.1295861649
H  H116  1  0.93650000  0.16480000  0.03610000  1.0 0.1295861649
H  H117  1  0.09960000  0.06350000  0.22830000  1.0 0.1295861649
H  H118  1  0.12130000  0.84960000  0.53610000  1.0 0.1295861649
H  H119  1  0.83520000  0.87130000  0.77170000  1.0 0.1295861649
H  H120  1  0.31350000  0.58520000  0.46390000  1.0 0.1295861649
H  H121  1  0.07280000  0.76490000  0.34570000  1.0 0.1295861649
H  H122  1  0.97710000  0.82280000  0.80790000  1.0 0.1295861649
H  H123  1  0.41920000  0.72710000  0.65430000  1.0 0.1295861649
H  H124  1  0.01490000  0.16920000  0.19210000  1.0 0.1295861649
H  H125  1  0.17720000  0.98510000  0.15430000  1.0 0.1295861649
H  H126  1  0.27290000  0.92720000  0.69210000  1.0 0.1295861649
H  H127  1  0.83080000  0.02290000  0.84570000  1.0 0.1295861649
H  H128  1  0.23510000  0.58080000  0.30790000  1.0 0.1295861649
H  H129  1  0.00710000  0.66190000  0.39540000  1.0 0.1295861649
H  H130  1  0.86170000  0.75710000  0.84520000  1.0 0.1295861649
H  H131  1  0.26650000  0.61170000  0.60460000  1.0 0.1295861649
H  H132  1  0.91190000  0.01650000  0.15480000  1.0 0.1295861649
H  H133  1  0.24290000  0.08810000  0.10460000  1.0 0.1295861649
H  H134  1  0.38830000  0.99290000  0.65480000  1.0 0.1295861649
H  H135  1  0.98350000  0.13830000  0.89540000  1.0 0.1295861649
H  H136  1  0.33810000  0.73350000  0.34520000  1.0 0.1295861649
H  H137  1  0.15750000  0.64970000  0.35560000  1.0 0.1295861649
H  H138  1  0.05190000  0.90750000  0.00780000  1.0 0.1295861649
H  H139  1  0.29410000  0.80190000  0.64440000  1.0 0.1295861649
H  H140  1  0.89970000  0.04410000  0.99220000  1.0 0.1295861649
H  H141  1  0.09250000  0.10030000  0.14440000  1.0 0.1295861649
H  H142  1  0.19810000  0.84250000  0.49220000  1.0 0.1295861649
H  H143  1  0.95590000  0.94810000  0.85560000  1.0 0.1295861649
H  H144  1  0.35030000  0.70590000  0.50780000  1.0 0.1295861649
H  H145  1  0.97990000  0.59230000  0.46660000  1.0 0.1295861649
H  H146  1  0.76330000  0.72990000  0.88760000  1.0 0.1295861649
H  H147  1  0.12570000  0.51330000  0.53340000  1.0 0.1295861649
H  H148  1  0.84230000  0.87570000  0.11240000  1.0 0.1295861649
H  H149  1  0.27010000  0.15770000  0.03340000  1.0 0.1295861649
H  H150  1  0.48670000  0.02010000  0.61240000  1.0 0.1295861649
H  H151  1  0.12430000  0.23670000  0.96660000  1.0 0.1295861649
H  H152  1  0.40770000  0.87430000  0.38760000  1.0 0.1295861649
H  H153  1  0.12310000  0.57480000  0.42490000  1.0 0.1295861649
H  H154  1  0.94820000  0.87310000  0.04830000  1.0 0.1295861649
H  H155  1  0.14990000  0.69820000  0.57510000  1.0 0.1295861649
H  H156  1  0.82480000  0.89990000  0.95170000  1.0 0.1295861649
H  H157  1  0.12690000  0.17520000  0.07510000  1.0 0.1295861649
H  H158  1  0.30180000  0.87690000  0.45170000  1.0 0.1295861649
H  H159  1  0.10010000  0.05180000  0.92490000  1.0 0.1295861649
H  H160  1  0.42520000  0.85010000  0.54830000  1.0 0.1295861649
H  H161  1  0.00140000  0.47110000  0.48250000  1.0 0.1384784965
H  H162  1  0.76890000  0.75140000  0.03030000  1.0 0.1384784965
H  H163  1  0.98860000  0.51890000  0.51750000  1.0 0.1384784965
H  H164  1  0.72110000  0.73860000  0.96970000  1.0 0.1384784965
H  H165  1  0.24860000  0.27890000  0.01750000  1.0 0.1384784965
H  H166  1  0.48110000  0.99860000  0.46970000  1.0 0.1384784965
H  H167  1  0.26140000  0.23110000  0.98250000  1.0 0.1384784965
H  H168  1  0.52890000  0.01140000  0.53030000  1.0 0.1384784965
C  C1  1  0.05792000  0.73170000  0.07702000  1.0 0.1384784965
C  C2  1  0.23090000  0.80792000  0.82622000  1.0 0.1384784965
C  C3  1  0.65468000  0.98090000  0.92298000  1.0 0.1384784965
C  C4  1  0.98170000  0.40468000  0.17378000  1.0 0.1384784965
C  C5  1  0.19208000  0.01830000  0.42298000  1.0 0.1384784965
C  C6  1  0.01910000  0.94208000  0.67378000  1.0 0.1384784965
C  C7  1  0.59532000  0.76910000  0.57702000  1.0 0.1384784965
C  C8  1  0.26830000  0.34532000  0.32622000  1.0 0.1384784965
C  C9  1  0.00788000  0.76786000  0.11374000  1.0 0.1188067668
C  C10  1  0.14414000  0.75788000  0.74002000  1.0 0.1188067668
C  C11  1  0.65412000  0.89414000  0.88626000  1.0 0.1188067668
C  C12  1  0.01786000  0.40412000  0.25998000  1.0 0.1188067668
C  C13  1  0.24212000  0.98214000  0.38626000  1.0 0.1188067668
C  C14  1  0.10586000  0.99212000  0.75998000  1.0 0.1188067668
C  C15  1  0.59588000  0.85586000  0.61374000  1.0 0.1188067668
C  C16  1  0.23214000  0.34588000  0.24002000  1.0 0.1188067668
C  C17  1  0.92920000  0.67925000  0.00485000  1.0 0.1384784965
C  C18  1  0.17435000  0.67920000  0.74995000  1.0 0.1384784965
C  C19  1  0.67440000  0.92435000  0.99515000  1.0 0.1384784965
C  C20  1  0.92925000  0.42440000  0.25005000  1.0 0.1384784965
C  C21  1  0.32080000  0.07075000  0.49515000  1.0 0.1384784965
C  C22  1  0.07565000  0.07080000  0.75005000  1.0 0.1384784965
C  C23  1  0.57560000  0.82565000  0.50485000  1.0 0.1384784965
C  C24  1  0.32075000  0.32560000  0.24995000  1.0 0.1384784965
C  C25  1  0.84660000  0.63920000  0.00100000  1.0 -0.1503816946
C  C26  1  0.09560000  0.59660000  0.70740000  1.0 -0.1503816946
C  C27  1  0.63820000  0.84560000  0.99900000  1.0 -0.1503816946
C  C28  1  0.88920000  0.38820000  0.29260000  1.0 -0.1503816946
C  C29  1  0.40340000  0.11080000  0.49900000  1.0 -0.1503816946
C  C30  1  0.15440000  0.15340000  0.79260000  1.0 -0.1503816946
C  C31  1  0.61180000  0.90440000  0.50100000  1.0 -0.1503816946
C  C32  1  0.36080000  0.36180000  0.20740000  1.0 -0.1503816946
C  C33  1  0.95120000  0.67660000  0.95460000  1.0 -0.1503816946
C  C34  1  0.24660000  0.70120000  0.77460000  1.0 -0.1503816946
C  C35  1  0.72200000  0.99660000  0.04540000  1.0 -0.1503816946
C  C36  1  0.92660000  0.47200000  0.22540000  1.0 -0.1503816946
C  C37  1  0.29880000  0.07340000  0.54540000  1.0 -0.1503816946
C  C38  1  0.00340000  0.04880000  0.72540000  1.0 -0.1503816946
C  C39  1  0.52800000  0.75340000  0.45460000  1.0 -0.1503816946
C  C40  1  0.32340000  0.27800000  0.27460000  1.0 -0.1503816946
C  C41  1  0.78360000  0.59660000  0.94580000  1.0 -0.12320901
C  C42  1  0.08780000  0.53360000  0.68700000  1.0 -0.12320901
C  C43  1  0.65080000  0.83780000  0.05420000  1.0 -0.12320901
C  C44  1  0.84660000  0.40080000  0.31300000  1.0 -0.12320901
C  C45  1  0.46640000  0.15340000  0.55420000  1.0 -0.12320901
C  C46  1  0.16220000  0.21640000  0.81300000  1.0 -0.12320901
C  C47  1  0.59920000  0.91220000  0.44580000  1.0 -0.12320901
C  C48  1  0.40340000  0.34920000  0.18700000  1.0 -0.12320901
C  C49  1  0.88710000  0.63280000  0.89950000  1.0 -0.1503816946
C  C50  1  0.23760000  0.63710000  0.75430000  1.0 -0.1503816946
C  C51  1  0.73330000  0.98760000  0.10050000  1.0 -0.1503816946
C  C52  1  0.88280000  0.48330000  0.24570000  1.0 -0.1503816946
C  C53  1  0.36290000  0.11720000  0.60050000  1.0 -0.1503816946
C  C54  1  0.01240000  0.11290000  0.74570000  1.0 -0.1503816946
C  C55  1  0.51670000  0.76240000  0.39950000  1.0 -0.1503816946
C  C56  1  0.36720000  0.26670000  0.25430000  1.0 -0.1503816946
C  C57  1  0.80320000  0.59250000  0.89390000  1.0 0.1384784965
C  C58  1  0.15930000  0.55320000  0.71070000  1.0 0.1384784965
C  C59  1  0.69860000  0.90930000  0.10610000  1.0 0.1384784965
C  C60  1  0.84250000  0.44860000  0.28930000  1.0 0.1384784965
C  C61  1  0.44680000  0.15750000  0.60610000  1.0 0.1384784965
C  C62  1  0.09070000  0.19680000  0.78930000  1.0 0.1384784965
C  C63  1  0.55140000  0.84070000  0.39390000  1.0 0.1384784965
C  C64  1  0.40750000  0.30140000  0.21070000  1.0 0.1384784965
C  C65  1  0.73090000  0.54160000  0.83370000  1.0 -0.3084737375
C  C66  1  0.14720000  0.48090000  0.68930000  1.0 -0.3084737375
C  C67  1  0.70790000  0.89720000  0.16630000  1.0 -0.3084737375
C  C68  1  0.79160000  0.45790000  0.31070000  1.0 -0.3084737375
C  C69  1  0.51910000  0.20840000  0.66630000  1.0 -0.3084737375
C  C70  1  0.10280000  0.26910000  0.81070000  1.0 -0.3084737375
C  C71  1  0.54210000  0.85280000  0.33370000  1.0 -0.3084737375
C  C72  1  0.45840000  0.29210000  0.18930000  1.0 -0.3084737375
C  C73  1  0.64190000  0.43980000  0.82490000  1.0 0.1188067668
C  C74  1  0.06700000  0.39190000  0.70210000  1.0 0.1188067668
C  C75  1  0.61490000  0.81700000  0.17510000  1.0 0.1188067668
C  C76  1  0.68980000  0.36490000  0.29790000  1.0 0.1188067668
C  C77  1  0.60810000  0.31020000  0.67510000  1.0 0.1188067668
C  C78  1  0.18300000  0.35810000  0.79790000  1.0 0.1188067668
C  C79  1  0.63510000  0.93300000  0.32490000  1.0 0.1188067668
C  C80  1  0.56020000  0.38510000  0.20210000  1.0 0.1188067668
C  C81  1  0.55890000  0.40180000  0.81510000  1.0 -0.1292629028
C  C82  1  0.99380000  0.30890000  0.65710000  1.0 -0.1292629028
C  C83  1  0.58670000  0.74380000  0.18490000  1.0 -0.1292629028
C  C84  1  0.65180000  0.33670000  0.34290000  1.0 -0.1292629028
C  C85  1  0.69110000  0.34820000  0.68490000  1.0 -0.1292629028
C  C86  1  0.25620000  0.44110000  0.84290000  1.0 -0.1292629028
C  C87  1  0.66330000  0.00620000  0.31510000  1.0 -0.1292629028
C  C88  1  0.59820000  0.41330000  0.15710000  1.0 -0.1292629028
C  C89  1  0.64380000  0.38470000  0.82950000  1.0 -0.12320901
C  C90  1  0.06430000  0.39380000  0.75910000  1.0 -0.12320901
C  C91  1  0.55520000  0.81430000  0.17050000  1.0 -0.12320901
C  C92  1  0.63470000  0.30520000  0.24090000  1.0 -0.12320901
C  C93  1  0.60620000  0.36530000  0.67050000  1.0 -0.12320901
C  C94  1  0.18570000  0.35620000  0.74090000  1.0 -0.12320901
C  C95  1  0.69480000  0.93570000  0.32950000  1.0 -0.12320901
C  C96  1  0.61530000  0.44480000  0.25910000  1.0 -0.12320901
C  C97  1  0.47820000  0.30990000  0.81190000  1.0 -0.1611127924
C  C98  1  0.91630000  0.22820000  0.66830000  1.0 -0.1611127924
C  C99  1  0.49800000  0.66630000  0.18810000  1.0 -0.1611127924
C  C100  1  0.55990000  0.24800000  0.33170000  1.0 -0.1611127924
C  C101  1  0.77180000  0.44010000  0.68810000  1.0 -0.1611127924
C  C102  1  0.33370000  0.52180000  0.83170000  1.0 -0.1611127924
C  C103  1  0.75200000  0.08370000  0.31190000  1.0 -0.1611127924
C  C104  1  0.69010000  0.50200000  0.16830000  1.0 -0.1611127924
C  C105  1  0.56580000  0.29350000  0.82610000  1.0 -0.1503816946
C  C106  1  0.98970000  0.31580000  0.77230000  1.0 -0.1503816946
C  C107  1  0.46740000  0.73970000  0.17390000  1.0 -0.1503816946
C  C108  1  0.54350000  0.21740000  0.22770000  1.0 -0.1503816946
C  C109  1  0.68420000  0.45650000  0.67390000  1.0 -0.1503816946
C  C110  1  0.26030000  0.43420000  0.72770000  1.0 -0.1503816946
C  C111  1  0.78260000  0.01030000  0.32610000  1.0 -0.1503816946
C  C112  1  0.70650000  0.53260000  0.27230000  1.0 -0.1503816946
C  C113  1  0.40003000  0.12930000  0.86253000  1.0 0.1478734724
C  C114  1  0.78750000  0.15003000  0.77073000  1.0 0.1478734724
C  C115  1  0.26677000  0.53750000  0.13747000  1.0 0.1478734724
C  C116  1  0.37930000  0.01677000  0.22927000  1.0 0.1478734724
C  C117  1  0.84997000  0.62070000  0.63747000  1.0 0.1478734724
C  C118  1  0.46250000  0.59997000  0.72927000  1.0 0.1478734724
C  C119  1  0.98323000  0.21250000  0.36253000  1.0 0.1478734724
C  C120  1  0.87070000  0.73323000  0.27073000  1.0 0.1478734724
C  C121  1  0.31612000  0.08909000  0.77901000  1.0 0.1133194226
C  C122  1  0.78711000  0.06612000  0.72703000  1.0 0.1133194226
C  C123  1  0.31008000  0.53711000  0.22099000  1.0 0.1133194226
C  C124  1  0.33909000  0.06008000  0.27297000  1.0 0.1133194226
C  C125  1  0.93388000  0.66091000  0.72099000  1.0 0.1133194226
C  C126  1  0.46289000  0.68388000  0.77297000  1.0 0.1133194226
C  C127  1  0.93992000  0.21289000  0.27901000  1.0 0.1133194226
C  C128  1  0.91091000  0.68992000  0.22703000  1.0 0.1133194226
C  C129  1  0.48270000  0.25720000  0.81810000  1.0 0.1478734724
C  C130  1  0.91460000  0.23270000  0.72550000  1.0 0.1478734724
C  C131  1  0.43910000  0.66460000  0.18190000  1.0 0.1478734724
C  C132  1  0.50720000  0.18910000  0.27450000  1.0 0.1478734724
C  C133  1  0.76730000  0.49280000  0.68190000  1.0 0.1478734724
C  C134  1  0.33540000  0.51730000  0.77450000  1.0 0.1478734724
C  C135  1  0.81090000  0.08540000  0.31810000  1.0 0.1478734724
C  C136  1  0.74280000  0.56090000  0.22550000  1.0 0.1478734724
C  C137  1  0.13725000  0.71382000  0.28027000  1.0 0.1188067668
C  C138  1  0.10698000  0.88725000  0.92343000  1.0 0.1188067668
C  C139  1  0.43355000  0.85698000  0.71973000  1.0 0.1188067668
C  C140  1  0.96382000  0.18355000  0.07657000  1.0 0.1188067668
C  C141  1  0.11275000  0.03618000  0.21973000  1.0 0.1188067668
C  C142  1  0.14302000  0.86275000  0.57657000  1.0 0.1188067668
C  C143  1  0.81645000  0.89302000  0.78027000  1.0 0.1188067668
C  C144  1  0.28618000  0.56645000  0.42343000  1.0 0.1188067668
C  C145  1  0.09449000  0.75650000  0.32079000  1.0 0.1133194226
C  C146  1  0.02370000  0.84449000  0.83799000  1.0 0.1133194226
C  C147  1  0.43571000  0.77370000  0.67921000  1.0 0.1133194226
C  C148  1  0.00650000  0.18571000  0.16201000  1.0 0.1133194226
C  C149  1  0.15551000  0.99350000  0.17921000  1.0 0.1133194226
C  C150  1  0.22630000  0.90551000  0.66201000  1.0 0.1133194226
C  C151  1  0.81429000  0.97630000  0.82079000  1.0 0.1133194226
C  C152  1  0.24350000  0.56429000  0.33799000  1.0 0.1133194226
C  C153  1  0.08485000  0.66264000  0.36849000  1.0 0.1591794122
C  C154  1  0.96636000  0.83485000  0.92221000  1.0 0.1591794122
C  C155  1  0.29415000  0.71636000  0.63151000  1.0 0.1591794122
C  C156  1  0.91264000  0.04415000  0.07779000  1.0 0.1591794122
C  C157  1  0.16515000  0.08736000  0.13151000  1.0 0.1591794122
C  C158  1  0.28364000  0.91515000  0.57779000  1.0 0.1591794122
C  C159  1  0.95585000  0.03364000  0.86849000  1.0 0.1591794122
C  C160  1  0.33736000  0.70585000  0.42221000  1.0 0.1591794122
C  C161  1  0.03129000  0.64520000  0.40149000  1.0 -0.1611127924
C  C162  1  0.87980000  0.78129000  0.88609000  1.0 -0.1611127924
C  C163  1  0.24371000  0.62980000  0.59851000  1.0 -0.1611127924
C  C164  1  0.89520000  0.99371000  0.11391000  1.0 -0.1611127924
C  C165  1  0.21871000  0.10480000  0.09851000  1.0 -0.1611127924
C  C166  1  0.37020000  0.96871000  0.61391000  1.0 -0.1611127924
C  C167  1  0.00629000  0.12020000  0.90149000  1.0 -0.1611127924
C  C168  1  0.35480000  0.75629000  0.38609000  1.0 -0.1611127924
C  C169  1  0.12058000  0.63718000  0.37736000  1.0 -0.1611127924
C  C170  1  0.99322000  0.87058000  0.98340000  1.0 -0.1611127924
C  C171  1  0.25982000  0.74322000  0.62264000  1.0 -0.1611127924
C  C172  1  0.88718000  0.00982000  0.01660000  1.0 -0.1611127924
C  C173  1  0.12942000  0.11282000  0.12264000  1.0 -0.1611127924
C  C174  1  0.25678000  0.87942000  0.51660000  1.0 -0.1611127924
C  C175  1  0.99018000  0.00678000  0.87736000  1.0 -0.1611127924
C  C176  1  0.36282000  0.74018000  0.48340000  1.0 -0.1611127924
C  C177  1  0.01441000  0.60265000  0.44346000  1.0 -0.12320901
C  C178  1  0.82095000  0.76441000  0.91176000  1.0 -0.12320901
C  C179  1  0.15919000  0.57095000  0.55654000  1.0 -0.12320901
C  C180  1  0.85265000  0.90919000  0.08824000  1.0 -0.12320901
C  C181  1  0.23559000  0.14735000  0.05654000  1.0 -0.12320901
C  C182  1  0.42905000  0.98559000  0.58824000  1.0 -0.12320901
C  C183  1  0.09081000  0.17905000  0.94346000  1.0 -0.12320901
C  C184  1  0.39735000  0.84081000  0.41176000  1.0 -0.12320901
C  C185  1  0.10020000  0.59290000  0.41910000  1.0 -0.1292629028
C  C186  1  0.93110000  0.85020000  0.00730000  1.0 -0.12320901
C  C187  1  0.17380000  0.68110000  0.58090000  1.0 -0.1292629028
C  C188  1  0.84290000  0.92380000  0.99270000  1.0 -0.1292629028
C  C189  1  0.14980000  0.15710000  0.08090000  1.0 -0.1292629028
C  C190  1  0.31890000  0.89980000  0.49270000  1.0 -0.1292629028
C  C191  1  0.07620000  0.06890000  0.91910000  1.0 -0.1292629028
C  C192  1  0.40710000  0.82620000  0.50730000  1.0 -0.1292629028
C  C193  1  0.04732000  0.57483000  0.45215000  1.0 0.1384784965
C  C194  1  0.84517000  0.79732000  0.97249000  1.0 0.1384784965
C  C195  1  0.12268000  0.59517000  0.54785000  1.0 0.1384784965
C  C196  1  0.82483000  0.87268000  0.02751000  1.0 0.1384784965
C  C197  1  0.20268000  0.17517000  0.04785000  1.0 0.1384784965
C  C198  1  0.40483000  0.95268000  0.52751000  1.0 0.1384784965
C  C199  1  0.12732000  0.15483000  0.95215000  1.0 0.1384784965
C  C200  1  0.42517000  0.87732000  0.47249000  1.0 0.1384784965
C  C201  1  0.03030000  0.53030000  0.50000000  1.0 -0.2900985047
C  C202  1  0.78030000  0.78030000  0.00000000  1.0 -0.2900985047
C  C203  1  0.21970000  0.21970000  0.00000000  1.0 -0.2900985047
C  C204  1  0.46970000  0.96970000  0.50000000  1.0 -0.2900985047
N  N1  1  0.99423000  0.72316000  0.06259000  1.0 -0.0129639136
N  N2  1  0.18164000  0.74423000  0.77107000  1.0 -0.0129639136
N  N3  1  0.66057000  0.93164000  0.93741000  1.0 -0.0129639136
N  N4  1  0.97316000  0.41057000  0.22893000  1.0 -0.0129639136
N  N5  1  0.25577000  0.02684000  0.43741000  1.0 -0.0129639136
N  N6  1  0.06836000  0.00577000  0.72893000  1.0 -0.0129639136
N  N7  1  0.58943000  0.81836000  0.56259000  1.0 -0.0129639136
N  N8  1  0.27684000  0.33943000  0.27107000  1.0 -0.0129639136
N  N9  1  0.10585000  0.77659000  0.13324000  1.0 -0.1893221217
N  N10  1  0.22261000  0.85585000  0.82926000  1.0 -0.1893221217
N  N11  1  0.64335000  0.97261000  0.86676000  1.0 -0.1893221217
N  N12  1  0.02659000  0.39335000  0.17074000  1.0 -0.1893221217
N  N13  1  0.14415000  0.97341000  0.36676000  1.0 -0.1893221217
N  N14  1  0.02739000  0.89415000  0.67074000  1.0 -0.1893221217
N  N15  1  0.60665000  0.77739000  0.63324000  1.0 -0.1893221217
N  N16  1  0.22341000  0.35665000  0.32926000  1.0 -0.1893221217
N  N17  1  0.07346000  0.80053000  0.15739000  1.0 -0.1893221217
N  N18  1  0.16607000  0.82346000  0.77293000  1.0 -0.1893221217
N  N19  1  0.64314000  0.91607000  0.84261000  1.0 -0.1893221217
N  N20  1  0.05053000  0.39314000  0.22707000  1.0 -0.1893221217
N  N21  1  0.17654000  0.94947000  0.34261000  1.0 -0.1893221217
N  N22  1  0.08393000  0.92654000  0.72707000  1.0 -0.1893221217
N  N23  1  0.60686000  0.83393000  0.65739000  1.0 -0.1893221217
N  N24  1  0.19947000  0.35686000  0.27293000  1.0 -0.1893221217
N  N25  1  0.40163000  0.16221000  0.81944000  1.0 -0.022986462
N  N26  1  0.83219000  0.15163000  0.73942000  1.0 -0.022986462
N  N27  1  0.34277000  0.58219000  0.18056000  1.0 -0.022986462
N  N28  1  0.41221000  0.09277000  0.26058000  1.0 -0.022986462
N  N29  1  0.84837000  0.58779000  0.68056000  1.0 -0.022986462
N  N30  1  0.41781000  0.59837000  0.76058000  1.0 -0.022986462
N  N31  1  0.90723000  0.16781000  0.31944000  1.0 -0.022986462
N  N32  1  0.83779000  0.65723000  0.23942000  1.0 -0.022986462
N  N33  1  0.26469000  0.01596000  0.79585000  1.0 -0.1810781868
N  N34  1  0.71884000  0.01469000  0.74873000  1.0 -0.1810781868
N  N35  1  0.22011000  0.46884000  0.20415000  1.0 -0.1810781868
N  N36  1  0.26596000  0.97011000  0.25127000  1.0 -0.1810781868
N  N37  1  0.98531000  0.73404000  0.70415000  1.0 -0.1810781868
N  N38  1  0.53116000  0.73531000  0.75127000  1.0 -0.1810781868
N  N39  1  0.02989000  0.28116000  0.29585000  1.0 -0.1810781868
N  N40  1  0.98404000  0.77989000  0.24873000  1.0 -0.1810781868
N  N41  1  0.31908000  0.04272000  0.85000000  1.0 -0.1957672253
N  N42  1  0.71908000  0.06908000  0.77636000  1.0 -0.1957672253
N  N43  1  0.19272000  0.46908000  0.15000000  1.0 -0.1957672253
N  N44  1  0.29272000  0.94272000  0.22364000  1.0 -0.1957672253
N  N45  1  0.93092000  0.70728000  0.65000000  1.0 -0.1957672253
N  N46  1  0.53092000  0.68092000  0.72364000  1.0 -0.1957672253
N  N47  1  0.05728000  0.28092000  0.35000000  1.0 -0.1957672253
N  N48  1  0.95728000  0.80728000  0.27636000  1.0 -0.1957672253
N  N49  1  0.10508000  0.70916000  0.32604000  1.0 -0.022986462
N  N50  1  0.02904000  0.85508000  0.89592000  1.0 -0.022986462
N  N51  1  0.38312000  0.77904000  0.67396000  1.0 -0.022986462
N  N52  1  0.95916000  0.13312000  0.10408000  1.0 -0.022986462
N  N53  1  0.14492000  0.04084000  0.17396000  1.0 -0.022986462
N  N54  1  0.22096000  0.89492000  0.60408000  1.0 -0.022986462
N  N55  1  0.86688000  0.97096000  0.82604000  1.0 -0.022986462
N  N56  1  0.29084000  0.61688000  0.39592000  1.0 -0.022986462
N  N57  1  0.11871000  0.78905000  0.27616000  1.0 -0.1810781868
N  N58  1  0.09255000  0.86871000  0.82966000  1.0 -0.1810781868
N  N59  1  0.51289000  0.84255000  0.72384000  1.0 -0.1810781868
N  N60  1  0.03905000  0.26289000  0.17034000  1.0 -0.1810781868
N  N61  1  0.13129000  0.96095000  0.22384000  1.0 -0.1810781868
N  N62  1  0.15745000  0.88129000  0.67034000  1.0 -0.1810781868
N  N63  1  0.73711000  0.90745000  0.77616000  1.0 -0.1810781868
N  N64  1  0.21095000  0.48711000  0.32966000  1.0 -0.1810781868
N  N65  1  0.14668000  0.76172000  0.25060000  1.0 -0.1893221217
N  N66  1  0.14608000  0.89668000  0.88496000  1.0 -0.1893221217
N  N67  1  0.51112000  0.89608000  0.74940000  1.0 -0.1893221217
N  N68  1  0.01172000  0.26112000  0.11504000  1.0 -0.1893221217
N  N69  1  0.10332000  0.98828000  0.24940000  1.0 -0.1893221217
N  N70  1  0.10392000  0.85332000  0.61504000  1.0 -0.1893221217
N  N71  1  0.73888000  0.85392000  0.75060000  1.0 -0.1893221217
N  N72  1  0.23828000  0.48888000  0.38496000  1.0 -0.1893221217
N  N73  1  0.95147000  0.59075000  0.58582000  1.0 0.6804077036
N  N74  1  0.84075000  0.75493000  0.13928000  1.0 0.6804077036
N  N75  1  0.00493000  0.36565000  0.41418000  1.0 0.6804077036
N  N76  1  0.61565000  0.70147000  0.86072000  1.0 0.6804077036
N  N77  1  0.29853000  0.15925000  0.91418000  1.0 0.6804077036
N  N78  1  0.40925000  0.99507000  0.36072000  1.0 0.6804077036
N  N79  1  0.24507000  0.38435000  0.08582000  1.0 0.6804077036
N  N80  1  0.63435000  0.04853000  0.63928000  1.0 0.6804077036
N  N81  1  0.98795000  0.77223000  0.40938000  1.0 0.6804077036
N  N82  1  0.02223000  0.11285000  0.28428000  1.0 0.6804077036
N  N83  1  0.36285000  0.57857000  0.59062000  1.0 0.6804077036
N  N84  1  0.82857000  0.73795000  0.71572000  1.0 0.6804077036
N  N85  1  0.26205000  0.97777000  0.09062000  1.0 0.6804077036
N  N86  1  0.22777000  0.63715000  0.21572000  1.0 0.6804077036
N  N87  1  0.88715000  0.17143000  0.90938000  1.0 0.6860783235
N  N88  1  0.42143000  0.01205000  0.78428000  1.0 0.6860783235
O  O1  1  0.30676000  0.82660000  0.23256000  1.0 -0.3157453402
O  O2  1  0.32420000  0.05676000  0.98016000  1.0 -0.3084737375
O  O3  1  0.59404000  0.07420000  0.76744000  1.0 -0.3084737375
O  O4  1  0.07660000  0.34404000  0.01984000  1.0 -0.3084737375
O  O5  1  0.94324000  0.92340000  0.26744000  1.0 -0.3157453402
O  O6  1  0.92580000  0.69324000  0.51984000  1.0 -0.3084737375
O  O7  1  0.65596000  0.67580000  0.73256000  1.0 -0.3084737375
O  O8  1  0.17340000  0.40596000  0.48016000  1.0 -0.3084737375
O  O9  1  0.27313000  0.84412000  0.11785000  1.0 -0.4388965625
O  O10  1  0.40528000  0.02313000  0.92901000  1.0 -0.4388965625
O  O11  1  0.72627000  0.15528000  0.88215000  1.0 -0.4388965625
O  O12  1  0.09412000  0.47627000  0.07099000  1.0 -0.4388965625
O  O13  1  0.97687000  0.90588000  0.38215000  1.0 -0.4388965625
O  O14  1  0.84472000  0.72687000  0.57099000  1.0 -0.4388965625
O  O15  1  0.52373000  0.59472000  0.61785000  1.0 -0.4388965625
O  O16  1  0.15588000  0.27373000  0.42901000  1.0 -0.4388965625
O  O17  1  0.12228000  0.66555000  0.13923000  1.0 -0.4594545677
O  O18  1  0.23305000  0.87228000  0.95673000  1.0 -0.4594545677
O  O19  1  0.52632000  0.98305000  0.86077000  1.0 -0.4594545677
O  O20  1  0.91555000  0.27632000  0.04327000  1.0 -0.4594545677
O  O21  1  0.12772000  0.08445000  0.36077000  1.0 -0.4594545677
O  O22  1  0.01695000  0.87772000  0.54327000  1.0 -0.4594545677
O  O23  1  0.72368000  0.76695000  0.63923000  1.0 -0.4594545677
O  O24  1  0.33445000  0.47368000  0.45673000  1.0 -0.4594545677
O  O25  1  0.02762000  0.67249000  0.60031000  1.0 -0.3906067177
O  O26  1  0.88910000  0.55380000  0.53890000  1.0 -0.4144603475
O  O27  1  0.93336000  0.54250000  0.61586000  1.0 -0.4212468132
O  O28  1  0.92249000  0.82218000  0.14487000  1.0 -0.3906067177
O  O29  1  0.80380000  0.76490000  0.16470000  1.0 -0.4144603475
O  O30  1  0.79250000  0.67664000  0.10914000  1.0 -0.4212468132
O  O31  1  0.07218000  0.42731000  0.39969000  1.0 -0.3906067177
O  O32  1  0.01490000  0.35020000  0.46110000  1.0 -0.4144603475
O  O33  1  0.92664000  0.31750000  0.38414000  1.0 -0.4212468132
O  O34  1  0.67731000  0.77762000  0.85513000  1.0 -0.3906067177
O  O35  1  0.60020000  0.63910000  0.83530000  1.0 -0.4144603475
O  O36  1  0.56750000  0.68336000  0.89086000  1.0 -0.4212468132
O  O37  1  0.22238000  0.07751000  0.89969000  1.0 -0.3906067177
O  O38  1  0.36090000  0.19620000  0.96110000  1.0 -0.4144603475
O  O39  1  0.31664000  0.20750000  0.88414000  1.0 -0.4212468132
O  O40  1  0.32751000  0.92782000  0.35513000  1.0 -0.3906067177
O  O41  1  0.44620000  0.98510000  0.33530000  1.0 -0.4144603475
O  O42  1  0.45750000  0.07336000  0.39086000  1.0 -0.4212468132
O  O43  1  0.17782000  0.32269000  0.10031000  1.0 -0.3906067177
O  O44  1  0.23510000  0.39980000  0.03890000  1.0 -0.4144603475
O  O45  1  0.32336000  0.43250000  0.11586000  1.0 -0.4212468132
O  O46  1  0.57269000  0.97238000  0.64487000  1.0 -0.3906067177
O  O47  1  0.64980000  0.11090000  0.66470000  1.0 -0.4144603475
O  O48  1  0.68250000  0.06664000  0.60914000  1.0 -0.4212468132
O  O49  1  0.95316000  0.79055000  0.42611000  1.0 -0.3157453402
O  O50  1  0.06861000  0.82278000  0.43679000  1.0 -0.4388965625
O  O51  1  0.93936000  0.70313000  0.36529000  1.0 -0.4524194464
O  O52  1  0.04055000  0.11444000  0.33739000  1.0 -0.3157453402
O  O53  1  0.07278000  0.13599000  0.25417000  1.0 -0.4388965625
O  O54  1  0.95313000  0.08784000  0.26377000  1.0 -0.4524194464
O  O55  1  0.36444000  0.52705000  0.57389000  1.0 -0.3157453402
O  O56  1  0.38599000  0.63182000  0.56321000  1.0 -0.4388965625
O  O57  1  0.33784000  0.57407000  0.63471000  1.0 -0.4524194464
O  O58  1  0.77705000  0.70316000  0.66261000  1.0 -0.3157453402
O  O59  1  0.88182000  0.81861000  0.74583000  1.0 -0.4388965625
O  O60  1  0.82407000  0.68936000  0.73623000  1.0 -0.4524194464
O  O61  1  0.29684000  0.95945000  0.07389000  1.0 -0.3157453402
O  O62  1  0.18139000  0.92722000  0.06321000  1.0 -0.4388965625
O  O63  1  0.31064000  0.04687000  0.13471000  1.0 -0.4524194464
O  O64  1  0.20945000  0.63556000  0.16261000  1.0 -0.3157453402
O  O65  1  0.17722000  0.61401000  0.24583000  1.0 -0.4388965625
O  O66  1  0.29687000  0.66216000  0.23623000  1.0 -0.4524194464
O  O67  1  0.88556000  0.22295000  0.92611000  1.0 -0.3157453402
O  O68  1  0.86401000  0.11818000  0.93679000  1.0 -0.4388965625
O  O69  1  0.91216000  0.17593000  0.86529000  1.0 -0.4524194464
O  O70  1  0.47295000  0.04684000  0.83739000  1.0 -0.3157453402
O  O71  1  0.36818000  0.93139000  0.75417000  1.0 -0.4388965625
O  O72  1  0.42593000  0.06064000  0.76377000  1.0 -0.4524194464
