# DDEC6 charges by PACMAN v1.1 (https://github.com/mtap-research/PACMAN-charge/)
data_MARPOL_FSR_pacman
_symmetry_space_group_name_H-M   'P 1'
_cell_length_a   15.29100000
_cell_length_b   15.65600000
_cell_length_c   50.91200000
_cell_angle_alpha   90.00000000
_cell_angle_beta   90.00000000
_cell_angle_gamma   90.00000000
_symmetry_Int_Tables_number   1
_chemical_formula_structural   Fe2Ni3H66(C3N2)12
_chemical_formula_sum   'Fe16 Ni24 H528 C288 N192'
_cell_volume   12188.12385715
_cell_formula_units_Z   8
loop_
 _symmetry_equiv_pos_site_id
 _symmetry_equiv_pos_as_xyz
  1  'x, y, z'
loop_
 _atom_site_type_symbol
 _atom_site_label
 _atom_site_symmetry_multiplicity
 _atom_site_fract_x
 _atom_site_fract_y
 _atom_site_fract_z
 _atom_site_occupancy
 _atom_site_charge
Fe  Fe1  1  0.89970000  0.75251000  0.45982000  1.0 0.0990584411
Fe  Fe2  1  0.10030000  0.74749000  0.95982000  1.0 0.0904096013
Fe  Fe3  1  0.60030000  0.25251000  0.54018000  1.0 0.0990584411
Fe  Fe4  1  0.39970000  0.24749000  0.04018000  1.0 0.0990584411
Fe  Fe5  1  0.58863000  0.64650000  0.29388000  1.0 0.11145357
Fe  Fe6  1  0.41137000  0.85350000  0.79388000  1.0 0.11145357
Fe  Fe7  1  0.91137000  0.14650000  0.70612000  1.0 0.11145357
Fe  Fe8  1  0.08863000  0.35350000  0.20612000  1.0 0.11145357
Fe  Fe9  1  0.10030000  0.24749000  0.54018000  1.0 0.0990584411
Fe  Fe10  1  0.89970000  0.25251000  0.04018000  1.0 0.0990584411
Fe  Fe11  1  0.39970000  0.74749000  0.45982000  1.0 0.0990584411
Fe  Fe12  1  0.60030000  0.75251000  0.95982000  1.0 0.0990584411
Fe  Fe13  1  0.41137000  0.35350000  0.70612000  1.0 0.11145357
Fe  Fe14  1  0.58863000  0.14650000  0.20612000  1.0 0.11145357
Fe  Fe15  1  0.08863000  0.85350000  0.29388000  1.0 0.0990584411
Fe  Fe16  1  0.91137000  0.64650000  0.79388000  1.0 0.11145357
Ni  Ni1  1  0.70274000  0.54602000  0.50633000  1.0 0.6205158461
Ni  Ni2  1  0.29726000  0.95398000  0.00633000  1.0 0.6205158461
Ni  Ni3  1  0.79726000  0.04602000  0.49367000  1.0 0.6205158461
Ni  Ni4  1  0.20274000  0.45398000  0.99367000  1.0 0.6205158461
Ni  Ni5  1  0.71712000  0.77691000  0.37545000  1.0 0.6085541662
Ni  Ni6  1  0.28288000  0.72309000  0.87545000  1.0 0.6085541662
Ni  Ni7  1  0.78288000  0.27691000  0.62455000  1.0 0.6085541662
Ni  Ni8  1  0.21712000  0.22309000  0.12455000  1.0 0.6085541662
Ni  Ni9  1  0.38712000  0.47818000  0.23518000  1.0 0.6205158461
Ni  Ni10  1  0.61288000  0.02182000  0.73518000  1.0 0.6205158461
Ni  Ni11  1  0.11288000  0.97818000  0.76482000  1.0 0.6205158461
Ni  Ni12  1  0.88712000  0.52182000  0.26482000  1.0 0.6205158461
Ni  Ni13  1  0.29726000  0.45398000  0.49367000  1.0 0.6205158461
Ni  Ni14  1  0.70274000  0.04602000  0.99367000  1.0 0.6205158461
Ni  Ni15  1  0.20274000  0.95398000  0.50633000  1.0 0.6205158461
Ni  Ni16  1  0.79726000  0.54602000  0.00633000  1.0 0.6205158461
Ni  Ni17  1  0.28288000  0.22309000  0.62455000  1.0 0.6085541662
Ni  Ni18  1  0.71712000  0.27691000  0.12455000  1.0 0.6085541662
Ni  Ni19  1  0.21712000  0.72309000  0.37545000  1.0 0.6085541662
Ni  Ni20  1  0.78288000  0.77691000  0.87545000  1.0 0.6085541662
Ni  Ni21  1  0.61288000  0.52182000  0.76482000  1.0 0.6205158461
Ni  Ni22  1  0.38712000  0.97818000  0.26482000  1.0 0.6205158461
Ni  Ni23  1  0.88712000  0.02182000  0.23518000  1.0 0.6205158461
Ni  Ni24  1  0.11288000  0.47818000  0.73518000  1.0 0.6205158461
H  H1  1  0.35790000  0.59030000  0.26990000  1.0 0.2573046709
H  H2  1  0.64210000  0.90970000  0.76990000  1.0 0.2573046709
H  H3  1  0.14210000  0.09030000  0.73010000  1.0 0.2573046709
H  H4  1  0.85790000  0.40970000  0.23010000  1.0 0.2573046709
H  H5  1  0.60800000  0.64800000  0.53150000  1.0 0.2825475935
H  H6  1  0.39200000  0.85200000  0.03150000  1.0 0.2825475935
H  H7  1  0.89200000  0.14800000  0.46850000  1.0 0.2825475935
H  H8  1  0.10800000  0.35200000  0.96850000  1.0 0.2825475935
H  H9  1  0.62800000  0.57900000  0.54980000  1.0 0.2825475935
H  H10  1  0.37200000  0.92100000  0.04980000  1.0 0.2825475935
H  H11  1  0.87200000  0.07900000  0.45020000  1.0 0.2825475935
H  H12  1  0.12800000  0.42100000  0.95020000  1.0 0.2825475935
H  H13  1  0.73500000  0.71700000  0.53830000  1.0 0.0990584411
H  H14  1  0.26500000  0.78300000  0.03830000  1.0 0.0990584411
H  H15  1  0.76500000  0.21700000  0.46170000  1.0 0.0990584411
H  H16  1  0.23500000  0.28300000  0.96170000  1.0 0.0990584411
H  H17  1  0.67700000  0.70500000  0.56470000  1.0 0.0904096013
H  H18  1  0.32300000  0.79500000  0.06470000  1.0 0.0904096013
H  H19  1  0.82300000  0.20500000  0.43530000  1.0 0.0904096013
H  H20  1  0.17700000  0.29500000  0.93530000  1.0 0.0904096013
H  H21  1  0.75300000  0.57400000  0.57550000  1.0 0.0904096013
H  H22  1  0.24700000  0.92600000  0.07550000  1.0 0.0904096013
H  H23  1  0.74700000  0.07400000  0.42450000  1.0 0.0904096013
H  H24  1  0.25300000  0.42600000  0.92450000  1.0 0.0904096013
H  H25  1  0.80600000  0.65900000  0.57640000  1.0 0.11145357
H  H26  1  0.19400000  0.84100000  0.07640000  1.0 0.11145357
H  H27  1  0.69400000  0.15900000  0.42360000  1.0 0.11145357
H  H28  1  0.30600000  0.34100000  0.92360000  1.0 0.11145357
H  H29  1  0.86900000  0.63900000  0.53420000  1.0 0.1190372202
H  H30  1  0.13100000  0.86100000  0.03420000  1.0 0.1190372202
H  H31  1  0.63100000  0.13900000  0.46580000  1.0 0.1190372202
H  H32  1  0.36900000  0.36100000  0.96580000  1.0 0.1190372202
H  H33  1  0.89800000  0.57300000  0.55360000  1.0 0.11145357
H  H34  1  0.10200000  0.92700000  0.05360000  1.0 0.11145357
H  H35  1  0.60200000  0.07300000  0.44640000  1.0 0.11145357
H  H36  1  0.39800000  0.42700000  0.94640000  1.0 0.11145357
H  H37  1  0.80900000  0.48600000  0.53740000  1.0 0.2422880323
H  H38  1  0.19100000  0.01400000  0.03740000  1.0 0.2422880323
H  H39  1  0.69100000  0.98600000  0.46260000  1.0 0.2422880323
H  H40  1  0.30900000  0.51400000  0.96260000  1.0 0.2422880323
H  H41  1  0.93600000  0.46100000  0.52030000  1.0 0.1190372202
H  H42  1  0.06400000  0.03900000  0.02030000  1.0 0.1190372202
H  H43  1  0.56400000  0.96100000  0.47970000  1.0 0.1190372202
H  H44  1  0.43600000  0.53900000  0.97970000  1.0 0.1190372202
H  H45  1  0.91400000  0.54200000  0.50110000  1.0 0.1190372202
H  H46  1  0.08600000  0.95800000  0.00110000  1.0 0.1190372202
H  H47  1  0.58600000  0.04200000  0.49890000  1.0 0.1190372202
H  H48  1  0.41400000  0.45800000  0.99890000  1.0 0.1190372202
H  H49  1  0.82100000  0.37800000  0.50040000  1.0 0.1190372202
H  H50  1  0.17900000  0.12200000  0.00040000  1.0 0.1190372202
H  H51  1  0.67900000  0.87800000  0.49960000  1.0 0.1190372202
H  H52  1  0.32100000  0.62200000  0.99960000  1.0 0.1190372202
H  H53  1  0.88900000  0.41200000  0.47860000  1.0 0.1190372202
H  H54  1  0.11100000  0.08800000  0.97860000  1.0 0.1190372202
H  H55  1  0.61100000  0.91200000  0.52140000  1.0 0.1190372202
H  H56  1  0.38900000  0.58800000  0.02140000  1.0 0.1190372202
H  H57  1  0.79500000  0.51500000  0.46870000  1.0 0.2573046709
H  H58  1  0.20500000  0.98500000  0.96870000  1.0 0.2573046709
H  H59  1  0.70500000  0.01500000  0.53130000  1.0 0.2573046709
H  H60  1  0.29500000  0.48500000  0.03130000  1.0 0.2573046709
H  H61  1  0.70300000  0.36400000  0.47120000  1.0 0.0990584411
H  H62  1  0.29700000  0.13600000  0.97120000  1.0 0.0990584411
H  H63  1  0.79700000  0.86400000  0.52880000  1.0 0.0990584411
H  H64  1  0.20300000  0.63600000  0.02880000  1.0 0.0990584411
H  H65  1  0.76100000  0.39500000  0.44660000  1.0 0.0990584411
H  H66  1  0.23900000  0.10500000  0.94660000  1.0 0.0990584411
H  H67  1  0.73900000  0.89500000  0.55340000  1.0 0.0990584411
H  H68  1  0.26100000  0.60500000  0.05340000  1.0 0.0990584411
H  H69  1  0.63100000  0.42200000  0.43110000  1.0 0.11145357
H  H70  1  0.36900000  0.07800000  0.93110000  1.0 0.11145357
H  H71  1  0.86900000  0.92200000  0.56890000  1.0 0.11145357
H  H72  1  0.13100000  0.57800000  0.06890000  1.0 0.11145357
H  H73  1  0.67100000  0.51400000  0.43650000  1.0 0.1190372202
H  H74  1  0.32900000  0.98600000  0.93650000  1.0 0.1190372202
H  H75  1  0.82900000  0.01400000  0.56350000  1.0 0.1190372202
H  H76  1  0.17100000  0.48600000  0.06350000  1.0 0.1190372202
H  H77  1  0.52000000  0.50300000  0.45030000  1.0 0.0709372419
H  H78  1  0.48000000  0.99700000  0.95030000  1.0 0.0709372419
H  H79  1  0.98000000  0.00300000  0.54970000  1.0 0.0709372419
H  H80  1  0.02000000  0.49700000  0.04970000  1.0 0.0709372419
H  H81  1  0.56300000  0.43800000  0.47600000  1.0 0.11145357
H  H82  1  0.43700000  0.06200000  0.97600000  1.0 0.11145357
H  H83  1  0.93700000  0.93800000  0.52400000  1.0 0.11145357
H  H84  1  0.06300000  0.56200000  0.02400000  1.0 0.11145357
H  H85  1  0.54600000  0.57800000  0.48880000  1.0 0.2722574476
H  H86  1  0.45400000  0.92200000  0.98880000  1.0 0.2722574476
H  H87  1  0.95400000  0.07800000  0.51120000  1.0 0.2722574476
H  H88  1  0.04600000  0.42200000  0.01120000  1.0 0.2722574476
H  H89  1  0.60300000  0.60500000  0.46910000  1.0 0.2722574476
H  H90  1  0.39700000  0.89500000  0.96910000  1.0 0.2722574476
H  H91  1  0.89700000  0.10500000  0.53090000  1.0 0.2722574476
H  H92  1  0.10300000  0.39500000  0.03090000  1.0 0.2722574476
H  H93  1  0.64700000  0.63900000  0.36740000  1.0 0.2722574476
H  H94  1  0.35300000  0.86100000  0.86740000  1.0 0.2722574476
H  H95  1  0.85300000  0.13900000  0.63260000  1.0 0.2722574476
H  H96  1  0.14700000  0.36100000  0.13260000  1.0 0.2722574476
H  H97  1  0.63800000  0.65100000  0.39490000  1.0 0.2825475935
H  H98  1  0.36200000  0.84900000  0.89490000  1.0 0.2825475935
H  H99  1  0.86200000  0.15100000  0.60510000  1.0 0.2825475935
H  H100  1  0.13800000  0.34900000  0.10510000  1.0 0.2825475935
H  H101  1  0.71300000  0.52000000  0.38540000  1.0 0.0790857728
H  H102  1  0.28700000  0.98000000  0.88540000  1.0 0.0790857728
H  H103  1  0.78700000  0.02000000  0.61460000  1.0 0.0790857728
H  H104  1  0.21300000  0.48000000  0.11460000  1.0 0.0790857728
H  H105  1  0.76400000  0.59200000  0.40180000  1.0 0.11145357
H  H106  1  0.23600000  0.90800000  0.90180000  1.0 0.11145357
H  H107  1  0.73600000  0.09200000  0.59820000  1.0 0.11145357
H  H108  1  0.26400000  0.40800000  0.09820000  1.0 0.11145357
H  H109  1  0.84300000  0.53600000  0.36620000  1.0 0.11145357
H  H110  1  0.15700000  0.96400000  0.86620000  1.0 0.11145357
H  H111  1  0.65700000  0.03600000  0.63380000  1.0 0.11145357
H  H112  1  0.34300000  0.46400000  0.13380000  1.0 0.11145357
H  H113  1  0.79000000  0.58500000  0.34610000  1.0 0.1190372202
H  H114  1  0.21000000  0.91500000  0.84610000  1.0 0.1190372202
H  H115  1  0.71000000  0.08500000  0.65390000  1.0 0.1190372202
H  H116  1  0.29000000  0.41500000  0.15390000  1.0 0.1190372202
H  H117  1  0.89800000  0.66900000  0.38190000  1.0 0.11145357
H  H118  1  0.10200000  0.83100000  0.88190000  1.0 0.11145357
H  H119  1  0.60200000  0.16900000  0.61810000  1.0 0.1190372202
H  H120  1  0.39800000  0.33100000  0.11810000  1.0 0.11145357
H  H121  1  0.92500000  0.65400000  0.35180000  1.0 0.0990584411
H  H122  1  0.07500000  0.84600000  0.85180000  1.0 0.0990584411
H  H123  1  0.57500000  0.15400000  0.64820000  1.0 0.0990584411
H  H124  1  0.42500000  0.34600000  0.14820000  1.0 0.0990584411
H  H125  1  0.82600000  0.73600000  0.34120000  1.0 0.2573046709
H  H126  1  0.17400000  0.76400000  0.84120000  1.0 0.2573046709
H  H127  1  0.67400000  0.23600000  0.65880000  1.0 0.2573046709
H  H128  1  0.32600000  0.26400000  0.15880000  1.0 0.2573046709
H  H129  1  0.91600000  0.81500000  0.38020000  1.0 0.11145357
H  H130  1  0.08400000  0.68500000  0.88020000  1.0 0.11145357
H  H131  1  0.58400000  0.31500000  0.61980000  1.0 0.11145357
H  H132  1  0.41600000  0.18500000  0.11980000  1.0 0.11145357
H  H133  1  0.95500000  0.80300000  0.35090000  1.0 0.11145357
H  H134  1  0.04500000  0.69700000  0.85090000  1.0 0.11145357
H  H135  1  0.54500000  0.30300000  0.64910000  1.0 0.11145357
H  H136  1  0.45500000  0.19700000  0.14910000  1.0 0.11145357
H  H137  1  0.88500000  0.94300000  0.35660000  1.0 0.1190372202
H  H138  1  0.11500000  0.55700000  0.85660000  1.0 0.1190372202
H  H139  1  0.61500000  0.44300000  0.64340000  1.0 0.1190372202
H  H140  1  0.38500000  0.05700000  0.14340000  1.0 0.1190372202
H  H141  1  0.82700000  0.89700000  0.33550000  1.0 0.11145357
H  H142  1  0.17300000  0.60300000  0.83550000  1.0 0.11145357
H  H143  1  0.67300000  0.39700000  0.66450000  1.0 0.11145357
H  H144  1  0.32700000  0.10300000  0.16450000  1.0 0.11145357
H  H145  1  0.78600000  0.92000000  0.38840000  1.0 0.2507588172
H  H146  1  0.21400000  0.58000000  0.88840000  1.0 0.2507588172
H  H147  1  0.71400000  0.42000000  0.61160000  1.0 0.2507588172
H  H148  1  0.28600000  0.08000000  0.11160000  1.0 0.2507588172
H  H149  1  0.75600000  0.02900000  0.36940000  1.0 0.0790857728
H  H150  1  0.24400000  0.47100000  0.86940000  1.0 0.0790857728
H  H151  1  0.74400000  0.52900000  0.63060000  1.0 0.0790857728
H  H152  1  0.25600000  0.97100000  0.13060000  1.0 0.0790857728
H  H153  1  0.69600000  0.96400000  0.34740000  1.0 0.0990584411
H  H154  1  0.30400000  0.53600000  0.84740000  1.0 0.0990584411
H  H155  1  0.80400000  0.46400000  0.65260000  1.0 0.0990584411
H  H156  1  0.19600000  0.03600000  0.15260000  1.0 0.0990584411
H  H157  1  0.61600000  0.03500000  0.38260000  1.0 0.11145357
H  H158  1  0.38400000  0.46500000  0.88260000  1.0 0.11145357
H  H159  1  0.88400000  0.53500000  0.61740000  1.0 0.11145357
H  H160  1  0.11600000  0.96500000  0.11740000  1.0 0.11145357
H  H161  1  0.66500000  0.97500000  0.40250000  1.0 0.11145357
H  H162  1  0.33500000  0.52500000  0.90250000  1.0 0.11145357
H  H163  1  0.83500000  0.47500000  0.59750000  1.0 0.11145357
H  H164  1  0.16500000  0.02500000  0.09750000  1.0 0.11145357
H  H165  1  0.55800000  0.90600000  0.36040000  1.0 0.0448283557
H  H166  1  0.44200000  0.59400000  0.86040000  1.0 0.0448283557
H  H167  1  0.94200000  0.40600000  0.63960000  1.0 0.0448283557
H  H168  1  0.05800000  0.09400000  0.13960000  1.0 0.0448283557
H  H169  1  0.51400000  0.92100000  0.39300000  1.0 0.0904096013
H  H170  1  0.48600000  0.57900000  0.89300000  1.0 0.0904096013
H  H171  1  0.98600000  0.42100000  0.60700000  1.0 0.0904096013
H  H172  1  0.01400000  0.07900000  0.10700000  1.0 0.0904096013
H  H173  1  0.61300000  0.83000000  0.40870000  1.0 0.2507588172
H  H174  1  0.38700000  0.67000000  0.90870000  1.0 0.2507588172
H  H175  1  0.88700000  0.33000000  0.59130000  1.0 0.2507588172
H  H176  1  0.11300000  0.17000000  0.09130000  1.0 0.2507588172
H  H177  1  0.56600000  0.78200000  0.39160000  1.0 0.2422880323
H  H178  1  0.43400000  0.71800000  0.89160000  1.0 0.2422880323
H  H179  1  0.93400000  0.28200000  0.60840000  1.0 0.2422880323
H  H180  1  0.06600000  0.21800000  0.10840000  1.0 0.2422880323
H  H181  1  0.49300000  0.36400000  0.22050000  1.0 0.2722574476
H  H182  1  0.50700000  0.13600000  0.72050000  1.0 0.2722574476
H  H183  1  0.00700000  0.86400000  0.77950000  1.0 0.2722574476
H  H184  1  0.99300000  0.63600000  0.27950000  1.0 0.2722574476
H  H185  1  0.43500000  0.37900000  0.19930000  1.0 0.2722574476
H  H186  1  0.56500000  0.12100000  0.69930000  1.0 0.2722574476
H  H187  1  0.06500000  0.87900000  0.80070000  1.0 0.2722574476
H  H188  1  0.93500000  0.62100000  0.30070000  1.0 0.2722574476
H  H189  1  0.58000000  0.47400000  0.21120000  1.0 0.0790857728
H  H190  1  0.42000000  0.02600000  0.71120000  1.0 0.0790857728
H  H191  1  0.92000000  0.97400000  0.78880000  1.0 0.0790857728
H  H192  1  0.08000000  0.52600000  0.28880000  1.0 0.0790857728
H  H193  1  0.57000000  0.40100000  0.18660000  1.0 0.0990584411
H  H194  1  0.43000000  0.09900000  0.68660000  1.0 0.0990584411
H  H195  1  0.93000000  0.90100000  0.81340000  1.0 0.0990584411
H  H196  1  0.07000000  0.59900000  0.31340000  1.0 0.0990584411
H  H197  1  0.55500000  0.53400000  0.16860000  1.0 0.11145357
H  H198  1  0.44500000  0.96600000  0.66860000  1.0 0.11145357
H  H199  1  0.94500000  0.03400000  0.83140000  1.0 0.11145357
H  H200  1  0.05500000  0.46600000  0.33140000  1.0 0.11145357
H  H201  1  0.45300000  0.49800000  0.17040000  1.0 0.1190372202
H  H202  1  0.54700000  0.00200000  0.67040000  1.0 0.1190372202
H  H203  1  0.04700000  0.99800000  0.82960000  1.0 0.1190372202
H  H204  1  0.95300000  0.50200000  0.32960000  1.0 0.1190372202
H  H205  1  0.52600000  0.60800000  0.20570000  1.0 0.11145357
H  H206  1  0.47400000  0.89200000  0.70570000  1.0 0.11145357
H  H207  1  0.97400000  0.10800000  0.79430000  1.0 0.11145357
H  H208  1  0.02600000  0.39200000  0.29430000  1.0 0.11145357
H  H209  1  0.46400000  0.64700000  0.18100000  1.0 0.0790857728
H  H210  1  0.53600000  0.85300000  0.68100000  1.0 0.0790857728
H  H211  1  0.03600000  0.14700000  0.81900000  1.0 0.0790857728
H  H212  1  0.96400000  0.35300000  0.31900000  1.0 0.0790857728
H  H213  1  0.35400000  0.57700000  0.19810000  1.0 0.2422880323
H  H214  1  0.64600000  0.92300000  0.69810000  1.0 0.2422880323
H  H215  1  0.14600000  0.07700000  0.80190000  1.0 0.2422880323
H  H216  1  0.85400000  0.42300000  0.30190000  1.0 0.2422880323
H  H217  1  0.35200000  0.70500000  0.20960000  1.0 0.0990584411
H  H218  1  0.64800000  0.79500000  0.70960000  1.0 0.0990584411
H  H219  1  0.14800000  0.20500000  0.79040000  1.0 0.0990584411
H  H220  1  0.85200000  0.29500000  0.29040000  1.0 0.0990584411
H  H221  1  0.41900000  0.68000000  0.23480000  1.0 0.11145357
H  H222  1  0.58100000  0.82000000  0.73480000  1.0 0.11145357
H  H223  1  0.08100000  0.18000000  0.76520000  1.0 0.11145357
H  H224  1  0.91900000  0.32000000  0.26520000  1.0 0.11145357
H  H225  1  0.24900000  0.62100000  0.22970000  1.0 0.1190372202
H  H226  1  0.75100000  0.87900000  0.72970000  1.0 0.1190372202
H  H227  1  0.25100000  0.12100000  0.77030000  1.0 0.1190372202
H  H228  1  0.74900000  0.37900000  0.27030000  1.0 0.1190372202
H  H229  1  0.27400000  0.69100000  0.25130000  1.0 0.1190372202
H  H230  1  0.72600000  0.80900000  0.75130000  1.0 0.1190372202
H  H231  1  0.22600000  0.19100000  0.74870000  1.0 0.1190372202
H  H232  1  0.77400000  0.30900000  0.24870000  1.0 0.1190372202
H  H233  1  0.19200000  0.52000000  0.26110000  1.0 0.0904096013
H  H234  1  0.80800000  0.98000000  0.76110000  1.0 0.0904096013
H  H235  1  0.30800000  0.02000000  0.73890000  1.0 0.0904096013
H  H236  1  0.69200000  0.48000000  0.23890000  1.0 0.0904096013
H  H237  1  0.21500000  0.59500000  0.28720000  1.0 0.05852681
H  H238  1  0.78500000  0.90500000  0.78720000  1.0 0.05852681
H  H239  1  0.28500000  0.09500000  0.71280000  1.0 0.05852681
H  H240  1  0.71500000  0.40500000  0.21280000  1.0 0.05852681
H  H241  1  0.32200000  0.47400000  0.29810000  1.0 0.1190372202
H  H242  1  0.67800000  0.02600000  0.79810000  1.0 0.1190372202
H  H243  1  0.17800000  0.97400000  0.70190000  1.0 0.1190372202
H  H244  1  0.82200000  0.52600000  0.20190000  1.0 0.1190372202
H  H245  1  0.22000000  0.45600000  0.30470000  1.0 0.11145357
H  H246  1  0.78000000  0.04400000  0.80470000  1.0 0.11145357
H  H247  1  0.28000000  0.95600000  0.69530000  1.0 0.11145357
H  H248  1  0.72000000  0.54400000  0.19530000  1.0 0.11145357
H  H249  1  0.29000000  0.33000000  0.29550000  1.0 0.0172138032
H  H250  1  0.71000000  0.17000000  0.79550000  1.0 0.0172138032
H  H251  1  0.21000000  0.83000000  0.70450000  1.0 0.0172138032
H  H252  1  0.79000000  0.67000000  0.20450000  1.0 0.0172138032
H  H253  1  0.22900000  0.36400000  0.26380000  1.0 0.05852681
H  H254  1  0.77100000  0.13600000  0.76380000  1.0 0.05852681
H  H255  1  0.27100000  0.86400000  0.73620000  1.0 0.05852681
H  H256  1  0.72900000  0.63600000  0.23620000  1.0 0.05852681
H  H257  1  0.41200000  0.37900000  0.27740000  1.0 0.2893035881
H  H258  1  0.58800000  0.12100000  0.77740000  1.0 0.2893035881
H  H259  1  0.08800000  0.87900000  0.72260000  1.0 0.2893035881
H  H260  1  0.91200000  0.62100000  0.22260000  1.0 0.2893035881
H  H261  1  0.38400000  0.33500000  0.25320000  1.0 0.2893035881
H  H262  1  0.61600000  0.16500000  0.75320000  1.0 0.2893035881
H  H263  1  0.11600000  0.83500000  0.74680000  1.0 0.2893035881
H  H264  1  0.88400000  0.66500000  0.24680000  1.0 0.2893035881
H  H265  1  0.64210000  0.40970000  0.73010000  1.0 0.2573046709
H  H266  1  0.35790000  0.09030000  0.23010000  1.0 0.2573046709
H  H267  1  0.85790000  0.90970000  0.26990000  1.0 0.2573046709
H  H268  1  0.14210000  0.59030000  0.76990000  1.0 0.2573046709
H  H269  1  0.39200000  0.35200000  0.46850000  1.0 0.2825475935
H  H270  1  0.60800000  0.14800000  0.96850000  1.0 0.2825475935
H  H271  1  0.10800000  0.85200000  0.53150000  1.0 0.2825475935
H  H272  1  0.89200000  0.64800000  0.03150000  1.0 0.2825475935
H  H273  1  0.37200000  0.42100000  0.45020000  1.0 0.2825475935
H  H274  1  0.62800000  0.07900000  0.95020000  1.0 0.2825475935
H  H275  1  0.12800000  0.92100000  0.54980000  1.0 0.2825475935
H  H276  1  0.87200000  0.57900000  0.04980000  1.0 0.2825475935
H  H277  1  0.26500000  0.28300000  0.46170000  1.0 0.0990584411
H  H278  1  0.73500000  0.21700000  0.96170000  1.0 0.0990584411
H  H279  1  0.23500000  0.78300000  0.53830000  1.0 0.0990584411
H  H280  1  0.76500000  0.71700000  0.03830000  1.0 0.0990584411
H  H281  1  0.32300000  0.29500000  0.43530000  1.0 0.0904096013
H  H282  1  0.67700000  0.20500000  0.93530000  1.0 0.0904096013
H  H283  1  0.17700000  0.79500000  0.56470000  1.0 0.0904096013
H  H284  1  0.82300000  0.70500000  0.06470000  1.0 0.0904096013
H  H285  1  0.24700000  0.42600000  0.42450000  1.0 0.0904096013
H  H286  1  0.75300000  0.07400000  0.92450000  1.0 0.0904096013
H  H287  1  0.25300000  0.92600000  0.57550000  1.0 0.0904096013
H  H288  1  0.74700000  0.57400000  0.07550000  1.0 0.0904096013
H  H289  1  0.19400000  0.34100000  0.42360000  1.0 0.11145357
H  H290  1  0.80600000  0.15900000  0.92360000  1.0 0.11145357
H  H291  1  0.30600000  0.84100000  0.57640000  1.0 0.11145357
H  H292  1  0.69400000  0.65900000  0.07640000  1.0 0.11145357
H  H293  1  0.13100000  0.36100000  0.46580000  1.0 0.1190372202
H  H294  1  0.86900000  0.13900000  0.96580000  1.0 0.1190372202
H  H295  1  0.36900000  0.86100000  0.53420000  1.0 0.1190372202
H  H296  1  0.63100000  0.63900000  0.03420000  1.0 0.1190372202
H  H297  1  0.10200000  0.42700000  0.44640000  1.0 0.11145357
H  H298  1  0.89800000  0.07300000  0.94640000  1.0 0.11145357
H  H299  1  0.39800000  0.92700000  0.55360000  1.0 0.11145357
H  H300  1  0.60200000  0.57300000  0.05360000  1.0 0.11145357
H  H301  1  0.19100000  0.51400000  0.46260000  1.0 0.2422880323
H  H302  1  0.80900000  0.98600000  0.96260000  1.0 0.2422880323
H  H303  1  0.30900000  0.01400000  0.53740000  1.0 0.2422880323
H  H304  1  0.69100000  0.48600000  0.03740000  1.0 0.2422880323
H  H305  1  0.06400000  0.53900000  0.47970000  1.0 0.1190372202
H  H306  1  0.93600000  0.96100000  0.97970000  1.0 0.1190372202
H  H307  1  0.43600000  0.03900000  0.52030000  1.0 0.1190372202
H  H308  1  0.56400000  0.46100000  0.02030000  1.0 0.1190372202
H  H309  1  0.08600000  0.45800000  0.49890000  1.0 0.1190372202
H  H310  1  0.91400000  0.04200000  0.99890000  1.0 0.1190372202
H  H311  1  0.41400000  0.95800000  0.50110000  1.0 0.1190372202
H  H312  1  0.58600000  0.54200000  0.00110000  1.0 0.1190372202
H  H313  1  0.17900000  0.62200000  0.49960000  1.0 0.1190372202
H  H314  1  0.82100000  0.87800000  0.99960000  1.0 0.1190372202
H  H315  1  0.32100000  0.12200000  0.50040000  1.0 0.1190372202
H  H316  1  0.67900000  0.37800000  0.00040000  1.0 0.1190372202
H  H317  1  0.11100000  0.58800000  0.52140000  1.0 0.1190372202
H  H318  1  0.88900000  0.91200000  0.02140000  1.0 0.1190372202
H  H319  1  0.38900000  0.08800000  0.47860000  1.0 0.1190372202
H  H320  1  0.61100000  0.41200000  0.97860000  1.0 0.1190372202
H  H321  1  0.20500000  0.48500000  0.53130000  1.0 0.2573046709
H  H322  1  0.79500000  0.01500000  0.03130000  1.0 0.2573046709
H  H323  1  0.29500000  0.98500000  0.46870000  1.0 0.2573046709
H  H324  1  0.70500000  0.51500000  0.96870000  1.0 0.2507588172
H  H325  1  0.29700000  0.63600000  0.52880000  1.0 0.0990584411
H  H326  1  0.70300000  0.86400000  0.02880000  1.0 0.0990584411
H  H327  1  0.20300000  0.13600000  0.47120000  1.0 0.0990584411
H  H328  1  0.79700000  0.36400000  0.97120000  1.0 0.0990584411
H  H329  1  0.23900000  0.60500000  0.55340000  1.0 0.0990584411
H  H330  1  0.76100000  0.89500000  0.05340000  1.0 0.0990584411
H  H331  1  0.26100000  0.10500000  0.44660000  1.0 0.0990584411
H  H332  1  0.73900000  0.39500000  0.94660000  1.0 0.0990584411
H  H333  1  0.36900000  0.57800000  0.56890000  1.0 0.11145357
H  H334  1  0.63100000  0.92200000  0.06890000  1.0 0.11145357
H  H335  1  0.13100000  0.07800000  0.43110000  1.0 0.11145357
H  H336  1  0.86900000  0.42200000  0.93110000  1.0 0.11145357
H  H337  1  0.32900000  0.48600000  0.56350000  1.0 0.1190372202
H  H338  1  0.67100000  0.01400000  0.06350000  1.0 0.1190372202
H  H339  1  0.17100000  0.98600000  0.43650000  1.0 0.1190372202
H  H340  1  0.82900000  0.51400000  0.93650000  1.0 0.1190372202
H  H341  1  0.48000000  0.49700000  0.54970000  1.0 0.0709372419
H  H342  1  0.52000000  0.00300000  0.04970000  1.0 0.0709372419
H  H343  1  0.02000000  0.99700000  0.45030000  1.0 0.0709372419
H  H344  1  0.98000000  0.50300000  0.95030000  1.0 0.0709372419
H  H345  1  0.43700000  0.56200000  0.52400000  1.0 0.11145357
H  H346  1  0.56300000  0.93800000  0.02400000  1.0 0.11145357
H  H347  1  0.06300000  0.06200000  0.47600000  1.0 0.11145357
H  H348  1  0.93700000  0.43800000  0.97600000  1.0 0.11145357
H  H349  1  0.45400000  0.42200000  0.51120000  1.0 0.2722574476
H  H350  1  0.54600000  0.07800000  0.01120000  1.0 0.2722574476
H  H351  1  0.04600000  0.92200000  0.48880000  1.0 0.2722574476
H  H352  1  0.95400000  0.57800000  0.98880000  1.0 0.2722574476
H  H353  1  0.39700000  0.39500000  0.53090000  1.0 0.2722574476
H  H354  1  0.60300000  0.10500000  0.03090000  1.0 0.2722574476
H  H355  1  0.10300000  0.89500000  0.46910000  1.0 0.2722574476
H  H356  1  0.89700000  0.60500000  0.96910000  1.0 0.2722574476
H  H357  1  0.35300000  0.36100000  0.63260000  1.0 0.2722574476
H  H358  1  0.64700000  0.13900000  0.13260000  1.0 0.2722574476
H  H359  1  0.14700000  0.86100000  0.36740000  1.0 0.2722574476
H  H360  1  0.85300000  0.63900000  0.86740000  1.0 0.2722574476
H  H361  1  0.36200000  0.34900000  0.60510000  1.0 0.2825475935
H  H362  1  0.63800000  0.15100000  0.10510000  1.0 0.2825475935
H  H363  1  0.13800000  0.84900000  0.39490000  1.0 0.2825475935
H  H364  1  0.86200000  0.65100000  0.89490000  1.0 0.2825475935
H  H365  1  0.28700000  0.48000000  0.61460000  1.0 0.0790857728
H  H366  1  0.71300000  0.02000000  0.11460000  1.0 0.0790857728
H  H367  1  0.21300000  0.98000000  0.38540000  1.0 0.0790857728
H  H368  1  0.78700000  0.52000000  0.88540000  1.0 0.0790857728
H  H369  1  0.23600000  0.40800000  0.59820000  1.0 0.11145357
H  H370  1  0.76400000  0.09200000  0.09820000  1.0 0.11145357
H  H371  1  0.26400000  0.90800000  0.40180000  1.0 0.11145357
H  H372  1  0.73600000  0.59200000  0.90180000  1.0 0.11145357
H  H373  1  0.15700000  0.46400000  0.63380000  1.0 0.11145357
H  H374  1  0.84300000  0.03600000  0.13380000  1.0 0.11145357
H  H375  1  0.34300000  0.96400000  0.36620000  1.0 0.11145357
H  H376  1  0.65700000  0.53600000  0.86620000  1.0 0.11145357
H  H377  1  0.21000000  0.41500000  0.65390000  1.0 0.1190372202
H  H378  1  0.79000000  0.08500000  0.15390000  1.0 0.1190372202
H  H379  1  0.29000000  0.91500000  0.34610000  1.0 0.1190372202
H  H380  1  0.71000000  0.58500000  0.84610000  1.0 0.1190372202
H  H381  1  0.10200000  0.33100000  0.61810000  1.0 0.11145357
H  H382  1  0.89800000  0.16900000  0.11810000  1.0 0.11145357
H  H383  1  0.39800000  0.83100000  0.38190000  1.0 0.11145357
H  H384  1  0.60200000  0.66900000  0.88190000  1.0 0.11145357
H  H385  1  0.07500000  0.34600000  0.64820000  1.0 0.0990584411
H  H386  1  0.92500000  0.15400000  0.14820000  1.0 0.0990584411
H  H387  1  0.42500000  0.84600000  0.35180000  1.0 0.0990584411
H  H388  1  0.57500000  0.65400000  0.85180000  1.0 0.0990584411
H  H389  1  0.17400000  0.26400000  0.65880000  1.0 0.2573046709
H  H390  1  0.82600000  0.23600000  0.15880000  1.0 0.2573046709
H  H391  1  0.32600000  0.76400000  0.34120000  1.0 0.2573046709
H  H392  1  0.67400000  0.73600000  0.84120000  1.0 0.2573046709
H  H393  1  0.08400000  0.18500000  0.61980000  1.0 0.11145357
H  H394  1  0.91600000  0.31500000  0.11980000  1.0 0.11145357
H  H395  1  0.41600000  0.68500000  0.38020000  1.0 0.11145357
H  H396  1  0.58400000  0.81500000  0.88020000  1.0 0.11145357
H  H397  1  0.04500000  0.19700000  0.64910000  1.0 0.11145357
H  H398  1  0.95500000  0.30300000  0.14910000  1.0 0.11145357
H  H399  1  0.45500000  0.69700000  0.35090000  1.0 0.11145357
H  H400  1  0.54500000  0.80300000  0.85090000  1.0 0.11145357
H  H401  1  0.11500000  0.05700000  0.64340000  1.0 0.1190372202
H  H402  1  0.88500000  0.44300000  0.14340000  1.0 0.1190372202
H  H403  1  0.38500000  0.55700000  0.35660000  1.0 0.1190372202
H  H404  1  0.61500000  0.94300000  0.85660000  1.0 0.1190372202
H  H405  1  0.17300000  0.10300000  0.66450000  1.0 0.11145357
H  H406  1  0.82700000  0.39700000  0.16450000  1.0 0.11145357
H  H407  1  0.32700000  0.60300000  0.33550000  1.0 0.11145357
H  H408  1  0.67300000  0.89700000  0.83550000  1.0 0.11145357
H  H409  1  0.21400000  0.08000000  0.61160000  1.0 0.2507588172
H  H410  1  0.78600000  0.42000000  0.11160000  1.0 0.2507588172
H  H411  1  0.28600000  0.58000000  0.38840000  1.0 0.2507588172
H  H412  1  0.71400000  0.92000000  0.88840000  1.0 0.2507588172
H  H413  1  0.24400000  0.97100000  0.63060000  1.0 0.0790857728
H  H414  1  0.75600000  0.52900000  0.13060000  1.0 0.0790857728
H  H415  1  0.25600000  0.47100000  0.36940000  1.0 0.0790857728
H  H416  1  0.74400000  0.02900000  0.86940000  1.0 0.0790857728
H  H417  1  0.30400000  0.03600000  0.65260000  1.0 0.0990584411
H  H418  1  0.69600000  0.46400000  0.15260000  1.0 0.0990584411
H  H419  1  0.19600000  0.53600000  0.34740000  1.0 0.0990584411
H  H420  1  0.80400000  0.96400000  0.84740000  1.0 0.0990584411
H  H421  1  0.38400000  0.96500000  0.61740000  1.0 0.11145357
H  H422  1  0.61600000  0.53500000  0.11740000  1.0 0.11145357
H  H423  1  0.11600000  0.46500000  0.38260000  1.0 0.11145357
H  H424  1  0.88400000  0.03500000  0.88260000  1.0 0.11145357
H  H425  1  0.33500000  0.02500000  0.59750000  1.0 0.11145357
H  H426  1  0.66500000  0.47500000  0.09750000  1.0 0.11145357
H  H427  1  0.16500000  0.52500000  0.40250000  1.0 0.11145357
H  H428  1  0.83500000  0.97500000  0.90250000  1.0 0.11145357
H  H429  1  0.44200000  0.09400000  0.63960000  1.0 0.0448283557
H  H430  1  0.55800000  0.40600000  0.13960000  1.0 0.0448283557
H  H431  1  0.05800000  0.59400000  0.36040000  1.0 0.0448283557
H  H432  1  0.94200000  0.90600000  0.86040000  1.0 0.0448283557
H  H433  1  0.48600000  0.07900000  0.60700000  1.0 0.0904096013
H  H434  1  0.51400000  0.42100000  0.10700000  1.0 0.0904096013
H  H435  1  0.01400000  0.57900000  0.39300000  1.0 0.0904096013
H  H436  1  0.98600000  0.92100000  0.89300000  1.0 0.0904096013
H  H437  1  0.38700000  0.17000000  0.59130000  1.0 0.2507588172
H  H438  1  0.61300000  0.33000000  0.09130000  1.0 0.2507588172
H  H439  1  0.11300000  0.67000000  0.40870000  1.0 0.2507588172
H  H440  1  0.88700000  0.83000000  0.90870000  1.0 0.2507588172
H  H441  1  0.43400000  0.21800000  0.60840000  1.0 0.2422880323
H  H442  1  0.56600000  0.28200000  0.10840000  1.0 0.2422880323
H  H443  1  0.06600000  0.71800000  0.39160000  1.0 0.2422880323
H  H444  1  0.93400000  0.78200000  0.89160000  1.0 0.2422880323
H  H445  1  0.50700000  0.63600000  0.77950000  1.0 0.2722574476
H  H446  1  0.49300000  0.86400000  0.27950000  1.0 0.2722574476
H  H447  1  0.99300000  0.13600000  0.22050000  1.0 0.2722574476
H  H448  1  0.00700000  0.36400000  0.72050000  1.0 0.2722574476
H  H449  1  0.56500000  0.62100000  0.80070000  1.0 0.2722574476
H  H450  1  0.43500000  0.87900000  0.30070000  1.0 0.2722574476
H  H451  1  0.93500000  0.12100000  0.19930000  1.0 0.2722574476
H  H452  1  0.06500000  0.37900000  0.69930000  1.0 0.2722574476
H  H453  1  0.42000000  0.52600000  0.78880000  1.0 0.0790857728
H  H454  1  0.58000000  0.97400000  0.28880000  1.0 0.0790857728
H  H455  1  0.08000000  0.02600000  0.21120000  1.0 0.0790857728
H  H456  1  0.92000000  0.47400000  0.71120000  1.0 0.0790857728
H  H457  1  0.43000000  0.59900000  0.81340000  1.0 0.0990584411
H  H458  1  0.57000000  0.90100000  0.31340000  1.0 0.0990584411
H  H459  1  0.07000000  0.09900000  0.18660000  1.0 0.0990584411
H  H460  1  0.93000000  0.40100000  0.68660000  1.0 0.0990584411
H  H461  1  0.44500000  0.46600000  0.83140000  1.0 0.11145357
H  H462  1  0.55500000  0.03400000  0.33140000  1.0 0.11145357
H  H463  1  0.05500000  0.96600000  0.16860000  1.0 0.11145357
H  H464  1  0.94500000  0.53400000  0.66860000  1.0 0.11145357
H  H465  1  0.54700000  0.50200000  0.82960000  1.0 0.1190372202
H  H466  1  0.45300000  0.99800000  0.32960000  1.0 0.1190372202
H  H467  1  0.95300000  0.00200000  0.17040000  1.0 0.1190372202
H  H468  1  0.04700000  0.49800000  0.67040000  1.0 0.1190372202
H  H469  1  0.47400000  0.39200000  0.79430000  1.0 0.11145357
H  H470  1  0.52600000  0.10800000  0.29430000  1.0 0.11145357
H  H471  1  0.02600000  0.89200000  0.20570000  1.0 0.11145357
H  H472  1  0.97400000  0.60800000  0.70570000  1.0 0.11145357
H  H473  1  0.53600000  0.35300000  0.81900000  1.0 0.0790857728
H  H474  1  0.46400000  0.14700000  0.31900000  1.0 0.0790857728
H  H475  1  0.96400000  0.85300000  0.18100000  1.0 0.0790857728
H  H476  1  0.03600000  0.64700000  0.68100000  1.0 0.0790857728
H  H477  1  0.64600000  0.42300000  0.80190000  1.0 0.2422880323
H  H478  1  0.35400000  0.07700000  0.30190000  1.0 0.2422880323
H  H479  1  0.85400000  0.92300000  0.19810000  1.0 0.2422880323
H  H480  1  0.14600000  0.57700000  0.69810000  1.0 0.2422880323
H  H481  1  0.64800000  0.29500000  0.79040000  1.0 0.0990584411
H  H482  1  0.35200000  0.20500000  0.29040000  1.0 0.0990584411
H  H483  1  0.85200000  0.79500000  0.20960000  1.0 0.0990584411
H  H484  1  0.14800000  0.70500000  0.70960000  1.0 0.0990584411
H  H485  1  0.58100000  0.32000000  0.76520000  1.0 0.11145357
H  H486  1  0.41900000  0.18000000  0.26520000  1.0 0.11145357
H  H487  1  0.91900000  0.82000000  0.23480000  1.0 0.11145357
H  H488  1  0.08100000  0.68000000  0.73480000  1.0 0.11145357
H  H489  1  0.75100000  0.37900000  0.77030000  1.0 0.1190372202
H  H490  1  0.24900000  0.12100000  0.27030000  1.0 0.1190372202
H  H491  1  0.74900000  0.87900000  0.22970000  1.0 0.1190372202
H  H492  1  0.25100000  0.62100000  0.72970000  1.0 0.1190372202
H  H493  1  0.72600000  0.30900000  0.74870000  1.0 0.1190372202
H  H494  1  0.27400000  0.19100000  0.24870000  1.0 0.1190372202
H  H495  1  0.77400000  0.80900000  0.25130000  1.0 0.1190372202
H  H496  1  0.22600000  0.69100000  0.75130000  1.0 0.1190372202
H  H497  1  0.80800000  0.48000000  0.73890000  1.0 0.0904096013
H  H498  1  0.19200000  0.02000000  0.23890000  1.0 0.0904096013
H  H499  1  0.69200000  0.98000000  0.26110000  1.0 0.0904096013
H  H500  1  0.30800000  0.52000000  0.76110000  1.0 0.0904096013
H  H501  1  0.78500000  0.40500000  0.71280000  1.0 0.05852681
H  H502  1  0.21500000  0.09500000  0.21280000  1.0 0.05852681
H  H503  1  0.71500000  0.90500000  0.28720000  1.0 0.05852681
H  H504  1  0.28500000  0.59500000  0.78720000  1.0 0.05852681
H  H505  1  0.67800000  0.52600000  0.70190000  1.0 0.1190372202
H  H506  1  0.32200000  0.97400000  0.20190000  1.0 0.1190372202
H  H507  1  0.82200000  0.02600000  0.29810000  1.0 0.1190372202
H  H508  1  0.17800000  0.47400000  0.79810000  1.0 0.1190372202
H  H509  1  0.78000000  0.54400000  0.69530000  1.0 0.11145357
H  H510  1  0.22000000  0.95600000  0.19530000  1.0 0.11145357
H  H511  1  0.72000000  0.04400000  0.30470000  1.0 0.11145357
H  H512  1  0.28000000  0.45600000  0.80470000  1.0 0.11145357
H  H513  1  0.71000000  0.67000000  0.70450000  1.0 0.0172138032
H  H514  1  0.29000000  0.83000000  0.20450000  1.0 0.0172138032
H  H515  1  0.79000000  0.17000000  0.29550000  1.0 0.0172138032
H  H516  1  0.21000000  0.33000000  0.79550000  1.0 0.0172138032
H  H517  1  0.77100000  0.63600000  0.73620000  1.0 0.05852681
H  H518  1  0.22900000  0.86400000  0.23620000  1.0 0.05852681
H  H519  1  0.72900000  0.13600000  0.26380000  1.0 0.05852681
H  H520  1  0.27100000  0.36400000  0.76380000  1.0 0.05852681
H  H521  1  0.58800000  0.62100000  0.72260000  1.0 0.2893035881
H  H522  1  0.41200000  0.87900000  0.22260000  1.0 0.2893035881
H  H523  1  0.91200000  0.12100000  0.27740000  1.0 0.2893035881
H  H524  1  0.08800000  0.37900000  0.77740000  1.0 0.2893035881
H  H525  1  0.61600000  0.66500000  0.74680000  1.0 0.2893035881
H  H526  1  0.38400000  0.83500000  0.24680000  1.0 0.2893035881
H  H527  1  0.88400000  0.16500000  0.25320000  1.0 0.2893035881
H  H528  1  0.11600000  0.33500000  0.75320000  1.0 0.2893035881
C  C1  1  0.70520000  0.67510000  0.55149000  1.0 -0.0210839343
C  C2  1  0.29480000  0.82490000  0.05149000  1.0 -0.0210839343
C  C3  1  0.79480000  0.17510000  0.44851000  1.0 -0.0210839343
C  C4  1  0.20520000  0.32490000  0.94851000  1.0 -0.0210839343
C  C5  1  0.77930000  0.62530000  0.56452000  1.0 -0.2186438359
C  C6  1  0.22070000  0.87470000  0.06452000  1.0 -0.2186438359
C  C7  1  0.72070000  0.12530000  0.43548000  1.0 -0.2186438359
C  C8  1  0.27930000  0.37470000  0.93548000  1.0 -0.2186438359
C  C9  1  0.84860000  0.59260000  0.54598000  1.0 -0.0704155691
C  C10  1  0.15140000  0.90740000  0.04598000  1.0 -0.0704155691
C  C11  1  0.65140000  0.09260000  0.45402000  1.0 -0.0704155691
C  C12  1  0.34860000  0.40740000  0.95402000  1.0 -0.0704155691
C  C13  1  0.88540000  0.49280000  0.51064000  1.0 -0.125756377
C  C14  1  0.11460000  0.00720000  0.01064000  1.0 -0.125756377
C  C15  1  0.61460000  0.99280000  0.48936000  1.0 -0.125756377
C  C16  1  0.38540000  0.50720000  0.98936000  1.0 -0.125756377
C  C17  1  0.84580000  0.43210000  0.49113000  1.0 -0.1097241045
C  C18  1  0.15420000  0.06790000  0.99113000  1.0 -0.1097241045
C  C19  1  0.65420000  0.93210000  0.50887000  1.0 -0.1097241045
C  C20  1  0.34580000  0.56790000  0.00887000  1.0 -0.1097241045
C  C21  1  0.72370000  0.41580000  0.46011000  1.0 -0.0704155691
C  C22  1  0.27630000  0.08420000  0.96011000  1.0 -0.0704155691
C  C23  1  0.77630000  0.91580000  0.53989000  1.0 -0.0704155691
C  C24  1  0.22370000  0.58420000  0.03989000  1.0 -0.0704155691
C  C25  1  0.64900000  0.45990000  0.44605000  1.0 -0.2089537918
C  C26  1  0.35100000  0.04010000  0.94605000  1.0 -0.2089537918
C  C27  1  0.85100000  0.95990000  0.55395000  1.0 -0.2089537918
C  C28  1  0.14900000  0.54010000  0.05395000  1.0 -0.2089537918
C  C29  1  0.57250000  0.48610000  0.46378000  1.0 -0.0210839343
C  C30  1  0.42750000  0.01390000  0.96378000  1.0 -0.0210839343
C  C31  1  0.92750000  0.98610000  0.53622000  1.0 -0.0210839343
C  C32  1  0.07250000  0.51390000  0.03622000  1.0 -0.0210839343
C  C33  1  0.80800000  0.69720000  0.47953000  1.0 0.0709372419
C  C34  1  0.19200000  0.80280000  0.97953000  1.0 0.0709372419
C  C35  1  0.69200000  0.19720000  0.52047000  1.0 0.0709372419
C  C36  1  0.30800000  0.30280000  0.02047000  1.0 0.0709372419
C  C37  1  0.92790000  0.63890000  0.44738000  1.0 0.0123404006
C  C38  1  0.07210000  0.86110000  0.94738000  1.0 0.0123404006
C  C39  1  0.57210000  0.13890000  0.55262000  1.0 0.0123404006
C  C40  1  0.42790000  0.36110000  0.05262000  1.0 0.0123404006
C  C41  1  0.82090000  0.76420000  0.43031000  1.0 0.0709372419
C  C42  1  0.17910000  0.73580000  0.93031000  1.0 0.0709372419
C  C43  1  0.67910000  0.26420000  0.56969000  1.0 0.0709372419
C  C44  1  0.32090000  0.23580000  0.06969000  1.0 0.0709372419
C  C45  1  0.99160000  0.80450000  0.43847000  1.0 0.0284207373
C  C46  1  0.00840000  0.69550000  0.93847000  1.0 0.0284207373
C  C47  1  0.50840000  0.30450000  0.56153000  1.0 0.0284207373
C  C48  1  0.49160000  0.19550000  0.06153000  1.0 0.0284207373
C  C49  1  0.86650000  0.86580000  0.47161000  1.0 0.05852681
C  C50  1  0.13350000  0.63420000  0.97161000  1.0 0.05852681
C  C51  1  0.63350000  0.36580000  0.52839000  1.0 0.0546938259
C  C52  1  0.36650000  0.13420000  0.02839000  1.0 0.0546938259
C  C53  1  0.97280000  0.74750000  0.49124000  1.0 0.0123404006
C  C54  1  0.02720000  0.75250000  0.99124000  1.0 0.0123404006
C  C55  1  0.52720000  0.24750000  0.50876000  1.0 0.0123404006
C  C56  1  0.47280000  0.25250000  0.00876000  1.0 0.0123404006
C  C57  1  0.74290000  0.58280000  0.38429000  1.0 0.0123404006
C  C58  1  0.25710000  0.91720000  0.88429000  1.0 0.0123404006
C  C59  1  0.75710000  0.08280000  0.61571000  1.0 0.0123404006
C  C60  1  0.24290000  0.41720000  0.11571000  1.0 0.0123404006
C  C61  1  0.81280000  0.58570000  0.36329000  1.0 -0.2250470702
C  C62  1  0.18720000  0.91430000  0.86329000  1.0 -0.2250470702
C  C63  1  0.68720000  0.08570000  0.63671000  1.0 -0.2250470702
C  C64  1  0.31280000  0.41430000  0.13671000  1.0 -0.2250470702
C  C65  1  0.87510000  0.65990000  0.36500000  1.0 -0.0822715122
C  C66  1  0.12490000  0.84010000  0.86500000  1.0 -0.0822715122
C  C67  1  0.62490000  0.15990000  0.63500000  1.0 -0.0822715122
C  C68  1  0.37510000  0.34010000  0.13500000  1.0 -0.0822715122
C  C69  1  0.89640000  0.81490000  0.36142000  1.0 -0.1012047349
C  C70  1  0.10360000  0.68510000  0.86142000  1.0 -0.1012047349
C  C71  1  0.60360000  0.31490000  0.63858000  1.0 -0.1012047349
C  C72  1  0.39640000  0.18510000  0.13858000  1.0 -0.1012047349
C  C73  1  0.84800000  0.89550000  0.35497000  1.0 -0.0908419858
C  C74  1  0.15200000  0.60450000  0.85497000  1.0 -0.0908419858
C  C75  1  0.65200000  0.39550000  0.64503000  1.0 -0.0908419858
C  C76  1  0.34800000  0.10450000  0.14503000  1.0 -0.0908419858
C  C77  1  0.71700000  0.97490000  0.36677000  1.0 -0.054011691
C  C78  1  0.28300000  0.52510000  0.86677000  1.0 -0.054011691
C  C79  1  0.78300000  0.47490000  0.63323000  1.0 -0.054011691
C  C80  1  0.21700000  0.02510000  0.13323000  1.0 -0.054011691
C  C81  1  0.64000000  0.98020000  0.38588000  1.0 -0.2508297149
C  C82  1  0.36000000  0.51980000  0.88588000  1.0 -0.2508297149
C  C83  1  0.86000000  0.48020000  0.61412000  1.0 -0.2508297149
C  C84  1  0.14000000  0.01980000  0.11412000  1.0 -0.2508297149
C  C85  1  0.57210000  0.91070000  0.38208000  1.0 0.0172138032
C  C86  1  0.42790000  0.58930000  0.88208000  1.0 0.0172138032
C  C87  1  0.92790000  0.41070000  0.61792000  1.0 0.0172138032
C  C88  1  0.07210000  0.08930000  0.11792000  1.0 0.0172138032
C  C89  1  0.63330000  0.72790000  0.31999000  1.0 0.0284207373
C  C90  1  0.36670000  0.77210000  0.81999000  1.0 0.0284207373
C  C91  1  0.86670000  0.22790000  0.68001000  1.0 0.0284207373
C  C92  1  0.13330000  0.27210000  0.18001000  1.0 0.0284207373
C  C93  1  0.59850000  0.72560000  0.26480000  1.0 0.0123404006
C  C94  1  0.40150000  0.77440000  0.76480000  1.0 0.0123404006
C  C95  1  0.90150000  0.22560000  0.73520000  1.0 0.0123404006
C  C96  1  0.09850000  0.27440000  0.23520000  1.0 0.0123404006
C  C97  1  0.46990000  0.68970000  0.29778000  1.0 0.0172138032
C  C98  1  0.53010000  0.81030000  0.79778000  1.0 0.0172138032
C  C99  1  0.03010000  0.18970000  0.70222000  1.0 0.0123404006
C  C100  1  0.96990000  0.31030000  0.20222000  1.0 0.0172138032
C  C101  1  0.53870000  0.56550000  0.26914000  1.0 0.0709372419
C  C102  1  0.46130000  0.93450000  0.76914000  1.0 0.05852681
C  C103  1  0.96130000  0.06550000  0.73086000  1.0 0.05852681
C  C104  1  0.03870000  0.43450000  0.23086000  1.0 0.0709372419
C  C105  1  0.57310000  0.56420000  0.32223000  1.0 0.0123404006
C  C106  1  0.42690000  0.93580000  0.82223000  1.0 0.0123404006
C  C107  1  0.92690000  0.06420000  0.67777000  1.0 0.0123404006
C  C108  1  0.07310000  0.43580000  0.17777000  1.0 0.0172138032
C  C109  1  0.70530000  0.59930000  0.28755000  1.0 0.0709372419
C  C110  1  0.29470000  0.90070000  0.78755000  1.0 0.0709372419
C  C111  1  0.79470000  0.09930000  0.71245000  1.0 0.0709372419
C  C112  1  0.20530000  0.40070000  0.21245000  1.0 0.0709372419
C  C113  1  0.53610000  0.44650000  0.19620000  1.0 -0.0210839343
C  C114  1  0.46390000  0.05350000  0.69620000  1.0 -0.0210839343
C  C115  1  0.96390000  0.94650000  0.80380000  1.0 -0.0210839343
C  C116  1  0.03610000  0.55350000  0.30380000  1.0 -0.0210839343
C  C117  1  0.50200000  0.51640000  0.17872000  1.0 -0.238517556
C  C118  1  0.49800000  0.98360000  0.67872000  1.0 -0.238517556
C  C119  1  0.99800000  0.01640000  0.82128000  1.0 -0.238517556
C  C120  1  0.00200000  0.48360000  0.32128000  1.0 -0.238517556
C  C121  1  0.47360000  0.59560000  0.19269000  1.0 -0.0556577887
C  C122  1  0.52640000  0.90440000  0.69269000  1.0 -0.0556577887
C  C123  1  0.02640000  0.09560000  0.80731000  1.0 -0.0556577887
C  C124  1  0.97360000  0.40440000  0.30731000  1.0 -0.0556577887
C  C125  1  0.36760000  0.65920000  0.22266000  1.0 -0.1097241045
C  C126  1  0.63240000  0.84080000  0.72266000  1.0 -0.1097241045
C  C127  1  0.13240000  0.15920000  0.77734000  1.0 -0.1097241045
C  C128  1  0.86760000  0.34080000  0.27734000  1.0 -0.1097241045
C  C129  1  0.29340000  0.63930000  0.24051000  1.0 -0.1012047349
C  C130  1  0.70660000  0.86070000  0.74051000  1.0 -0.1012047349
C  C131  1  0.20660000  0.13930000  0.75949000  1.0 -0.1012047349
C  C132  1  0.79340000  0.36070000  0.25949000  1.0 -0.1012047349
C  C133  1  0.24420000  0.53950000  0.27451000  1.0 -0.0097768643
C  C134  1  0.75580000  0.96050000  0.77451000  1.0 -0.0097768643
C  C135  1  0.25580000  0.03950000  0.72549000  1.0 -0.0097768643
C  C136  1  0.74420000  0.46050000  0.22549000  1.0 -0.0097768643
C  C137  1  0.27050000  0.46670000  0.29212000  1.0 -0.2715177241
C  C138  1  0.72950000  0.03330000  0.79212000  1.0 -0.2715177241
C  C139  1  0.22950000  0.96670000  0.70788000  1.0 -0.2715177241
C  C140  1  0.77050000  0.53330000  0.20788000  1.0 -0.2715177241
C  C141  1  0.28720000  0.38050000  0.27873000  1.0 0.0546938259
C  C142  1  0.71280000  0.11950000  0.77873000  1.0 0.0546938259
C  C143  1  0.21280000  0.88050000  0.72127000  1.0 0.0546938259
C  C144  1  0.78720000  0.61950000  0.22127000  1.0 0.0546938259
C  C145  1  0.29480000  0.32490000  0.44851000  1.0 -0.0210839343
C  C146  1  0.70520000  0.17510000  0.94851000  1.0 -0.0210839343
C  C147  1  0.20520000  0.82490000  0.55149000  1.0 -0.0210839343
C  C148  1  0.79480000  0.67510000  0.05149000  1.0 -0.0210839343
C  C149  1  0.22070000  0.37470000  0.43548000  1.0 -0.2186438359
C  C150  1  0.77930000  0.12530000  0.93548000  1.0 -0.2186438359
C  C151  1  0.27930000  0.87470000  0.56452000  1.0 -0.2186438359
C  C152  1  0.72070000  0.62530000  0.06452000  1.0 -0.2186438359
C  C153  1  0.15140000  0.40740000  0.45402000  1.0 -0.0704155691
C  C154  1  0.84860000  0.09260000  0.95402000  1.0 -0.0704155691
C  C155  1  0.34860000  0.90740000  0.54598000  1.0 -0.0704155691
C  C156  1  0.65140000  0.59260000  0.04598000  1.0 -0.0704155691
C  C157  1  0.11460000  0.50720000  0.48936000  1.0 -0.125756377
C  C158  1  0.88540000  0.99280000  0.98936000  1.0 -0.125756377
C  C159  1  0.38540000  0.00720000  0.51064000  1.0 -0.125756377
C  C160  1  0.61460000  0.49280000  0.01064000  1.0 -0.125756377
C  C161  1  0.15420000  0.56790000  0.50887000  1.0 -0.1097241045
C  C162  1  0.84580000  0.93210000  0.00887000  1.0 -0.1097241045
C  C163  1  0.34580000  0.06790000  0.49113000  1.0 -0.1097241045
C  C164  1  0.65420000  0.43210000  0.99113000  1.0 -0.1097241045
C  C165  1  0.27630000  0.58420000  0.53989000  1.0 -0.0704155691
C  C166  1  0.72370000  0.91580000  0.03989000  1.0 -0.0704155691
C  C167  1  0.22370000  0.08420000  0.46011000  1.0 -0.0704155691
C  C168  1  0.77630000  0.41580000  0.96011000  1.0 -0.0704155691
C  C169  1  0.35100000  0.54010000  0.55395000  1.0 -0.2089537918
C  C170  1  0.64900000  0.95990000  0.05395000  1.0 -0.2089537918
C  C171  1  0.14900000  0.04010000  0.44605000  1.0 -0.2089537918
C  C172  1  0.85100000  0.45990000  0.94605000  1.0 -0.2089537918
C  C173  1  0.42750000  0.51390000  0.53622000  1.0 -0.0210839343
C  C174  1  0.57250000  0.98610000  0.03622000  1.0 -0.0210839343
C  C175  1  0.07250000  0.01390000  0.46378000  1.0 -0.0210839343
C  C176  1  0.92750000  0.48610000  0.96378000  1.0 -0.0210839343
C  C177  1  0.19200000  0.30280000  0.52047000  1.0 0.0709372419
C  C178  1  0.80800000  0.19720000  0.02047000  1.0 0.0709372419
C  C179  1  0.30800000  0.80280000  0.47953000  1.0 0.0709372419
C  C180  1  0.69200000  0.69720000  0.97953000  1.0 0.0709372419
C  C181  1  0.07210000  0.36110000  0.55262000  1.0 0.0123404006
C  C182  1  0.92790000  0.13890000  0.05262000  1.0 0.0123404006
C  C183  1  0.42790000  0.86110000  0.44738000  1.0 0.0123404006
C  C184  1  0.57210000  0.63890000  0.94738000  1.0 0.0123404006
C  C185  1  0.17910000  0.23580000  0.56969000  1.0 0.0709372419
C  C186  1  0.82090000  0.26420000  0.06969000  1.0 0.0709372419
C  C187  1  0.32090000  0.73580000  0.43031000  1.0 0.0709372419
C  C188  1  0.67910000  0.76420000  0.93031000  1.0 0.0709372419
C  C189  1  0.00840000  0.19550000  0.56153000  1.0 0.0284207373
C  C190  1  0.99160000  0.30450000  0.06153000  1.0 0.0284207373
C  C191  1  0.49160000  0.69550000  0.43847000  1.0 0.0284207373
C  C192  1  0.50840000  0.80450000  0.93847000  1.0 0.0284207373
C  C193  1  0.13350000  0.13420000  0.52839000  1.0 0.0546938259
C  C194  1  0.86650000  0.36580000  0.02839000  1.0 0.05852681
C  C195  1  0.36650000  0.63420000  0.47161000  1.0 0.0546938259
C  C196  1  0.63350000  0.86580000  0.97161000  1.0 0.05852681
C  C197  1  0.02720000  0.25250000  0.50876000  1.0 0.0123404006
C  C198  1  0.97280000  0.24750000  0.00876000  1.0 0.0123404006
C  C199  1  0.47280000  0.75250000  0.49124000  1.0 0.0123404006
C  C200  1  0.52720000  0.74750000  0.99124000  1.0 0.0123404006
C  C201  1  0.25710000  0.41720000  0.61571000  1.0 0.0123404006
C  C202  1  0.74290000  0.08280000  0.11571000  1.0 0.0123404006
C  C203  1  0.24290000  0.91720000  0.38429000  1.0 0.0123404006
C  C204  1  0.75710000  0.58280000  0.88429000  1.0 0.0123404006
C  C205  1  0.18720000  0.41430000  0.63671000  1.0 -0.2250470702
C  C206  1  0.81280000  0.08570000  0.13671000  1.0 -0.2250470702
C  C207  1  0.31280000  0.91430000  0.36329000  1.0 -0.2186438359
C  C208  1  0.68720000  0.58570000  0.86329000  1.0 -0.2250470702
C  C209  1  0.12490000  0.34010000  0.63500000  1.0 -0.0822715122
C  C210  1  0.87510000  0.15990000  0.13500000  1.0 -0.0822715122
C  C211  1  0.37510000  0.84010000  0.36500000  1.0 -0.0822715122
C  C212  1  0.62490000  0.65990000  0.86500000  1.0 -0.0822715122
C  C213  1  0.10360000  0.18510000  0.63858000  1.0 -0.1012047349
C  C214  1  0.89640000  0.31490000  0.13858000  1.0 -0.1012047349
C  C215  1  0.39640000  0.68510000  0.36142000  1.0 -0.1012047349
C  C216  1  0.60360000  0.81490000  0.86142000  1.0 -0.1012047349
C  C217  1  0.15200000  0.10450000  0.64503000  1.0 -0.0908419858
C  C218  1  0.84800000  0.39550000  0.14503000  1.0 -0.0908419858
C  C219  1  0.34800000  0.60450000  0.35497000  1.0 -0.0908419858
C  C220  1  0.65200000  0.89550000  0.85497000  1.0 -0.0908419858
C  C221  1  0.28300000  0.02510000  0.63323000  1.0 -0.054011691
C  C222  1  0.71700000  0.47490000  0.13323000  1.0 -0.054011691
C  C223  1  0.21700000  0.52510000  0.36677000  1.0 -0.054011691
C  C224  1  0.78300000  0.97490000  0.86677000  1.0 -0.054011691
C  C225  1  0.36000000  0.01980000  0.61412000  1.0 -0.2508297149
C  C226  1  0.64000000  0.48020000  0.11412000  1.0 -0.2508297149
C  C227  1  0.14000000  0.51980000  0.38588000  1.0 -0.2508297149
C  C228  1  0.86000000  0.98020000  0.88588000  1.0 -0.2508297149
C  C229  1  0.42790000  0.08930000  0.61792000  1.0 0.0172138032
C  C230  1  0.57210000  0.41070000  0.11792000  1.0 0.0172138032
C  C231  1  0.07210000  0.58930000  0.38208000  1.0 0.0172138032
C  C232  1  0.92790000  0.91070000  0.88208000  1.0 0.0172138032
C  C233  1  0.36670000  0.27210000  0.68001000  1.0 0.0284207373
C  C234  1  0.63330000  0.22790000  0.18001000  1.0 0.0284207373
C  C235  1  0.13330000  0.77210000  0.31999000  1.0 0.0284207373
C  C236  1  0.86670000  0.72790000  0.81999000  1.0 0.0284207373
C  C237  1  0.40150000  0.27440000  0.73520000  1.0 0.0123404006
C  C238  1  0.59850000  0.22560000  0.23520000  1.0 0.0123404006
C  C239  1  0.09850000  0.77440000  0.26480000  1.0 0.0123404006
C  C240  1  0.90150000  0.72560000  0.76480000  1.0 0.0123404006
C  C241  1  0.53010000  0.31030000  0.70222000  1.0 0.0123404006
C  C242  1  0.46990000  0.18970000  0.20222000  1.0 0.0172138032
C  C243  1  0.96990000  0.81030000  0.29778000  1.0 0.0172138032
C  C244  1  0.03010000  0.68970000  0.79778000  1.0 0.0123404006
C  C245  1  0.46130000  0.43450000  0.73086000  1.0 0.05852681
C  C246  1  0.53870000  0.06550000  0.23086000  1.0 0.0709372419
C  C247  1  0.03870000  0.93450000  0.26914000  1.0 0.0709372419
C  C248  1  0.96130000  0.56550000  0.76914000  1.0 0.05852681
C  C249  1  0.42690000  0.43580000  0.67777000  1.0 0.0172138032
C  C250  1  0.57310000  0.06420000  0.17777000  1.0 0.0172138032
C  C251  1  0.07310000  0.93580000  0.32223000  1.0 0.0172138032
C  C252  1  0.92690000  0.56420000  0.82223000  1.0 0.0123404006
C  C253  1  0.29470000  0.40070000  0.71245000  1.0 0.0709372419
C  C254  1  0.70530000  0.09930000  0.21245000  1.0 0.0709372419
C  C255  1  0.20530000  0.90070000  0.28755000  1.0 0.0709372419
C  C256  1  0.79470000  0.59930000  0.78755000  1.0 0.0709372419
C  C257  1  0.46390000  0.55350000  0.80380000  1.0 -0.0210839343
C  C258  1  0.53610000  0.94650000  0.30380000  1.0 -0.0210839343
C  C259  1  0.03610000  0.05350000  0.19620000  1.0 -0.0210839343
C  C260  1  0.96390000  0.44650000  0.69620000  1.0 -0.0210839343
C  C261  1  0.49800000  0.48360000  0.82128000  1.0 -0.238517556
C  C262  1  0.50200000  0.01640000  0.32128000  1.0 -0.238517556
C  C263  1  0.00200000  0.98360000  0.17872000  1.0 -0.238517556
C  C264  1  0.99800000  0.51640000  0.67872000  1.0 -0.238517556
C  C265  1  0.52640000  0.40440000  0.80731000  1.0 -0.0556577887
C  C266  1  0.47360000  0.09560000  0.30731000  1.0 -0.0556577887
C  C267  1  0.97360000  0.90440000  0.19269000  1.0 -0.0556577887
C  C268  1  0.02640000  0.59560000  0.69269000  1.0 -0.0556577887
C  C269  1  0.63240000  0.34080000  0.77734000  1.0 -0.1097241045
C  C270  1  0.36760000  0.15920000  0.27734000  1.0 -0.1097241045
C  C271  1  0.86760000  0.84080000  0.22266000  1.0 -0.1097241045
C  C272  1  0.13240000  0.65920000  0.72266000  1.0 -0.1097241045
C  C273  1  0.70660000  0.36070000  0.75949000  1.0 -0.1012047349
C  C274  1  0.29340000  0.13930000  0.25949000  1.0 -0.1012047349
C  C275  1  0.79340000  0.86070000  0.24051000  1.0 -0.1012047349
C  C276  1  0.20660000  0.63930000  0.74051000  1.0 -0.1012047349
C  C277  1  0.75580000  0.46050000  0.72549000  1.0 -0.0097768643
C  C278  1  0.24420000  0.03950000  0.22549000  1.0 -0.0097768643
C  C279  1  0.74420000  0.96050000  0.27451000  1.0 -0.0097768643
C  C280  1  0.25580000  0.53950000  0.77451000  1.0 -0.0097768643
C  C281  1  0.72950000  0.53330000  0.70788000  1.0 -0.2715177241
C  C282  1  0.27050000  0.96670000  0.20788000  1.0 -0.2715177241
C  C283  1  0.77050000  0.03330000  0.29212000  1.0 -0.2715177241
C  C284  1  0.22950000  0.46670000  0.79212000  1.0 -0.2715177241
C  C285  1  0.71280000  0.61950000  0.72127000  1.0 0.0546938259
C  C286  1  0.28720000  0.88050000  0.22127000  1.0 0.0546938259
C  C287  1  0.78720000  0.11950000  0.27873000  1.0 0.0546938259
C  C288  1  0.21280000  0.38050000  0.77873000  1.0 0.0546938259
N  N1  1  0.64610000  0.61640000  0.53697000  1.0 -0.5112120742
N  N2  1  0.35390000  0.88360000  0.03697000  1.0 -0.5112120742
N  N3  1  0.85390000  0.11640000  0.46303000  1.0 -0.5112120742
N  N4  1  0.14610000  0.38360000  0.96303000  1.0 -0.5112120742
N  N5  1  0.81660000  0.52430000  0.52881000  1.0 -0.2755342358
N  N6  1  0.18340000  0.97570000  0.02881000  1.0 -0.2755342358
N  N7  1  0.68340000  0.02430000  0.47119000  1.0 -0.2715177241
N  N8  1  0.31660000  0.47570000  0.97119000  1.0 -0.2755342358
N  N9  1  0.77280000  0.47510000  0.47726000  1.0 -0.2715177241
N  N10  1  0.22720000  0.02490000  0.97726000  1.0 -0.2715177241
N  N11  1  0.72720000  0.97510000  0.52274000  1.0 -0.2715177241
N  N12  1  0.27280000  0.52490000  0.02274000  1.0 -0.2715177241
N  N13  1  0.59560000  0.55990000  0.48073000  1.0 -0.5207694653
N  N14  1  0.40440000  0.94010000  0.98073000  1.0 -0.5207694653
N  N15  1  0.90440000  0.05990000  0.51927000  1.0 -0.5207694653
N  N16  1  0.09560000  0.44010000  0.01927000  1.0 -0.5207694653
N  N17  1  0.75790000  0.65660000  0.49062000  1.0 -0.3838658814
N  N18  1  0.24210000  0.84340000  0.99062000  1.0 -0.3838658814
N  N19  1  0.74210000  0.15660000  0.50938000  1.0 -0.3838658814
N  N20  1  0.25790000  0.34340000  0.00938000  1.0 -0.3838658814
N  N21  1  0.93910000  0.56970000  0.43964000  1.0 -0.4377286691
N  N22  1  0.06090000  0.93030000  0.93964000  1.0 -0.4377286691
N  N23  1  0.56090000  0.06970000  0.56036000  1.0 -0.4377286691
N  N24  1  0.43910000  0.43030000  0.06036000  1.0 -0.4377286691
N  N25  1  0.77600000  0.77000000  0.41221000  1.0 -0.3838658814
N  N26  1  0.22400000  0.73000000  0.91221000  1.0 -0.3838658814
N  N27  1  0.72400000  0.27000000  0.58779000  1.0 -0.3838658814
N  N28  1  0.27600000  0.23000000  0.08779000  1.0 -0.3838658814
N  N29  1  0.04150000  0.83740000  0.42542000  1.0 -0.4219481904
N  N30  1  0.95850000  0.66260000  0.92542000  1.0 -0.4219481904
N  N31  1  0.45850000  0.33740000  0.57458000  1.0 -0.4219481904
N  N32  1  0.54150000  0.16260000  0.07458000  1.0 -0.4219481904
N  N33  1  0.84810000  0.93280000  0.47917000  1.0 -0.4009835118
N  N34  1  0.15190000  0.56720000  0.97917000  1.0 -0.4009835118
N  N35  1  0.65190000  0.43280000  0.52083000  1.0 -0.4009835118
N  N36  1  0.34810000  0.06720000  0.02083000  1.0 -0.4009835118
N  N37  1  0.01030000  0.74880000  0.51083000  1.0 -0.4344355945
N  N38  1  0.98970000  0.75120000  0.01083000  1.0 -0.4344355945
N  N39  1  0.48970000  0.24880000  0.48917000  1.0 -0.4344355945
N  N40  1  0.51030000  0.25120000  0.98917000  1.0 -0.4344355945
N  N41  1  0.67550000  0.64940000  0.38055000  1.0 -0.5112120742
N  N42  1  0.32450000  0.85060000  0.88055000  1.0 -0.5112120742
N  N43  1  0.82450000  0.14940000  0.61945000  1.0 -0.5112120742
N  N44  1  0.17550000  0.35060000  0.11945000  1.0 -0.5112120742
N  N45  1  0.83600000  0.74250000  0.35746000  1.0 -0.2755342358
N  N46  1  0.16400000  0.75750000  0.85746000  1.0 -0.2755342358
N  N47  1  0.66400000  0.24250000  0.64254000  1.0 -0.2755342358
N  N48  1  0.33600000  0.25750000  0.14254000  1.0 -0.2715177241
N  N49  1  0.77140000  0.90090000  0.37244000  1.0 -0.2975997511
N  N50  1  0.22860000  0.59910000  0.87244000  1.0 -0.2975997511
N  N51  1  0.72860000  0.40090000  0.62756000  1.0 -0.2975997511
N  N52  1  0.27140000  0.09910000  0.12756000  1.0 -0.2975997511
N  N53  1  0.60230000  0.82690000  0.39180000  1.0 -0.5267711762
N  N54  1  0.39770000  0.67310000  0.89180000  1.0 -0.5267711762
N  N55  1  0.89770000  0.32690000  0.60820000  1.0 -0.5267711762
N  N56  1  0.10230000  0.17310000  0.10820000  1.0 -0.5267711762
N  N57  1  0.65820000  0.76970000  0.33697000  1.0 -0.4102085026
N  N58  1  0.34180000  0.73030000  0.83697000  1.0 -0.4102085026
N  N59  1  0.84180000  0.26970000  0.66303000  1.0 -0.4102085026
N  N60  1  0.15820000  0.23030000  0.16303000  1.0 -0.4009835118
N  N61  1  0.59720000  0.77110000  0.24706000  1.0 -0.4219481904
N  N62  1  0.40280000  0.72890000  0.74706000  1.0 -0.4219481904
N  N63  1  0.90280000  0.27110000  0.75294000  1.0 -0.4219481904
N  N64  1  0.09720000  0.22890000  0.25294000  1.0 -0.4219481904
N  N65  1  0.39870000  0.71440000  0.29862000  1.0 -0.4102085026
N  N66  1  0.60130000  0.78560000  0.79862000  1.0 -0.4102085026
N  N67  1  0.10130000  0.21440000  0.70138000  1.0 -0.4102085026
N  N68  1  0.89870000  0.28560000  0.20138000  1.0 -0.4102085026
N  N69  1  0.50020000  0.52250000  0.25490000  1.0 -0.3838658814
N  N70  1  0.49980000  0.97750000  0.75490000  1.0 -0.3838658814
N  N71  1  0.99980000  0.02250000  0.74510000  1.0 -0.3838658814
N  N72  1  0.00020000  0.47750000  0.24510000  1.0 -0.3838658814
N  N73  1  0.56370000  0.51540000  0.33913000  1.0 -0.4219481904
N  N74  1  0.43630000  0.98460000  0.83913000  1.0 -0.4219481904
N  N75  1  0.93630000  0.01540000  0.66087000  1.0 -0.4219481904
N  N76  1  0.06370000  0.48460000  0.16087000  1.0 -0.4219481904
N  N77  1  0.77220000  0.56880000  0.28304000  1.0 -0.4009835118
N  N78  1  0.22780000  0.93120000  0.78304000  1.0 -0.4009835118
N  N79  1  0.72780000  0.06880000  0.71696000  1.0 -0.4009835118
N  N80  1  0.27220000  0.43120000  0.21696000  1.0 -0.4009835118
N  N81  1  0.46630000  0.40290000  0.21134000  1.0 -0.5112120742
N  N82  1  0.53370000  0.09710000  0.71134000  1.0 -0.5112120742
N  N83  1  0.03370000  0.90290000  0.78866000  1.0 -0.5112120742
N  N84  1  0.96630000  0.59710000  0.28866000  1.0 -0.5112120742
N  N85  1  0.39280000  0.58150000  0.20842000  1.0 -0.2945181016
N  N86  1  0.60720000  0.91850000  0.70842000  1.0 -0.2975997511
N  N87  1  0.10720000  0.08150000  0.79158000  1.0 -0.2975997511
N  N88  1  0.89280000  0.41850000  0.29158000  1.0 -0.2945181016
N  N89  1  0.31720000  0.56780000  0.25824000  1.0 -0.3080870691
N  N90  1  0.68280000  0.93220000  0.75824000  1.0 -0.3080870691
N  N91  1  0.18280000  0.06780000  0.74176000  1.0 -0.3080870691
N  N92  1  0.81720000  0.43220000  0.24176000  1.0 -0.3080870691
N  N93  1  0.36960000  0.38050000  0.26304000  1.0 -0.5523729507
N  N94  1  0.63040000  0.11950000  0.76304000  1.0 -0.5523729507
N  N95  1  0.13040000  0.88050000  0.73696000  1.0 -0.5523729507
N  N96  1  0.86960000  0.61950000  0.23696000  1.0 -0.5523729507
N  N97  1  0.35390000  0.38360000  0.46303000  1.0 -0.5112120742
N  N98  1  0.64610000  0.11640000  0.96303000  1.0 -0.5112120742
N  N99  1  0.14610000  0.88360000  0.53697000  1.0 -0.5112120742
N  N100  1  0.85390000  0.61640000  0.03697000  1.0 -0.5112120742
N  N101  1  0.18340000  0.47570000  0.47119000  1.0 -0.2755342358
N  N102  1  0.81660000  0.02430000  0.97119000  1.0 -0.2755342358
N  N103  1  0.31660000  0.97570000  0.52881000  1.0 -0.2755342358
N  N104  1  0.68340000  0.52430000  0.02881000  1.0 -0.2715177241
N  N105  1  0.22720000  0.52490000  0.52274000  1.0 -0.2715177241
N  N106  1  0.77280000  0.97510000  0.02274000  1.0 -0.2715177241
N  N107  1  0.27280000  0.02490000  0.47726000  1.0 -0.2715177241
N  N108  1  0.72720000  0.47510000  0.97726000  1.0 -0.2715177241
N  N109  1  0.40440000  0.44010000  0.51927000  1.0 -0.5207694653
N  N110  1  0.59560000  0.05990000  0.01927000  1.0 -0.5207694653
N  N111  1  0.09560000  0.94010000  0.48073000  1.0 -0.5207694653
N  N112  1  0.90440000  0.55990000  0.98073000  1.0 -0.5207694653
N  N113  1  0.24210000  0.34340000  0.50938000  1.0 -0.3838658814
N  N114  1  0.75790000  0.15660000  0.00938000  1.0 -0.3838658814
N  N115  1  0.25790000  0.84340000  0.49062000  1.0 -0.3838658814
N  N116  1  0.74210000  0.65660000  0.99062000  1.0 -0.3838658814
N  N117  1  0.06090000  0.43030000  0.56036000  1.0 -0.4377286691
N  N118  1  0.93910000  0.06970000  0.06036000  1.0 -0.4377286691
N  N119  1  0.43910000  0.93030000  0.43964000  1.0 -0.4377286691
N  N120  1  0.56090000  0.56970000  0.93964000  1.0 -0.4377286691
N  N121  1  0.22400000  0.23000000  0.58779000  1.0 -0.3838658814
N  N122  1  0.77600000  0.27000000  0.08779000  1.0 -0.3838658814
N  N123  1  0.27600000  0.73000000  0.41221000  1.0 -0.3838658814
N  N124  1  0.72400000  0.77000000  0.91221000  1.0 -0.3838658814
N  N125  1  0.95850000  0.16260000  0.57458000  1.0 -0.4219481904
N  N126  1  0.04150000  0.33740000  0.07458000  1.0 -0.4219481904
N  N127  1  0.54150000  0.66260000  0.42542000  1.0 -0.4219481904
N  N128  1  0.45850000  0.83740000  0.92542000  1.0 -0.4219481904
N  N129  1  0.15190000  0.06720000  0.52083000  1.0 -0.4009835118
N  N130  1  0.84810000  0.43280000  0.02083000  1.0 -0.4009835118
N  N131  1  0.34810000  0.56720000  0.47917000  1.0 -0.4009835118
N  N132  1  0.65190000  0.93280000  0.97917000  1.0 -0.4009835118
N  N133  1  0.98970000  0.25120000  0.48917000  1.0 -0.4344355945
N  N134  1  0.01030000  0.24880000  0.98917000  1.0 -0.4344355945
N  N135  1  0.51030000  0.75120000  0.51083000  1.0 -0.4344355945
N  N136  1  0.48970000  0.74880000  0.01083000  1.0 -0.4344355945
N  N137  1  0.32450000  0.35060000  0.61945000  1.0 -0.5112120742
N  N138  1  0.67550000  0.14940000  0.11945000  1.0 -0.5112120742
N  N139  1  0.17550000  0.85060000  0.38055000  1.0 -0.5112120742
N  N140  1  0.82450000  0.64940000  0.88055000  1.0 -0.5112120742
N  N141  1  0.16400000  0.25750000  0.64254000  1.0 -0.2755342358
N  N142  1  0.83600000  0.24250000  0.14254000  1.0 -0.2715177241
N  N143  1  0.33600000  0.75750000  0.35746000  1.0 -0.2755342358
N  N144  1  0.66400000  0.74250000  0.85746000  1.0 -0.2755342358
N  N145  1  0.22860000  0.09910000  0.62756000  1.0 -0.2975997511
N  N146  1  0.77140000  0.40090000  0.12756000  1.0 -0.2975997511
N  N147  1  0.27140000  0.59910000  0.37244000  1.0 -0.2975997511
N  N148  1  0.72860000  0.90090000  0.87244000  1.0 -0.2975997511
N  N149  1  0.39770000  0.17310000  0.60820000  1.0 -0.5267711762
N  N150  1  0.60230000  0.32690000  0.10820000  1.0 -0.5267711762
N  N151  1  0.10230000  0.67310000  0.39180000  1.0 -0.5267711762
N  N152  1  0.89770000  0.82690000  0.89180000  1.0 -0.5267711762
N  N153  1  0.34180000  0.23030000  0.66303000  1.0 -0.4009835118
N  N154  1  0.65820000  0.26970000  0.16303000  1.0 -0.4009835118
N  N155  1  0.15820000  0.73030000  0.33697000  1.0 -0.4102085026
N  N156  1  0.84180000  0.76970000  0.83697000  1.0 -0.4102085026
N  N157  1  0.40280000  0.22890000  0.75294000  1.0 -0.4219481904
N  N158  1  0.59720000  0.27110000  0.25294000  1.0 -0.4219481904
N  N159  1  0.09720000  0.72890000  0.24706000  1.0 -0.4219481904
N  N160  1  0.90280000  0.77110000  0.74706000  1.0 -0.4219481904
N  N161  1  0.60130000  0.28560000  0.70138000  1.0 -0.4102085026
N  N162  1  0.39870000  0.21440000  0.20138000  1.0 -0.4102085026
N  N163  1  0.89870000  0.78560000  0.29862000  1.0 -0.4102085026
N  N164  1  0.10130000  0.71440000  0.79862000  1.0 -0.4102085026
N  N165  1  0.49980000  0.47750000  0.74510000  1.0 -0.3838658814
N  N166  1  0.50020000  0.02250000  0.24510000  1.0 -0.3838658814
N  N167  1  0.00020000  0.97750000  0.25490000  1.0 -0.3838658814
N  N168  1  0.99980000  0.52250000  0.75490000  1.0 -0.3838658814
N  N169  1  0.43630000  0.48460000  0.66087000  1.0 -0.4219481904
N  N170  1  0.56370000  0.01540000  0.16087000  1.0 -0.4219481904
N  N171  1  0.06370000  0.98460000  0.33913000  1.0 -0.4219481904
N  N172  1  0.93630000  0.51540000  0.83913000  1.0 -0.4219481904
N  N173  1  0.22780000  0.43120000  0.71696000  1.0 -0.4009835118
N  N174  1  0.77220000  0.06880000  0.21696000  1.0 -0.4009835118
N  N175  1  0.27220000  0.93120000  0.28304000  1.0 -0.4009835118
N  N176  1  0.72780000  0.56880000  0.78304000  1.0 -0.4009835118
N  N177  1  0.53370000  0.59710000  0.78866000  1.0 -0.5112120742
N  N178  1  0.46630000  0.90290000  0.28866000  1.0 -0.5112120742
N  N179  1  0.96630000  0.09710000  0.21134000  1.0 -0.5112120742
N  N180  1  0.03370000  0.40290000  0.71134000  1.0 -0.5112120742
N  N181  1  0.60720000  0.41850000  0.79158000  1.0 -0.2945181016
N  N182  1  0.39280000  0.08150000  0.29158000  1.0 -0.2945181016
N  N183  1  0.89280000  0.91850000  0.20842000  1.0 -0.2945181016
N  N184  1  0.10720000  0.58150000  0.70842000  1.0 -0.2975997511
N  N185  1  0.68280000  0.43220000  0.74176000  1.0 -0.3080870691
N  N186  1  0.31720000  0.06780000  0.24176000  1.0 -0.3080870691
N  N187  1  0.81720000  0.93220000  0.25824000  1.0 -0.3080870691
N  N188  1  0.18280000  0.56780000  0.75824000  1.0 -0.3080870691
N  N189  1  0.63040000  0.61950000  0.73696000  1.0 -0.5523729507
N  N190  1  0.36960000  0.88050000  0.23696000  1.0 -0.5523729507
N  N191  1  0.86960000  0.11950000  0.26304000  1.0 -0.5523729507
N  N192  1  0.13040000  0.38050000  0.76304000  1.0 -0.5523729507
