# DDEC6 charges by PACMAN v1.1 (https://github.com/mtap-research/PACMAN-charge/)
data_MATTEK_FSR_pacman
_symmetry_space_group_name_H-M   'P 1'
_cell_length_a   9.83100000
_cell_length_b   19.65500000
_cell_length_c   60.02000000
_cell_angle_alpha   99.40000000
_cell_angle_beta   90.00000000
_cell_angle_gamma   90.00000000
_symmetry_Int_Tables_number   1
_chemical_formula_structural   In4H120C253(NO8)8
_chemical_formula_sum   'In8 H240 C506 N16 O128'
_cell_volume   11441.83266618
_cell_formula_units_Z   2
loop_
 _symmetry_equiv_pos_site_id
 _symmetry_equiv_pos_as_xyz
  1  'x, y, z'
loop_
 _atom_site_type_symbol
 _atom_site_label
 _atom_site_symmetry_multiplicity
 _atom_site_fract_x
 _atom_site_fract_y
 _atom_site_fract_z
 _atom_site_occupancy
 _atom_site_charge
In  In1  1  0.49188000  0.43750000  0.12499000  1.0 1.3007805978
In  In2  1  0.50812000  0.93750000  0.12499000  1.0 1.3007805978
In  In3  1  0.49188000  0.06250000  0.87501000  1.0 1.3007805978
In  In4  1  0.50812000  0.56250000  0.87501000  1.0 1.3007805978
In  In5  1  0.99188000  0.93750000  0.62499000  1.0 1.3007805978
In  In6  1  0.00812000  0.43750000  0.62499000  1.0 1.3007805978
In  In7  1  0.99188000  0.56250000  0.37501000  1.0 1.3007805978
In  In8  1  0.00812000  0.06250000  0.37501000  1.0 1.3007805978
H  H1  1  0.49611000  0.68696000  0.12350000  1.0 0.1414003156
H  H2  1  0.50225000  0.55426000  0.06433000  1.0 0.1183460514
H  H3  1  0.50626000  0.76001000  0.06415000  1.0 0.1183460514
H  H4  1  0.61935000  0.57613000  0.93756000  1.0 0.0996542692
H  H5  1  0.81173000  0.54810000  0.95689000  1.0 0.0996542692
H  H6  1  0.81515000  0.57134000  0.99671000  1.0 0.0940943855
H  H7  1  0.19449000  0.67727000  0.99635000  1.0 0.0940943855
H  H8  1  0.19301000  0.65884000  0.95684000  1.0 0.0996542692
H  H9  1  0.38921000  0.61816000  0.93700000  1.0 0.0996542692
H  H10  1  0.99104000  0.43896000  0.12671000  1.0 0.1414003156
H  H11  1  0.19990000  0.46917000  0.18576000  1.0 0.1183460514
H  H12  1  0.78682000  0.46782000  0.18588000  1.0 0.1183460514
H  H13  1  0.03223000  0.46673000  0.31261000  1.0 0.0940943855
H  H14  1  0.11060000  0.36302000  0.29233000  1.0 0.1063856135
H  H15  1  0.10448000  0.34496000  0.25282000  1.0 0.0996542692
H  H16  1  0.89438000  0.65487000  0.25377000  1.0 0.0996542692
H  H17  1  0.88972000  0.67408000  0.29343000  1.0 0.0996542692
H  H18  1  0.96424000  0.58738000  0.31277000  1.0 0.0996542692
H  H19  1  0.62040000  0.61246000  0.93756000  1.0 0.0996542692
H  H20  1  0.81321000  0.65869000  0.95713000  1.0 0.0996542692
H  H21  1  0.81186000  0.67703000  0.99697000  1.0 0.0940943855
H  H22  1  0.19095000  0.56764000  0.99644000  1.0 0.0940943855
H  H23  1  0.19047000  0.55017000  0.95665000  1.0 0.0996542692
H  H24  1  0.38252000  0.57821000  0.93750000  1.0 0.1063856135
H  H25  1  0.95796000  0.47731000  0.31285000  1.0 0.0996542692
H  H26  1  0.88331000  0.37061000  0.29331000  1.0 0.0996542692
H  H27  1  0.89513000  0.34927000  0.25392000  1.0 0.0996542692
H  H28  1  0.10232000  0.65770000  0.25288000  1.0 0.0996542692
H  H29  1  0.10905000  0.67842000  0.29232000  1.0 0.0996542692
H  H30  1  0.03808000  0.59275000  0.31252000  1.0 0.0940943855
H  H31  1  0.50389000  0.18696000  0.12350000  1.0 0.1414003156
H  H32  1  0.49775000  0.05426000  0.06433000  1.0 0.1183460514
H  H33  1  0.49374000  0.26001000  0.06415000  1.0 0.1183460514
H  H34  1  0.38065000  0.07613000  0.93756000  1.0 0.0996542692
H  H35  1  0.18827000  0.04810000  0.95689000  1.0 0.0996542692
H  H36  1  0.18485000  0.07134000  0.99671000  1.0 0.0996542692
H  H37  1  0.80551000  0.17727000  0.99635000  1.0 0.0940943855
H  H38  1  0.80699000  0.15884000  0.95684000  1.0 0.0996542692
H  H39  1  0.61079000  0.11816000  0.93700000  1.0 0.0996542692
H  H40  1  0.00896000  0.93896000  0.12671000  1.0 0.1414003156
H  H41  1  0.80010000  0.96917000  0.18576000  1.0 0.1183460514
H  H42  1  0.21318000  0.96782000  0.18588000  1.0 0.1183460514
H  H43  1  0.96777000  0.96673000  0.31261000  1.0 0.0996542692
H  H44  1  0.88940000  0.86302000  0.29233000  1.0 0.1063856135
H  H45  1  0.89552000  0.84496000  0.25282000  1.0 0.0996542692
H  H46  1  0.10562000  0.15487000  0.25377000  1.0 0.0996542692
H  H47  1  0.11028000  0.17408000  0.29343000  1.0 0.0996542692
H  H48  1  0.03576000  0.08738000  0.31277000  1.0 0.0996542692
H  H49  1  0.37960000  0.11246000  0.93756000  1.0 0.0996542692
H  H50  1  0.18679000  0.15869000  0.95713000  1.0 0.0996542692
H  H51  1  0.18814000  0.17704000  0.99697000  1.0 0.0996542692
H  H52  1  0.80905000  0.06764000  0.99644000  1.0 0.0940943855
H  H53  1  0.80953000  0.05017000  0.95665000  1.0 0.0996542692
H  H54  1  0.61748000  0.07822000  0.93750000  1.0 0.0996542692
H  H55  1  0.04204000  0.97731000  0.31285000  1.0 0.0996542692
H  H56  1  0.11669000  0.87061000  0.29331000  1.0 0.0996542692
H  H57  1  0.10487000  0.84927000  0.25392000  1.0 0.0996542692
H  H58  1  0.89768000  0.15770000  0.25289000  1.0 0.0996542692
H  H59  1  0.89095000  0.17842000  0.29232000  1.0 0.0996542692
H  H60  1  0.96192000  0.09275000  0.31252000  1.0 0.0940943855
H  H61  1  0.49611000  0.81304000  0.87650000  1.0 0.1414003156
H  H62  1  0.50225000  0.94574000  0.93567000  1.0 0.1183460514
H  H63  1  0.50626000  0.73999000  0.93585000  1.0 0.1183460514
H  H64  1  0.61935000  0.92387000  0.06244000  1.0 0.0996542692
H  H65  1  0.81173000  0.95190000  0.04311000  1.0 0.0996542692
H  H66  1  0.81515000  0.92866000  0.00329000  1.0 0.0996542692
H  H67  1  0.19449000  0.82273000  0.00365000  1.0 0.0940943855
H  H68  1  0.19301000  0.84116000  0.04316000  1.0 0.0996542692
H  H69  1  0.38921000  0.88184000  0.06300000  1.0 0.0996542692
H  H70  1  0.99104000  0.06104000  0.87329000  1.0 0.1414003156
H  H71  1  0.19990000  0.03083000  0.81424000  1.0 0.1183460514
H  H72  1  0.78682000  0.03218000  0.81412000  1.0 0.1183460514
H  H73  1  0.03223000  0.03327000  0.68739000  1.0 0.0996542692
H  H74  1  0.11060000  0.13698000  0.70767000  1.0 0.1063856135
H  H75  1  0.10448000  0.15504000  0.74718000  1.0 0.0996542692
H  H76  1  0.89438000  0.84513000  0.74623000  1.0 0.0996542692
H  H77  1  0.88972000  0.82592000  0.70657000  1.0 0.0996542692
H  H78  1  0.96424000  0.91262000  0.68723000  1.0 0.0996542692
H  H79  1  0.62040000  0.88754000  0.06244000  1.0 0.0996542692
H  H80  1  0.81321000  0.84131000  0.04287000  1.0 0.0996542692
H  H81  1  0.81186000  0.82296000  0.00303000  1.0 0.0996542692
H  H82  1  0.19095000  0.93236000  0.00356000  1.0 0.0940943855
H  H83  1  0.19047000  0.94983000  0.04335000  1.0 0.0996542692
H  H84  1  0.38252000  0.92178000  0.06250000  1.0 0.0996542692
H  H85  1  0.95796000  0.02269000  0.68715000  1.0 0.0996542692
H  H86  1  0.88331000  0.12939000  0.70669000  1.0 0.0996542692
H  H87  1  0.89513000  0.15073000  0.74608000  1.0 0.0996542692
H  H88  1  0.10232000  0.84230000  0.74711000  1.0 0.0996542692
H  H89  1  0.10905000  0.82158000  0.70768000  1.0 0.0996542692
H  H90  1  0.03808000  0.90725000  0.68748000  1.0 0.0940943855
H  H91  1  0.50389000  0.31304000  0.87650000  1.0 0.1414003156
H  H92  1  0.49775000  0.44574000  0.93567000  1.0 0.1183460514
H  H93  1  0.49374000  0.23999000  0.93585000  1.0 0.1183460514
H  H94  1  0.38065000  0.42387000  0.06244000  1.0 0.0996542692
H  H95  1  0.18827000  0.45190000  0.04311000  1.0 0.0996542692
H  H96  1  0.18485000  0.42866000  0.00329000  1.0 0.0940943855
H  H97  1  0.80551000  0.32273000  0.00365000  1.0 0.0940943855
H  H98  1  0.80699000  0.34116000  0.04316000  1.0 0.0996542692
H  H99  1  0.61079000  0.38184000  0.06300000  1.0 0.0996542692
H  H100  1  0.00896000  0.56104000  0.87329000  1.0 0.1414003156
H  H101  1  0.80010000  0.53083000  0.81424000  1.0 0.1183460514
H  H102  1  0.21318000  0.53218000  0.81412000  1.0 0.1183460514
H  H103  1  0.96777000  0.53327000  0.68739000  1.0 0.0940943855
H  H104  1  0.88940000  0.63698000  0.70767000  1.0 0.1063856135
H  H105  1  0.89552000  0.65504000  0.74718000  1.0 0.0996542692
H  H106  1  0.10562000  0.34513000  0.74623000  1.0 0.0996542692
H  H107  1  0.11028000  0.32592000  0.70657000  1.0 0.0996542692
H  H108  1  0.03576000  0.41262000  0.68723000  1.0 0.0996542692
H  H109  1  0.37960000  0.38754000  0.06244000  1.0 0.0996542692
H  H110  1  0.18679000  0.34131000  0.04287000  1.0 0.0996542692
H  H111  1  0.18814000  0.32296000  0.00303000  1.0 0.0940943855
H  H112  1  0.80905000  0.43236000  0.00356000  1.0 0.0940943855
H  H113  1  0.80953000  0.44983000  0.04335000  1.0 0.0996542692
H  H114  1  0.61748000  0.42178000  0.06250000  1.0 0.1063856135
H  H115  1  0.04204000  0.52269000  0.68715000  1.0 0.0996542692
H  H116  1  0.11669000  0.62939000  0.70669000  1.0 0.0996542692
H  H117  1  0.10487000  0.65073000  0.74608000  1.0 0.0996542692
H  H118  1  0.89768000  0.34230000  0.74711000  1.0 0.0996542692
H  H119  1  0.89095000  0.32158000  0.70768000  1.0 0.0996542692
H  H120  1  0.96192000  0.40725000  0.68748000  1.0 0.0940943855
H  H121  1  0.99611000  0.18696000  0.62350000  1.0 0.1414003156
H  H122  1  0.00225000  0.05426000  0.56433000  1.0 0.1183460514
H  H123  1  0.00626000  0.26001000  0.56415000  1.0 0.1183460514
H  H124  1  0.11935000  0.07613000  0.43756000  1.0 0.0996542692
H  H125  1  0.31173000  0.04810000  0.45689000  1.0 0.0996542692
H  H126  1  0.31515000  0.07134000  0.49671000  1.0 0.0940943855
H  H127  1  0.69449000  0.17727000  0.49635000  1.0 0.0940943855
H  H128  1  0.69301000  0.15884000  0.45684000  1.0 0.0996542692
H  H129  1  0.88921000  0.11816000  0.43700000  1.0 0.0996542692
H  H130  1  0.49104000  0.93896000  0.62671000  1.0 0.1414003156
H  H131  1  0.69990000  0.96917000  0.68576000  1.0 0.1183460514
H  H132  1  0.28682000  0.96782000  0.68588000  1.0 0.1183460514
H  H133  1  0.53223000  0.96673000  0.81261000  1.0 0.0940943855
H  H134  1  0.61060000  0.86302000  0.79233000  1.0 0.1063856135
H  H135  1  0.60448000  0.84496000  0.75282000  1.0 0.0996542692
H  H136  1  0.39438000  0.15487000  0.75377000  1.0 0.0996542692
H  H137  1  0.38972000  0.17408000  0.79343000  1.0 0.0996542692
H  H138  1  0.46424000  0.08738000  0.81277000  1.0 0.0996542692
H  H139  1  0.12040000  0.11246000  0.43756000  1.0 0.0996542692
H  H140  1  0.31321000  0.15869000  0.45713000  1.0 0.0996542692
H  H141  1  0.31186000  0.17704000  0.49697000  1.0 0.0996542692
H  H142  1  0.69095000  0.06764000  0.49644000  1.0 0.0940943855
H  H143  1  0.69047000  0.05017000  0.45665000  1.0 0.0996542692
H  H144  1  0.88252000  0.07822000  0.43750000  1.0 0.1063856135
H  H145  1  0.45796000  0.97731000  0.81285000  1.0 0.0996542692
H  H146  1  0.38331000  0.87061000  0.79331000  1.0 0.0996542692
H  H147  1  0.39513000  0.84927000  0.75392000  1.0 0.0996542692
H  H148  1  0.60232000  0.15770000  0.75289000  1.0 0.0996542692
H  H149  1  0.60905000  0.17842000  0.79232000  1.0 0.0996542692
H  H150  1  0.53808000  0.09275000  0.81252000  1.0 0.0940943855
H  H151  1  0.00389000  0.68696000  0.62350000  1.0 0.1414003156
H  H152  1  0.99775000  0.55426000  0.56433000  1.0 0.1183460514
H  H153  1  0.99374000  0.76001000  0.56415000  1.0 0.1183460514
H  H154  1  0.88065000  0.57613000  0.43756000  1.0 0.0996542692
H  H155  1  0.68827000  0.54810000  0.45689000  1.0 0.0996542692
H  H156  1  0.68485000  0.57134000  0.49671000  1.0 0.0940943855
H  H157  1  0.30551000  0.67727000  0.49635000  1.0 0.0940943855
H  H158  1  0.30699000  0.65884000  0.45684000  1.0 0.0996542692
H  H159  1  0.11079000  0.61816000  0.43700000  1.0 0.0996542692
H  H160  1  0.50896000  0.43896000  0.62671000  1.0 0.1414003156
H  H161  1  0.30010000  0.46917000  0.68576000  1.0 0.1183460514
H  H162  1  0.71318000  0.46782000  0.68588000  1.0 0.1183460514
H  H163  1  0.46777000  0.46673000  0.81261000  1.0 0.0996542692
H  H164  1  0.38940000  0.36302000  0.79233000  1.0 0.1063856135
H  H165  1  0.39552000  0.34496000  0.75282000  1.0 0.0996542692
H  H166  1  0.60562000  0.65487000  0.75377000  1.0 0.0996542692
H  H167  1  0.61028000  0.67408000  0.79343000  1.0 0.0996542692
H  H168  1  0.53576000  0.58738000  0.81277000  1.0 0.0996542692
H  H169  1  0.87960000  0.61246000  0.43756000  1.0 0.0996542692
H  H170  1  0.68679000  0.65869000  0.45713000  1.0 0.0996542692
H  H171  1  0.68814000  0.67703000  0.49697000  1.0 0.0996542692
H  H172  1  0.30905000  0.56764000  0.49644000  1.0 0.0940943855
H  H173  1  0.30953000  0.55017000  0.45665000  1.0 0.0996542692
H  H174  1  0.11748000  0.57821000  0.43750000  1.0 0.1063856135
H  H175  1  0.54204000  0.47731000  0.81285000  1.0 0.0996542692
H  H176  1  0.61669000  0.37061000  0.79331000  1.0 0.0996542692
H  H177  1  0.60487000  0.34927000  0.75392000  1.0 0.0996542692
H  H178  1  0.39768000  0.65770000  0.75289000  1.0 0.0996542692
H  H179  1  0.39095000  0.67842000  0.79232000  1.0 0.0996542692
H  H180  1  0.46192000  0.59275000  0.81252000  1.0 0.0940943855
H  H181  1  0.99611000  0.31304000  0.37650000  1.0 0.1414003156
H  H182  1  0.00225000  0.44574000  0.43567000  1.0 0.1183460514
H  H183  1  0.00626000  0.23999000  0.43585000  1.0 0.1183460514
H  H184  1  0.11935000  0.42387000  0.56244000  1.0 0.0996542692
H  H185  1  0.31173000  0.45190000  0.54311000  1.0 0.0996542692
H  H186  1  0.31515000  0.42866000  0.50329000  1.0 0.0940943855
H  H187  1  0.69449000  0.32273000  0.50365000  1.0 0.0940943855
H  H188  1  0.69301000  0.34116000  0.54316000  1.0 0.0996542692
H  H189  1  0.88921000  0.38184000  0.56300000  1.0 0.0996542692
H  H190  1  0.49104000  0.56104000  0.37329000  1.0 0.1414003156
H  H191  1  0.69990000  0.53083000  0.31424000  1.0 0.1183460514
H  H192  1  0.28682000  0.53218000  0.31412000  1.0 0.1183460514
H  H193  1  0.53223000  0.53327000  0.18739000  1.0 0.0996542692
H  H194  1  0.61060000  0.63698000  0.20767000  1.0 0.1063856135
H  H195  1  0.60448000  0.65504000  0.24718000  1.0 0.0996542692
H  H196  1  0.39438000  0.34513000  0.24623000  1.0 0.0996542692
H  H197  1  0.38972000  0.32592000  0.20657000  1.0 0.0996542692
H  H198  1  0.46424000  0.41262000  0.18723000  1.0 0.0996542692
H  H199  1  0.12040000  0.38754000  0.56244000  1.0 0.0996542692
H  H200  1  0.31321000  0.34131000  0.54287000  1.0 0.0996542692
H  H201  1  0.31186000  0.32296000  0.50303000  1.0 0.0996542692
H  H202  1  0.69095000  0.43236000  0.50356000  1.0 0.0940943855
H  H203  1  0.69047000  0.44983000  0.54335000  1.0 0.0996542692
H  H204  1  0.88252000  0.42178000  0.56250000  1.0 0.1063856135
H  H205  1  0.45796000  0.52269000  0.18715000  1.0 0.0996542692
H  H206  1  0.38331000  0.62939000  0.20669000  1.0 0.0996542692
H  H207  1  0.39513000  0.65073000  0.24608000  1.0 0.0996542692
H  H208  1  0.60232000  0.34230000  0.24711000  1.0 0.0996542692
H  H209  1  0.60905000  0.32158000  0.20768000  1.0 0.0996542692
H  H210  1  0.53808000  0.40725000  0.18748000  1.0 0.0940943855
H  H211  1  0.00389000  0.81304000  0.37650000  1.0 0.1414003156
H  H212  1  0.99775000  0.94574000  0.43567000  1.0 0.1183460514
H  H213  1  0.99374000  0.73999000  0.43585000  1.0 0.1183460514
H  H214  1  0.88065000  0.92387000  0.56244000  1.0 0.0996542692
H  H215  1  0.68827000  0.95190000  0.54311000  1.0 0.0996542692
H  H216  1  0.68485000  0.92866000  0.50329000  1.0 0.0940943855
H  H217  1  0.30551000  0.82273000  0.50365000  1.0 0.0940943855
H  H218  1  0.30699000  0.84116000  0.54316000  1.0 0.0996542692
H  H219  1  0.11079000  0.88184000  0.56300000  1.0 0.0996542692
H  H220  1  0.50896000  0.06104000  0.37329000  1.0 0.1414003156
H  H221  1  0.30010000  0.03083000  0.31424000  1.0 0.1183460514
H  H222  1  0.71318000  0.03218000  0.31412000  1.0 0.1183460514
H  H223  1  0.46777000  0.03327000  0.18739000  1.0 0.0940943855
H  H224  1  0.38940000  0.13698000  0.20767000  1.0 0.1063856135
H  H225  1  0.39552000  0.15504000  0.24718000  1.0 0.0996542692
H  H226  1  0.60562000  0.84513000  0.24623000  1.0 0.0996542692
H  H227  1  0.61028000  0.82592000  0.20657000  1.0 0.0996542692
H  H228  1  0.53576000  0.91262000  0.18723000  1.0 0.0996542692
H  H229  1  0.87960000  0.88754000  0.56244000  1.0 0.0996542692
H  H230  1  0.68679000  0.84131000  0.54287000  1.0 0.0996542692
H  H231  1  0.68814000  0.82296000  0.50303000  1.0 0.0996542692
H  H232  1  0.30905000  0.93236000  0.50356000  1.0 0.0940943855
H  H233  1  0.30953000  0.94983000  0.54335000  1.0 0.0996542692
H  H234  1  0.11748000  0.92178000  0.56250000  1.0 0.1063856135
H  H235  1  0.54204000  0.02269000  0.18715000  1.0 0.0996542692
H  H236  1  0.61669000  0.12939000  0.20669000  1.0 0.0996542692
H  H237  1  0.60487000  0.15073000  0.24608000  1.0 0.0996542692
H  H238  1  0.39768000  0.84230000  0.24711000  1.0 0.0996542692
H  H239  1  0.39095000  0.82158000  0.20768000  1.0 0.0996542692
H  H240  1  0.46192000  0.90725000  0.18748000  1.0 0.0940943855
C  C1  1  0.49740000  0.55190000  0.10737000  1.0 0.5212147998
C  C2  1  0.50270000  0.80510000  0.10782000  1.0 0.5212147998
C  C3  1  0.49950000  0.67910000  0.10746000  1.0 -0.0907417771
C  C4  1  0.50010000  0.61300000  0.09552000  1.0 0.0098784157
C  C5  1  0.50120000  0.60020000  0.07225000  1.0 -0.1988064524
C  C6  1  0.50070000  0.65540000  0.06061000  1.0 0.0478991872
C  C7  1  0.50400000  0.72210000  0.07216000  1.0 -0.1988064524
C  C8  1  0.50400000  0.73330000  0.09570000  1.0 0.0026717789
C  C9  1  0.62200000  0.61900000  0.02520000  1.0 0.2321114147
C  C10  1  0.38300000  0.65550000  0.02490000  1.0 0.2412171283
C  C11  1  0.50400000  0.61960000  0.98860000  1.0 -0.1393266634
C  C12  1  0.50240000  0.60860000  0.96500000  1.0 0.0634022589
C  C13  1  0.61900000  0.58310000  0.95360000  1.0 -0.0399448097
C  C14  1  0.73400000  0.56750000  0.96500000  1.0 -0.0582982129
C  C15  1  0.73600000  0.58050000  0.98870000  1.0 -0.1521653465
C  C16  1  0.62000000  0.60690000  0.00030000  1.0 0.0407137321
C  C17  1  0.38700000  0.64360000  0.00010000  1.0 0.0407137321
C  C18  1  0.27300000  0.65920000  0.98830000  1.0 -0.1521653465
C  C19  1  0.27200000  0.64900000  0.96470000  1.0 -0.0498123699
C  C20  1  0.38800000  0.62440000  0.95300000  1.0 -0.0786608188
C  C21  1  0.24800000  0.44620000  0.14241000  1.0 0.5212147998
C  C22  1  0.73960000  0.44560000  0.14218000  1.0 0.5212147998
C  C23  1  0.99160000  0.44690000  0.14275000  1.0 -0.1006817857
C  C24  1  0.11400000  0.45280000  0.15444000  1.0 0.020652527
C  C25  1  0.11610000  0.46470000  0.17778000  1.0 -0.1926862654
C  C26  1  0.99340000  0.47020000  0.18932000  1.0 0.0672358049
C  C27  1  0.87030000  0.46410000  0.17780000  1.0 -0.1926862654
C  C28  1  0.87070000  0.45280000  0.15458000  1.0 0.0098784157
C  C29  1  0.03400000  0.42500000  0.22490000  1.0 0.2412171283
C  C30  1  0.97800000  0.54710000  0.22490000  1.0 0.2471299579
C  C31  1  0.99460000  0.50320000  0.26180000  1.0 -0.0786608188
C  C32  1  0.99570000  0.51370000  0.28540000  1.0 0.0269305007
C  C33  1  0.03520000  0.46040000  0.29660000  1.0 0.020652527
C  C34  1  0.07900000  0.39840000  0.28460000  1.0 -0.1096283609
C  C35  1  0.07600000  0.38790000  0.26110000  1.0 -0.1591944895
C  C36  1  0.03100000  0.43980000  0.24980000  1.0 0.0407137321
C  C37  1  0.96000000  0.55510000  0.24990000  1.0 0.0269305007
C  C38  1  0.92000000  0.61910000  0.26180000  1.0 -0.1393266634
C  C39  1  0.91900000  0.63090000  0.28530000  1.0 -0.0704771579
C  C40  1  0.96000000  0.57860000  0.29670000  1.0 -0.0399448097
C  C41  1  0.61600000  0.66040000  0.02540000  1.0 0.222138047
C  C42  1  0.38200000  0.61530000  0.02510000  1.0 0.2321114147
C  C43  1  0.50100000  0.61940000  0.98850000  1.0 -0.1393266634
C  C44  1  0.61900000  0.62140000  0.95360000  1.0 -0.0498123699
C  C45  1  0.73500000  0.64810000  0.96510000  1.0 -0.0582982129
C  C46  1  0.73400000  0.65910000  0.98880000  1.0 -0.1521653465
C  C47  1  0.61700000  0.64380000  0.00020000  1.0 0.0478991872
C  C48  1  0.38300000  0.60730000  0.00010000  1.0 0.0478991872
C  C49  1  0.26900000  0.57920000  0.98840000  1.0 -0.1591944895
C  C50  1  0.26900000  0.56820000  0.96480000  1.0 -0.0704771579
C  C51  1  0.38400000  0.58380000  0.95350000  1.0 -0.0498123699
C  C52  1  0.95640000  0.42830000  0.22460000  1.0 0.2412171283
C  C53  1  0.03250000  0.54790000  0.22430000  1.0 0.2412171283
C  C54  1  0.99510000  0.50730000  0.26130000  1.0 -0.0704771579
C  C55  1  0.99630000  0.52070000  0.28490000  1.0 0.020652527
C  C56  1  0.95650000  0.46910000  0.29680000  1.0 -0.0399448097
C  C57  1  0.91500000  0.40540000  0.28530000  1.0 -0.0704771579
C  C58  1  0.91900000  0.39360000  0.26180000  1.0 -0.1393266634
C  C59  1  0.95830000  0.44390000  0.24940000  1.0 0.0269305007
C  C60  1  0.03230000  0.55920000  0.24950000  1.0 0.0407137321
C  C61  1  0.07500000  0.62250000  0.26110000  1.0 -0.1521653465
C  C62  1  0.07900000  0.63510000  0.28450000  1.0 -0.1006817857
C  C63  1  0.03800000  0.58430000  0.29650000  1.0 0.0098784157
C  C64  1  0.50260000  0.05190000  0.10737000  1.0 0.5212147998
C  C65  1  0.49730000  0.30510000  0.10782000  1.0 0.5212147998
C  C66  1  0.50050000  0.17910000  0.10746000  1.0 -0.0907417771
C  C67  1  0.49990000  0.11300000  0.09552000  1.0 0.0098784157
C  C68  1  0.49880000  0.10020000  0.07225000  1.0 -0.2110011394
C  C69  1  0.49930000  0.15540000  0.06061000  1.0 0.0478991872
C  C70  1  0.49600000  0.22210000  0.07216000  1.0 -0.1988064524
C  C71  1  0.49600000  0.23330000  0.09570000  1.0 0.0026717789
C  C72  1  0.37800000  0.11900000  0.02520000  1.0 0.2321114147
C  C73  1  0.61700000  0.15550000  0.02490000  1.0 0.2412171283
C  C74  1  0.49600000  0.11960000  0.98860000  1.0 -0.0704771579
C  C75  1  0.49760000  0.10860000  0.96500000  1.0 0.020652527
C  C76  1  0.38100000  0.08310000  0.95360000  1.0 -0.0128221911
C  C77  1  0.26600000  0.06750000  0.96500000  1.0 -0.0907417771
C  C78  1  0.26400000  0.08050000  0.98870000  1.0 -0.1591944895
C  C79  1  0.38000000  0.10690000  0.00030000  1.0 0.0269305007
C  C80  1  0.61300000  0.14360000  0.00010000  1.0 0.020652527
C  C81  1  0.72700000  0.15920000  0.98830000  1.0 -0.1521653465
C  C82  1  0.72800000  0.14900000  0.96470000  1.0 -0.0907417771
C  C83  1  0.61200000  0.12440000  0.95300000  1.0 -0.0399448097
C  C84  1  0.75200000  0.94620000  0.14241000  1.0 0.5212147998
C  C85  1  0.26040000  0.94560000  0.14218000  1.0 0.5212147998
C  C86  1  0.00840000  0.94690000  0.14275000  1.0 -0.1006817857
C  C87  1  0.88600000  0.95280000  0.15444000  1.0 0.020652527
C  C88  1  0.88390000  0.96470000  0.17778000  1.0 -0.1988064524
C  C89  1  0.00660000  0.97020000  0.18932000  1.0 0.0672358049
C  C90  1  0.12970000  0.96410000  0.17780000  1.0 -0.1926862654
C  C91  1  0.12930000  0.95280000  0.15458000  1.0 0.0098784157
C  C92  1  0.96600000  0.92500000  0.22490000  1.0 0.2412171283
C  C93  1  0.02200000  0.04710000  0.22490000  1.0 0.2471299579
C  C94  1  0.00540000  0.00320000  0.26180000  1.0 -0.0786608188
C  C95  1  0.00430000  0.01370000  0.28540000  1.0 0.0269305007
C  C96  1  0.96480000  0.96040000  0.29660000  1.0 0.020652527
C  C97  1  0.92100000  0.89840000  0.28460000  1.0 -0.1096283609
C  C98  1  0.92400000  0.88790000  0.26110000  1.0 -0.1591944895
C  C99  1  0.96900000  0.93980000  0.24980000  1.0 0.0407137321
C  C100  1  0.04000000  0.05510000  0.24990000  1.0 0.0269305007
C  C101  1  0.08000000  0.11910000  0.26180000  1.0 -0.1393266634
C  C102  1  0.08100000  0.13090000  0.28530000  1.0 -0.0704771579
C  C103  1  0.04000000  0.07860000  0.29670000  1.0 -0.0399448097
C  C104  1  0.38400000  0.16040000  0.02540000  1.0 0.222138047
C  C105  1  0.61800000  0.11530000  0.02510000  1.0 0.2321114147
C  C106  1  0.49900000  0.11940000  0.98850000  1.0 -0.0704771579
C  C107  1  0.49700000  0.10760000  0.96490000  1.0 0.020652527
C  C108  1  0.38100000  0.12140000  0.95360000  1.0 -0.0128221911
C  C109  1  0.26500000  0.14810000  0.96510000  1.0 -0.0907417771
C  C110  1  0.26600000  0.15910000  0.98880000  1.0 -0.1591944895
C  C111  1  0.38300000  0.14380000  0.00020000  1.0 0.0269305007
C  C112  1  0.61700000  0.10730000  0.00010000  1.0 0.0407137321
C  C113  1  0.73100000  0.07920000  0.98840000  1.0 -0.1652834082
C  C114  1  0.73100000  0.06820000  0.96480000  1.0 -0.1006817857
C  C115  1  0.61600000  0.08380000  0.95350000  1.0 -0.0128221911
C  C116  1  0.04360000  0.92830000  0.22460000  1.0 0.2412171283
C  C117  1  0.96750000  0.04790000  0.22430000  1.0 0.2412171283
C  C118  1  0.00490000  0.00730000  0.26130000  1.0 -0.0704771579
C  C119  1  0.00370000  0.02070000  0.28490000  1.0 0.020652527
C  C120  1  0.04350000  0.96910000  0.29680000  1.0 -0.0399448097
C  C121  1  0.08500000  0.90540000  0.28530000  1.0 -0.0704771579
C  C122  1  0.08100000  0.89360000  0.26180000  1.0 -0.1393266634
C  C123  1  0.04170000  0.94390000  0.24940000  1.0 0.0269305007
C  C124  1  0.96770000  0.05920000  0.24950000  1.0 0.0407137321
C  C125  1  0.92500000  0.12250000  0.26110000  1.0 -0.1521653465
C  C126  1  0.92100000  0.13510000  0.28450000  1.0 -0.1006817857
C  C127  1  0.96200000  0.08430000  0.29650000  1.0 0.0098784157
C  C128  1  0.49740000  0.94810000  0.89263000  1.0 0.5212147998
C  C129  1  0.50270000  0.69490000  0.89218000  1.0 0.5212147998
C  C130  1  0.49950000  0.82090000  0.89254000  1.0 -0.0907417771
C  C131  1  0.50010000  0.88700000  0.90448000  1.0 0.0098784157
C  C132  1  0.50120000  0.89980000  0.92775000  1.0 -0.2110011394
C  C133  1  0.50070000  0.84460000  0.93939000  1.0 0.0407137321
C  C134  1  0.50400000  0.77790000  0.92784000  1.0 -0.1988064524
C  C135  1  0.50400000  0.76670000  0.90430000  1.0 0.0026717789
C  C136  1  0.62200000  0.88100000  0.97480000  1.0 0.2321114147
C  C137  1  0.38300000  0.84450000  0.97510000  1.0 0.2412171283
C  C138  1  0.50400000  0.88040000  0.01140000  1.0 -0.0704771579
C  C139  1  0.50240000  0.89140000  0.03500000  1.0 0.020652527
C  C140  1  0.61900000  0.91690000  0.04640000  1.0 -0.0128221911
C  C141  1  0.73400000  0.93250000  0.03500000  1.0 -0.0907417771
C  C142  1  0.73600000  0.91950000  0.01130000  1.0 -0.1591944895
C  C143  1  0.62000000  0.89310000  0.99970000  1.0 0.0269305007
C  C144  1  0.38700000  0.85640000  0.99990000  1.0 0.020652527
C  C145  1  0.27300000  0.84080000  0.01170000  1.0 -0.1521653465
C  C146  1  0.27200000  0.85100000  0.03530000  1.0 -0.0907417771
C  C147  1  0.38800000  0.87560000  0.04700000  1.0 -0.0399448097
C  C148  1  0.24800000  0.05380000  0.85759000  1.0 0.5212147998
C  C149  1  0.73960000  0.05440000  0.85782000  1.0 0.5212147998
C  C150  1  0.99160000  0.05310000  0.85725000  1.0 -0.1006817857
C  C151  1  0.11400000  0.04720000  0.84556000  1.0 0.020652527
C  C152  1  0.11610000  0.03530000  0.82222000  1.0 -0.1988064524
C  C153  1  0.99340000  0.02980000  0.81068000  1.0 0.0672358049
C  C154  1  0.87030000  0.03590000  0.82220000  1.0 -0.1926862654
C  C155  1  0.87070000  0.04720000  0.84542000  1.0 0.0098784157
C  C156  1  0.03400000  0.07500000  0.77510000  1.0 0.2412171283
C  C157  1  0.97800000  0.95290000  0.77510000  1.0 0.2471299579
C  C158  1  0.99460000  0.99680000  0.73820000  1.0 -0.0786608188
C  C159  1  0.99570000  0.98630000  0.71460000  1.0 0.0269305007
C  C160  1  0.03520000  0.03960000  0.70340000  1.0 0.020652527
C  C161  1  0.07900000  0.10160000  0.71540000  1.0 -0.1096283609
C  C162  1  0.07600000  0.11210000  0.73890000  1.0 -0.1591944895
C  C163  1  0.03100000  0.06020000  0.75020000  1.0 0.0407137321
C  C164  1  0.96000000  0.94490000  0.75010000  1.0 0.0269305007
C  C165  1  0.92000000  0.88090000  0.73820000  1.0 -0.1393266634
C  C166  1  0.91900000  0.86910000  0.71470000  1.0 -0.0704771579
C  C167  1  0.96000000  0.92140000  0.70330000  1.0 -0.0399448097
C  C168  1  0.61600000  0.83960000  0.97460000  1.0 0.222138047
C  C169  1  0.38200000  0.88470000  0.97490000  1.0 0.2321114147
C  C170  1  0.50100000  0.88060000  0.01150000  1.0 -0.0704771579
C  C171  1  0.50300000  0.89240000  0.03510000  1.0 0.020652527
C  C172  1  0.61900000  0.87860000  0.04640000  1.0 -0.0128221911
C  C173  1  0.73500000  0.85190000  0.03490000  1.0 -0.0907417771
C  C174  1  0.73400000  0.84090000  0.01120000  1.0 -0.1521653465
C  C175  1  0.61700000  0.85620000  0.99980000  1.0 0.0269305007
C  C176  1  0.38300000  0.89270000  0.99990000  1.0 0.0407137321
C  C177  1  0.26900000  0.92080000  0.01160000  1.0 -0.1652834082
C  C178  1  0.26900000  0.93180000  0.03520000  1.0 -0.1006817857
C  C179  1  0.38400000  0.91620000  0.04650000  1.0 -0.0128221911
C  C180  1  0.95640000  0.07170000  0.77540000  1.0 0.2412171283
C  C181  1  0.03250000  0.95210000  0.77570000  1.0 0.2412171283
C  C182  1  0.99510000  0.99270000  0.73870000  1.0 -0.0704771579
C  C183  1  0.99630000  0.97930000  0.71510000  1.0 0.020652527
C  C184  1  0.95650000  0.03090000  0.70320000  1.0 -0.0399448097
C  C185  1  0.91500000  0.09460000  0.71470000  1.0 -0.0704771579
C  C186  1  0.91900000  0.10640000  0.73820000  1.0 -0.1393266634
C  C187  1  0.95830000  0.05610000  0.75060000  1.0 0.0269305007
C  C188  1  0.03230000  0.94080000  0.75050000  1.0 0.0407137321
C  C189  1  0.07500000  0.87750000  0.73890000  1.0 -0.1521653465
C  C190  1  0.07900000  0.86490000  0.71550000  1.0 -0.1006817857
C  C191  1  0.03800000  0.91570000  0.70350000  1.0 0.0098784157
C  C192  1  0.50260000  0.44810000  0.89263000  1.0 0.5212147998
C  C193  1  0.49730000  0.19490000  0.89218000  1.0 0.5212147998
C  C194  1  0.50050000  0.32090000  0.89254000  1.0 -0.0907417771
C  C195  1  0.49990000  0.38700000  0.90448000  1.0 0.0098784157
C  C196  1  0.49880000  0.39980000  0.92775000  1.0 -0.1988064524
C  C197  1  0.49930000  0.34460000  0.93939000  1.0 0.0407137321
C  C198  1  0.49600000  0.27790000  0.92784000  1.0 -0.1988064524
C  C199  1  0.49600000  0.26670000  0.90430000  1.0 0.0026717789
C  C200  1  0.37800000  0.38100000  0.97480000  1.0 0.2321114147
C  C201  1  0.61700000  0.34450000  0.97510000  1.0 0.2412171283
C  C202  1  0.49600000  0.38040000  0.01140000  1.0 -0.1393266634
C  C203  1  0.49760000  0.39140000  0.03500000  1.0 0.0634022589
C  C204  1  0.38100000  0.41690000  0.04640000  1.0 -0.0399448097
C  C205  1  0.26600000  0.43250000  0.03500000  1.0 -0.0582982129
C  C206  1  0.26400000  0.41950000  0.01130000  1.0 -0.1521653465
C  C207  1  0.38000000  0.39310000  0.99970000  1.0 0.0407137321
C  C208  1  0.61300000  0.35640000  0.99990000  1.0 0.0407137321
C  C209  1  0.72700000  0.34080000  0.01170000  1.0 -0.1521653465
C  C210  1  0.72800000  0.35100000  0.03530000  1.0 -0.0498123699
C  C211  1  0.61200000  0.37560000  0.04700000  1.0 -0.0786608188
C  C212  1  0.75200000  0.55380000  0.85759000  1.0 0.5212147998
C  C213  1  0.26040000  0.55440000  0.85782000  1.0 0.5212147998
C  C214  1  0.00840000  0.55310000  0.85725000  1.0 -0.1006817857
C  C215  1  0.88600000  0.54720000  0.84556000  1.0 0.020652527
C  C216  1  0.88390000  0.53530000  0.82222000  1.0 -0.1926862654
C  C217  1  0.00660000  0.52980000  0.81068000  1.0 0.0672358049
C  C218  1  0.12970000  0.53590000  0.82220000  1.0 -0.1926862654
C  C219  1  0.12930000  0.54720000  0.84542000  1.0 0.0098784157
C  C220  1  0.96600000  0.57500000  0.77510000  1.0 0.2412171283
C  C221  1  0.02200000  0.45290000  0.77510000  1.0 0.2471299579
C  C222  1  0.00540000  0.49680000  0.73820000  1.0 -0.0786608188
C  C223  1  0.00430000  0.48630000  0.71460000  1.0 0.0269305007
C  C224  1  0.96480000  0.53960000  0.70340000  1.0 0.020652527
C  C225  1  0.92100000  0.60160000  0.71540000  1.0 -0.1096283609
C  C226  1  0.92400000  0.61210000  0.73890000  1.0 -0.1591944895
C  C227  1  0.96900000  0.56020000  0.75020000  1.0 0.0407137321
C  C228  1  0.04000000  0.44490000  0.75010000  1.0 0.0269305007
C  C229  1  0.08000000  0.38090000  0.73820000  1.0 -0.1393266634
C  C230  1  0.08100000  0.36910000  0.71470000  1.0 -0.0704771579
C  C231  1  0.04000000  0.42140000  0.70330000  1.0 -0.0399448097
C  C232  1  0.38400000  0.33960000  0.97460000  1.0 0.222138047
C  C233  1  0.61800000  0.38470000  0.97490000  1.0 0.2321114147
C  C234  1  0.49900000  0.38060000  0.01150000  1.0 -0.1393266634
C  C235  1  0.38100000  0.37860000  0.04640000  1.0 -0.0498123699
C  C236  1  0.26500000  0.35190000  0.03490000  1.0 -0.0582982129
C  C237  1  0.26600000  0.34090000  0.01120000  1.0 -0.1521653465
C  C238  1  0.38300000  0.35620000  0.99980000  1.0 0.0478991872
C  C239  1  0.61700000  0.39270000  0.99990000  1.0 0.0478991872
C  C240  1  0.73100000  0.42080000  0.01160000  1.0 -0.1591944895
C  C241  1  0.73100000  0.43180000  0.03520000  1.0 -0.0704771579
C  C242  1  0.61600000  0.41620000  0.04650000  1.0 -0.0498123699
C  C243  1  0.04360000  0.57170000  0.77540000  1.0 0.2412171283
C  C244  1  0.96750000  0.45210000  0.77570000  1.0 0.2412171283
C  C245  1  0.00490000  0.49270000  0.73870000  1.0 -0.0704771579
C  C246  1  0.00370000  0.47930000  0.71510000  1.0 0.020652527
C  C247  1  0.04350000  0.53090000  0.70320000  1.0 -0.0399448097
C  C248  1  0.08500000  0.59460000  0.71470000  1.0 -0.0704771579
C  C249  1  0.08100000  0.60640000  0.73820000  1.0 -0.1393266634
C  C250  1  0.04170000  0.55610000  0.75060000  1.0 0.020652527
C  C251  1  0.96770000  0.44080000  0.75050000  1.0 0.0407137321
C  C252  1  0.92500000  0.37750000  0.73890000  1.0 -0.1521653465
C  C253  1  0.92100000  0.36490000  0.71550000  1.0 -0.1006817857
C  C254  1  0.96200000  0.41570000  0.70350000  1.0 0.0098784157
C  C255  1  0.99740000  0.05190000  0.60737000  1.0 0.5212147998
C  C256  1  0.00270000  0.30510000  0.60782000  1.0 0.5212147998
C  C257  1  0.99950000  0.17910000  0.60746000  1.0 -0.0907417771
C  C258  1  0.00010000  0.11300000  0.59552000  1.0 0.0098784157
C  C259  1  0.00120000  0.10020000  0.57225000  1.0 -0.1988064524
C  C260  1  0.00070000  0.15540000  0.56061000  1.0 0.0478991872
C  C261  1  0.00400000  0.22210000  0.57216000  1.0 -0.1988064524
C  C262  1  0.00400000  0.23330000  0.59570000  1.0 0.0026717789
C  C263  1  0.12200000  0.11900000  0.52520000  1.0 0.2321114147
C  C264  1  0.88300000  0.15550000  0.52490000  1.0 0.2412171283
C  C265  1  0.00400000  0.11960000  0.48860000  1.0 -0.1393266634
C  C266  1  0.00240000  0.10860000  0.46500000  1.0 0.0634022589
C  C267  1  0.11900000  0.08310000  0.45360000  1.0 -0.0399448097
C  C268  1  0.23400000  0.06750000  0.46500000  1.0 -0.0582982129
C  C269  1  0.23600000  0.08050000  0.48870000  1.0 -0.1591944895
C  C270  1  0.12000000  0.10690000  0.50030000  1.0 0.0407137321
C  C271  1  0.88700000  0.14360000  0.50010000  1.0 0.0407137321
C  C272  1  0.77300000  0.15920000  0.48830000  1.0 -0.1393266634
C  C273  1  0.77200000  0.14900000  0.46470000  1.0 -0.0498123699
C  C274  1  0.88800000  0.12440000  0.45300000  1.0 -0.0786608188
C  C275  1  0.74800000  0.94620000  0.64241000  1.0 0.5212147998
C  C276  1  0.23960000  0.94560000  0.64218000  1.0 0.5212147998
C  C277  1  0.49160000  0.94690000  0.64275000  1.0 -0.1006817857
C  C278  1  0.61400000  0.95280000  0.65444000  1.0 0.020652527
C  C279  1  0.61610000  0.96470000  0.67778000  1.0 -0.1926862654
C  C280  1  0.49340000  0.97020000  0.68932000  1.0 0.0672358049
C  C281  1  0.37030000  0.96410000  0.67780000  1.0 -0.1926862654
C  C282  1  0.37070000  0.95280000  0.65458000  1.0 0.0098784157
C  C283  1  0.53400000  0.92500000  0.72490000  1.0 0.2412171283
C  C284  1  0.47800000  0.04710000  0.72490000  1.0 0.2471299579
C  C285  1  0.49460000  0.00320000  0.76180000  1.0 -0.0786608188
C  C286  1  0.49570000  0.01370000  0.78540000  1.0 0.0269305007
C  C287  1  0.53520000  0.96040000  0.79660000  1.0 0.020652527
C  C288  1  0.57900000  0.89840000  0.78460000  1.0 -0.1096283609
C  C289  1  0.57600000  0.88790000  0.76110000  1.0 -0.1591944895
C  C290  1  0.53100000  0.93980000  0.74980000  1.0 0.0407137321
C  C291  1  0.46000000  0.05510000  0.74990000  1.0 0.0269305007
C  C292  1  0.42000000  0.11910000  0.76180000  1.0 -0.1393266634
C  C293  1  0.41900000  0.13090000  0.78530000  1.0 -0.0704771579
C  C294  1  0.46000000  0.07860000  0.79670000  1.0 -0.0399448097
C  C295  1  0.11600000  0.16040000  0.52540000  1.0 0.222138047
C  C296  1  0.88200000  0.11530000  0.52510000  1.0 0.2321114147
C  C297  1  0.00100000  0.11940000  0.48850000  1.0 -0.1393266634
C  C298  1  0.11900000  0.12140000  0.45360000  1.0 -0.0498123699
C  C299  1  0.23500000  0.14810000  0.46510000  1.0 -0.0582982129
C  C300  1  0.23400000  0.15910000  0.48880000  1.0 -0.1521653465
C  C301  1  0.11700000  0.14380000  0.50020000  1.0 0.0478991872
C  C302  1  0.88300000  0.10730000  0.50010000  1.0 0.0478991872
C  C303  1  0.76900000  0.07920000  0.48840000  1.0 -0.1591944895
C  C304  1  0.76900000  0.06820000  0.46480000  1.0 -0.0704771579
C  C305  1  0.88400000  0.08380000  0.45350000  1.0 -0.0498123699
C  C306  1  0.45640000  0.92830000  0.72460000  1.0 0.2412171283
C  C307  1  0.53250000  0.04790000  0.72430000  1.0 0.2412171283
C  C308  1  0.49510000  0.00730000  0.76130000  1.0 -0.0704771579
C  C309  1  0.49630000  0.02070000  0.78490000  1.0 0.020652527
C  C310  1  0.45650000  0.96910000  0.79680000  1.0 -0.0399448097
C  C311  1  0.41500000  0.90540000  0.78530000  1.0 -0.0704771579
C  C312  1  0.41900000  0.89360000  0.76180000  1.0 -0.1393266634
C  C313  1  0.45830000  0.94390000  0.74940000  1.0 0.0269305007
C  C314  1  0.53230000  0.05920000  0.74950000  1.0 0.0407137321
C  C315  1  0.57500000  0.12250000  0.76110000  1.0 -0.1521653465
C  C316  1  0.57900000  0.13510000  0.78450000  1.0 -0.1006817857
C  C317  1  0.53800000  0.08430000  0.79650000  1.0 0.0098784157
C  C318  1  0.00260000  0.55190000  0.60737000  1.0 0.5212147998
C  C319  1  0.99730000  0.80510000  0.60782000  1.0 0.5212147998
C  C320  1  0.00050000  0.67910000  0.60746000  1.0 -0.0907417771
C  C321  1  0.99990000  0.61300000  0.59552000  1.0 0.0098784157
C  C322  1  0.99880000  0.60020000  0.57225000  1.0 -0.1988064524
C  C323  1  0.99930000  0.65540000  0.56061000  1.0 0.0478991872
C  C324  1  0.99600000  0.72210000  0.57216000  1.0 -0.1988064524
C  C325  1  0.99600000  0.73330000  0.59570000  1.0 0.0026717789
C  C326  1  0.87800000  0.61900000  0.52520000  1.0 0.2321114147
C  C327  1  0.11700000  0.65550000  0.52490000  1.0 0.2412171283
C  C328  1  0.99600000  0.61960000  0.48860000  1.0 -0.1393266634
C  C329  1  0.99760000  0.60860000  0.46500000  1.0 0.0634022589
C  C330  1  0.88100000  0.58310000  0.45360000  1.0 -0.0399448097
C  C331  1  0.76600000  0.56750000  0.46500000  1.0 -0.0582982129
C  C332  1  0.76400000  0.58050000  0.48870000  1.0 -0.1521653465
C  C333  1  0.88000000  0.60690000  0.50030000  1.0 0.0407137321
C  C334  1  0.11300000  0.64360000  0.50010000  1.0 0.0407137321
C  C335  1  0.22700000  0.65920000  0.48830000  1.0 -0.1393266634
C  C336  1  0.22800000  0.64900000  0.46470000  1.0 -0.0498123699
C  C337  1  0.11200000  0.62440000  0.45300000  1.0 -0.0786608188
C  C338  1  0.25200000  0.44620000  0.64241000  1.0 0.5212147998
C  C339  1  0.76040000  0.44560000  0.64218000  1.0 0.5212147998
C  C340  1  0.50840000  0.44690000  0.64275000  1.0 -0.1006817857
C  C341  1  0.38600000  0.45280000  0.65444000  1.0 0.020652527
C  C342  1  0.38390000  0.46470000  0.67778000  1.0 -0.1926862654
C  C343  1  0.50660000  0.47020000  0.68932000  1.0 0.0672358049
C  C344  1  0.62970000  0.46410000  0.67780000  1.0 -0.1926862654
C  C345  1  0.62930000  0.45280000  0.65458000  1.0 0.0098784157
C  C346  1  0.46600000  0.42500000  0.72490000  1.0 0.2412171283
C  C347  1  0.52200000  0.54710000  0.72490000  1.0 0.2471299579
C  C348  1  0.50540000  0.50320000  0.76180000  1.0 -0.0786608188
C  C349  1  0.50430000  0.51370000  0.78540000  1.0 0.0269305007
C  C350  1  0.46480000  0.46040000  0.79660000  1.0 0.020652527
C  C351  1  0.42100000  0.39840000  0.78460000  1.0 -0.1096283609
C  C352  1  0.42400000  0.38790000  0.76110000  1.0 -0.1591944895
C  C353  1  0.46900000  0.43980000  0.74980000  1.0 0.0407137321
C  C354  1  0.54000000  0.55510000  0.74990000  1.0 0.0269305007
C  C355  1  0.58000000  0.61910000  0.76180000  1.0 -0.1393266634
C  C356  1  0.58100000  0.63090000  0.78530000  1.0 -0.0704771579
C  C357  1  0.54000000  0.57860000  0.79670000  1.0 -0.0399448097
C  C358  1  0.88400000  0.66040000  0.52540000  1.0 0.222138047
C  C359  1  0.11800000  0.61530000  0.52510000  1.0 0.2321114147
C  C360  1  0.99900000  0.61940000  0.48850000  1.0 -0.1393266634
C  C361  1  0.88100000  0.62140000  0.45360000  1.0 -0.0498123699
C  C362  1  0.76500000  0.64810000  0.46510000  1.0 -0.0582982129
C  C363  1  0.76600000  0.65910000  0.48880000  1.0 -0.1521653465
C  C364  1  0.88300000  0.64380000  0.50020000  1.0 0.0478991872
C  C365  1  0.11700000  0.60730000  0.50010000  1.0 0.0478991872
C  C366  1  0.23100000  0.57920000  0.48840000  1.0 -0.1591944895
C  C367  1  0.23100000  0.56820000  0.46480000  1.0 -0.0704771579
C  C368  1  0.11600000  0.58380000  0.45350000  1.0 -0.0498123699
C  C369  1  0.54360000  0.42830000  0.72460000  1.0 0.2412171283
C  C370  1  0.46750000  0.54790000  0.72430000  1.0 0.2412171283
C  C371  1  0.50490000  0.50730000  0.76130000  1.0 -0.0704771579
C  C372  1  0.50370000  0.52070000  0.78490000  1.0 0.020652527
C  C373  1  0.54350000  0.46910000  0.79680000  1.0 -0.0399448097
C  C374  1  0.58500000  0.40540000  0.78530000  1.0 -0.0704771579
C  C375  1  0.58100000  0.39360000  0.76180000  1.0 -0.1393266634
C  C376  1  0.54170000  0.44390000  0.74940000  1.0 0.0269305007
C  C377  1  0.46770000  0.55920000  0.74950000  1.0 0.0407137321
C  C378  1  0.42500000  0.62250000  0.76110000  1.0 -0.1521653465
C  C379  1  0.42100000  0.63510000  0.78450000  1.0 -0.1006817857
C  C380  1  0.46200000  0.58430000  0.79650000  1.0 0.0098784157
C  C381  1  0.99740000  0.44810000  0.39263000  1.0 0.5212147998
C  C382  1  0.00270000  0.19490000  0.39218000  1.0 0.5212147998
C  C383  1  0.99950000  0.32090000  0.39254000  1.0 -0.0907417771
C  C384  1  0.00010000  0.38700000  0.40448000  1.0 0.0098784157
C  C385  1  0.00120000  0.39980000  0.42775000  1.0 -0.1988064524
C  C386  1  0.00070000  0.34460000  0.43939000  1.0 0.0478991872
C  C387  1  0.00400000  0.27790000  0.42784000  1.0 -0.1988064524
C  C388  1  0.00400000  0.26670000  0.40430000  1.0 0.0026717789
C  C389  1  0.12200000  0.38100000  0.47480000  1.0 0.2321114147
C  C390  1  0.88300000  0.34450000  0.47510000  1.0 0.2412171283
C  C391  1  0.00400000  0.38040000  0.51140000  1.0 -0.1393266634
C  C392  1  0.00240000  0.39140000  0.53500000  1.0 0.0634022589
C  C393  1  0.11900000  0.41690000  0.54640000  1.0 -0.0399448097
C  C394  1  0.23400000  0.43250000  0.53500000  1.0 -0.0582982129
C  C395  1  0.23600000  0.41950000  0.51130000  1.0 -0.1521653465
C  C396  1  0.12000000  0.39310000  0.49970000  1.0 0.0407137321
C  C397  1  0.88700000  0.35640000  0.49990000  1.0 0.0407137321
C  C398  1  0.77300000  0.34080000  0.51170000  1.0 -0.1393266634
C  C399  1  0.77200000  0.35100000  0.53530000  1.0 -0.0498123699
C  C400  1  0.88800000  0.37560000  0.54700000  1.0 -0.0786608188
C  C401  1  0.74800000  0.55380000  0.35759000  1.0 0.5212147998
C  C402  1  0.23960000  0.55440000  0.35782000  1.0 0.5212147998
C  C403  1  0.49160000  0.55310000  0.35725000  1.0 -0.1006817857
C  C404  1  0.61400000  0.54720000  0.34556000  1.0 0.020652527
C  C405  1  0.61610000  0.53530000  0.32222000  1.0 -0.1926862654
C  C406  1  0.49340000  0.52980000  0.31068000  1.0 0.0672358049
C  C407  1  0.37030000  0.53590000  0.32220000  1.0 -0.1926862654
C  C408  1  0.37070000  0.54720000  0.34542000  1.0 0.0098784157
C  C409  1  0.53400000  0.57500000  0.27510000  1.0 0.2412171283
C  C410  1  0.47800000  0.45290000  0.27510000  1.0 0.2471299579
C  C411  1  0.49460000  0.49680000  0.23820000  1.0 -0.0786608188
C  C412  1  0.49570000  0.48630000  0.21460000  1.0 0.0269305007
C  C413  1  0.53520000  0.53960000  0.20340000  1.0 0.020652527
C  C414  1  0.57900000  0.60160000  0.21540000  1.0 -0.1096283609
C  C415  1  0.57600000  0.61210000  0.23890000  1.0 -0.1591944895
C  C416  1  0.53100000  0.56020000  0.25020000  1.0 0.0407137321
C  C417  1  0.46000000  0.44490000  0.25010000  1.0 0.0269305007
C  C418  1  0.42000000  0.38090000  0.23820000  1.0 -0.1393266634
C  C419  1  0.41900000  0.36910000  0.21470000  1.0 -0.0704771579
C  C420  1  0.46000000  0.42140000  0.20330000  1.0 -0.0399448097
C  C421  1  0.11600000  0.33960000  0.47460000  1.0 0.222138047
C  C422  1  0.88200000  0.38470000  0.47490000  1.0 0.2321114147
C  C423  1  0.00100000  0.38060000  0.51150000  1.0 -0.1393266634
C  C424  1  0.11900000  0.37860000  0.54640000  1.0 -0.0498123699
C  C425  1  0.23500000  0.35190000  0.53490000  1.0 -0.0582982129
C  C426  1  0.23400000  0.34090000  0.51120000  1.0 -0.1521653465
C  C427  1  0.11700000  0.35620000  0.49980000  1.0 0.0478991872
C  C428  1  0.88300000  0.39270000  0.49990000  1.0 0.0478991872
C  C429  1  0.76900000  0.42080000  0.51160000  1.0 -0.1591944895
C  C430  1  0.76900000  0.43180000  0.53520000  1.0 -0.0704771579
C  C431  1  0.88400000  0.41620000  0.54650000  1.0 -0.0498123699
C  C432  1  0.45640000  0.57170000  0.27540000  1.0 0.2412171283
C  C433  1  0.53250000  0.45210000  0.27570000  1.0 0.2412171283
C  C434  1  0.49510000  0.49270000  0.23870000  1.0 -0.0704771579
C  C435  1  0.49630000  0.47930000  0.21510000  1.0 0.020652527
C  C436  1  0.45650000  0.53090000  0.20320000  1.0 -0.0399448097
C  C437  1  0.41500000  0.59460000  0.21470000  1.0 -0.0704771579
C  C438  1  0.41900000  0.60640000  0.23820000  1.0 -0.1393266634
C  C439  1  0.45830000  0.55610000  0.25060000  1.0 0.0269305007
C  C440  1  0.53230000  0.44080000  0.25050000  1.0 0.0407137321
C  C441  1  0.57500000  0.37750000  0.23890000  1.0 -0.1521653465
C  C442  1  0.57900000  0.36490000  0.21550000  1.0 -0.1006817857
C  C443  1  0.53800000  0.41570000  0.20350000  1.0 0.0098784157
C  C444  1  0.00260000  0.94810000  0.39263000  1.0 0.5212147998
C  C445  1  0.99730000  0.69490000  0.39218000  1.0 0.5212147998
C  C446  1  0.00050000  0.82090000  0.39254000  1.0 -0.0907417771
C  C447  1  0.99990000  0.88700000  0.40448000  1.0 0.0098784157
C  C448  1  0.99880000  0.89980000  0.42775000  1.0 -0.1988064524
C  C449  1  0.99930000  0.84460000  0.43939000  1.0 0.0478991872
C  C450  1  0.99600000  0.77790000  0.42784000  1.0 -0.1988064524
C  C451  1  0.99600000  0.76670000  0.40430000  1.0 0.0026717789
C  C452  1  0.87800000  0.88100000  0.47480000  1.0 0.2321114147
C  C453  1  0.11700000  0.84450000  0.47510000  1.0 0.2412171283
C  C454  1  0.99600000  0.88040000  0.51140000  1.0 -0.1393266634
C  C455  1  0.99760000  0.89140000  0.53500000  1.0 0.0634022589
C  C456  1  0.88100000  0.91690000  0.54640000  1.0 -0.0399448097
C  C457  1  0.76600000  0.93250000  0.53500000  1.0 -0.0582982129
C  C458  1  0.76400000  0.91950000  0.51130000  1.0 -0.1591944895
C  C459  1  0.88000000  0.89310000  0.49970000  1.0 0.0407137321
C  C460  1  0.11300000  0.85640000  0.49990000  1.0 0.0407137321
C  C461  1  0.22700000  0.84080000  0.51170000  1.0 -0.1393266634
C  C462  1  0.22800000  0.85100000  0.53530000  1.0 -0.0498123699
C  C463  1  0.11200000  0.87560000  0.54700000  1.0 -0.0786608188
C  C464  1  0.25200000  0.05380000  0.35759000  1.0 0.5212147998
C  C465  1  0.76040000  0.05440000  0.35782000  1.0 0.5212147998
C  C466  1  0.50840000  0.05310000  0.35725000  1.0 -0.1006817857
C  C467  1  0.38600000  0.04720000  0.34556000  1.0 0.020652527
C  C468  1  0.38390000  0.03530000  0.32222000  1.0 -0.1988064524
C  C469  1  0.50660000  0.02980000  0.31068000  1.0 0.0672358049
C  C470  1  0.62970000  0.03590000  0.32220000  1.0 -0.1926862654
C  C471  1  0.62930000  0.04720000  0.34542000  1.0 0.0098784157
C  C472  1  0.46600000  0.07500000  0.27510000  1.0 0.2412171283
C  C473  1  0.52200000  0.95290000  0.27510000  1.0 0.2471299579
C  C474  1  0.50540000  0.99680000  0.23820000  1.0 -0.0786608188
C  C475  1  0.50430000  0.98630000  0.21460000  1.0 0.0269305007
C  C476  1  0.46480000  0.03960000  0.20340000  1.0 0.020652527
C  C477  1  0.42100000  0.10160000  0.21540000  1.0 -0.1096283609
C  C478  1  0.42400000  0.11210000  0.23890000  1.0 -0.1591944895
C  C479  1  0.46900000  0.06020000  0.25020000  1.0 0.0407137321
C  C480  1  0.54000000  0.94490000  0.25010000  1.0 0.0269305007
C  C481  1  0.58000000  0.88090000  0.23820000  1.0 -0.1393266634
C  C482  1  0.58100000  0.86910000  0.21470000  1.0 -0.0704771579
C  C483  1  0.54000000  0.92140000  0.20330000  1.0 -0.0399448097
C  C484  1  0.88400000  0.83960000  0.47460000  1.0 0.222138047
C  C485  1  0.11800000  0.88470000  0.47490000  1.0 0.2321114147
C  C486  1  0.99900000  0.88060000  0.51150000  1.0 -0.1393266634
C  C487  1  0.88100000  0.87860000  0.54640000  1.0 -0.0498123699
C  C488  1  0.76500000  0.85190000  0.53490000  1.0 -0.0582982129
C  C489  1  0.76600000  0.84090000  0.51120000  1.0 -0.1521653465
C  C490  1  0.88300000  0.85620000  0.49980000  1.0 0.0478991872
C  C491  1  0.11700000  0.89270000  0.49990000  1.0 0.0478991872
C  C492  1  0.23100000  0.92080000  0.51160000  1.0 -0.1591944895
C  C493  1  0.23100000  0.93180000  0.53520000  1.0 -0.0704771579
C  C494  1  0.11600000  0.91620000  0.54650000  1.0 -0.0498123699
C  C495  1  0.54360000  0.07170000  0.27540000  1.0 0.2412171283
C  C496  1  0.46750000  0.95210000  0.27570000  1.0 0.2412171283
C  C497  1  0.50490000  0.99270000  0.23870000  1.0 -0.0704771579
C  C498  1  0.50370000  0.97930000  0.21510000  1.0 0.020652527
C  C499  1  0.54350000  0.03090000  0.20320000  1.0 -0.0399448097
C  C500  1  0.58500000  0.09460000  0.21470000  1.0 -0.0704771579
C  C501  1  0.58100000  0.10640000  0.23820000  1.0 -0.1393266634
C  C502  1  0.54170000  0.05610000  0.25060000  1.0 0.0269305007
C  C503  1  0.46770000  0.94080000  0.25050000  1.0 0.0407137321
C  C504  1  0.42500000  0.87750000  0.23890000  1.0 -0.1521653465
C  C505  1  0.42100000  0.86490000  0.21550000  1.0 -0.1006817857
C  C506  1  0.46200000  0.91570000  0.20350000  1.0 0.0098784157
N  N1  1  0.49960000  0.64350000  0.03635000  1.0 -0.2204210366
N  N2  1  0.99370000  0.48210000  0.21372000  1.0 -0.243236116
N  N3  1  0.50040000  0.14350000  0.03635000  1.0 -0.2204210366
N  N4  1  0.00630000  0.98210000  0.21372000  1.0 -0.243236116
N  N5  1  0.49960000  0.85650000  0.96365000  1.0 -0.2204210366
N  N6  1  0.99370000  0.01790000  0.78628000  1.0 -0.2465226526
N  N7  1  0.50040000  0.35650000  0.96365000  1.0 -0.2204210366
N  N8  1  0.00630000  0.51790000  0.78628000  1.0 -0.2465226526
N  N9  1  0.99960000  0.14350000  0.53635000  1.0 -0.2110011394
N  N10  1  0.49370000  0.98210000  0.71372000  1.0 -0.243236116
N  N11  1  0.00040000  0.64350000  0.53635000  1.0 -0.2110011394
N  N12  1  0.50630000  0.48210000  0.71372000  1.0 -0.2465226526
N  N13  1  0.99960000  0.35650000  0.46365000  1.0 -0.2204210366
N  N14  1  0.49370000  0.51790000  0.28628000  1.0 -0.2465226526
N  N15  1  0.00040000  0.85650000  0.46365000  1.0 -0.2110011394
N  N16  1  0.50630000  0.01790000  0.28628000  1.0 -0.2465226526
O  O1  1  0.49600000  0.55920000  0.12878000  1.0 -0.5200809689
O  O2  1  0.50320000  0.81870000  0.12863000  1.0 -0.5028011819
O  O3  1  0.50620000  0.85310000  0.09628000  1.0 -0.5460783059
O  O4  1  0.49340000  0.49400000  0.09632000  1.0 -0.5075219127
O  O5  1  0.28900000  0.67570000  0.03600000  1.0 -0.0786608188
O  O6  1  0.71700000  0.60970000  0.03590000  1.0 -0.0907417771
O  O7  1  0.25120000  0.43600000  0.12145000  1.0 -0.5075219127
O  O8  1  0.35650000  0.45150000  0.15350000  1.0 -0.5343240911
O  O9  1  0.63440000  0.45140000  0.15370000  1.0 -0.5200809689
O  O10  1  0.73230000  0.43480000  0.12128000  1.0 -0.5028011819
O  O11  1  0.92600000  0.58760000  0.21460000  1.0 -0.1794062333
O  O12  1  0.06300000  0.37380000  0.21350000  1.0 -0.118752932
O  O13  1  0.28500000  0.61390000  0.03610000  1.0 -0.0498123699
O  O14  1  0.72300000  0.67420000  0.03650000  1.0 -0.1308819037
O  O15  1  0.06310000  0.59080000  0.21330000  1.0 -0.1794062333
O  O16  1  0.92540000  0.37470000  0.21390000  1.0 -0.1308819037
O  O17  1  0.50400000  0.05920000  0.12878000  1.0 -0.5200809689
O  O18  1  0.49680000  0.31870000  0.12863000  1.0 -0.5028011819
O  O19  1  0.49380000  0.35310000  0.09628000  1.0 -0.5390845678
O  O20  1  0.50660000  0.99400000  0.09632000  1.0 -0.5075219127
O  O21  1  0.71100000  0.17570000  0.03600000  1.0 -0.0704771579
O  O22  1  0.28300000  0.10970000  0.03590000  1.0 -0.0907417771
O  O23  1  0.74880000  0.93600000  0.12145000  1.0 -0.5075219127
O  O24  1  0.64350000  0.95150000  0.15350000  1.0 -0.5390845678
O  O25  1  0.36560000  0.95140000  0.15370000  1.0 -0.5200809689
O  O26  1  0.26770000  0.93480000  0.12128000  1.0 -0.5028011819
O  O27  1  0.07400000  0.08760000  0.21460000  1.0 -0.1794062333
O  O28  1  0.93700000  0.87380000  0.21350000  1.0 -0.118752932
O  O29  1  0.71500000  0.11390000  0.03610000  1.0 -0.0582982129
O  O30  1  0.27700000  0.17420000  0.03650000  1.0 -0.118752932
O  O31  1  0.93690000  0.09080000  0.21330000  1.0 -0.1794062333
O  O32  1  0.07460000  0.87470000  0.21390000  1.0 -0.1308819037
O  O33  1  0.49600000  0.94080000  0.87122000  1.0 -0.5200809689
O  O34  1  0.50320000  0.68130000  0.87137000  1.0 -0.5028011819
O  O35  1  0.50620000  0.64690000  0.90372000  1.0 -0.5390845678
O  O36  1  0.49340000  0.00600000  0.90368000  1.0 -0.5075219127
O  O37  1  0.28900000  0.82430000  0.96400000  1.0 -0.0704771579
O  O38  1  0.71700000  0.89030000  0.96410000  1.0 -0.0907417771
O  O39  1  0.25120000  0.06400000  0.87855000  1.0 -0.5075219127
O  O40  1  0.35650000  0.04850000  0.84650000  1.0 -0.5390845678
O  O41  1  0.63440000  0.04860000  0.84630000  1.0 -0.5200809689
O  O42  1  0.73230000  0.06520000  0.87872000  1.0 -0.5028011819
O  O43  1  0.92600000  0.91240000  0.78540000  1.0 -0.1794062333
O  O44  1  0.06300000  0.12620000  0.78650000  1.0 -0.118752932
O  O45  1  0.28500000  0.88610000  0.96390000  1.0 -0.0582982129
O  O46  1  0.72300000  0.82580000  0.96350000  1.0 -0.118752932
O  O47  1  0.06310000  0.90920000  0.78670000  1.0 -0.1794062333
O  O48  1  0.92540000  0.12530000  0.78610000  1.0 -0.1308819037
O  O49  1  0.50400000  0.44080000  0.87122000  1.0 -0.5200809689
O  O50  1  0.49680000  0.18130000  0.87137000  1.0 -0.5028011819
O  O51  1  0.49380000  0.14690000  0.90372000  1.0 -0.5460783059
O  O52  1  0.50660000  0.50600000  0.90368000  1.0 -0.5075219127
O  O53  1  0.71100000  0.32430000  0.96400000  1.0 -0.0786608188
O  O54  1  0.28300000  0.39030000  0.96410000  1.0 -0.0786608188
O  O55  1  0.74880000  0.56400000  0.87855000  1.0 -0.5075219127
O  O56  1  0.64350000  0.54850000  0.84650000  1.0 -0.5390845678
O  O57  1  0.36560000  0.54860000  0.84630000  1.0 -0.5200809689
O  O58  1  0.26770000  0.56520000  0.87872000  1.0 -0.5028011819
O  O59  1  0.07400000  0.41240000  0.78540000  1.0 -0.1794062333
O  O60  1  0.93700000  0.62620000  0.78650000  1.0 -0.118752932
O  O61  1  0.71500000  0.38610000  0.96390000  1.0 -0.0498123699
O  O62  1  0.27700000  0.32580000  0.96350000  1.0 -0.118752932
O  O63  1  0.93690000  0.40920000  0.78670000  1.0 -0.1794062333
O  O64  1  0.07460000  0.62530000  0.78610000  1.0 -0.1308819037
O  O65  1  0.99600000  0.05920000  0.62878000  1.0 -0.5200809689
O  O66  1  0.00320000  0.31870000  0.62863000  1.0 -0.5028011819
O  O67  1  0.00620000  0.35310000  0.59628000  1.0 -0.5390845678
O  O68  1  0.99340000  0.99400000  0.59632000  1.0 -0.5075219127
O  O69  1  0.78900000  0.17570000  0.53600000  1.0 -0.0704771579
O  O70  1  0.21700000  0.10970000  0.53590000  1.0 -0.0907417771
O  O71  1  0.75120000  0.93600000  0.62145000  1.0 -0.5075219127
O  O72  1  0.85650000  0.95150000  0.65350000  1.0 -0.5343240911
O  O73  1  0.13440000  0.95140000  0.65370000  1.0 -0.5200809689
O  O74  1  0.23230000  0.93480000  0.62128000  1.0 -0.5028011819
O  O75  1  0.42600000  0.08760000  0.71460000  1.0 -0.1794062333
O  O76  1  0.56300000  0.87380000  0.71350000  1.0 -0.118752932
O  O77  1  0.78500000  0.11390000  0.53610000  1.0 -0.0582982129
O  O78  1  0.22300000  0.17420000  0.53650000  1.0 -0.118752932
O  O79  1  0.56310000  0.09080000  0.71330000  1.0 -0.1794062333
O  O80  1  0.42540000  0.87470000  0.71390000  1.0 -0.1308819037
O  O81  1  0.00400000  0.55920000  0.62878000  1.0 -0.5200809689
O  O82  1  0.99680000  0.81870000  0.62863000  1.0 -0.5028011819
O  O83  1  0.99380000  0.85310000  0.59628000  1.0 -0.5390845678
O  O84  1  0.00660000  0.49400000  0.59632000  1.0 -0.5075219127
O  O85  1  0.21100000  0.67570000  0.53600000  1.0 -0.0704771579
O  O86  1  0.78300000  0.60970000  0.53590000  1.0 -0.0786608188
O  O87  1  0.24880000  0.43600000  0.62145000  1.0 -0.5075219127
O  O88  1  0.14350000  0.45150000  0.65350000  1.0 -0.5390845678
O  O89  1  0.86560000  0.45140000  0.65370000  1.0 -0.5200809689
O  O90  1  0.76770000  0.43480000  0.62128000  1.0 -0.5028011819
O  O91  1  0.57400000  0.58760000  0.71460000  1.0 -0.1794062333
O  O92  1  0.43700000  0.37380000  0.71350000  1.0 -0.118752932
O  O93  1  0.21500000  0.61390000  0.53610000  1.0 -0.0582982129
O  O94  1  0.77700000  0.67420000  0.53650000  1.0 -0.118752932
O  O95  1  0.43690000  0.59080000  0.71330000  1.0 -0.1794062333
O  O96  1  0.57460000  0.37470000  0.71390000  1.0 -0.1308819037
O  O97  1  0.99600000  0.44080000  0.37122000  1.0 -0.5200809689
O  O98  1  0.00320000  0.18130000  0.37137000  1.0 -0.5028011819
O  O99  1  0.00620000  0.14690000  0.40372000  1.0 -0.5390845678
O  O100  1  0.99340000  0.50600000  0.40368000  1.0 -0.5075219127
O  O101  1  0.78900000  0.32430000  0.46400000  1.0 -0.0786608188
O  O102  1  0.21700000  0.39030000  0.46410000  1.0 -0.0907417771
O  O103  1  0.75120000  0.56400000  0.37855000  1.0 -0.5075219127
O  O104  1  0.85650000  0.54850000  0.34650000  1.0 -0.5343240911
O  O105  1  0.13440000  0.54860000  0.34630000  1.0 -0.5200809689
O  O106  1  0.23230000  0.56520000  0.37872000  1.0 -0.5028011819
O  O107  1  0.42600000  0.41240000  0.28540000  1.0 -0.1794062333
O  O108  1  0.56300000  0.62620000  0.28650000  1.0 -0.118752932
O  O109  1  0.78500000  0.38610000  0.46390000  1.0 -0.0498123699
O  O110  1  0.22300000  0.32580000  0.46350000  1.0 -0.118752932
O  O111  1  0.56310000  0.40920000  0.28670000  1.0 -0.1794062333
O  O112  1  0.42540000  0.62530000  0.28610000  1.0 -0.1308819037
O  O113  1  0.00400000  0.94080000  0.37122000  1.0 -0.5200809689
O  O114  1  0.99680000  0.68130000  0.37137000  1.0 -0.5028011819
O  O115  1  0.99380000  0.64690000  0.40372000  1.0 -0.5390845678
O  O116  1  0.00660000  0.00600000  0.40368000  1.0 -0.5075219127
O  O117  1  0.21100000  0.82430000  0.46400000  1.0 -0.0704771579
O  O118  1  0.78300000  0.89030000  0.46410000  1.0 -0.0786608188
O  O119  1  0.24880000  0.06400000  0.37855000  1.0 -0.5075219127
O  O120  1  0.14350000  0.04850000  0.34650000  1.0 -0.5390845678
O  O121  1  0.86560000  0.04860000  0.34630000  1.0 -0.5200809689
O  O122  1  0.76770000  0.06520000  0.37872000  1.0 -0.5028011819
O  O123  1  0.57400000  0.91240000  0.28540000  1.0 -0.1794062333
O  O124  1  0.43700000  0.12620000  0.28650000  1.0 -0.118752932
O  O125  1  0.21500000  0.88610000  0.46390000  1.0 -0.0498123699
O  O126  1  0.77700000  0.82580000  0.46350000  1.0 -0.118752932
O  O127  1  0.43690000  0.90920000  0.28670000  1.0 -0.1794062333
O  O128  1  0.57460000  0.12530000  0.28610000  1.0 -0.1308819037
