# DDEC6 charges by PACMAN v1.1 (https://github.com/mtap-research/PACMAN-charge/)
data_MAVNUU_FSR_pacman
_symmetry_space_group_name_H-M   'P 1'
_cell_length_a   7.23090000
_cell_length_b   26.98420000
_cell_length_c   31.26260000
_cell_angle_alpha   90.00000000
_cell_angle_beta   90.00000000
_cell_angle_gamma   90.00000000
_symmetry_Int_Tables_number   1
_chemical_formula_structural   Zn2C53O9
_chemical_formula_sum   'Zn8 C212 O36'
_cell_volume   6099.96013078
_cell_formula_units_Z   4
loop_
 _symmetry_equiv_pos_site_id
 _symmetry_equiv_pos_as_xyz
  1  'x, y, z'
loop_
 _atom_site_type_symbol
 _atom_site_label
 _atom_site_symmetry_multiplicity
 _atom_site_fract_x
 _atom_site_fract_y
 _atom_site_fract_z
 _atom_site_occupancy
 _atom_site_charge
Zn  Zn1  1  0.99980000  0.96800000  0.23786000  1.0 0.88418705
Zn  Zn2  1  0.99980000  0.03200000  0.76214000  1.0 0.88418705
Zn  Zn3  1  0.00020000  0.46800000  0.26214000  1.0 0.88418705
Zn  Zn4  1  0.00020000  0.53200000  0.73786000  1.0 0.88418705
Zn  Zn5  1  0.30730000  0.54674000  0.26906000  1.0 0.9266348703
Zn  Zn6  1  0.30730000  0.45326000  0.73094000  1.0 0.9266348703
Zn  Zn7  1  0.69270000  0.04674000  0.23094000  1.0 0.9266348703
Zn  Zn8  1  0.69270000  0.95326000  0.76906000  1.0 0.9266348703
C  C1  1  0.65300000  0.95110000  0.65560000  1.0 -0.0206467986
C  C2  1  0.65300000  0.04890000  0.34440000  1.0 -0.0206467986
C  C3  1  0.34700000  0.45110000  0.84440000  1.0 -0.0206467986
C  C4  1  0.34700000  0.54890000  0.15560000  1.0 -0.0206467986
C  C5  1  0.83500000  0.93600000  0.66150000  1.0 -0.1242794918
C  C6  1  0.83500000  0.06400000  0.33850000  1.0 -0.1242794918
C  C7  1  0.16500000  0.43600000  0.83850000  1.0 -0.1252766179
C  C8  1  0.16500000  0.56400000  0.16150000  1.0 -0.1252766179
C  C9  1  0.90450000  0.89650000  0.63800000  1.0 0.0611572208
C  C10  1  0.90450000  0.10350000  0.36200000  1.0 0.0611572208
C  C11  1  0.09550000  0.39650000  0.86200000  1.0 0.0611572208
C  C12  1  0.09550000  0.60350000  0.13800000  1.0 0.0611572208
C  C13  1  0.79200000  0.87200000  0.60870000  1.0 -0.0707446461
C  C14  1  0.79200000  0.12800000  0.39130000  1.0 -0.0707446461
C  C15  1  0.20800000  0.37200000  0.89130000  1.0 -0.0707446461
C  C16  1  0.20800000  0.62800000  0.10870000  1.0 -0.0707446461
C  C17  1  0.61000000  0.88720000  0.60280000  1.0 0.0698185402
C  C18  1  0.61000000  0.11280000  0.39720000  1.0 0.0698185402
C  C19  1  0.39000000  0.38720000  0.89720000  1.0 0.0698185402
C  C20  1  0.39000000  0.61280000  0.10280000  1.0 0.0698185402
C  C21  1  0.54060000  0.92670000  0.62620000  1.0 -0.0301583106
C  C22  1  0.54060000  0.07330000  0.37380000  1.0 -0.0301583106
C  C23  1  0.45940000  0.42670000  0.87380000  1.0 -0.0301583106
C  C24  1  0.45940000  0.57330000  0.12620000  1.0 -0.0301583106
C  C25  1  0.94500000  0.96060000  0.69320000  1.0 0.6063225118
C  C26  1  0.94500000  0.03940000  0.30680000  1.0 0.6063225118
C  C27  1  0.05500000  0.46060000  0.80680000  1.0 0.6063225118
C  C28  1  0.05500000  0.53940000  0.19320000  1.0 0.6063225118
C  C29  1  0.97770000  0.79840000  0.46410000  1.0 0.0424705444
C  C30  1  0.97770000  0.20160000  0.53590000  1.0 0.0424705444
C  C31  1  0.02230000  0.29840000  0.03590000  1.0 0.0424705444
C  C32  1  0.02230000  0.70160000  0.96410000  1.0 0.0424705444
C  C33  1  0.84100000  0.82750000  0.48290000  1.0 -0.0480589319
C  C34  1  0.84100000  0.17250000  0.51710000  1.0 -0.0480589319
C  C35  1  0.15900000  0.32750000  0.01710000  1.0 -0.0480589319
C  C36  1  0.15900000  0.67250000  0.98290000  1.0 -0.0480589319
C  C37  1  0.72060000  0.85450000  0.45730000  1.0 -0.0206467986
C  C38  1  0.72060000  0.14550000  0.54270000  1.0 -0.0206467986
C  C39  1  0.27940000  0.35450000  0.04270000  1.0 -0.0206467986
C  C40  1  0.27940000  0.64550000  0.95730000  1.0 -0.0206467986
C  C41  1  0.73610000  0.85240000  0.41300000  1.0 0.0611572208
C  C42  1  0.73610000  0.14760000  0.58700000  1.0 0.0611572208
C  C43  1  0.26390000  0.35240000  0.08700000  1.0 0.0611572208
C  C44  1  0.26390000  0.64760000  0.91300000  1.0 0.0611572208
C  C45  1  0.87200000  0.82330000  0.39430000  1.0 -0.0097338988
C  C46  1  0.87200000  0.17670000  0.60570000  1.0 -0.0097338988
C  C47  1  0.12800000  0.32330000  0.10570000  1.0 -0.0097338988
C  C48  1  0.12800000  0.67670000  0.89430000  1.0 -0.0097338988
C  C49  1  0.99320000  0.79630000  0.41980000  1.0 -0.0206467986
C  C50  1  0.99320000  0.20370000  0.58020000  1.0 -0.0206467986
C  C51  1  0.00680000  0.29630000  0.08020000  1.0 -0.0206467986
C  C52  1  0.00680000  0.70370000  0.91980000  1.0 -0.0206467986
C  C53  1  0.59800000  0.87710000  0.38270000  1.0 0.0698185402
C  C54  1  0.59800000  0.12290000  0.61730000  1.0 0.0698185402
C  C55  1  0.40200000  0.37710000  0.11730000  1.0 0.0698185402
C  C56  1  0.40200000  0.62290000  0.88270000  1.0 0.0698185402
C  C57  1  0.41000000  0.87940000  0.39150000  1.0 -0.0707446461
C  C58  1  0.41000000  0.12060000  0.60850000  1.0 -0.0707446461
C  C59  1  0.59000000  0.37940000  0.10850000  1.0 -0.0707446461
C  C60  1  0.59000000  0.62060000  0.89150000  1.0 -0.0707446461
C  C61  1  0.28760000  0.89750000  0.36100000  1.0 0.0177682768
C  C62  1  0.28760000  0.10250000  0.63900000  1.0 0.0177682768
C  C63  1  0.71240000  0.39750000  0.13900000  1.0 0.0177682768
C  C64  1  0.71240000  0.60250000  0.86100000  1.0 0.0177682768
C  C65  1  0.35400000  0.91340000  0.32160000  1.0 -0.0806553798
C  C66  1  0.35400000  0.08660000  0.67840000  1.0 -0.0707446461
C  C67  1  0.64600000  0.41340000  0.17840000  1.0 -0.0707446461
C  C68  1  0.64600000  0.58660000  0.82160000  1.0 -0.0806553798
C  C69  1  0.54200000  0.91120000  0.31270000  1.0 0.0177682768
C  C70  1  0.54200000  0.08880000  0.68730000  1.0 0.0264850741
C  C71  1  0.45800000  0.41120000  0.18730000  1.0 0.0177682768
C  C72  1  0.45800000  0.58880000  0.81270000  1.0 0.0264850741
C  C73  1  0.66400000  0.89300000  0.34320000  1.0 -0.0097338988
C  C74  1  0.66400000  0.10700000  0.65680000  1.0 -0.0097338988
C  C75  1  0.33600000  0.39300000  0.15680000  1.0 -0.0097338988
C  C76  1  0.33600000  0.60700000  0.84320000  1.0 -0.0097338988
C  C77  1  0.21500000  0.92860000  0.29070000  1.0 0.5606585366
C  C78  1  0.21500000  0.07140000  0.70930000  1.0 0.5606585366
C  C79  1  0.78500000  0.42860000  0.20930000  1.0 0.5606585366
C  C80  1  0.78500000  0.57140000  0.79070000  1.0 0.5606585366
C  C81  1  0.97330000  0.73900000  0.52790000  1.0 0.046903553
C  C82  1  0.97330000  0.26100000  0.47210000  1.0 0.046903553
C  C83  1  0.02670000  0.23900000  0.97210000  1.0 0.046903553
C  C84  1  0.02670000  0.76100000  0.02790000  1.0 0.046903553
C  C85  1  0.00490000  0.73540000  0.57160000  1.0 -0.0206467986
C  C86  1  0.00490000  0.26460000  0.42840000  1.0 -0.0206467986
C  C87  1  0.99510000  0.23540000  0.92840000  1.0 -0.0206467986
C  C88  1  0.99510000  0.76460000  0.07160000  1.0 -0.0206467986
C  C89  1  0.89000000  0.70630000  0.59690000  1.0 -0.0206467986
C  C90  1  0.89000000  0.29370000  0.40310000  1.0 -0.0206467986
C  C91  1  0.11000000  0.20630000  0.90310000  1.0 -0.0206467986
C  C92  1  0.11000000  0.79370000  0.09690000  1.0 -0.0206467986
C  C93  1  0.74280000  0.68090000  0.57840000  1.0 0.0698185402
C  C94  1  0.74280000  0.31910000  0.42160000  1.0 0.0698185402
C  C95  1  0.25720000  0.18090000  0.92160000  1.0 0.0698185402
C  C96  1  0.25720000  0.81910000  0.07840000  1.0 0.0698185402
C  C97  1  0.71120000  0.68450000  0.53460000  1.0 -0.0301583106
C  C98  1  0.71120000  0.31550000  0.46540000  1.0 -0.0301583106
C  C99  1  0.28880000  0.18450000  0.96540000  1.0 -0.0301583106
C  C100  1  0.28880000  0.81550000  0.03460000  1.0 -0.0301583106
C  C101  1  0.82600000  0.71360000  0.50940000  1.0 -0.0480589319
C  C102  1  0.82600000  0.28640000  0.49060000  1.0 -0.0408099109
C  C103  1  0.17400000  0.21360000  0.99060000  1.0 -0.0480589319
C  C104  1  0.17400000  0.78640000  0.00940000  1.0 -0.0480589319
C  C105  1  0.09900000  0.77020000  0.49520000  1.0 0.0958656815
C  C106  1  0.09900000  0.22980000  0.50480000  1.0 0.0958656815
C  C107  1  0.90100000  0.27020000  0.00480000  1.0 0.0932909509
C  C108  1  0.90100000  0.72980000  0.99520000  1.0 0.0958656815
C  C109  1  0.23780000  0.80290000  0.52310000  1.0 0.046903553
C  C110  1  0.23780000  0.19710000  0.47690000  1.0 0.046903553
C  C111  1  0.76220000  0.30290000  0.97690000  1.0 0.046903553
C  C112  1  0.76220000  0.69710000  0.02310000  1.0 0.046903553
C  C113  1  0.21690000  0.85400000  0.52680000  1.0 -0.0301583106
C  C114  1  0.21690000  0.14600000  0.47320000  1.0 -0.0301583106
C  C115  1  0.78310000  0.35400000  0.97320000  1.0 -0.0301583106
C  C116  1  0.78310000  0.64600000  0.02680000  1.0 -0.0301583106
C  C117  1  0.33900000  0.88110000  0.55200000  1.0 -0.0097338988
C  C118  1  0.33900000  0.11890000  0.44800000  1.0 -0.0097338988
C  C119  1  0.66100000  0.38110000  0.94800000  1.0 -0.0097338988
C  C120  1  0.66100000  0.61890000  0.05200000  1.0 -0.0097338988
C  C121  1  0.48100000  0.85710000  0.57360000  1.0 0.0611572208
C  C122  1  0.48100000  0.14290000  0.42640000  1.0 0.0611572208
C  C123  1  0.51900000  0.35710000  0.92640000  1.0 0.0611572208
C  C124  1  0.51900000  0.64290000  0.07360000  1.0 0.0611572208
C  C125  1  0.50190000  0.80610000  0.56990000  1.0 -0.0206467986
C  C126  1  0.50190000  0.19390000  0.43010000  1.0 -0.0206467986
C  C127  1  0.49810000  0.30610000  0.93010000  1.0 -0.0206467986
C  C128  1  0.49810000  0.69390000  0.06990000  1.0 -0.0206467986
C  C129  1  0.38000000  0.77900000  0.54460000  1.0 -0.0408099109
C  C130  1  0.38000000  0.22100000  0.45540000  1.0 -0.0408099109
C  C131  1  0.62000000  0.27900000  0.95540000  1.0 -0.0408099109
C  C132  1  0.62000000  0.72100000  0.04460000  1.0 -0.0301583106
C  C133  1  0.27700000  0.56290000  0.68900000  1.0 0.594315849
C  C134  1  0.27700000  0.43710000  0.31100000  1.0 0.594315849
C  C135  1  0.72300000  0.06290000  0.81100000  1.0 0.594315849
C  C136  1  0.72300000  0.93710000  0.18900000  1.0 0.594315849
C  C137  1  0.23330000  0.73330000  0.47020000  1.0 0.0424705444
C  C138  1  0.23330000  0.26670000  0.52980000  1.0 0.0424705444
C  C139  1  0.76670000  0.23330000  0.02980000  1.0 0.046903553
C  C140  1  0.76670000  0.76670000  0.97020000  1.0 0.0424705444
C  C141  1  0.20850000  0.68220000  0.47070000  1.0 -0.0301583106
C  C142  1  0.20850000  0.31780000  0.52930000  1.0 -0.0301583106
C  C143  1  0.79150000  0.18220000  0.02930000  1.0 -0.0301583106
C  C144  1  0.79150000  0.81780000  0.97070000  1.0 -0.0301583106
C  C145  1  0.32800000  0.65180000  0.44770000  1.0 -0.0097338988
C  C146  1  0.32800000  0.34820000  0.55230000  1.0 -0.0097338988
C  C147  1  0.67200000  0.15180000  0.05230000  1.0 -0.0097338988
C  C148  1  0.67200000  0.84820000  0.94770000  1.0 -0.0097338988
C  C149  1  0.47180000  0.67250000  0.42430000  1.0 0.0611572208
C  C150  1  0.47180000  0.32750000  0.57570000  1.0 0.0611572208
C  C151  1  0.52820000  0.17250000  0.07570000  1.0 0.0611572208
C  C152  1  0.52820000  0.82750000  0.92430000  1.0 0.0611572208
C  C153  1  0.49660000  0.72360000  0.42380000  1.0 -0.0206467986
C  C154  1  0.49660000  0.27640000  0.57620000  1.0 -0.0206467986
C  C155  1  0.50340000  0.22360000  0.07620000  1.0 -0.0206467986
C  C156  1  0.50340000  0.77640000  0.92380000  1.0 -0.0206467986
C  C157  1  0.37700000  0.75400000  0.44680000  1.0 -0.0480589319
C  C158  1  0.37700000  0.24600000  0.55320000  1.0 -0.0480589319
C  C159  1  0.62300000  0.25400000  0.05320000  1.0 -0.0480589319
C  C160  1  0.62300000  0.74600000  0.94680000  1.0 -0.0480589319
C  C161  1  0.91240000  0.62480000  0.36970000  1.0 0.046903553
C  C162  1  0.91240000  0.37520000  0.63030000  1.0 0.046903553
C  C163  1  0.08760000  0.12480000  0.13030000  1.0 0.046903553
C  C164  1  0.08760000  0.87520000  0.86970000  1.0 0.046903553
C  C165  1  0.79600000  0.65460000  0.39400000  1.0 -0.0806553798
C  C166  1  0.79600000  0.34540000  0.60600000  1.0 -0.0859457331
C  C167  1  0.20400000  0.15460000  0.10600000  1.0 -0.0806553798
C  C168  1  0.20400000  0.84540000  0.89400000  1.0 -0.0806553798
C  C169  1  0.61300000  0.64050000  0.40070000  1.0 0.0611572208
C  C170  1  0.61300000  0.35950000  0.59930000  1.0 0.0611572208
C  C171  1  0.38700000  0.14050000  0.09930000  1.0 0.0611572208
C  C172  1  0.38700000  0.85950000  0.90070000  1.0 0.0611572208
C  C173  1  0.54710000  0.59670000  0.38300000  1.0 -0.0301583106
C  C174  1  0.54710000  0.40330000  0.61700000  1.0 -0.0301583106
C  C175  1  0.45290000  0.09670000  0.11700000  1.0 -0.0301583106
C  C176  1  0.45290000  0.90330000  0.88300000  1.0 -0.0301583106
C  C177  1  0.66400000  0.56690000  0.35870000  1.0 0.0177682768
C  C178  1  0.66400000  0.43310000  0.64130000  1.0 0.0177682768
C  C179  1  0.33600000  0.06690000  0.14130000  1.0 0.0177682768
C  C180  1  0.33600000  0.93310000  0.85870000  1.0 0.0177682768
C  C181  1  0.84600000  0.58100000  0.35200000  1.0 -0.0480589319
C  C182  1  0.84600000  0.41900000  0.64800000  1.0 -0.0480589319
C  C183  1  0.15400000  0.08100000  0.14800000  1.0 -0.0480589319
C  C184  1  0.15400000  0.91900000  0.85200000  1.0 -0.0480589319
C  C185  1  0.97900000  0.54340000  0.32320000  1.0 0.6063225118
C  C186  1  0.97900000  0.45660000  0.67680000  1.0 0.6063225118
C  C187  1  0.02100000  0.04340000  0.17680000  1.0 0.6063225118
C  C188  1  0.02100000  0.95660000  0.82320000  1.0 0.6063225118
C  C189  1  0.58800000  0.58600000  0.66170000  1.0 0.0756726635
C  C190  1  0.58800000  0.41400000  0.33830000  1.0 0.0698185402
C  C191  1  0.41200000  0.08600000  0.83830000  1.0 0.0698185402
C  C192  1  0.41200000  0.91400000  0.16170000  1.0 0.0698185402
C  C193  1  0.69510000  0.61390000  0.63370000  1.0 -0.0408099109
C  C194  1  0.69510000  0.38610000  0.36630000  1.0 -0.0408099109
C  C195  1  0.30490000  0.11390000  0.86630000  1.0 -0.0408099109
C  C196  1  0.30490000  0.88610000  0.13370000  1.0 -0.0480589319
C  C197  1  0.61100000  0.64700000  0.60580000  1.0 0.0958656815
C  C198  1  0.61100000  0.35300000  0.39420000  1.0 0.0932909509
C  C199  1  0.38900000  0.14700000  0.89420000  1.0 0.0932909509
C  C200  1  0.38900000  0.85300000  0.10580000  1.0 0.0932909509
C  C201  1  0.42000000  0.65230000  0.60580000  1.0 -0.0707446461
C  C202  1  0.42000000  0.34770000  0.39420000  1.0 -0.0707446461
C  C203  1  0.58000000  0.15230000  0.89420000  1.0 -0.0707446461
C  C204  1  0.58000000  0.84770000  0.10580000  1.0 -0.0707446461
C  C205  1  0.31260000  0.62430000  0.63370000  1.0 0.0070512197
C  C206  1  0.31260000  0.37570000  0.36630000  1.0 0.0070512197
C  C207  1  0.68740000  0.12430000  0.86630000  1.0 0.0070512197
C  C208  1  0.68740000  0.87570000  0.13370000  1.0 0.0070512197
C  C209  1  0.39700000  0.59120000  0.66170000  1.0 -0.1121501757
C  C210  1  0.39700000  0.40880000  0.33830000  1.0 -0.1121501757
C  C211  1  0.60300000  0.09120000  0.83830000  1.0 -0.1121501757
C  C212  1  0.60300000  0.90880000  0.16170000  1.0 -0.1121501757
O  O1  1  0.14000000  0.56510000  0.32040000  1.0 -0.6080347078
O  O2  1  0.14000000  0.43490000  0.67960000  1.0 -0.6080347078
O  O3  1  0.86000000  0.06510000  0.17960000  1.0 -0.6080347078
O  O4  1  0.86000000  0.93490000  0.82040000  1.0 -0.6080347078
O  O5  1  0.11300000  0.95320000  0.69350000  1.0 -0.402929731
O  O6  1  0.11300000  0.04680000  0.30650000  1.0 -0.402929731
O  O7  1  0.88700000  0.45320000  0.80650000  1.0 -0.402929731
O  O8  1  0.88700000  0.54680000  0.19350000  1.0 -0.402929731
O  O9  1  0.57300000  0.54080000  0.25010000  1.0 -0.1815925541
O  O10  1  0.57300000  0.45920000  0.74990000  1.0 -0.1815925541
O  O11  1  0.42700000  0.04080000  0.24990000  1.0 -0.1903256702
O  O12  1  0.42700000  0.95920000  0.75010000  1.0 -0.1903256702
O  O13  1  0.26700000  0.95090000  0.25880000  1.0 -0.4272581713
O  O14  1  0.26700000  0.04910000  0.74120000  1.0 -0.4272581713
O  O15  1  0.73300000  0.45090000  0.24120000  1.0 -0.4272581713
O  O16  1  0.73300000  0.54910000  0.75880000  1.0 -0.4272581713
O  O17  1  0.05100000  0.92110000  0.29670000  1.0 -0.4780742305
O  O18  1  0.05100000  0.07890000  0.70330000  1.0 -0.4780742305
O  O19  1  0.94900000  0.42110000  0.20330000  1.0 -0.4780742305
O  O20  1  0.94900000  0.57890000  0.79670000  1.0 -0.4780742305
O  O21  1  0.13800000  0.57470000  0.70180000  1.0 -0.4109693459
O  O22  1  0.13800000  0.42530000  0.29820000  1.0 -0.4109693459
O  O23  1  0.86200000  0.07470000  0.79820000  1.0 -0.4109693459
O  O24  1  0.86200000  0.92530000  0.20180000  1.0 -0.4109693459
O  O25  1  0.35600000  0.52100000  0.69910000  1.0 -0.5125081467
O  O26  1  0.35600000  0.47900000  0.30090000  1.0 -0.5125081467
O  O27  1  0.64400000  0.02100000  0.80090000  1.0 -0.5125081467
O  O28  1  0.64400000  0.97900000  0.19910000  1.0 -0.5125081467
O  O29  1  0.87250000  0.98310000  0.72490000  1.0 -0.5956068414
O  O30  1  0.87250000  0.01690000  0.27510000  1.0 -0.5956068414
O  O31  1  0.12750000  0.48310000  0.77510000  1.0 -0.5948503392
O  O32  1  0.12750000  0.51690000  0.22490000  1.0 -0.5948503392
O  O33  1  0.90400000  0.51350000  0.30590000  1.0 -0.4109693459
O  O34  1  0.90400000  0.48650000  0.69410000  1.0 -0.4164784925
O  O35  1  0.09600000  0.01350000  0.19410000  1.0 -0.4109693459
O  O36  1  0.09600000  0.98650000  0.80590000  1.0 -0.4109693459
