# DDEC6 charges by PACMAN v1.1 (https://github.com/mtap-research/PACMAN-charge/)
data_MAVRAE_ASR_pacman
_symmetry_space_group_name_H-M   'P 1'
_cell_length_a   18.70100000
_cell_length_b   18.70100000
_cell_length_c   49.75400000
_cell_angle_alpha   90.00000000
_cell_angle_beta   90.00000000
_cell_angle_gamma   120.00000000
_symmetry_Int_Tables_number   1
_chemical_formula_structural   Cu3H32C32(NO9)2
_chemical_formula_sum   'Cu18 H192 C192 N12 O108'
_cell_volume   15069.13397111
_cell_formula_units_Z   6
loop_
 _symmetry_equiv_pos_site_id
 _symmetry_equiv_pos_as_xyz
  1  'x, y, z'
loop_
 _atom_site_type_symbol
 _atom_site_label
 _atom_site_symmetry_multiplicity
 _atom_site_fract_x
 _atom_site_fract_y
 _atom_site_fract_z
 _atom_site_occupancy
 _atom_site_charge
Cu  Cu1  1  0.06079000  0.12158000  0.25000000  1.0 0.7678101521
Cu  Cu2  1  0.93921000  0.06079000  0.75000000  1.0 0.7678101521
Cu  Cu3  1  0.87842000  0.93921000  0.25000000  1.0 0.7678101521
Cu  Cu4  1  0.93921000  0.87842000  0.75000000  1.0 0.7678101521
Cu  Cu5  1  0.06079000  0.93921000  0.25000000  1.0 0.7678101521
Cu  Cu6  1  0.12158000  0.06079000  0.75000000  1.0 0.7678101521
Cu  Cu7  1  0.05041000  0.52521000  0.47845000  1.0 0.7678101521
Cu  Cu8  1  0.52521000  0.05041000  0.97845000  1.0 0.7678101521
Cu  Cu9  1  0.47479000  0.52521000  0.47845000  1.0 0.7678101521
Cu  Cu10  1  0.94959000  0.47479000  0.97845000  1.0 0.7678101521
Cu  Cu11  1  0.47479000  0.94959000  0.47845000  1.0 0.7678101521
Cu  Cu12  1  0.52521000  0.47479000  0.97845000  1.0 0.7678101521
Cu  Cu13  1  0.47479000  0.94959000  0.02155000  1.0 0.7678101521
Cu  Cu14  1  0.52521000  0.47479000  0.52155000  1.0 0.7678101521
Cu  Cu15  1  0.05041000  0.52521000  0.02155000  1.0 0.7678101521
Cu  Cu16  1  0.52521000  0.05041000  0.52155000  1.0 0.7678101521
Cu  Cu17  1  0.47479000  0.52521000  0.02155000  1.0 0.7678101521
Cu  Cu18  1  0.94959000  0.47479000  0.52155000  1.0 0.7678101521
H  H1  1  0.02080000  0.19470000  0.32300000  1.0 0.1093036893
H  H2  1  0.82610000  0.02080000  0.82300000  1.0 0.1093036893
H  H3  1  0.80530000  0.82610000  0.32300000  1.0 0.1093036893
H  H4  1  0.97920000  0.80530000  0.82300000  1.0 0.1093036893
H  H5  1  0.17390000  0.97920000  0.32300000  1.0 0.1093036893
H  H6  1  0.19470000  0.17390000  0.82300000  1.0 0.1093036893
H  H7  1  0.80530000  0.97920000  0.17700000  1.0 0.1093036893
H  H8  1  0.82610000  0.80530000  0.67700000  1.0 0.1093036893
H  H9  1  0.02080000  0.82610000  0.17700000  1.0 0.1093036893
H  H10  1  0.19470000  0.02080000  0.67700000  1.0 0.1093036893
H  H11  1  0.17390000  0.19470000  0.17700000  1.0 0.1093036893
H  H12  1  0.97920000  0.17390000  0.67700000  1.0 0.1093036893
H  H13  1  0.97920000  0.80530000  0.67700000  1.0 0.1093036893
H  H14  1  0.17390000  0.97920000  0.17700000  1.0 0.1093036893
H  H15  1  0.19470000  0.17390000  0.67700000  1.0 0.1093036893
H  H16  1  0.02080000  0.19470000  0.17700000  1.0 0.1093036893
H  H17  1  0.82610000  0.02080000  0.67700000  1.0 0.1093036893
H  H18  1  0.80530000  0.82610000  0.17700000  1.0 0.1093036893
H  H19  1  0.19470000  0.02080000  0.82300000  1.0 0.1093036893
H  H20  1  0.17390000  0.19470000  0.32300000  1.0 0.1093036893
H  H21  1  0.97920000  0.17390000  0.82300000  1.0 0.1093036893
H  H22  1  0.80530000  0.97920000  0.32300000  1.0 0.1093036893
H  H23  1  0.82610000  0.80530000  0.82300000  1.0 0.1093036893
H  H24  1  0.02080000  0.82610000  0.32300000  1.0 0.1093036893
H  H25  1  0.99260000  0.22240000  0.36620000  1.0 0.1165516855
H  H26  1  0.77020000  0.99260000  0.86620000  1.0 0.1165516855
H  H27  1  0.77760000  0.77020000  0.36620000  1.0 0.1165516855
H  H28  1  0.00740000  0.77760000  0.86620000  1.0 0.1165516855
H  H29  1  0.22980000  0.00740000  0.36620000  1.0 0.1165516855
H  H30  1  0.22240000  0.22980000  0.86620000  1.0 0.1165516855
H  H31  1  0.77760000  0.00740000  0.13380000  1.0 0.1165516855
H  H32  1  0.77020000  0.77760000  0.63380000  1.0 0.1165516855
H  H33  1  0.99260000  0.77020000  0.13380000  1.0 0.1165516855
H  H34  1  0.22240000  0.99260000  0.63380000  1.0 0.1165516855
H  H35  1  0.22980000  0.22240000  0.13380000  1.0 0.1165516855
H  H36  1  0.00740000  0.22980000  0.63380000  1.0 0.1165516855
H  H37  1  0.00740000  0.77760000  0.63380000  1.0 0.1165516855
H  H38  1  0.22980000  0.00740000  0.13380000  1.0 0.1165516855
H  H39  1  0.22240000  0.22980000  0.63380000  1.0 0.1165516855
H  H40  1  0.99260000  0.22240000  0.13380000  1.0 0.1165516855
H  H41  1  0.77020000  0.99260000  0.63380000  1.0 0.1165516855
H  H42  1  0.77760000  0.77020000  0.13380000  1.0 0.1165516855
H  H43  1  0.22240000  0.99260000  0.86620000  1.0 0.1165516855
H  H44  1  0.22980000  0.22240000  0.36620000  1.0 0.1165516855
H  H45  1  0.00740000  0.22980000  0.86620000  1.0 0.1165516855
H  H46  1  0.77760000  0.00740000  0.36620000  1.0 0.1165516855
H  H47  1  0.77020000  0.77760000  0.86620000  1.0 0.1165516855
H  H48  1  0.99260000  0.77020000  0.36620000  1.0 0.1165516855
H  H49  1  0.90390000  0.31280000  0.43040000  1.0 0.1342990641
H  H50  1  0.59110000  0.90390000  0.93040000  1.0 0.1342990641
H  H51  1  0.68720000  0.59110000  0.43040000  1.0 0.1342990641
H  H52  1  0.09610000  0.68720000  0.93040000  1.0 0.1342990641
H  H53  1  0.40890000  0.09610000  0.43040000  1.0 0.1342990641
H  H54  1  0.31280000  0.40890000  0.93040000  1.0 0.1342990641
H  H55  1  0.68720000  0.09610000  0.06960000  1.0 0.1342990641
H  H56  1  0.59110000  0.68720000  0.56960000  1.0 0.1342990641
H  H57  1  0.90390000  0.59110000  0.06960000  1.0 0.1342990641
H  H58  1  0.31280000  0.90390000  0.56960000  1.0 0.1342990641
H  H59  1  0.40890000  0.31280000  0.06960000  1.0 0.1342990641
H  H60  1  0.09610000  0.40890000  0.56960000  1.0 0.1342990641
H  H61  1  0.09610000  0.68720000  0.56960000  1.0 0.1342990641
H  H62  1  0.40890000  0.09610000  0.06960000  1.0 0.1342990641
H  H63  1  0.31280000  0.40890000  0.56960000  1.0 0.1342990641
H  H64  1  0.90390000  0.31280000  0.06960000  1.0 0.1342990641
H  H65  1  0.59110000  0.90390000  0.56960000  1.0 0.1342990641
H  H66  1  0.68720000  0.59110000  0.06960000  1.0 0.1342990641
H  H67  1  0.31280000  0.90390000  0.93040000  1.0 0.1342990641
H  H68  1  0.40890000  0.31280000  0.43040000  1.0 0.1342990641
H  H69  1  0.09610000  0.40890000  0.93040000  1.0 0.1342990641
H  H70  1  0.68720000  0.09610000  0.43040000  1.0 0.1342990641
H  H71  1  0.59110000  0.68720000  0.93040000  1.0 0.1342990641
H  H72  1  0.90390000  0.59110000  0.43040000  1.0 0.1342990641
H  H73  1  0.75535000  0.24465000  0.49630000  1.0 0.1694407073
H  H74  1  0.51070000  0.75535000  0.99630000  1.0 0.1694407073
H  H75  1  0.75535000  0.51070000  0.49630000  1.0 0.1694407073
H  H76  1  0.24465000  0.75535000  0.99630000  1.0 0.1694407073
H  H77  1  0.48930000  0.24465000  0.49630000  1.0 0.1694407073
H  H78  1  0.24465000  0.48930000  0.99630000  1.0 0.1694407073
H  H79  1  0.75535000  0.24465000  0.00370000  1.0 0.1694407073
H  H80  1  0.51070000  0.75535000  0.50370000  1.0 0.1694407073
H  H81  1  0.75535000  0.51070000  0.00370000  1.0 0.1694407073
H  H82  1  0.24465000  0.75535000  0.50370000  1.0 0.1694407073
H  H83  1  0.48930000  0.24465000  0.00370000  1.0 0.1694407073
H  H84  1  0.24465000  0.48930000  0.50370000  1.0 0.1694407073
H  H85  1  0.80035000  0.19965000  0.38580000  1.0 0.2638258332
H  H86  1  0.60070000  0.80035000  0.88580000  1.0 0.2638258332
H  H87  1  0.80035000  0.60070000  0.38580000  1.0 0.2638258332
H  H88  1  0.19965000  0.80035000  0.88580000  1.0 0.2638258332
H  H89  1  0.39930000  0.19965000  0.38580000  1.0 0.2638258332
H  H90  1  0.19965000  0.39930000  0.88580000  1.0 0.2638258332
H  H91  1  0.80035000  0.19965000  0.11420000  1.0 0.2638258332
H  H92  1  0.60070000  0.80035000  0.61420000  1.0 0.2638258332
H  H93  1  0.80035000  0.60070000  0.11420000  1.0 0.2638258332
H  H94  1  0.19965000  0.80035000  0.61420000  1.0 0.2638258332
H  H95  1  0.39930000  0.19965000  0.11420000  1.0 0.2638258332
H  H96  1  0.19965000  0.39930000  0.61420000  1.0 0.2638258332
H  H97  1  0.17330000  0.57230000  0.44230000  1.0 0.1635565386
H  H98  1  0.60100000  0.17330000  0.94230000  1.0 0.1635565386
H  H99  1  0.42770000  0.60100000  0.44230000  1.0 0.1635565386
H  H100  1  0.82670000  0.42770000  0.94230000  1.0 0.1635565386
H  H101  1  0.39900000  0.82670000  0.44230000  1.0 0.1635565386
H  H102  1  0.57230000  0.39900000  0.94230000  1.0 0.1635565386
H  H103  1  0.42770000  0.82670000  0.05770000  1.0 0.1635565386
H  H104  1  0.60100000  0.42770000  0.55770000  1.0 0.1635565386
H  H105  1  0.17330000  0.60100000  0.05770000  1.0 0.1635565386
H  H106  1  0.57230000  0.17330000  0.55770000  1.0 0.1635565386
H  H107  1  0.39900000  0.57230000  0.05770000  1.0 0.1635565386
H  H108  1  0.82670000  0.39900000  0.55770000  1.0 0.1635565386
H  H109  1  0.82670000  0.42770000  0.55770000  1.0 0.1635565386
H  H110  1  0.39900000  0.82670000  0.05770000  1.0 0.1635565386
H  H111  1  0.57230000  0.39900000  0.55770000  1.0 0.1635565386
H  H112  1  0.17330000  0.57230000  0.05770000  1.0 0.1635565386
H  H113  1  0.60100000  0.17330000  0.55770000  1.0 0.1635565386
H  H114  1  0.42770000  0.60100000  0.05770000  1.0 0.1635565386
H  H115  1  0.57230000  0.17330000  0.94230000  1.0 0.1635565386
H  H116  1  0.39900000  0.57230000  0.44230000  1.0 0.1635565386
H  H117  1  0.82670000  0.39900000  0.94230000  1.0 0.1635565386
H  H118  1  0.42770000  0.82670000  0.44230000  1.0 0.1635565386
H  H119  1  0.60100000  0.42770000  0.94230000  1.0 0.1635565386
H  H120  1  0.17330000  0.60100000  0.44230000  1.0 0.1635565386
H  H121  1  0.12200000  0.61260000  0.43240000  1.0 0.1821023704
H  H122  1  0.50940000  0.12200000  0.93240000  1.0 0.1821023704
H  H123  1  0.38740000  0.50940000  0.43240000  1.0 0.1821023704
H  H124  1  0.87800000  0.38740000  0.93240000  1.0 0.1821023704
H  H125  1  0.49060000  0.87800000  0.43240000  1.0 0.1821023704
H  H126  1  0.61260000  0.49060000  0.93240000  1.0 0.1821023704
H  H127  1  0.38740000  0.87800000  0.06760000  1.0 0.1821023704
H  H128  1  0.50940000  0.38740000  0.56760000  1.0 0.1821023704
H  H129  1  0.12200000  0.50940000  0.06760000  1.0 0.1821023704
H  H130  1  0.61260000  0.12200000  0.56760000  1.0 0.1821023704
H  H131  1  0.49060000  0.61260000  0.06760000  1.0 0.1821023704
H  H132  1  0.87800000  0.49060000  0.56760000  1.0 0.1821023704
H  H133  1  0.87800000  0.38740000  0.56760000  1.0 0.1821023704
H  H134  1  0.49060000  0.87800000  0.06760000  1.0 0.1821023704
H  H135  1  0.61260000  0.49060000  0.56760000  1.0 0.1821023704
H  H136  1  0.12200000  0.61260000  0.06760000  1.0 0.1821023704
H  H137  1  0.50940000  0.12200000  0.56760000  1.0 0.1821023704
H  H138  1  0.38740000  0.50940000  0.06760000  1.0 0.1821023704
H  H139  1  0.61260000  0.12200000  0.93240000  1.0 0.1821023704
H  H140  1  0.49060000  0.61260000  0.43240000  1.0 0.1821023704
H  H141  1  0.87800000  0.49060000  0.93240000  1.0 0.1821023704
H  H142  1  0.38740000  0.87800000  0.43240000  1.0 0.1821023704
H  H143  1  0.50940000  0.38740000  0.93240000  1.0 0.1821023704
H  H144  1  0.12200000  0.50940000  0.43240000  1.0 0.1821023704
H  H145  1  0.91570000  0.44380000  0.92990000  1.0 0.1510978621
H  H146  1  0.47190000  0.91570000  0.42990000  1.0 0.1510978621
H  H147  1  0.55620000  0.47190000  0.92990000  1.0 0.1510978621
H  H148  1  0.08430000  0.55620000  0.42990000  1.0 0.1510978621
H  H149  1  0.52810000  0.08430000  0.92990000  1.0 0.1510978621
H  H150  1  0.44380000  0.52810000  0.42990000  1.0 0.1510978621
H  H151  1  0.55620000  0.08430000  0.57010000  1.0 0.1510978621
H  H152  1  0.47190000  0.55620000  0.07010000  1.0 0.1510978621
H  H153  1  0.91570000  0.47190000  0.57010000  1.0 0.1510978621
H  H154  1  0.44380000  0.91570000  0.07010000  1.0 0.1510978621
H  H155  1  0.52810000  0.44380000  0.57010000  1.0 0.1510978621
H  H156  1  0.08430000  0.52810000  0.07010000  1.0 0.1510978621
H  H157  1  0.08430000  0.55620000  0.07010000  1.0 0.1510978621
H  H158  1  0.52810000  0.08430000  0.57010000  1.0 0.1510978621
H  H159  1  0.44380000  0.52810000  0.07010000  1.0 0.1510978621
H  H160  1  0.91570000  0.44380000  0.57010000  1.0 0.1510978621
H  H161  1  0.47190000  0.91570000  0.07010000  1.0 0.1510978621
H  H162  1  0.55620000  0.47190000  0.57010000  1.0 0.1510978621
H  H163  1  0.44380000  0.91570000  0.42990000  1.0 0.1510978621
H  H164  1  0.52810000  0.44380000  0.92990000  1.0 0.1510978621
H  H165  1  0.08430000  0.52810000  0.42990000  1.0 0.1510978621
H  H166  1  0.55620000  0.08430000  0.92990000  1.0 0.1510978621
H  H167  1  0.47190000  0.55620000  0.42990000  1.0 0.1510978621
H  H168  1  0.91570000  0.47190000  0.92990000  1.0 0.1510978621
H  H169  1  0.86440000  0.38020000  0.93980000  1.0 0.2019025529
H  H170  1  0.48420000  0.86440000  0.43980000  1.0 0.2019025529
H  H171  1  0.61980000  0.48420000  0.93980000  1.0 0.2019025529
H  H172  1  0.13560000  0.61980000  0.43980000  1.0 0.2019025529
H  H173  1  0.51580000  0.13560000  0.93980000  1.0 0.2019025529
H  H174  1  0.38020000  0.51580000  0.43980000  1.0 0.2019025529
H  H175  1  0.61980000  0.13560000  0.56020000  1.0 0.2019025529
H  H176  1  0.48420000  0.61980000  0.06020000  1.0 0.2019025529
H  H177  1  0.86440000  0.48420000  0.56020000  1.0 0.2019025529
H  H178  1  0.38020000  0.86440000  0.06020000  1.0 0.2019025529
H  H179  1  0.51580000  0.38020000  0.56020000  1.0 0.2019025529
H  H180  1  0.13560000  0.51580000  0.06020000  1.0 0.2019025529
H  H181  1  0.13560000  0.61980000  0.06020000  1.0 0.2019025529
H  H182  1  0.51580000  0.13560000  0.56020000  1.0 0.2019025529
H  H183  1  0.38020000  0.51580000  0.06020000  1.0 0.2019025529
H  H184  1  0.86440000  0.38020000  0.56020000  1.0 0.2019025529
H  H185  1  0.48420000  0.86440000  0.06020000  1.0 0.2019025529
H  H186  1  0.61980000  0.48420000  0.56020000  1.0 0.2019025529
H  H187  1  0.38020000  0.86440000  0.43980000  1.0 0.2019025529
H  H188  1  0.51580000  0.38020000  0.93980000  1.0 0.2019025529
H  H189  1  0.13560000  0.51580000  0.43980000  1.0 0.2019025529
H  H190  1  0.61980000  0.13560000  0.93980000  1.0 0.2019025529
H  H191  1  0.48420000  0.61980000  0.43980000  1.0 0.2019025529
H  H192  1  0.86440000  0.48420000  0.93980000  1.0 0.2019025529
C  C1  1  0.92970000  0.07030000  0.29158000  1.0 0.5641443873
C  C2  1  0.85940000  0.92970000  0.79158000  1.0 0.5641443873
C  C3  1  0.92970000  0.85940000  0.29158000  1.0 0.5641443873
C  C4  1  0.07030000  0.92970000  0.79158000  1.0 0.5641443873
C  C5  1  0.14060000  0.07030000  0.29158000  1.0 0.5641443873
C  C6  1  0.07030000  0.14060000  0.79158000  1.0 0.5641443873
C  C7  1  0.92970000  0.07030000  0.20842000  1.0 0.5641443873
C  C8  1  0.85940000  0.92970000  0.70842000  1.0 0.5641443873
C  C9  1  0.92970000  0.85940000  0.20842000  1.0 0.5641443873
C  C10  1  0.07030000  0.92970000  0.70842000  1.0 0.5641443873
C  C11  1  0.14060000  0.07030000  0.20842000  1.0 0.5641443873
C  C12  1  0.07030000  0.14060000  0.70842000  1.0 0.5641443873
C  C13  1  0.91300000  0.08700000  0.31778000  1.0 -0.1181088617
C  C14  1  0.82600000  0.91300000  0.81778000  1.0 -0.1181088617
C  C15  1  0.91300000  0.82600000  0.31778000  1.0 -0.1181088617
C  C16  1  0.08700000  0.91300000  0.81778000  1.0 -0.1181088617
C  C17  1  0.17400000  0.08700000  0.31778000  1.0 -0.1181088617
C  C18  1  0.08700000  0.17400000  0.81778000  1.0 -0.1181088617
C  C19  1  0.91300000  0.08700000  0.18222000  1.0 -0.1181088617
C  C20  1  0.82600000  0.91300000  0.68222000  1.0 -0.1181088617
C  C21  1  0.91300000  0.82600000  0.18222000  1.0 -0.1181088617
C  C22  1  0.08700000  0.91300000  0.68222000  1.0 -0.1181088617
C  C23  1  0.17400000  0.08700000  0.18222000  1.0 -0.1181088617
C  C24  1  0.08700000  0.17400000  0.68222000  1.0 -0.1181088617
C  C25  1  0.97096000  0.15851000  0.33125000  1.0 -0.0887280395
C  C26  1  0.81245000  0.97096000  0.83125000  1.0 -0.0887280395
C  C27  1  0.84149000  0.81245000  0.33125000  1.0 -0.0887280395
C  C28  1  0.02904000  0.84149000  0.83125000  1.0 -0.0887280395
C  C29  1  0.18755000  0.02904000  0.33125000  1.0 -0.0887280395
C  C30  1  0.15851000  0.18755000  0.83125000  1.0 -0.0887280395
C  C31  1  0.84149000  0.02904000  0.16875000  1.0 -0.0887280395
C  C32  1  0.81245000  0.84149000  0.66875000  1.0 -0.0887280395
C  C33  1  0.97096000  0.81245000  0.16875000  1.0 -0.0887280395
C  C34  1  0.15851000  0.97096000  0.66875000  1.0 -0.0887280395
C  C35  1  0.18755000  0.15851000  0.16875000  1.0 -0.0887280395
C  C36  1  0.02904000  0.18755000  0.66875000  1.0 -0.0887280395
C  C37  1  0.02904000  0.84149000  0.66875000  1.0 -0.0887280395
C  C38  1  0.18755000  0.02904000  0.16875000  1.0 -0.0887280395
C  C39  1  0.15851000  0.18755000  0.66875000  1.0 -0.0887280395
C  C40  1  0.97096000  0.15851000  0.16875000  1.0 -0.0887280395
C  C41  1  0.81245000  0.97096000  0.66875000  1.0 -0.0887280395
C  C42  1  0.84149000  0.81245000  0.16875000  1.0 -0.0887280395
C  C43  1  0.15851000  0.97096000  0.83125000  1.0 -0.0887280395
C  C44  1  0.18755000  0.15851000  0.33125000  1.0 -0.0887280395
C  C45  1  0.02904000  0.18755000  0.83125000  1.0 -0.0887280395
C  C46  1  0.84149000  0.02904000  0.33125000  1.0 -0.0887280395
C  C47  1  0.81245000  0.84149000  0.83125000  1.0 -0.0887280395
C  C48  1  0.97096000  0.81245000  0.33125000  1.0 -0.0887280395
C  C49  1  0.95392000  0.17551000  0.35705000  1.0 -0.137652055
C  C50  1  0.77841000  0.95392000  0.85705000  1.0 -0.137652055
C  C51  1  0.82449000  0.77841000  0.35705000  1.0 -0.137652055
C  C52  1  0.04608000  0.82449000  0.85705000  1.0 -0.137652055
C  C53  1  0.22159000  0.04608000  0.35705000  1.0 -0.137652055
C  C54  1  0.17551000  0.22159000  0.85705000  1.0 -0.137652055
C  C55  1  0.82449000  0.04608000  0.14295000  1.0 -0.137652055
C  C56  1  0.77841000  0.82449000  0.64295000  1.0 -0.137652055
C  C57  1  0.95392000  0.77841000  0.14295000  1.0 -0.137652055
C  C58  1  0.17551000  0.95392000  0.64295000  1.0 -0.137652055
C  C59  1  0.22159000  0.17551000  0.14295000  1.0 -0.137652055
C  C60  1  0.04608000  0.22159000  0.64295000  1.0 -0.137652055
C  C61  1  0.04608000  0.82449000  0.64295000  1.0 -0.137652055
C  C62  1  0.22159000  0.04608000  0.14295000  1.0 -0.137652055
C  C63  1  0.17551000  0.22159000  0.64295000  1.0 -0.137652055
C  C64  1  0.95392000  0.17551000  0.14295000  1.0 -0.137652055
C  C65  1  0.77841000  0.95392000  0.64295000  1.0 -0.137652055
C  C66  1  0.82449000  0.77841000  0.14295000  1.0 -0.137652055
C  C67  1  0.17551000  0.95392000  0.85705000  1.0 -0.137652055
C  C68  1  0.22159000  0.17551000  0.35705000  1.0 -0.137652055
C  C69  1  0.04608000  0.22159000  0.85705000  1.0 -0.137652055
C  C70  1  0.82449000  0.04608000  0.35705000  1.0 -0.137652055
C  C71  1  0.77841000  0.82449000  0.85705000  1.0 -0.137652055
C  C72  1  0.95392000  0.77841000  0.35705000  1.0 -0.137652055
C  C73  1  0.87850000  0.12150000  0.36889000  1.0 -0.0384978876
C  C74  1  0.75700000  0.87850000  0.86889000  1.0 -0.0384978876
C  C75  1  0.87850000  0.75700000  0.36889000  1.0 -0.0384978876
C  C76  1  0.12150000  0.87850000  0.86889000  1.0 -0.0384978876
C  C77  1  0.24300000  0.12150000  0.36889000  1.0 -0.0384978876
C  C78  1  0.12150000  0.24300000  0.86889000  1.0 -0.0384978876
C  C79  1  0.87850000  0.12150000  0.13111000  1.0 -0.0384978876
C  C80  1  0.75700000  0.87850000  0.63111000  1.0 -0.0384978876
C  C81  1  0.87850000  0.75700000  0.13111000  1.0 -0.0384978876
C  C82  1  0.12150000  0.87850000  0.63111000  1.0 -0.0384978876
C  C83  1  0.24300000  0.12150000  0.13111000  1.0 -0.0384978876
C  C84  1  0.12150000  0.24300000  0.63111000  1.0 -0.0384978876
C  C85  1  0.86070000  0.13930000  0.39592000  1.0 0.410071057
C  C86  1  0.72140000  0.86070000  0.89592000  1.0 0.410071057
C  C87  1  0.86070000  0.72140000  0.39592000  1.0 0.410071057
C  C88  1  0.13930000  0.86070000  0.89592000  1.0 0.410071057
C  C89  1  0.27860000  0.13930000  0.39592000  1.0 0.410071057
C  C90  1  0.13930000  0.27860000  0.89592000  1.0 0.410071057
C  C91  1  0.86070000  0.13930000  0.10408000  1.0 0.410071057
C  C92  1  0.72140000  0.86070000  0.60408000  1.0 0.410071057
C  C93  1  0.86070000  0.72140000  0.10408000  1.0 0.410071057
C  C94  1  0.13930000  0.86070000  0.60408000  1.0 0.410071057
C  C95  1  0.27860000  0.13930000  0.10408000  1.0 0.410071057
C  C96  1  0.13930000  0.27860000  0.60408000  1.0 0.410071057
C  C97  1  0.79990000  0.20010000  0.42635000  1.0 0.224829256
C  C98  1  0.59980000  0.79990000  0.92635000  1.0 0.224829256
C  C99  1  0.79990000  0.59980000  0.42635000  1.0 0.224829256
C  C100  1  0.20010000  0.79990000  0.92635000  1.0 0.224829256
C  C101  1  0.40020000  0.20010000  0.42635000  1.0 0.224829256
C  C102  1  0.20010000  0.40020000  0.92635000  1.0 0.224829256
C  C103  1  0.79990000  0.20010000  0.07365000  1.0 0.224829256
C  C104  1  0.59980000  0.79990000  0.57365000  1.0 0.224829256
C  C105  1  0.79990000  0.59980000  0.07365000  1.0 0.224829256
C  C106  1  0.20010000  0.79990000  0.57365000  1.0 0.224829256
C  C107  1  0.40020000  0.20010000  0.07365000  1.0 0.224829256
C  C108  1  0.20010000  0.40020000  0.57365000  1.0 0.224829256
C  C109  1  0.85568000  0.27419000  0.43891000  1.0 -0.1927562635
C  C110  1  0.58149000  0.85568000  0.93891000  1.0 -0.1927562635
C  C111  1  0.72581000  0.58149000  0.43891000  1.0 -0.1927562635
C  C112  1  0.14432000  0.72581000  0.93891000  1.0 -0.1927562635
C  C113  1  0.41851000  0.14432000  0.43891000  1.0 -0.1927562635
C  C114  1  0.27419000  0.41851000  0.93891000  1.0 -0.1927562635
C  C115  1  0.72581000  0.14432000  0.06109000  1.0 -0.1927562635
C  C116  1  0.58149000  0.72581000  0.56109000  1.0 -0.1927562635
C  C117  1  0.85568000  0.58149000  0.06109000  1.0 -0.1927562635
C  C118  1  0.27419000  0.85568000  0.56109000  1.0 -0.1927562635
C  C119  1  0.41851000  0.27419000  0.06109000  1.0 -0.1927562635
C  C120  1  0.14432000  0.41851000  0.56109000  1.0 -0.1927562635
C  C121  1  0.14432000  0.72581000  0.56109000  1.0 -0.1927562635
C  C122  1  0.41851000  0.14432000  0.06109000  1.0 -0.1927562635
C  C123  1  0.27419000  0.41851000  0.56109000  1.0 -0.1927562635
C  C124  1  0.85568000  0.27419000  0.06109000  1.0 -0.1927562635
C  C125  1  0.58149000  0.85568000  0.56109000  1.0 -0.1927562635
C  C126  1  0.72581000  0.58149000  0.06109000  1.0 -0.1927562635
C  C127  1  0.27419000  0.85568000  0.93891000  1.0 -0.1927562635
C  C128  1  0.41851000  0.27419000  0.43891000  1.0 -0.1927562635
C  C129  1  0.14432000  0.41851000  0.93891000  1.0 -0.1927562635
C  C130  1  0.72581000  0.14432000  0.43891000  1.0 -0.1927562635
C  C131  1  0.58149000  0.72581000  0.93891000  1.0 -0.1927562635
C  C132  1  0.85568000  0.58149000  0.43891000  1.0 -0.1927562635
C  C133  1  0.83622000  0.28801000  0.46484000  1.0 -0.0340264557
C  C134  1  0.54821000  0.83622000  0.96484000  1.0 -0.0340264557
C  C135  1  0.71199000  0.54821000  0.46484000  1.0 -0.0384978876
C  C136  1  0.16378000  0.71199000  0.96484000  1.0 -0.0340264557
C  C137  1  0.45179000  0.16378000  0.46484000  1.0 -0.0340264557
C  C138  1  0.28801000  0.45179000  0.96484000  1.0 -0.0340264557
C  C139  1  0.71199000  0.16378000  0.03516000  1.0 -0.0340264557
C  C140  1  0.54821000  0.71199000  0.53516000  1.0 -0.0340264557
C  C141  1  0.83622000  0.54821000  0.03516000  1.0 -0.0340264557
C  C142  1  0.28801000  0.83622000  0.53516000  1.0 -0.0340264557
C  C143  1  0.45179000  0.28801000  0.03516000  1.0 -0.0340264557
C  C144  1  0.16378000  0.45179000  0.53516000  1.0 -0.0340264557
C  C145  1  0.16378000  0.71199000  0.53516000  1.0 -0.0340264557
C  C146  1  0.45179000  0.16378000  0.03516000  1.0 -0.0340264557
C  C147  1  0.28801000  0.45179000  0.53516000  1.0 -0.0340264557
C  C148  1  0.83622000  0.28801000  0.03516000  1.0 -0.0340264557
C  C149  1  0.54821000  0.83622000  0.53516000  1.0 -0.0340264557
C  C150  1  0.71199000  0.54821000  0.03516000  1.0 -0.0340264557
C  C151  1  0.28801000  0.83622000  0.96484000  1.0 -0.0340264557
C  C152  1  0.45179000  0.28801000  0.46484000  1.0 -0.0340264557
C  C153  1  0.16378000  0.45179000  0.96484000  1.0 -0.0340264557
C  C154  1  0.71199000  0.16378000  0.46484000  1.0 -0.0340264557
C  C155  1  0.54821000  0.71199000  0.96484000  1.0 -0.0340264557
C  C156  1  0.83622000  0.54821000  0.46484000  1.0 -0.0384978876
C  C157  1  0.76575000  0.23425000  0.47892000  1.0 -0.0516787984
C  C158  1  0.53150000  0.76575000  0.97892000  1.0 -0.0516787984
C  C159  1  0.76575000  0.53150000  0.47892000  1.0 -0.0516787984
C  C160  1  0.23425000  0.76575000  0.97892000  1.0 -0.0516787984
C  C161  1  0.46850000  0.23425000  0.47892000  1.0 -0.0516787984
C  C162  1  0.23425000  0.46850000  0.97892000  1.0 -0.0516787984
C  C163  1  0.76575000  0.23425000  0.02108000  1.0 -0.0516787984
C  C164  1  0.53150000  0.76575000  0.52108000  1.0 -0.0516787984
C  C165  1  0.76575000  0.53150000  0.02108000  1.0 -0.0516787984
C  C166  1  0.23425000  0.76575000  0.52108000  1.0 -0.0516787984
C  C167  1  0.46850000  0.23425000  0.02108000  1.0 -0.0516787984
C  C168  1  0.23425000  0.46850000  0.52108000  1.0 -0.0516787984
C  C169  1  0.88909000  0.36064000  0.47811000  1.0 0.4953298238
C  C170  1  0.52845000  0.88909000  0.97811000  1.0 0.4953298238
C  C171  1  0.63936000  0.52845000  0.47811000  1.0 0.4953298238
C  C172  1  0.11091000  0.63936000  0.97811000  1.0 0.4953298238
C  C173  1  0.47155000  0.11091000  0.47811000  1.0 0.4953298238
C  C174  1  0.36064000  0.47155000  0.97811000  1.0 0.4953298238
C  C175  1  0.63936000  0.11091000  0.02189000  1.0 0.4953298238
C  C176  1  0.52845000  0.63936000  0.52189000  1.0 0.4953298238
C  C177  1  0.88909000  0.52845000  0.02189000  1.0 0.4953298238
C  C178  1  0.36064000  0.88909000  0.52189000  1.0 0.4953298238
C  C179  1  0.47155000  0.36064000  0.02189000  1.0 0.4953298238
C  C180  1  0.11091000  0.47155000  0.52189000  1.0 0.4942186171
C  C181  1  0.11091000  0.63936000  0.52189000  1.0 0.4953298238
C  C182  1  0.47155000  0.11091000  0.02189000  1.0 0.4953298238
C  C183  1  0.36064000  0.47155000  0.52189000  1.0 0.4942186171
C  C184  1  0.88909000  0.36064000  0.02189000  1.0 0.4953298238
C  C185  1  0.52845000  0.88909000  0.52189000  1.0 0.4953298238
C  C186  1  0.63936000  0.52845000  0.02189000  1.0 0.4953298238
C  C187  1  0.36064000  0.88909000  0.97811000  1.0 0.4953298238
C  C188  1  0.47155000  0.36064000  0.47811000  1.0 0.4953298238
C  C189  1  0.11091000  0.47155000  0.97811000  1.0 0.4953298238
C  C190  1  0.63936000  0.11091000  0.47811000  1.0 0.4953298238
C  C191  1  0.52845000  0.63936000  0.97811000  1.0 0.4953298238
C  C192  1  0.88909000  0.52845000  0.47811000  1.0 0.4953298238
N  N1  1  0.81723000  0.18277000  0.40015000  1.0 -0.3939281981
N  N2  1  0.63446000  0.81723000  0.90015000  1.0 -0.3939281981
N  N3  1  0.81723000  0.63446000  0.40015000  1.0 -0.3939281981
N  N4  1  0.18277000  0.81723000  0.90015000  1.0 -0.3939281981
N  N5  1  0.36554000  0.18277000  0.40015000  1.0 -0.3939281981
N  N6  1  0.18277000  0.36554000  0.90015000  1.0 -0.3939281981
N  N7  1  0.81723000  0.18277000  0.09985000  1.0 -0.3939281981
N  N8  1  0.63446000  0.81723000  0.59985000  1.0 -0.3939281981
N  N9  1  0.81723000  0.63446000  0.09985000  1.0 -0.3939281981
N  N10  1  0.18277000  0.81723000  0.59985000  1.0 -0.3939281981
N  N11  1  0.36554000  0.18277000  0.09985000  1.0 -0.3939281981
N  N12  1  0.18277000  0.36554000  0.59985000  1.0 -0.3939281981
O  O1  1  0.99576000  0.12340000  0.28167000  1.0 -0.528353796
O  O2  1  0.87236000  0.99576000  0.78167000  1.0 -0.528353796
O  O3  1  0.87660000  0.87236000  0.28167000  1.0 -0.528353796
O  O4  1  0.00424000  0.87660000  0.78167000  1.0 -0.528353796
O  O5  1  0.12764000  0.00424000  0.28167000  1.0 -0.528353796
O  O6  1  0.12340000  0.12764000  0.78167000  1.0 -0.528353796
O  O7  1  0.87660000  0.00424000  0.21833000  1.0 -0.528353796
O  O8  1  0.87236000  0.87660000  0.71833000  1.0 -0.528353796
O  O9  1  0.99576000  0.87236000  0.21833000  1.0 -0.528353796
O  O10  1  0.12340000  0.99576000  0.71833000  1.0 -0.528353796
O  O11  1  0.12764000  0.12340000  0.21833000  1.0 -0.528353796
O  O12  1  0.00424000  0.12764000  0.71833000  1.0 -0.528353796
O  O13  1  0.00424000  0.87660000  0.71833000  1.0 -0.528353796
O  O14  1  0.12764000  0.00424000  0.21833000  1.0 -0.528353796
O  O15  1  0.12340000  0.12764000  0.71833000  1.0 -0.528353796
O  O16  1  0.99576000  0.12340000  0.21833000  1.0 -0.528353796
O  O17  1  0.87236000  0.99576000  0.71833000  1.0 -0.528353796
O  O18  1  0.87660000  0.87236000  0.21833000  1.0 -0.528353796
O  O19  1  0.12340000  0.99576000  0.78167000  1.0 -0.528353796
O  O20  1  0.12764000  0.12340000  0.28167000  1.0 -0.528353796
O  O21  1  0.00424000  0.12764000  0.78167000  1.0 -0.528353796
O  O22  1  0.87660000  0.00424000  0.28167000  1.0 -0.528353796
O  O23  1  0.87236000  0.87660000  0.78167000  1.0 -0.528353796
O  O24  1  0.99576000  0.87236000  0.28167000  1.0 -0.528353796
O  O25  1  0.88254000  0.11746000  0.41580000  1.0 -0.4379986843
O  O26  1  0.76508000  0.88254000  0.91580000  1.0 -0.4308060097
O  O27  1  0.88254000  0.76508000  0.41580000  1.0 -0.4379986843
O  O28  1  0.11746000  0.88254000  0.91580000  1.0 -0.4308060097
O  O29  1  0.23492000  0.11746000  0.41580000  1.0 -0.4379986843
O  O30  1  0.11746000  0.23492000  0.91580000  1.0 -0.4308060097
O  O31  1  0.88254000  0.11746000  0.08420000  1.0 -0.4379986843
O  O32  1  0.76508000  0.88254000  0.58420000  1.0 -0.4379986843
O  O33  1  0.88254000  0.76508000  0.08420000  1.0 -0.4379986843
O  O34  1  0.11746000  0.88254000  0.58420000  1.0 -0.4308060097
O  O35  1  0.23492000  0.11746000  0.08420000  1.0 -0.4379986843
O  O36  1  0.11746000  0.23492000  0.58420000  1.0 -0.4379986843
O  O37  1  0.94754000  0.41033000  0.46476000  1.0 -0.5122194557
O  O38  1  0.53721000  0.94754000  0.96476000  1.0 -0.5122194557
O  O39  1  0.58967000  0.53721000  0.46476000  1.0 -0.5122194557
O  O40  1  0.05246000  0.58967000  0.96476000  1.0 -0.5122194557
O  O41  1  0.46279000  0.05246000  0.46476000  1.0 -0.5122194557
O  O42  1  0.41033000  0.46279000  0.96476000  1.0 -0.5122194557
O  O43  1  0.58967000  0.05246000  0.03524000  1.0 -0.5122194557
O  O44  1  0.53721000  0.58967000  0.53524000  1.0 -0.5122194557
O  O45  1  0.94754000  0.53721000  0.03524000  1.0 -0.5122194557
O  O46  1  0.41033000  0.94754000  0.53524000  1.0 -0.5122194557
O  O47  1  0.46279000  0.41033000  0.03524000  1.0 -0.5122194557
O  O48  1  0.05246000  0.46279000  0.53524000  1.0 -0.5122194557
O  O49  1  0.05246000  0.58967000  0.53524000  1.0 -0.5122194557
O  O50  1  0.46279000  0.05246000  0.03524000  1.0 -0.5122194557
O  O51  1  0.41033000  0.46279000  0.53524000  1.0 -0.5122194557
O  O52  1  0.94754000  0.41033000  0.03524000  1.0 -0.5122194557
O  O53  1  0.53721000  0.94754000  0.53524000  1.0 -0.5122194557
O  O54  1  0.58967000  0.53721000  0.03524000  1.0 -0.5122194557
O  O55  1  0.41033000  0.94754000  0.96476000  1.0 -0.5122194557
O  O56  1  0.46279000  0.41033000  0.46476000  1.0 -0.5122194557
O  O57  1  0.05246000  0.46279000  0.96476000  1.0 -0.5122194557
O  O58  1  0.58967000  0.05246000  0.46476000  1.0 -0.5122194557
O  O59  1  0.53721000  0.58967000  0.96476000  1.0 -0.5122194557
O  O60  1  0.94754000  0.53721000  0.46476000  1.0 -0.5122194557
O  O61  1  0.87303000  0.36962000  0.50130000  1.0 -0.4986457532
O  O62  1  0.50341000  0.87303000  0.00130000  1.0 -0.4986457532
O  O63  1  0.63038000  0.50341000  0.50130000  1.0 -0.4986457532
O  O64  1  0.12697000  0.63038000  0.00130000  1.0 -0.4986457532
O  O65  1  0.49659000  0.12697000  0.50130000  1.0 -0.4986457532
O  O66  1  0.36962000  0.49659000  0.00130000  1.0 -0.4986457532
O  O67  1  0.63038000  0.12697000  0.99870000  1.0 -0.4986457532
O  O68  1  0.50341000  0.63038000  0.49870000  1.0 -0.4986457532
O  O69  1  0.87303000  0.50341000  0.99870000  1.0 -0.4986457532
O  O70  1  0.36962000  0.87303000  0.49870000  1.0 -0.4986457532
O  O71  1  0.49659000  0.36962000  0.99870000  1.0 -0.4986457532
O  O72  1  0.12697000  0.49659000  0.49870000  1.0 -0.4986457532
O  O73  1  0.12697000  0.63038000  0.49870000  1.0 -0.4986457532
O  O74  1  0.49659000  0.12697000  0.99870000  1.0 -0.4986457532
O  O75  1  0.36962000  0.49659000  0.49870000  1.0 -0.4986457532
O  O76  1  0.87303000  0.36962000  0.99870000  1.0 -0.4986457532
O  O77  1  0.50341000  0.87303000  0.49870000  1.0 -0.4986457532
O  O78  1  0.63038000  0.50341000  0.99870000  1.0 -0.4986457532
O  O79  1  0.36962000  0.87303000  0.00130000  1.0 -0.4986457532
O  O80  1  0.49659000  0.36962000  0.50130000  1.0 -0.4986457532
O  O81  1  0.12697000  0.49659000  0.00130000  1.0 -0.4986457532
O  O82  1  0.63038000  0.12697000  0.50130000  1.0 -0.4986457532
O  O83  1  0.50341000  0.63038000  0.00130000  1.0 -0.4986457532
O  O84  1  0.87303000  0.50341000  0.50130000  1.0 -0.4986457532
O  O85  1  0.11130000  0.55565000  0.43920000  1.0 -0.4308060097
O  O86  1  0.55565000  0.11130000  0.93920000  1.0 -0.4308060097
O  O87  1  0.44435000  0.55565000  0.43920000  1.0 -0.4308060097
O  O88  1  0.88870000  0.44435000  0.93920000  1.0 -0.4308060097
O  O89  1  0.44435000  0.88870000  0.43920000  1.0 -0.4308060097
O  O90  1  0.55565000  0.44435000  0.93920000  1.0 -0.4308060097
O  O91  1  0.44435000  0.88870000  0.06080000  1.0 -0.4308060097
O  O92  1  0.55565000  0.44435000  0.56080000  1.0 -0.4308060097
O  O93  1  0.11130000  0.55565000  0.06080000  1.0 -0.4308060097
O  O94  1  0.55565000  0.11130000  0.56080000  1.0 -0.4308060097
O  O95  1  0.44435000  0.55565000  0.06080000  1.0 -0.4308060097
O  O96  1  0.88870000  0.44435000  0.56080000  1.0 -0.4308060097
O  O97  1  0.87320000  0.43660000  0.94400000  1.0 -0.4379986843
O  O98  1  0.43660000  0.87320000  0.44400000  1.0 -0.4379986843
O  O99  1  0.56340000  0.43660000  0.94400000  1.0 -0.4379986843
O  O100  1  0.12680000  0.56340000  0.44400000  1.0 -0.4379986843
O  O101  1  0.56340000  0.12680000  0.94400000  1.0 -0.4379986843
O  O102  1  0.43660000  0.56340000  0.44400000  1.0 -0.4379986843
O  O103  1  0.56340000  0.12680000  0.55600000  1.0 -0.4379986843
O  O104  1  0.43660000  0.56340000  0.05600000  1.0 -0.4379986843
O  O105  1  0.87320000  0.43660000  0.55600000  1.0 -0.4379986843
O  O106  1  0.43660000  0.87320000  0.05600000  1.0 -0.4379986843
O  O107  1  0.56340000  0.43660000  0.55600000  1.0 -0.4379986843
O  O108  1  0.12680000  0.56340000  0.05600000  1.0 -0.4379986843
