# DDEC6 charges by PACMAN v1.1 (https://github.com/mtap-research/PACMAN-charge/)
data_MAWFIC_FSR_pacman
_symmetry_space_group_name_H-M   'P 1'
_cell_length_a   25.12900000
_cell_length_b   25.68600000
_cell_length_c   31.77000000
_cell_angle_alpha   90.00000000
_cell_angle_beta   90.00000000
_cell_angle_gamma   90.00000000
_symmetry_Int_Tables_number   1
_chemical_formula_structural   Zn4Mo12PH8C12(NO22)2
_chemical_formula_sum   'Zn32 Mo96 P8 H64 C96 N16 O352'
_cell_volume   20506.37520438
_cell_formula_units_Z   8
loop_
 _symmetry_equiv_pos_site_id
 _symmetry_equiv_pos_as_xyz
  1  'x, y, z'
loop_
 _atom_site_type_symbol
 _atom_site_label
 _atom_site_symmetry_multiplicity
 _atom_site_fract_x
 _atom_site_fract_y
 _atom_site_fract_z
 _atom_site_occupancy
 _atom_site_charge
Zn  Zn1  1  0.81447000  0.26438000  0.40051000  1.0 0.9476769008
Zn  Zn2  1  0.18553000  0.76438000  0.09949000  1.0 0.9476769008
Zn  Zn3  1  0.68553000  0.76438000  0.90051000  1.0 0.9476769008
Zn  Zn4  1  0.31447000  0.26438000  0.59949000  1.0 0.9476769008
Zn  Zn5  1  0.02239000  0.22030000  0.48305000  1.0 1.0618758984
Zn  Zn6  1  0.97761000  0.72030000  0.01695000  1.0 1.0618758984
Zn  Zn7  1  0.47761000  0.72030000  0.98305000  1.0 1.0618758984
Zn  Zn8  1  0.52239000  0.22030000  0.51695000  1.0 1.0618758984
Zn  Zn9  1  0.96173000  0.09392000  0.34684000  1.0 1.0618758984
Zn  Zn10  1  0.03827000  0.59392000  0.15316000  1.0 1.0618758984
Zn  Zn11  1  0.53827000  0.59392000  0.84684000  1.0 1.0618758984
Zn  Zn12  1  0.46173000  0.09392000  0.65316000  1.0 1.0618758984
Zn  Zn13  1  0.00137000  0.31799000  0.31308000  1.0 0.9405949451
Zn  Zn14  1  0.99863000  0.81799000  0.18692000  1.0 0.9405949451
Zn  Zn15  1  0.49863000  0.81799000  0.81308000  1.0 0.9405949451
Zn  Zn16  1  0.50137000  0.31799000  0.68692000  1.0 0.9405949451
Zn  Zn17  1  0.31447000  0.23562000  0.09949000  1.0 0.9476769008
Zn  Zn18  1  0.68553000  0.73562000  0.40051000  1.0 0.9476769008
Zn  Zn19  1  0.18553000  0.73562000  0.59949000  1.0 0.9476769008
Zn  Zn20  1  0.81447000  0.23562000  0.90051000  1.0 0.9476769008
Zn  Zn21  1  0.52239000  0.27970000  0.01695000  1.0 1.0618758984
Zn  Zn22  1  0.47761000  0.77970000  0.48305000  1.0 1.0618758984
Zn  Zn23  1  0.97761000  0.77970000  0.51695000  1.0 1.0618758984
Zn  Zn24  1  0.02239000  0.27970000  0.98305000  1.0 1.0618758984
Zn  Zn25  1  0.46173000  0.40608000  0.15316000  1.0 1.0618758984
Zn  Zn26  1  0.53827000  0.90608000  0.34684000  1.0 1.0618758984
Zn  Zn27  1  0.03827000  0.90608000  0.65316000  1.0 1.0618758984
Zn  Zn28  1  0.96173000  0.40608000  0.84684000  1.0 1.0618758984
Zn  Zn29  1  0.50137000  0.18201000  0.18692000  1.0 0.9405949451
Zn  Zn30  1  0.49863000  0.68201000  0.31308000  1.0 0.9405949451
Zn  Zn31  1  0.99863000  0.68201000  0.68692000  1.0 0.9405949451
Zn  Zn32  1  0.00137000  0.18201000  0.81308000  1.0 0.9405949451
Mo  Mo1  1  0.90609000  0.30430000  0.47695000  1.0 2.0388271208
Mo  Mo2  1  0.09391000  0.80430000  0.02305000  1.0 2.0388271208
Mo  Mo3  1  0.59391000  0.80430000  0.97695000  1.0 2.0388271208
Mo  Mo4  1  0.40609000  0.30430000  0.52305000  1.0 2.0388271208
Mo  Mo5  1  0.83934000  0.16500000  0.32773000  1.0 2.0088026263
Mo  Mo6  1  0.16066000  0.66500000  0.17227000  1.0 2.0088026263
Mo  Mo7  1  0.66066000  0.66500000  0.82773000  1.0 2.0043989027
Mo  Mo8  1  0.33934000  0.16500000  0.67227000  1.0 2.0043989027
Mo  Mo9  1  0.86732000  0.29241000  0.30253000  1.0 2.1336320378
Mo  Mo10  1  0.13268000  0.79241000  0.19747000  1.0 2.1336320378
Mo  Mo11  1  0.63268000  0.79241000  0.80253000  1.0 2.1336320378
Mo  Mo12  1  0.36732000  0.29241000  0.69747000  1.0 2.1336320378
Mo  Mo13  1  0.02642000  0.33836000  0.42007000  1.0 2.0388271208
Mo  Mo14  1  0.97358000  0.83836000  0.07993000  1.0 2.0388271208
Mo  Mo15  1  0.47358000  0.83836000  0.92007000  1.0 2.0455777385
Mo  Mo16  1  0.52642000  0.33836000  0.57993000  1.0 2.0455777385
Mo  Mo17  1  0.95956000  0.20015000  0.27116000  1.0 2.0088026263
Mo  Mo18  1  0.04044000  0.70015000  0.22884000  1.0 2.0088026263
Mo  Mo19  1  0.54044000  0.70015000  0.77116000  1.0 2.0088026263
Mo  Mo20  1  0.45956000  0.20015000  0.72884000  1.0 2.0088026263
Mo  Mo21  1  0.96300000  0.10489000  0.45597000  1.0 2.0088026263
Mo  Mo22  1  0.03700000  0.60489000  0.04403000  1.0 2.0189227147
Mo  Mo23  1  0.53700000  0.60489000  0.95597000  1.0 2.0088026263
Mo  Mo24  1  0.46300000  0.10489000  0.54403000  1.0 2.0088026263
Mo  Mo25  1  0.88190000  0.20492000  0.48888000  1.0 2.0189227147
Mo  Mo26  1  0.11810000  0.70492000  0.01112000  1.0 2.0189227147
Mo  Mo27  1  0.61810000  0.70492000  0.98888000  1.0 2.0189227147
Mo  Mo28  1  0.38190000  0.20492000  0.51112000  1.0 2.0189227147
Mo  Mo29  1  0.05378000  0.18785000  0.30681000  1.0 2.0088026263
Mo  Mo30  1  0.94622000  0.68785000  0.19319000  1.0 2.0088026263
Mo  Mo31  1  0.44622000  0.68785000  0.80681000  1.0 2.0088026263
Mo  Mo32  1  0.55378000  0.18785000  0.69319000  1.0 2.0088026263
Mo  Mo33  1  0.06939000  0.13529000  0.40553000  1.0 2.0388271208
Mo  Mo34  1  0.93061000  0.63529000  0.09447000  1.0 2.0189227147
Mo  Mo35  1  0.43061000  0.63529000  0.90553000  1.0 2.0324516433
Mo  Mo36  1  0.56939000  0.13529000  0.59447000  1.0 2.0324516433
Mo  Mo37  1  0.84472000  0.12673000  0.40487000  1.0 2.0388271208
Mo  Mo38  1  0.15528000  0.62673000  0.09513000  1.0 2.0388271208
Mo  Mo39  1  0.65528000  0.62673000  0.90487000  1.0 2.0388271208
Mo  Mo40  1  0.34472000  0.12673000  0.59513000  1.0 2.0388271208
Mo  Mo41  1  0.09101000  0.26584000  0.39081000  1.0 2.0088026263
Mo  Mo42  1  0.90899000  0.76584000  0.10919000  1.0 2.0088026263
Mo  Mo43  1  0.40899000  0.76584000  0.89081000  1.0 2.0043989027
Mo  Mo44  1  0.59101000  0.26584000  0.60919000  1.0 2.0043989027
Mo  Mo45  1  0.90217000  0.36468000  0.37990000  1.0 2.1170124747
Mo  Mo46  1  0.09783000  0.86468000  0.12010000  1.0 2.1170124747
Mo  Mo47  1  0.59783000  0.86468000  0.87990000  1.0 2.1170124747
Mo  Mo48  1  0.40217000  0.36468000  0.62010000  1.0 2.1170124747
Mo  Mo49  1  0.40609000  0.19570000  0.02305000  1.0 2.0388271208
Mo  Mo50  1  0.59391000  0.69570000  0.47695000  1.0 2.0388271208
Mo  Mo51  1  0.09391000  0.69570000  0.52305000  1.0 2.0388271208
Mo  Mo52  1  0.90609000  0.19570000  0.97695000  1.0 2.0388271208
Mo  Mo53  1  0.33934000  0.33500000  0.17227000  1.0 2.0088026263
Mo  Mo54  1  0.66066000  0.83500000  0.32773000  1.0 2.0088026263
Mo  Mo55  1  0.16066000  0.83500000  0.67227000  1.0 2.0043989027
Mo  Mo56  1  0.83934000  0.33500000  0.82773000  1.0 2.0043989027
Mo  Mo57  1  0.36732000  0.20759000  0.19747000  1.0 2.1336320378
Mo  Mo58  1  0.63268000  0.70759000  0.30253000  1.0 2.1336320378
Mo  Mo59  1  0.13268000  0.70759000  0.69747000  1.0 2.1336320378
Mo  Mo60  1  0.86732000  0.20759000  0.80253000  1.0 2.1336320378
Mo  Mo61  1  0.52642000  0.16164000  0.07993000  1.0 2.0388271208
Mo  Mo62  1  0.47358000  0.66164000  0.42007000  1.0 2.0388271208
Mo  Mo63  1  0.97358000  0.66164000  0.57993000  1.0 2.0455777385
Mo  Mo64  1  0.02642000  0.16164000  0.92007000  1.0 2.0455777385
Mo  Mo65  1  0.45956000  0.29985000  0.22884000  1.0 2.0088026263
Mo  Mo66  1  0.54044000  0.79985000  0.27116000  1.0 2.0088026263
Mo  Mo67  1  0.04044000  0.79985000  0.72884000  1.0 2.0088026263
Mo  Mo68  1  0.95956000  0.29985000  0.77116000  1.0 2.0088026263
Mo  Mo69  1  0.46300000  0.39511000  0.04403000  1.0 2.0189227147
Mo  Mo70  1  0.53700000  0.89511000  0.45597000  1.0 2.0088026263
Mo  Mo71  1  0.03700000  0.89511000  0.54403000  1.0 2.0088026263
Mo  Mo72  1  0.96300000  0.39511000  0.95597000  1.0 2.0088026263
Mo  Mo73  1  0.38190000  0.29508000  0.01112000  1.0 2.0189227147
Mo  Mo74  1  0.61810000  0.79508000  0.48888000  1.0 2.0189227147
Mo  Mo75  1  0.11810000  0.79508000  0.51112000  1.0 2.0189227147
Mo  Mo76  1  0.88190000  0.29508000  0.98888000  1.0 2.0189227147
Mo  Mo77  1  0.55378000  0.31215000  0.19319000  1.0 2.0088026263
Mo  Mo78  1  0.44622000  0.81215000  0.30681000  1.0 2.0088026263
Mo  Mo79  1  0.94622000  0.81215000  0.69319000  1.0 2.0043989027
Mo  Mo80  1  0.05378000  0.31215000  0.80681000  1.0 2.0088026263
Mo  Mo81  1  0.56939000  0.36471000  0.09447000  1.0 2.0324516433
Mo  Mo82  1  0.43061000  0.86471000  0.40553000  1.0 2.0324516433
Mo  Mo83  1  0.93061000  0.86471000  0.59447000  1.0 2.0324516433
Mo  Mo84  1  0.06939000  0.36471000  0.90553000  1.0 2.0324516433
Mo  Mo85  1  0.34472000  0.37327000  0.09513000  1.0 2.0388271208
Mo  Mo86  1  0.65528000  0.87327000  0.40487000  1.0 2.0388271208
Mo  Mo87  1  0.15528000  0.87327000  0.59513000  1.0 2.0388271208
Mo  Mo88  1  0.84472000  0.37327000  0.90487000  1.0 2.0388271208
Mo  Mo89  1  0.59101000  0.23416000  0.10919000  1.0 2.0088026263
Mo  Mo90  1  0.40899000  0.73416000  0.39081000  1.0 2.0088026263
Mo  Mo91  1  0.90899000  0.73416000  0.60919000  1.0 2.0043989027
Mo  Mo92  1  0.09101000  0.23416000  0.89081000  1.0 2.0043989027
Mo  Mo93  1  0.40217000  0.13532000  0.12010000  1.0 2.1170124747
Mo  Mo94  1  0.59783000  0.63532000  0.37990000  1.0 2.1170124747
Mo  Mo95  1  0.09783000  0.63532000  0.62010000  1.0 2.1170124747
Mo  Mo96  1  0.90217000  0.13532000  0.87990000  1.0 2.1170124747
P  P1  1  0.95043000  0.22536000  0.38582000  1.0 1.4101632424
P  P2  1  0.04957000  0.72536000  0.11418000  1.0 1.4101632424
P  P3  1  0.54957000  0.72536000  0.88582000  1.0 1.4101632424
P  P4  1  0.45043000  0.22536000  0.61418000  1.0 1.4101632424
P  P5  1  0.45043000  0.27464000  0.11418000  1.0 1.4101632424
P  P6  1  0.54957000  0.77464000  0.38582000  1.0 1.4101632424
P  P7  1  0.04957000  0.77464000  0.61418000  1.0 1.4101632424
P  P8  1  0.95043000  0.27464000  0.88582000  1.0 1.4101632424
H  H1  1  0.70880000  0.22540000  0.37240000  1.0 0.1493093502
H  H2  1  0.29120000  0.72540000  0.12760000  1.0 0.1493093502
H  H3  1  0.79120000  0.72540000  0.87240000  1.0 0.1493093502
H  H4  1  0.20880000  0.22540000  0.62760000  1.0 0.1493093502
H  H5  1  0.62350000  0.22600000  0.39300000  1.0 0.1589417644
H  H6  1  0.37650000  0.72600000  0.10700000  1.0 0.1589417644
H  H7  1  0.87650000  0.72600000  0.89300000  1.0 0.1589417644
H  H8  1  0.12350000  0.22600000  0.60700000  1.0 0.1589417644
H  H9  1  0.66090000  0.34050000  0.47580000  1.0 0.1589417644
H  H10  1  0.33910000  0.84050000  0.02420000  1.0 0.1589417644
H  H11  1  0.83910000  0.84050000  0.97580000  1.0 0.1589417644
H  H12  1  0.16090000  0.34050000  0.52420000  1.0 0.1589417644
H  H13  1  0.74570000  0.33830000  0.44960000  1.0 0.1402153
H  H14  1  0.25430000  0.83830000  0.05040000  1.0 0.1402153
H  H15  1  0.75430000  0.83830000  0.94960000  1.0 0.1402153
H  H16  1  0.24570000  0.33830000  0.55040000  1.0 0.1402153
H  H17  1  0.06030000  0.41410000  0.32820000  1.0 0.1402153
H  H18  1  0.93970000  0.91410000  0.17180000  1.0 0.1402153
H  H19  1  0.43970000  0.91410000  0.82820000  1.0 0.1402153
H  H20  1  0.56030000  0.41410000  0.67180000  1.0 0.1402153
H  H21  1  0.07670000  0.49180000  0.29340000  1.0 0.1493093502
H  H22  1  0.92330000  0.99180000  0.20660000  1.0 0.1493093502
H  H23  1  0.42330000  0.99180000  0.79340000  1.0 0.1493093502
H  H24  1  0.57670000  0.49180000  0.70660000  1.0 0.1493093502
H  H25  1  0.01340000  0.43380000  0.18950000  1.0 0.1493093502
H  H26  1  0.98660000  0.93380000  0.31050000  1.0 0.1493093502
H  H27  1  0.48660000  0.93380000  0.68950000  1.0 0.1493093502
H  H28  1  0.51340000  0.43380000  0.81050000  1.0 0.1493093502
H  H29  1  0.00080000  0.35840000  0.22650000  1.0 0.1402153
H  H30  1  0.99920000  0.85840000  0.27350000  1.0 0.1402153
H  H31  1  0.49920000  0.85840000  0.72650000  1.0 0.1402153
H  H32  1  0.50080000  0.35840000  0.77350000  1.0 0.1402153
H  H33  1  0.20880000  0.27460000  0.12760000  1.0 0.1493093502
H  H34  1  0.79120000  0.77460000  0.37240000  1.0 0.1493093502
H  H35  1  0.29120000  0.77460000  0.62760000  1.0 0.1493093502
H  H36  1  0.70880000  0.27460000  0.87240000  1.0 0.1493093502
H  H37  1  0.12350000  0.27400000  0.10700000  1.0 0.1589417644
H  H38  1  0.87650000  0.77400000  0.39300000  1.0 0.1589417644
H  H39  1  0.37650000  0.77400000  0.60700000  1.0 0.1589417644
H  H40  1  0.62350000  0.27400000  0.89300000  1.0 0.1589417644
H  H41  1  0.16090000  0.15950000  0.02420000  1.0 0.1589417644
H  H42  1  0.83910000  0.65950000  0.47580000  1.0 0.1589417644
H  H43  1  0.33910000  0.65950000  0.52420000  1.0 0.1589417644
H  H44  1  0.66090000  0.15950000  0.97580000  1.0 0.1589417644
H  H45  1  0.24570000  0.16170000  0.05040000  1.0 0.1402153
H  H46  1  0.75430000  0.66170000  0.44960000  1.0 0.1402153
H  H47  1  0.25430000  0.66170000  0.55040000  1.0 0.1402153
H  H48  1  0.74570000  0.16170000  0.94960000  1.0 0.1402153
H  H49  1  0.56030000  0.08590000  0.17180000  1.0 0.1402153
H  H50  1  0.43970000  0.58590000  0.32820000  1.0 0.1402153
H  H51  1  0.93970000  0.58590000  0.67180000  1.0 0.1402153
H  H52  1  0.06030000  0.08590000  0.82820000  1.0 0.1402153
H  H53  1  0.57670000  0.00820000  0.20660000  1.0 0.1493093502
H  H54  1  0.42330000  0.50820000  0.29340000  1.0 0.1493093502
H  H55  1  0.92330000  0.50820000  0.70660000  1.0 0.1493093502
H  H56  1  0.07670000  0.00820000  0.79340000  1.0 0.1493093502
H  H57  1  0.51340000  0.06620000  0.31050000  1.0 0.1493093502
H  H58  1  0.48660000  0.56620000  0.18950000  1.0 0.1493093502
H  H59  1  0.98660000  0.56620000  0.81050000  1.0 0.1493093502
H  H60  1  0.01340000  0.06620000  0.68950000  1.0 0.1493093502
H  H61  1  0.50080000  0.14160000  0.27350000  1.0 0.1402153
H  H62  1  0.49920000  0.64160000  0.22650000  1.0 0.1402153
H  H63  1  0.99920000  0.64160000  0.77350000  1.0 0.1402153
H  H64  1  0.00080000  0.14160000  0.72650000  1.0 0.1402153
C  C1  1  0.69880000  0.24830000  0.39370000  1.0 0.0606780537
C  C2  1  0.30120000  0.74830000  0.10630000  1.0 0.0606780537
C  C3  1  0.80120000  0.74830000  0.89370000  1.0 0.0606780537
C  C4  1  0.19880000  0.24830000  0.60630000  1.0 0.0606780537
C  C5  1  0.64780000  0.24800000  0.40600000  1.0 -0.1412841128
C  C6  1  0.35220000  0.74800000  0.09400000  1.0 -0.1412841128
C  C7  1  0.85220000  0.74800000  0.90600000  1.0 -0.1412841128
C  C8  1  0.14780000  0.24800000  0.59400000  1.0 -0.1412841128
C  C9  1  0.63130000  0.28110000  0.43870000  1.0 0.0267814936
C  C10  1  0.36870000  0.78110000  0.06130000  1.0 0.0267814936
C  C11  1  0.86870000  0.78110000  0.93870000  1.0 0.0267814936
C  C12  1  0.13130000  0.28110000  0.56130000  1.0 0.0267814936
C  C13  1  0.67000000  0.31660000  0.45510000  1.0 -0.1412841128
C  C14  1  0.33000000  0.81660000  0.04490000  1.0 -0.1412841128
C  C15  1  0.83000000  0.81660000  0.95510000  1.0 -0.1412841128
C  C16  1  0.17000000  0.31660000  0.54490000  1.0 -0.1412841128
C  C17  1  0.72110000  0.31440000  0.43940000  1.0 0.0887496124
C  C18  1  0.27890000  0.81440000  0.06060000  1.0 0.0887496124
C  C19  1  0.77890000  0.81440000  0.93940000  1.0 0.0887496124
C  C20  1  0.22110000  0.31440000  0.56060000  1.0 0.0887496124
C  C21  1  0.57750000  0.27810000  0.45840000  1.0 0.5277666934
C  C22  1  0.42250000  0.77810000  0.04160000  1.0 0.5277666934
C  C23  1  0.92250000  0.77810000  0.95840000  1.0 0.5277666934
C  C24  1  0.07750000  0.27810000  0.54160000  1.0 0.5277666934
C  C25  1  0.05020000  0.41830000  0.30020000  1.0 0.0887496124
C  C26  1  0.94980000  0.91830000  0.19980000  1.0 0.0887496124
C  C27  1  0.44980000  0.91830000  0.80020000  1.0 0.0887496124
C  C28  1  0.55020000  0.41830000  0.69980000  1.0 0.0887496124
C  C29  1  0.06020000  0.46470000  0.27900000  1.0 -0.1320961005
C  C30  1  0.93980000  0.96470000  0.22100000  1.0 -0.1320961005
C  C31  1  0.43980000  0.96470000  0.77900000  1.0 -0.1320961005
C  C32  1  0.56020000  0.46470000  0.72100000  1.0 -0.1320961005
C  C33  1  0.04690000  0.47170000  0.23860000  1.0 0.0072466933
C  C34  1  0.95310000  0.97170000  0.26140000  1.0 0.0072466933
C  C35  1  0.45310000  0.97170000  0.73860000  1.0 0.0072466933
C  C36  1  0.54690000  0.47170000  0.76140000  1.0 0.0072466933
C  C37  1  0.02340000  0.43130000  0.21760000  1.0 -0.1465256735
C  C38  1  0.97660000  0.93130000  0.28240000  1.0 -0.1465256735
C  C39  1  0.47660000  0.93130000  0.71760000  1.0 -0.1465256735
C  C40  1  0.52340000  0.43130000  0.78240000  1.0 -0.1465256735
C  C41  1  0.01530000  0.38670000  0.24070000  1.0 0.0887496124
C  C42  1  0.98470000  0.88670000  0.25930000  1.0 0.0887496124
C  C43  1  0.48470000  0.88670000  0.74070000  1.0 0.0887496124
C  C44  1  0.51530000  0.38670000  0.75930000  1.0 0.0887496124
C  C45  1  0.05760000  0.52300000  0.21700000  1.0 0.5467542299
C  C46  1  0.94240000  0.02300000  0.28300000  1.0 0.5467542299
C  C47  1  0.44240000  0.02300000  0.71700000  1.0 0.5467542299
C  C48  1  0.55760000  0.52300000  0.78300000  1.0 0.5467542299
C  C49  1  0.19880000  0.25170000  0.10630000  1.0 0.0606780537
C  C50  1  0.80120000  0.75170000  0.39370000  1.0 0.0606780537
C  C51  1  0.30120000  0.75170000  0.60630000  1.0 0.0606780537
C  C52  1  0.69880000  0.25170000  0.89370000  1.0 0.0606780537
C  C53  1  0.14780000  0.25200000  0.09400000  1.0 -0.1412841128
C  C54  1  0.85220000  0.75200000  0.40600000  1.0 -0.1412841128
C  C55  1  0.35220000  0.75200000  0.59400000  1.0 -0.1412841128
C  C56  1  0.64780000  0.25200000  0.90600000  1.0 -0.1412841128
C  C57  1  0.13130000  0.21890000  0.06130000  1.0 0.0267814936
C  C58  1  0.86870000  0.71890000  0.43870000  1.0 0.0267814936
C  C59  1  0.36870000  0.71890000  0.56130000  1.0 0.0267814936
C  C60  1  0.63130000  0.21890000  0.93870000  1.0 0.0267814936
C  C61  1  0.17000000  0.18340000  0.04490000  1.0 -0.1412841128
C  C62  1  0.83000000  0.68340000  0.45510000  1.0 -0.1412841128
C  C63  1  0.33000000  0.68340000  0.54490000  1.0 -0.1412841128
C  C64  1  0.67000000  0.18340000  0.95510000  1.0 -0.1412841128
C  C65  1  0.22110000  0.18560000  0.06060000  1.0 0.0887496124
C  C66  1  0.77890000  0.68560000  0.43940000  1.0 0.0887496124
C  C67  1  0.27890000  0.68560000  0.56060000  1.0 0.0887496124
C  C68  1  0.72110000  0.18560000  0.93940000  1.0 0.0887496124
C  C69  1  0.07750000  0.22190000  0.04160000  1.0 0.5277666934
C  C70  1  0.92250000  0.72190000  0.45840000  1.0 0.5277666934
C  C71  1  0.42250000  0.72190000  0.54160000  1.0 0.5277666934
C  C72  1  0.57750000  0.22190000  0.95840000  1.0 0.5277666934
C  C73  1  0.55020000  0.08170000  0.19980000  1.0 0.0887496124
C  C74  1  0.44980000  0.58170000  0.30020000  1.0 0.0887496124
C  C75  1  0.94980000  0.58170000  0.69980000  1.0 0.0887496124
C  C76  1  0.05020000  0.08170000  0.80020000  1.0 0.0887496124
C  C77  1  0.56020000  0.03530000  0.22100000  1.0 -0.1320961005
C  C78  1  0.43980000  0.53530000  0.27900000  1.0 -0.1320961005
C  C79  1  0.93980000  0.53530000  0.72100000  1.0 -0.1320961005
C  C80  1  0.06020000  0.03530000  0.77900000  1.0 -0.1320961005
C  C81  1  0.54690000  0.02830000  0.26140000  1.0 0.0072466933
C  C82  1  0.45310000  0.52830000  0.23860000  1.0 0.0072466933
C  C83  1  0.95310000  0.52830000  0.76140000  1.0 0.0072466933
C  C84  1  0.04690000  0.02830000  0.73860000  1.0 0.0072466933
C  C85  1  0.52340000  0.06870000  0.28240000  1.0 -0.1465256735
C  C86  1  0.47660000  0.56870000  0.21760000  1.0 -0.1465256735
C  C87  1  0.97660000  0.56870000  0.78240000  1.0 -0.1465256735
C  C88  1  0.02340000  0.06870000  0.71760000  1.0 -0.1465256735
C  C89  1  0.51530000  0.11330000  0.25930000  1.0 0.0887496124
C  C90  1  0.48470000  0.61330000  0.24070000  1.0 0.0887496124
C  C91  1  0.98470000  0.61330000  0.75930000  1.0 0.0887496124
C  C92  1  0.01530000  0.11330000  0.74070000  1.0 0.0887496124
C  C93  1  0.55760000  0.97700000  0.28300000  1.0 0.5467542299
C  C94  1  0.44240000  0.47700000  0.21700000  1.0 0.5467542299
C  C95  1  0.94240000  0.47700000  0.78300000  1.0 0.5467542299
C  C96  1  0.05760000  0.97700000  0.71700000  1.0 0.5467542299
N  N1  1  0.73740000  0.28010000  0.41040000  1.0 -0.2265296
N  N2  1  0.26260000  0.78010000  0.08960000  1.0 -0.2265296
N  N3  1  0.76260000  0.78010000  0.91040000  1.0 -0.2265296
N  N4  1  0.23740000  0.28010000  0.58960000  1.0 -0.2265296
N  N5  1  0.02590000  0.38040000  0.27970000  1.0 -0.2004596442
N  N6  1  0.97410000  0.88040000  0.22030000  1.0 -0.2004596442
N  N7  1  0.47410000  0.88040000  0.77970000  1.0 -0.2004596442
N  N8  1  0.52590000  0.38040000  0.72030000  1.0 -0.2004596442
N  N9  1  0.23740000  0.21990000  0.08960000  1.0 -0.2265296
N  N10  1  0.76260000  0.71990000  0.41040000  1.0 -0.2265296
N  N11  1  0.26260000  0.71990000  0.58960000  1.0 -0.2265296
N  N12  1  0.73740000  0.21990000  0.91040000  1.0 -0.2265296
N  N13  1  0.52590000  0.11960000  0.22030000  1.0 -0.2004596442
N  N14  1  0.47410000  0.61960000  0.27970000  1.0 -0.2004596442
N  N15  1  0.97410000  0.61960000  0.72030000  1.0 -0.2004596442
N  N16  1  0.02590000  0.11960000  0.77970000  1.0 -0.2004596442
O  O1  1  0.02680000  0.15160000  0.45840000  1.0 -0.9134117476
O  O2  1  0.97320000  0.65160000  0.04160000  1.0 -0.9134117476
O  O3  1  0.47320000  0.65160000  0.95840000  1.0 -0.9134117476
O  O4  1  0.52680000  0.15160000  0.54160000  1.0 -0.9134117476
O  O5  1  0.10740000  0.19440000  0.41440000  1.0 -0.7778111659
O  O6  1  0.89260000  0.69440000  0.08560000  1.0 -0.7778111659
O  O7  1  0.39260000  0.69440000  0.91440000  1.0 -0.7778111659
O  O8  1  0.60740000  0.19440000  0.58560000  1.0 -0.7778111659
O  O9  1  0.07780000  0.13310000  0.34840000  1.0 -0.7911960699
O  O10  1  0.92220000  0.63310000  0.15160000  1.0 -0.7911960699
O  O11  1  0.42220000  0.63310000  0.84840000  1.0 -0.7911960699
O  O12  1  0.57780000  0.13310000  0.65160000  1.0 -0.7911960699
O  O13  1  0.01320000  0.25070000  0.28850000  1.0 -0.8510568535
O  O14  1  0.98680000  0.75070000  0.21150000  1.0 -0.8510568535
O  O15  1  0.48680000  0.75070000  0.78850000  1.0 -0.8510568535
O  O16  1  0.51320000  0.25070000  0.71150000  1.0 -0.8510568535
O  O17  1  0.91940000  0.22310000  0.34350000  1.0 -0.8582235523
O  O18  1  0.08060000  0.72310000  0.15650000  1.0 -0.8582235523
O  O19  1  0.58060000  0.72310000  0.84350000  1.0 -0.8582235523
O  O20  1  0.41940000  0.22310000  0.65650000  1.0 -0.8582235523
O  O21  1  0.92310000  0.18670000  0.41640000  1.0 -0.8411875345
O  O22  1  0.07690000  0.68670000  0.08360000  1.0 -0.8411875345
O  O23  1  0.57690000  0.68670000  0.91640000  1.0 -0.8411875345
O  O24  1  0.42310000  0.18670000  0.58360000  1.0 -0.8411875345
O  O25  1  0.00850000  0.21140000  0.37630000  1.0 -0.8411875345
O  O26  1  0.99150000  0.71140000  0.12370000  1.0 -0.8411875345
O  O27  1  0.49150000  0.71140000  0.87630000  1.0 -0.8411875345
O  O28  1  0.50850000  0.21140000  0.62370000  1.0 -0.8411875345
O  O29  1  0.94740000  0.28040000  0.40500000  1.0 -0.8657983355
O  O30  1  0.05260000  0.78040000  0.09500000  1.0 -0.8657983355
O  O31  1  0.55260000  0.78040000  0.90500000  1.0 -0.8657983355
O  O32  1  0.44740000  0.28040000  0.59500000  1.0 -0.8657983355
O  O33  1  0.14900000  0.29580000  0.39800000  1.0 -0.5060563433
O  O34  1  0.85100000  0.79580000  0.10200000  1.0 -0.5060563433
O  O35  1  0.35100000  0.79580000  0.89800000  1.0 -0.5060563433
O  O36  1  0.64900000  0.29580000  0.60200000  1.0 -0.4988496354
O  O37  1  0.87360000  0.42100000  0.36570000  1.0 -0.522315707
O  O38  1  0.12640000  0.92100000  0.13430000  1.0 -0.522315707
O  O39  1  0.62640000  0.92100000  0.86570000  1.0 -0.522315707
O  O40  1  0.37360000  0.42100000  0.63430000  1.0 -0.522315707
O  O41  1  0.08980000  0.17040000  0.26510000  1.0 -0.4988496354
O  O42  1  0.91020000  0.67040000  0.23490000  1.0 -0.4988496354
O  O43  1  0.41020000  0.67040000  0.76510000  1.0 -0.4988496354
O  O44  1  0.58980000  0.17040000  0.73490000  1.0 -0.4988496354
O  O45  1  0.83310000  0.33690000  0.27410000  1.0 -0.5487981103
O  O46  1  0.16690000  0.83690000  0.22590000  1.0 -0.5487981103
O  O47  1  0.66690000  0.83690000  0.77410000  1.0 -0.5487981103
O  O48  1  0.33310000  0.33690000  0.72590000  1.0 -0.5406199954
O  O49  1  0.90160000  0.08160000  0.43050000  1.0 -0.7961341006
O  O50  1  0.09840000  0.58160000  0.06950000  1.0 -0.7961341006
O  O51  1  0.59840000  0.58160000  0.93050000  1.0 -0.7961341006
O  O52  1  0.40160000  0.08160000  0.56950000  1.0 -0.7961341006
O  O53  1  0.78700000  0.13170000  0.30910000  1.0 -0.4988496354
O  O54  1  0.21300000  0.63170000  0.19090000  1.0 -0.4988496354
O  O55  1  0.71300000  0.63170000  0.80910000  1.0 -0.4988496354
O  O56  1  0.28700000  0.13170000  0.69090000  1.0 -0.4988496354
O  O57  1  0.88330000  0.33150000  0.52230000  1.0 -0.522315707
O  O58  1  0.11670000  0.83150000  0.97770000  1.0 -0.522315707
O  O59  1  0.61670000  0.83150000  0.02230000  1.0 -0.522315707
O  O60  1  0.38330000  0.33150000  0.47770000  1.0 -0.522315707
O  O61  1  0.07180000  0.38540000  0.43240000  1.0 -0.5487981103
O  O62  1  0.92820000  0.88540000  0.06760000  1.0 -0.5487981103
O  O63  1  0.42820000  0.88540000  0.93240000  1.0 -0.5487981103
O  O64  1  0.57180000  0.38540000  0.56760000  1.0 -0.5487981103
O  O65  1  0.97330000  0.18480000  0.22140000  1.0 -0.4988496354
O  O66  1  0.02670000  0.68480000  0.27860000  1.0 -0.4988496354
O  O67  1  0.52670000  0.68480000  0.72140000  1.0 -0.491411529
O  O68  1  0.47330000  0.18480000  0.77860000  1.0 -0.491411529
O  O69  1  0.88910000  0.15920000  0.27510000  1.0 -0.8810572706
O  O70  1  0.11090000  0.65920000  0.22490000  1.0 -0.8810572706
O  O71  1  0.61090000  0.65920000  0.77510000  1.0 -0.8810572706
O  O72  1  0.38910000  0.15920000  0.72490000  1.0 -0.8810572706
O  O73  1  0.97040000  0.38370000  0.39150000  1.0 -0.7911960699
O  O74  1  0.02960000  0.88370000  0.10850000  1.0 -0.7961341006
O  O75  1  0.52960000  0.88370000  0.89150000  1.0 -0.7961341006
O  O76  1  0.47040000  0.38370000  0.60850000  1.0 -0.7961341006
O  O77  1  0.85400000  0.20790000  0.53690000  1.0 -0.4988496354
O  O78  1  0.14600000  0.70790000  0.96310000  1.0 -0.4988496354
O  O79  1  0.64600000  0.70790000  0.03690000  1.0 -0.4988496354
O  O80  1  0.35400000  0.20790000  0.46310000  1.0 -0.4988496354
O  O81  1  0.10150000  0.23440000  0.33630000  1.0 -0.7911960699
O  O82  1  0.89850000  0.73440000  0.16370000  1.0 -0.7911960699
O  O83  1  0.39850000  0.73440000  0.83630000  1.0 -0.7911960699
O  O84  1  0.60150000  0.23440000  0.66370000  1.0 -0.7911960699
O  O85  1  0.93340000  0.14440000  0.49640000  1.0 -0.7669017203
O  O86  1  0.06660000  0.64440000  0.00360000  1.0 -0.7669017203
O  O87  1  0.56660000  0.64440000  0.99640000  1.0 -0.7669017203
O  O88  1  0.43340000  0.14440000  0.50360000  1.0 -0.7669017203
O  O89  1  0.87960000  0.35600000  0.43470000  1.0 -0.8089491985
O  O90  1  0.12040000  0.85600000  0.06530000  1.0 -0.8089491985
O  O91  1  0.62040000  0.85600000  0.93470000  1.0 -0.8089491985
O  O92  1  0.37960000  0.35600000  0.56530000  1.0 -0.8089491985
O  O93  1  0.82200000  0.23690000  0.30810000  1.0 -0.7961341006
O  O94  1  0.17800000  0.73690000  0.19190000  1.0 -0.7911960699
O  O95  1  0.67800000  0.73690000  0.80810000  1.0 -0.7911960699
O  O96  1  0.32200000  0.23690000  0.69190000  1.0 -0.7911960699
O  O97  1  0.91300000  0.26440000  0.26450000  1.0 -0.7961341006
O  O98  1  0.08700000  0.76440000  0.23550000  1.0 -0.7961341006
O  O99  1  0.58700000  0.76440000  0.76450000  1.0 -0.7911960699
O  O100  1  0.41300000  0.26440000  0.73550000  1.0 -0.7911960699
O  O101  1  0.94930000  0.24380000  0.49390000  1.0 -0.8582235523
O  O102  1  0.05070000  0.74380000  0.00610000  1.0 -0.8582235523
O  O103  1  0.55070000  0.74380000  0.99390000  1.0 -0.8582235523
O  O104  1  0.44930000  0.24380000  0.50610000  1.0 -0.8582235523
O  O105  1  0.05210000  0.27330000  0.44400000  1.0 -0.8411875345
O  O106  1  0.94790000  0.77330000  0.05600000  1.0 -0.8411875345
O  O107  1  0.44790000  0.77330000  0.94400000  1.0 -0.8411875345
O  O108  1  0.55210000  0.27330000  0.55600000  1.0 -0.8411875345
O  O109  1  0.99890000  0.09870000  0.39910000  1.0 -0.9181231759
O  O110  1  0.00110000  0.59870000  0.10090000  1.0 -0.9181231759
O  O111  1  0.50110000  0.59870000  0.89910000  1.0 -0.9181231759
O  O112  1  0.49890000  0.09870000  0.60090000  1.0 -0.9181231759
O  O113  1  0.88640000  0.11350000  0.35370000  1.0 -0.8510568535
O  O114  1  0.11360000  0.61350000  0.14630000  1.0 -0.8510568535
O  O115  1  0.61360000  0.61350000  0.85370000  1.0 -0.8510568535
O  O116  1  0.38640000  0.11350000  0.64630000  1.0 -0.8510568535
O  O117  1  0.81570000  0.19150000  0.38270000  1.0 -0.8411875345
O  O118  1  0.18430000  0.69150000  0.11730000  1.0 -0.8411875345
O  O119  1  0.68430000  0.69150000  0.88270000  1.0 -0.8411875345
O  O120  1  0.31570000  0.19150000  0.61730000  1.0 -0.8411875345
O  O121  1  0.99020000  0.14450000  0.30560000  1.0 -0.8411875345
O  O122  1  0.00980000  0.64450000  0.19440000  1.0 -0.8411875345
O  O123  1  0.50980000  0.64450000  0.80560000  1.0 -0.8411875345
O  O124  1  0.49020000  0.14450000  0.69440000  1.0 -0.8411875345
O  O125  1  0.97940000  0.34210000  0.47430000  1.0 -0.8880535724
O  O126  1  0.02060000  0.84210000  0.02570000  1.0 -0.8880535724
O  O127  1  0.52060000  0.84210000  0.97430000  1.0 -0.8810572706
O  O128  1  0.47940000  0.34210000  0.52570000  1.0 -0.8880535724
O  O129  1  0.84700000  0.31110000  0.36180000  1.0 -0.925229347
O  O130  1  0.15300000  0.81110000  0.13820000  1.0 -0.9181231759
O  O131  1  0.65300000  0.81110000  0.86180000  1.0 -0.925229347
O  O132  1  0.34700000  0.31110000  0.63820000  1.0 -0.925229347
O  O133  1  0.92740000  0.33600000  0.32530000  1.0 -0.9134117476
O  O134  1  0.07260000  0.83600000  0.17470000  1.0 -0.9134117476
O  O135  1  0.57260000  0.83600000  0.82530000  1.0 -0.9134117476
O  O136  1  0.42740000  0.33600000  0.67470000  1.0 -0.9134117476
O  O137  1  0.83750000  0.15710000  0.46070000  1.0 -0.7669017203
O  O138  1  0.16250000  0.65710000  0.03930000  1.0 -0.7669017203
O  O139  1  0.66250000  0.65710000  0.96070000  1.0 -0.7669017203
O  O140  1  0.33750000  0.15710000  0.53930000  1.0 -0.7669017203
O  O141  1  0.84800000  0.26030000  0.45550000  1.0 -0.8510568535
O  O142  1  0.15200000  0.76030000  0.04450000  1.0 -0.8510568535
O  O143  1  0.65200000  0.76030000  0.95550000  1.0 -0.8510568535
O  O144  1  0.34800000  0.26030000  0.54450000  1.0 -0.8510568535
O  O145  1  0.04560000  0.31870000  0.36280000  1.0 -0.8510568535
O  O146  1  0.95440000  0.81870000  0.13720000  1.0 -0.8582235523
O  O147  1  0.45440000  0.81870000  0.86280000  1.0 -0.8510568535
O  O148  1  0.54560000  0.31870000  0.63720000  1.0 -0.8582235523
O  O149  1  0.98560000  0.05250000  0.48140000  1.0 -0.4530636432
O  O150  1  0.01440000  0.55250000  0.01860000  1.0 -0.4569469951
O  O151  1  0.51440000  0.55250000  0.98140000  1.0 -0.4530636432
O  O152  1  0.48560000  0.05250000  0.51860000  1.0 -0.4530636432
O  O153  1  0.10930000  0.08730000  0.42300000  1.0 -0.4988496354
O  O154  1  0.89070000  0.58730000  0.07700000  1.0 -0.491411529
O  O155  1  0.39070000  0.58730000  0.92300000  1.0 -0.4988496354
O  O156  1  0.60930000  0.08730000  0.57700000  1.0 -0.4988496354
O  O157  1  0.79410000  0.08220000  0.40340000  1.0 -0.5406199954
O  O158  1  0.20590000  0.58220000  0.09660000  1.0 -0.5406199954
O  O159  1  0.70590000  0.58220000  0.90340000  1.0 -0.5406199954
O  O160  1  0.29410000  0.08220000  0.59660000  1.0 -0.5406199954
O  O161  1  0.56340000  0.23080000  0.46620000  1.0 -0.522315707
O  O162  1  0.43660000  0.73080000  0.03380000  1.0 -0.5258160196
O  O163  1  0.93660000  0.73080000  0.96620000  1.0 -0.5258160196
O  O164  1  0.06340000  0.23080000  0.53380000  1.0 -0.522315707
O  O165  1  0.55370000  0.31880000  0.46660000  1.0 -0.4179948471
O  O166  1  0.44630000  0.81880000  0.03340000  1.0 -0.4179948471
O  O167  1  0.94630000  0.81880000  0.96660000  1.0 -0.4179948471
O  O168  1  0.05370000  0.31880000  0.53340000  1.0 -0.4179948471
O  O169  1  0.08250000  0.55650000  0.23590000  1.0 -0.4179948471
O  O170  1  0.91750000  0.05650000  0.26410000  1.0 -0.4113998475
O  O171  1  0.41750000  0.05650000  0.73590000  1.0 -0.4113998475
O  O172  1  0.58250000  0.55650000  0.76410000  1.0 -0.4113998475
O  O173  1  0.03740000  0.52580000  0.17990000  1.0 -0.522315707
O  O174  1  0.96260000  0.02580000  0.32010000  1.0 -0.522315707
O  O175  1  0.46260000  0.02580000  0.67990000  1.0 -0.522315707
O  O176  1  0.53740000  0.52580000  0.82010000  1.0 -0.522315707
O  O177  1  0.52680000  0.34840000  0.04160000  1.0 -0.9134117476
O  O178  1  0.47320000  0.84840000  0.45840000  1.0 -0.9134117476
O  O179  1  0.97320000  0.84840000  0.54160000  1.0 -0.9134117476
O  O180  1  0.02680000  0.34840000  0.95840000  1.0 -0.9134117476
O  O181  1  0.60740000  0.30560000  0.08560000  1.0 -0.7778111659
O  O182  1  0.39260000  0.80560000  0.41440000  1.0 -0.7778111659
O  O183  1  0.89260000  0.80560000  0.58560000  1.0 -0.7778111659
O  O184  1  0.10740000  0.30560000  0.91440000  1.0 -0.7778111659
O  O185  1  0.57780000  0.36690000  0.15160000  1.0 -0.7911960699
O  O186  1  0.42220000  0.86690000  0.34840000  1.0 -0.7911960699
O  O187  1  0.92220000  0.86690000  0.65160000  1.0 -0.7911960699
O  O188  1  0.07780000  0.36690000  0.84840000  1.0 -0.7911960699
O  O189  1  0.51320000  0.24930000  0.21150000  1.0 -0.8510568535
O  O190  1  0.48680000  0.74930000  0.28850000  1.0 -0.8510568535
O  O191  1  0.98680000  0.74930000  0.71150000  1.0 -0.8510568535
O  O192  1  0.01320000  0.24930000  0.78850000  1.0 -0.8510568535
O  O193  1  0.41940000  0.27690000  0.15650000  1.0 -0.8582235523
O  O194  1  0.58060000  0.77690000  0.34350000  1.0 -0.8582235523
O  O195  1  0.08060000  0.77690000  0.65650000  1.0 -0.8582235523
O  O196  1  0.91940000  0.27690000  0.84350000  1.0 -0.8582235523
O  O197  1  0.42310000  0.31330000  0.08360000  1.0 -0.8411875345
O  O198  1  0.57690000  0.81330000  0.41640000  1.0 -0.8411875345
O  O199  1  0.07690000  0.81330000  0.58360000  1.0 -0.8411875345
O  O200  1  0.92310000  0.31330000  0.91640000  1.0 -0.8411875345
O  O201  1  0.50850000  0.28860000  0.12370000  1.0 -0.8411875345
O  O202  1  0.49150000  0.78860000  0.37630000  1.0 -0.8411875345
O  O203  1  0.99150000  0.78860000  0.62370000  1.0 -0.8411875345
O  O204  1  0.00850000  0.28860000  0.87630000  1.0 -0.8411875345
O  O205  1  0.44740000  0.21960000  0.09500000  1.0 -0.8657983355
O  O206  1  0.55260000  0.71960000  0.40500000  1.0 -0.8657983355
O  O207  1  0.05260000  0.71960000  0.59500000  1.0 -0.8657983355
O  O208  1  0.94740000  0.21960000  0.90500000  1.0 -0.8657983355
O  O209  1  0.64900000  0.20420000  0.10200000  1.0 -0.5060563433
O  O210  1  0.35100000  0.70420000  0.39800000  1.0 -0.5060563433
O  O211  1  0.85100000  0.70420000  0.60200000  1.0 -0.5060563433
O  O212  1  0.14900000  0.20420000  0.89800000  1.0 -0.5060563433
O  O213  1  0.37360000  0.07900000  0.13430000  1.0 -0.522315707
O  O214  1  0.62640000  0.57900000  0.36570000  1.0 -0.522315707
O  O215  1  0.12640000  0.57900000  0.63430000  1.0 -0.522315707
O  O216  1  0.87360000  0.07900000  0.86570000  1.0 -0.522315707
O  O217  1  0.58980000  0.32960000  0.23490000  1.0 -0.4988496354
O  O218  1  0.41020000  0.82960000  0.26510000  1.0 -0.4988496354
O  O219  1  0.91020000  0.82960000  0.73490000  1.0 -0.4988496354
O  O220  1  0.08980000  0.32960000  0.76510000  1.0 -0.4988496354
O  O221  1  0.33310000  0.16310000  0.22590000  1.0 -0.5487981103
O  O222  1  0.66690000  0.66310000  0.27410000  1.0 -0.5487981103
O  O223  1  0.16690000  0.66310000  0.72590000  1.0 -0.5406199954
O  O224  1  0.83310000  0.16310000  0.77410000  1.0 -0.5487981103
O  O225  1  0.40160000  0.41840000  0.06950000  1.0 -0.7961341006
O  O226  1  0.59840000  0.91840000  0.43050000  1.0 -0.7961341006
O  O227  1  0.09840000  0.91840000  0.56950000  1.0 -0.7961341006
O  O228  1  0.90160000  0.41840000  0.93050000  1.0 -0.7961341006
O  O229  1  0.28700000  0.36830000  0.19090000  1.0 -0.4988496354
O  O230  1  0.71300000  0.86830000  0.30910000  1.0 -0.4988496354
O  O231  1  0.21300000  0.86830000  0.69090000  1.0 -0.4988496354
O  O232  1  0.78700000  0.36830000  0.80910000  1.0 -0.4988496354
O  O233  1  0.38330000  0.16850000  0.97770000  1.0 -0.522315707
O  O234  1  0.61670000  0.66850000  0.52230000  1.0 -0.522315707
O  O235  1  0.11670000  0.66850000  0.47770000  1.0 -0.522315707
O  O236  1  0.88330000  0.16850000  0.02230000  1.0 -0.522315707
O  O237  1  0.57180000  0.11460000  0.06760000  1.0 -0.5487981103
O  O238  1  0.42820000  0.61460000  0.43240000  1.0 -0.5487981103
O  O239  1  0.92820000  0.61460000  0.56760000  1.0 -0.5487981103
O  O240  1  0.07180000  0.11460000  0.93240000  1.0 -0.5487981103
O  O241  1  0.47330000  0.31520000  0.27860000  1.0 -0.4988496354
O  O242  1  0.52670000  0.81520000  0.22140000  1.0 -0.491411529
O  O243  1  0.02670000  0.81520000  0.77860000  1.0 -0.491411529
O  O244  1  0.97330000  0.31520000  0.72140000  1.0 -0.491411529
O  O245  1  0.38910000  0.34080000  0.22490000  1.0 -0.8810572706
O  O246  1  0.61090000  0.84080000  0.27510000  1.0 -0.8810572706
O  O247  1  0.11090000  0.84080000  0.72490000  1.0 -0.8810572706
O  O248  1  0.88910000  0.34080000  0.77510000  1.0 -0.8810572706
O  O249  1  0.47040000  0.11630000  0.10850000  1.0 -0.7961341006
O  O250  1  0.52960000  0.61630000  0.39150000  1.0 -0.7961341006
O  O251  1  0.02960000  0.61630000  0.60850000  1.0 -0.7961341006
O  O252  1  0.97040000  0.11630000  0.89150000  1.0 -0.7961341006
O  O253  1  0.35400000  0.29210000  0.96310000  1.0 -0.4988496354
O  O254  1  0.64600000  0.79210000  0.53690000  1.0 -0.4988496354
O  O255  1  0.14600000  0.79210000  0.46310000  1.0 -0.4988496354
O  O256  1  0.85400000  0.29210000  0.03690000  1.0 -0.4988496354
O  O257  1  0.60150000  0.26560000  0.16370000  1.0 -0.7911960699
O  O258  1  0.39850000  0.76560000  0.33630000  1.0 -0.7911960699
O  O259  1  0.89850000  0.76560000  0.66370000  1.0 -0.7911960699
O  O260  1  0.10150000  0.26560000  0.83630000  1.0 -0.7911960699
O  O261  1  0.43340000  0.35560000  0.00360000  1.0 -0.7669017203
O  O262  1  0.56660000  0.85560000  0.49640000  1.0 -0.7669017203
O  O263  1  0.06660000  0.85560000  0.50360000  1.0 -0.7669017203
O  O264  1  0.93340000  0.35560000  0.99640000  1.0 -0.7669017203
O  O265  1  0.37960000  0.14400000  0.06530000  1.0 -0.8089491985
O  O266  1  0.62040000  0.64400000  0.43470000  1.0 -0.8089491985
O  O267  1  0.12040000  0.64400000  0.56530000  1.0 -0.8089491985
O  O268  1  0.87960000  0.14400000  0.93470000  1.0 -0.8089491985
O  O269  1  0.32200000  0.26310000  0.19190000  1.0 -0.7911960699
O  O270  1  0.67800000  0.76310000  0.30810000  1.0 -0.7961341006
O  O271  1  0.17800000  0.76310000  0.69190000  1.0 -0.7911960699
O  O272  1  0.82200000  0.26310000  0.80810000  1.0 -0.7911960699
O  O273  1  0.41300000  0.23560000  0.23550000  1.0 -0.7961341006
O  O274  1  0.58700000  0.73560000  0.26450000  1.0 -0.7961341006
O  O275  1  0.08700000  0.73560000  0.73550000  1.0 -0.7911960699
O  O276  1  0.91300000  0.23560000  0.76450000  1.0 -0.7911960699
O  O277  1  0.44930000  0.25620000  0.00610000  1.0 -0.8582235523
O  O278  1  0.55070000  0.75620000  0.49390000  1.0 -0.8582235523
O  O279  1  0.05070000  0.75620000  0.50610000  1.0 -0.8582235523
O  O280  1  0.94930000  0.25620000  0.99390000  1.0 -0.8582235523
O  O281  1  0.55210000  0.22670000  0.05600000  1.0 -0.8411875345
O  O282  1  0.44790000  0.72670000  0.44400000  1.0 -0.8411875345
O  O283  1  0.94790000  0.72670000  0.55600000  1.0 -0.8411875345
O  O284  1  0.05210000  0.22670000  0.94400000  1.0 -0.8411875345
O  O285  1  0.49890000  0.40130000  0.10090000  1.0 -0.9181231759
O  O286  1  0.50110000  0.90130000  0.39910000  1.0 -0.9181231759
O  O287  1  0.00110000  0.90130000  0.60090000  1.0 -0.9181231759
O  O288  1  0.99890000  0.40130000  0.89910000  1.0 -0.9181231759
O  O289  1  0.38640000  0.38650000  0.14630000  1.0 -0.8510568535
O  O290  1  0.61360000  0.88650000  0.35370000  1.0 -0.8510568535
O  O291  1  0.11360000  0.88650000  0.64630000  1.0 -0.8510568535
O  O292  1  0.88640000  0.38650000  0.85370000  1.0 -0.8510568535
O  O293  1  0.31570000  0.30850000  0.11730000  1.0 -0.8411875345
O  O294  1  0.68430000  0.80850000  0.38270000  1.0 -0.8411875345
O  O295  1  0.18430000  0.80850000  0.61730000  1.0 -0.8411875345
O  O296  1  0.81570000  0.30850000  0.88270000  1.0 -0.8411875345
O  O297  1  0.49020000  0.35550000  0.19440000  1.0 -0.8411875345
O  O298  1  0.50980000  0.85550000  0.30560000  1.0 -0.8411875345
O  O299  1  0.00980000  0.85550000  0.69440000  1.0 -0.8411875345
O  O300  1  0.99020000  0.35550000  0.80560000  1.0 -0.8411875345
O  O301  1  0.47940000  0.15790000  0.02570000  1.0 -0.8880535724
O  O302  1  0.52060000  0.65790000  0.47430000  1.0 -0.8880535724
O  O303  1  0.02060000  0.65790000  0.52570000  1.0 -0.8880535724
O  O304  1  0.97940000  0.15790000  0.97430000  1.0 -0.8810572706
O  O305  1  0.34700000  0.18890000  0.13820000  1.0 -0.925229347
O  O306  1  0.65300000  0.68890000  0.36180000  1.0 -0.925229347
O  O307  1  0.15300000  0.68890000  0.63820000  1.0 -0.9181231759
O  O308  1  0.84700000  0.18890000  0.86180000  1.0 -0.925229347
O  O309  1  0.42740000  0.16400000  0.17470000  1.0 -0.9134117476
O  O310  1  0.57260000  0.66400000  0.32530000  1.0 -0.9134117476
O  O311  1  0.07260000  0.66400000  0.67470000  1.0 -0.9134117476
O  O312  1  0.92740000  0.16400000  0.82530000  1.0 -0.9134117476
O  O313  1  0.33750000  0.34290000  0.03930000  1.0 -0.7669017203
O  O314  1  0.66250000  0.84290000  0.46070000  1.0 -0.7669017203
O  O315  1  0.16250000  0.84290000  0.53930000  1.0 -0.7669017203
O  O316  1  0.83750000  0.34290000  0.96070000  1.0 -0.7669017203
O  O317  1  0.34800000  0.23970000  0.04450000  1.0 -0.8510568535
O  O318  1  0.65200000  0.73970000  0.45550000  1.0 -0.8510568535
O  O319  1  0.15200000  0.73970000  0.54450000  1.0 -0.8510568535
O  O320  1  0.84800000  0.23970000  0.95550000  1.0 -0.8510568535
O  O321  1  0.54560000  0.18130000  0.13720000  1.0 -0.8582235523
O  O322  1  0.45440000  0.68130000  0.36280000  1.0 -0.8582235523
O  O323  1  0.95440000  0.68130000  0.63720000  1.0 -0.8582235523
O  O324  1  0.04560000  0.18130000  0.86280000  1.0 -0.8510568535
O  O325  1  0.48560000  0.44750000  0.01860000  1.0 -0.4569469951
O  O326  1  0.51440000  0.94750000  0.48140000  1.0 -0.4530636432
O  O327  1  0.01440000  0.94750000  0.51860000  1.0 -0.4530636432
O  O328  1  0.98560000  0.44750000  0.98140000  1.0 -0.4530636432
O  O329  1  0.60930000  0.41270000  0.07700000  1.0 -0.491411529
O  O330  1  0.39070000  0.91270000  0.42300000  1.0 -0.4988496354
O  O331  1  0.89070000  0.91270000  0.57700000  1.0 -0.4988496354
O  O332  1  0.10930000  0.41270000  0.92300000  1.0 -0.4988496354
O  O333  1  0.29410000  0.41780000  0.09660000  1.0 -0.5406199954
O  O334  1  0.70590000  0.91780000  0.40340000  1.0 -0.5406199954
O  O335  1  0.20590000  0.91780000  0.59660000  1.0 -0.5406199954
O  O336  1  0.79410000  0.41780000  0.90340000  1.0 -0.5406199954
O  O337  1  0.06340000  0.26920000  0.03380000  1.0 -0.5258160196
O  O338  1  0.93660000  0.76920000  0.46620000  1.0 -0.522315707
O  O339  1  0.43660000  0.76920000  0.53380000  1.0 -0.522315707
O  O340  1  0.56340000  0.26920000  0.96620000  1.0 -0.5258160196
O  O341  1  0.05370000  0.18120000  0.03340000  1.0 -0.4179948471
O  O342  1  0.94630000  0.68120000  0.46660000  1.0 -0.4179948471
O  O343  1  0.44630000  0.68120000  0.53340000  1.0 -0.4179948471
O  O344  1  0.55370000  0.18120000  0.96660000  1.0 -0.4179948471
O  O345  1  0.58250000  0.94350000  0.26410000  1.0 -0.4113998475
O  O346  1  0.41750000  0.44350000  0.23590000  1.0 -0.4179948471
O  O347  1  0.91750000  0.44350000  0.76410000  1.0 -0.4113998475
O  O348  1  0.08250000  0.94350000  0.73590000  1.0 -0.4113998475
O  O349  1  0.53740000  0.97420000  0.32010000  1.0 -0.522315707
O  O350  1  0.46260000  0.47420000  0.17990000  1.0 -0.522315707
O  O351  1  0.96260000  0.47420000  0.82010000  1.0 -0.522315707
O  O352  1  0.03740000  0.97420000  0.67990000  1.0 -0.522315707
