# DDEC6 charges by PACMAN v1.1 (https://github.com/mtap-research/PACMAN-charge/)
data_MAWFEY_FSR_pacman
_symmetry_space_group_name_H-M   'P 1'
_cell_length_a   34.31030000
_cell_length_b   34.31030000
_cell_length_c   34.31030000
_cell_angle_alpha   129.18200000
_cell_angle_beta   129.18200000
_cell_angle_gamma   74.71810000
_symmetry_Int_Tables_number   1
_chemical_formula_structural   Zn4Mo12PH16C24(NO22)2
_chemical_formula_sum   'Zn32 Mo96 P8 H128 C192 N16 O352'
_cell_volume   23642.22926978
_cell_formula_units_Z   8
loop_
 _symmetry_equiv_pos_site_id
 _symmetry_equiv_pos_as_xyz
  1  'x, y, z'
loop_
 _atom_site_type_symbol
 _atom_site_label
 _atom_site_symmetry_multiplicity
 _atom_site_fract_x
 _atom_site_fract_y
 _atom_site_fract_z
 _atom_site_occupancy
 _atom_site_charge
Zn  Zn1  1  0.11998000  0.52140000  0.72190000  1.0 1.0575885876
Zn  Zn2  1  0.10192000  0.70050000  0.72190000  1.0 1.0575885876
Zn  Zn3  1  0.95050000  0.85192000  0.22190000  1.0 1.0575885876
Zn  Zn4  1  0.77140000  0.86998000  0.22190000  1.0 1.0575885876
Zn  Zn5  1  0.11672000  0.73190000  0.91358000  1.0 0.9349659263
Zn  Zn6  1  0.29686000  0.68168000  0.91358000  1.0 0.9349659263
Zn  Zn7  1  0.93168000  0.04686000  0.41358000  1.0 0.9362887123
Zn  Zn8  1  0.98190000  0.86672000  0.41358000  1.0 0.9362887123
Zn  Zn9  1  0.79950000  0.39808000  0.27810000  1.0 1.0575885876
Zn  Zn10  1  0.97860000  0.38002000  0.27810000  1.0 1.0575885876
Zn  Zn11  1  0.63002000  0.72860000  0.77810000  1.0 1.0575885876
Zn  Zn12  1  0.64808000  0.54950000  0.77810000  1.0 1.0575885876
Zn  Zn13  1  0.81832000  0.20314000  0.08642000  1.0 0.9362887123
Zn  Zn14  1  0.76810000  0.38328000  0.08642000  1.0 0.9362887123
Zn  Zn15  1  0.63328000  0.51810000  0.58642000  1.0 0.9362887123
Zn  Zn16  1  0.45314000  0.56832000  0.58642000  1.0 0.9362887123
Zn  Zn17  1  0.14808000  0.36998000  0.09858000  1.0 1.0575885876
Zn  Zn18  1  0.13002000  0.35192000  0.90142000  1.0 1.0575885876
Zn  Zn19  1  0.47860000  0.20050000  0.59858000  1.0 1.0575885876
Zn  Zn20  1  0.29950000  0.02140000  0.40142000  1.0 1.0575885876
Zn  Zn21  1  0.95314000  0.36672000  0.88482000  1.0 0.9362887123
Zn  Zn22  1  0.13328000  0.54686000  0.11518000  1.0 0.9362887123
Zn  Zn23  1  0.26810000  0.18168000  0.38482000  1.0 0.9349659263
Zn  Zn24  1  0.31832000  0.23190000  0.61518000  1.0 0.9349659263
Zn  Zn25  1  0.27140000  0.04950000  0.90142000  1.0 1.0575885876
Zn  Zn26  1  0.45050000  0.22860000  0.09858000  1.0 1.0575885876
Zn  Zn27  1  0.60192000  0.88002000  0.40142000  1.0 1.0575885876
Zn  Zn28  1  0.61998000  0.89808000  0.59858000  1.0 1.0575885876
Zn  Zn29  1  0.48190000  0.06832000  0.11518000  1.0 0.9362887123
Zn  Zn30  1  0.43168000  0.01810000  0.88482000  1.0 0.9362887123
Zn  Zn31  1  0.79686000  0.88328000  0.61518000  1.0 0.9362887123
Zn  Zn32  1  0.61672000  0.70314000  0.38482000  1.0 0.9362887123
Mo  Mo1  1  0.13167000  0.60245000  0.86350000  1.0 2.0128410397
Mo  Mo2  1  0.23183000  0.76105000  0.86350000  1.0 2.0128410397
Mo  Mo3  1  0.01105000  0.98183000  0.36350000  1.0 2.0161088883
Mo  Mo4  1  0.85245000  0.88167000  0.36350000  1.0 2.0161088883
Mo  Mo5  1  0.24079000  0.78055000  0.98342000  1.0 2.0257871329
Mo  Mo6  1  0.24263000  0.70287000  0.98342000  1.0 2.0257871329
Mo  Mo7  1  0.95287000  0.99263000  0.48342000  1.0 2.0257871329
Mo  Mo8  1  0.03055000  0.99079000  0.48342000  1.0 2.0257871329
Mo  Mo9  1  0.04477000  0.60339000  0.77234000  1.0 1.9999991775
Mo  Mo10  1  0.22757000  0.66895000  0.77234000  1.0 1.9999991775
Mo  Mo11  1  0.91895000  0.97757000  0.27234000  1.0 1.9999991775
Mo  Mo12  1  0.85339000  0.79477000  0.27234000  1.0 1.9999991775
Mo  Mo13  1  0.03653000  0.58438000  0.65237000  1.0 1.9999991775
Mo  Mo14  1  0.11584000  0.56799000  0.65237000  1.0 1.9999991775
Mo  Mo15  1  0.81799000  0.86584000  0.15237000  1.0 1.9999991775
Mo  Mo16  1  0.83438000  0.78653000  0.15237000  1.0 1.9999991775
Mo  Mo17  1  0.03114000  0.70106000  0.76300000  1.0 2.0716826338
Mo  Mo18  1  0.23186000  0.56194000  0.76300000  1.0 2.0716826338
Mo  Mo19  1  0.81194000  0.98186000  0.26300000  1.0 2.0716826338
Mo  Mo20  1  0.95106000  0.78114000  0.26300000  1.0 2.0716826338
Mo  Mo21  1  0.13184000  0.79184000  0.87116000  1.0 2.0630772256
Mo  Mo22  1  0.23932000  0.57932000  0.87116000  1.0 2.0630772256
Mo  Mo23  1  0.82932000  0.98932000  0.37116000  1.0 2.0630772256
Mo  Mo24  1  0.04184000  0.88184000  0.37116000  1.0 2.0630772256
Mo  Mo25  1  0.73895000  0.26817000  0.13650000  1.0 2.0161088883
Mo  Mo26  1  0.89755000  0.36833000  0.13650000  1.0 2.0128410397
Mo  Mo27  1  0.61833000  0.64755000  0.63650000  1.0 2.0161088883
Mo  Mo28  1  0.51817000  0.48895000  0.63650000  1.0 2.0161088883
Mo  Mo29  1  0.79713000  0.25737000  0.01658000  1.0 2.0257871329
Mo  Mo30  1  0.71945000  0.25921000  0.01658000  1.0 2.0257871329
Mo  Mo31  1  0.50921000  0.46945000  0.51658000  1.0 2.0257871329
Mo  Mo32  1  0.50737000  0.54713000  0.51658000  1.0 2.0257871329
Mo  Mo33  1  0.83105000  0.27243000  0.22766000  1.0 1.9999991775
Mo  Mo34  1  0.89661000  0.45523000  0.22766000  1.0 2.0128410397
Mo  Mo35  1  0.70523000  0.64661000  0.72766000  1.0 1.9999991775
Mo  Mo36  1  0.52243000  0.58105000  0.72766000  1.0 1.9999991775
Mo  Mo37  1  0.93201000  0.38416000  0.34763000  1.0 1.9999991775
Mo  Mo38  1  0.91562000  0.46347000  0.34763000  1.0 1.9999991775
Mo  Mo39  1  0.71347000  0.66562000  0.84763000  1.0 1.9999991775
Mo  Mo40  1  0.63416000  0.68201000  0.84763000  1.0 1.9999991775
Mo  Mo41  1  0.93806000  0.26814000  0.23700000  1.0 2.0630772256
Mo  Mo42  1  0.79894000  0.46886000  0.23700000  1.0 2.0716826338
Mo  Mo43  1  0.71886000  0.54894000  0.73700000  1.0 2.0716826338
Mo  Mo44  1  0.51814000  0.68806000  0.73700000  1.0 2.0716826338
Mo  Mo45  1  0.92068000  0.26068000  0.12884000  1.0 2.0630772256
Mo  Mo46  1  0.70816000  0.36816000  0.12884000  1.0 2.0630772256
Mo  Mo47  1  0.61816000  0.45816000  0.62884000  1.0 2.0630772256
Mo  Mo48  1  0.51068000  0.67068000  0.62884000  1.0 2.0630772256
Mo  Mo49  1  0.01817000  0.38167000  0.02922000  1.0 2.0161088883
Mo  Mo50  1  0.11833000  0.48183000  0.97078000  1.0 2.0161088883
Mo  Mo51  1  0.39755000  0.26105000  0.52922000  1.0 2.0161088883
Mo  Mo52  1  0.23895000  0.10245000  0.47078000  1.0 2.0161088883
Mo  Mo53  1  0.00737000  0.49079000  0.96024000  1.0 2.0257871329
Mo  Mo54  1  0.00921000  0.49263000  0.03976000  1.0 2.0257871329
Mo  Mo55  1  0.21945000  0.20287000  0.46024000  1.0 2.0257871329
Mo  Mo56  1  0.29713000  0.28055000  0.53976000  1.0 2.0257871329
Mo  Mo57  1  0.02243000  0.29477000  0.94138000  1.0 1.9999991775
Mo  Mo58  1  0.20523000  0.47757000  0.05862000  1.0 1.9999991775
Mo  Mo59  1  0.39661000  0.16895000  0.44138000  1.0 1.9999991775
Mo  Mo60  1  0.33105000  0.10339000  0.55862000  1.0 1.9999991775
Mo  Mo61  1  0.13416000  0.28653000  0.95215000  1.0 1.9999991775
Mo  Mo62  1  0.21347000  0.36584000  0.04785000  1.0 1.9999991775
Mo  Mo63  1  0.41562000  0.06799000  0.45215000  1.0 1.9999991775
Mo  Mo64  1  0.43201000  0.08438000  0.54785000  1.0 1.9999991775
Mo  Mo65  1  0.01814000  0.28114000  0.83008000  1.0 2.0716826338
Mo  Mo66  1  0.21886000  0.48186000  0.16992000  1.0 2.0716826338
Mo  Mo67  1  0.29894000  0.06194000  0.33008000  1.0 2.0716826338
Mo  Mo68  1  0.43806000  0.20106000  0.66992000  1.0 2.0716826338
Mo  Mo69  1  0.01068000  0.38184000  0.84000000  1.0 2.0630772256
Mo  Mo70  1  0.11816000  0.48932000  0.16000000  1.0 2.0630772256
Mo  Mo71  1  0.20816000  0.07932000  0.34000000  1.0 2.0630772256
Mo  Mo72  1  0.42068000  0.29184000  0.66000000  1.0 2.0630772256
Mo  Mo73  1  0.35245000  0.98895000  0.97078000  1.0 2.0161088883
Mo  Mo74  1  0.51105000  0.14755000  0.02922000  1.0 2.0161088883
Mo  Mo75  1  0.73183000  0.86833000  0.47078000  1.0 2.0128410397
Mo  Mo76  1  0.63167000  0.76817000  0.52922000  1.0 2.0161088883
Mo  Mo77  1  0.53055000  0.04713000  0.03976000  1.0 2.0257871329
Mo  Mo78  1  0.45287000  0.96945000  0.96024000  1.0 2.0257871329
Mo  Mo79  1  0.74263000  0.75921000  0.53976000  1.0 2.0257871329
Mo  Mo80  1  0.74079000  0.75737000  0.46024000  1.0 2.0257871329
Mo  Mo81  1  0.35339000  0.08105000  0.05862000  1.0 1.9999991775
Mo  Mo82  1  0.41895000  0.14661000  0.94138000  1.0 1.9999991775
Mo  Mo83  1  0.72757000  0.95523000  0.55862000  1.0 1.9999991775
Mo  Mo84  1  0.54477000  0.77243000  0.44138000  1.0 1.9999991775
Mo  Mo85  1  0.33438000  0.18201000  0.04785000  1.0 1.9999991775
Mo  Mo86  1  0.31799000  0.16562000  0.95215000  1.0 1.9999991775
Mo  Mo87  1  0.61584000  0.96347000  0.54785000  1.0 1.9999991775
Mo  Mo88  1  0.53653000  0.88416000  0.45215000  1.0 1.9999991775
Mo  Mo89  1  0.45106000  0.18806000  0.16992000  1.0 2.0716826338
Mo  Mo90  1  0.31194000  0.04894000  0.83008000  1.0 2.0716826338
Mo  Mo91  1  0.73186000  0.96886000  0.66992000  1.0 2.0716826338
Mo  Mo92  1  0.53114000  0.76814000  0.33008000  1.0 2.0716826338
Mo  Mo93  1  0.54184000  0.17068000  0.16000000  1.0 2.0630772256
Mo  Mo94  1  0.32932000  0.95816000  0.84000000  1.0 2.0630772256
Mo  Mo95  1  0.73932000  0.86816000  0.66000000  1.0 2.0630772256
Mo  Mo96  1  0.63184000  0.76068000  0.34000000  1.0 2.0630772256
P  P1  1  0.15820000  0.65820000  0.81640000  1.0 1.3908940135
P  P2  1  0.90820000  0.90820000  0.31640000  1.0 1.3908940135
P  P3  1  0.84180000  0.34180000  0.18360000  1.0 1.3908940135
P  P4  1  0.59180000  0.59180000  0.68360000  1.0 1.3908940135
P  P5  1  0.09180000  0.40820000  0.00000000  1.0 1.3908940135
P  P6  1  0.34180000  0.15820000  0.50000000  1.0 1.3908940135
P  P7  1  0.40820000  0.09180000  0.00000000  1.0 1.3908940135
P  P8  1  0.65820000  0.84180000  0.50000000  1.0 1.3908940135
H  H1  1  0.09850000  0.36840000  0.65570000  1.0 0.1207187721
H  H2  1  0.05720000  0.78730000  0.65570000  1.0 0.1207187721
H  H3  1  0.03730000  0.80720000  0.15570000  1.0 0.1207187721
H  H4  1  0.61840000  0.84850000  0.15570000  1.0 0.1207187721
H  H5  1  0.07190000  0.27930000  0.59940000  1.0 0.1073408386
H  H6  1  0.02750000  0.82010000  0.59940000  1.0 0.1073408386
H  H7  1  0.07010000  0.77750000  0.09940000  1.0 0.1073408386
H  H8  1  0.52930000  0.82190000  0.09940000  1.0 0.1073408386
H  H9  1  0.04760000  0.20460000  0.54400000  1.0 0.1384016197
H  H10  1  0.99640000  0.83940000  0.54400000  1.0 0.1384016197
H  H11  1  0.08940000  0.74640000  0.04400000  1.0 0.1384016197
H  H12  1  0.45460000  0.79760000  0.04400000  1.0 0.1384016197
H  H13  1  0.02040000  0.11710000  0.49370000  1.0 0.1384016197
H  H14  1  0.97330000  0.87660000  0.49370000  1.0 0.1384016197
H  H15  1  0.12660000  0.72330000  0.99370000  1.0 0.1384016197
H  H16  1  0.36710000  0.77040000  0.99370000  1.0 0.1384016197
H  H17  1  0.95430000  0.36990000  0.54280000  1.0 0.1312221918
H  H18  1  0.08850000  0.67290000  0.54280000  1.0 0.1312221918
H  H19  1  0.92290000  0.83850000  0.04280000  1.0 0.1312221918
H  H20  1  0.61990000  0.70430000  0.04280000  1.0 0.1312221918
H  H21  1  0.91680000  0.22840000  0.50520000  1.0 0.1312221918
H  H22  1  0.08840000  0.77680000  0.50520000  1.0 0.1312221918
H  H23  1  0.02680000  0.83840000  0.00520000  1.0 0.1312221918
H  H24  1  0.47840000  0.66680000  0.00520000  1.0 0.1312221918
H  H25  1  0.88950000  0.14040000  0.45010000  1.0 0.1384016197
H  H26  1  0.06060000  0.80970000  0.45010000  1.0 0.1384016197
H  H27  1  0.05970000  0.81060000  0.95010000  1.0 0.1384016197
H  H28  1  0.39040000  0.63950000  0.95010000  1.0 0.1384016197
H  H29  1  0.92850000  0.28950000  0.50740000  1.0 0.1207187721
H  H30  1  0.07890000  0.71790000  0.50740000  1.0 0.1207187721
H  H31  1  0.96790000  0.82890000  0.00740000  1.0 0.1207187721
H  H32  1  0.53950000  0.67850000  0.00740000  1.0 0.1207187721
H  H33  1  0.71270000  0.44280000  0.34430000  1.0 0.1207187721
H  H34  1  0.13160000  0.40150000  0.34430000  1.0 0.1207187721
H  H35  1  0.65150000  0.88160000  0.84430000  1.0 0.1207187721
H  H36  1  0.69280000  0.46270000  0.84430000  1.0 0.1207187721
H  H37  1  0.67990000  0.47250000  0.40060000  1.0 0.1073408386
H  H38  1  0.22070000  0.42810000  0.40060000  1.0 0.1073408386
H  H39  1  0.67810000  0.97070000  0.90060000  1.0 0.1073408386
H  H40  1  0.72250000  0.42990000  0.90060000  1.0 0.1073408386
H  H41  1  0.66060000  0.50360000  0.45600000  1.0 0.1384016197
H  H42  1  0.29540000  0.45240000  0.45600000  1.0 0.1384016197
H  H43  1  0.70240000  0.04540000  0.95600000  1.0 0.1384016197
H  H44  1  0.75360000  0.41060000  0.95600000  1.0 0.1384016197
H  H45  1  0.62340000  0.52670000  0.50630000  1.0 0.1384016197
H  H46  1  0.38290000  0.47960000  0.50630000  1.0 0.1384016197
H  H47  1  0.72960000  0.13290000  0.00630000  1.0 0.1384016197
H  H48  1  0.77670000  0.37340000  0.00630000  1.0 0.1384016197
H  H49  1  0.82710000  0.41150000  0.45720000  1.0 0.1312221918
H  H50  1  0.13010000  0.54570000  0.45720000  1.0 0.1312221918
H  H51  1  0.79570000  0.88010000  0.95720000  1.0 0.1312221918
H  H52  1  0.66150000  0.57710000  0.95720000  1.0 0.1312221918
H  H53  1  0.72320000  0.41160000  0.49480000  1.0 0.1312221918
H  H54  1  0.27160000  0.58320000  0.49480000  1.0 0.1312221918
H  H55  1  0.83320000  0.02160000  0.99480000  1.0 0.1312221918
H  H56  1  0.66160000  0.47320000  0.99480000  1.0 0.1312221918
H  H57  1  0.69030000  0.43940000  0.54990000  1.0 0.1384016197
H  H58  1  0.35960000  0.61050000  0.54990000  1.0 0.1384016197
H  H59  1  0.86050000  0.10960000  0.04990000  1.0 0.1384016197
H  H60  1  0.68940000  0.44030000  0.04990000  1.0 0.1384016197
H  H61  1  0.78210000  0.42110000  0.49260000  1.0 0.1207187721
H  H62  1  0.21050000  0.57150000  0.49260000  1.0 0.1207187721
H  H63  1  0.82150000  0.96050000  0.99260000  1.0 0.1207187721
H  H64  1  0.67110000  0.53210000  0.99260000  1.0 0.1207187721
H  H65  1  0.19280000  0.34850000  0.23010000  1.0 0.1207187721
H  H66  1  0.15150000  0.30720000  0.76990000  1.0 0.1207187721
H  H67  1  0.63160000  0.28730000  0.73010000  1.0 0.1207187721
H  H68  1  0.21270000  0.86840000  0.26990000  1.0 0.1207187721
H  H69  1  0.22250000  0.32190000  0.29260000  1.0 0.1073408386
H  H70  1  0.17810000  0.27750000  0.70740000  1.0 0.1073408386
H  H71  1  0.72070000  0.32010000  0.79260000  1.0 0.1073408386
H  H72  1  0.17990000  0.77930000  0.20740000  1.0 0.1073408386
H  H73  1  0.25360000  0.29760000  0.34300000  1.0 0.1384016197
H  H74  1  0.20240000  0.24640000  0.65700000  1.0 0.1384016197
H  H75  1  0.79540000  0.33940000  0.84300000  1.0 0.1384016197
H  H76  1  0.16060000  0.70460000  0.15700000  1.0 0.1384016197
H  H77  1  0.27670000  0.27040000  0.40330000  1.0 0.1384016197
H  H78  1  0.22960000  0.22330000  0.59670000  1.0 0.1384016197
H  H79  1  0.88290000  0.37660000  0.90330000  1.0 0.1384016197
H  H80  1  0.12340000  0.61710000  0.09670000  1.0 0.1384016197
H  H81  1  0.16150000  0.20430000  0.08440000  1.0 0.1312221918
H  H82  1  0.29570000  0.33850000  0.91560000  1.0 0.1312221918
H  H83  1  0.63010000  0.17290000  0.58440000  1.0 0.1312221918
H  H84  1  0.32710000  0.86990000  0.41560000  1.0 0.1312221918
H  H85  1  0.16160000  0.16680000  0.18840000  1.0 0.1312221918
H  H86  1  0.33320000  0.33840000  0.81160000  1.0 0.1312221918
H  H87  1  0.77160000  0.27680000  0.68840000  1.0 0.1312221918
H  H88  1  0.22320000  0.72840000  0.31160000  1.0 0.1312221918
H  H89  1  0.18940000  0.13950000  0.24910000  1.0 0.1384016197
H  H90  1  0.36050000  0.31060000  0.75090000  1.0 0.1384016197
H  H91  1  0.85960000  0.30970000  0.74910000  1.0 0.1384016197
H  H92  1  0.19030000  0.64040000  0.25090000  1.0 0.1384016197
H  H93  1  0.17110000  0.17850000  0.13900000  1.0 0.1207187721
H  H94  1  0.32150000  0.32890000  0.86100000  1.0 0.1207187721
H  H95  1  0.71050000  0.21790000  0.63900000  1.0 0.1207187721
H  H96  1  0.28210000  0.78950000  0.36100000  1.0 0.1207187721
H  H97  1  0.11840000  0.96270000  0.76990000  1.0 0.1207187721
H  H98  1  0.53730000  0.38160000  0.23010000  1.0 0.1207187721
H  H99  1  0.55720000  0.90150000  0.26990000  1.0 0.1207187721
H  H100  1  0.59850000  0.94280000  0.73010000  1.0 0.1207187721
H  H101  1  0.02930000  0.92990000  0.70740000  1.0 0.1073408386
H  H102  1  0.57010000  0.47070000  0.29260000  1.0 0.1073408386
H  H103  1  0.52750000  0.92810000  0.20740000  1.0 0.1073408386
H  H104  1  0.57190000  0.97250000  0.79260000  1.0 0.1073408386
H  H105  1  0.95460000  0.91060000  0.65700000  1.0 0.1384016197
H  H106  1  0.58940000  0.54540000  0.34300000  1.0 0.1384016197
H  H107  1  0.49640000  0.95240000  0.15700000  1.0 0.1384016197
H  H108  1  0.54760000  0.00360000  0.84300000  1.0 0.1384016197
H  H109  1  0.86710000  0.87340000  0.59670000  1.0 0.1384016197
H  H110  1  0.62660000  0.63290000  0.40330000  1.0 0.1384016197
H  H111  1  0.47330000  0.97960000  0.09670000  1.0 0.1384016197
H  H112  1  0.52040000  0.02670000  0.90330000  1.0 0.1384016197
H  H113  1  0.11990000  0.07710000  0.91560000  1.0 0.1312221918
H  H114  1  0.42290000  0.38010000  0.08440000  1.0 0.1312221918
H  H115  1  0.58850000  0.04570000  0.41560000  1.0 0.1312221918
H  H116  1  0.45430000  0.91150000  0.58440000  1.0 0.1312221918
H  H117  1  0.97840000  0.97320000  0.81160000  1.0 0.1312221918
H  H118  1  0.52680000  0.52160000  0.18840000  1.0 0.1312221918
H  H119  1  0.58840000  0.08320000  0.31160000  1.0 0.1312221918
H  H120  1  0.41680000  0.91160000  0.68840000  1.0 0.1312221918
H  H121  1  0.89040000  0.94030000  0.75090000  1.0 0.1384016197
H  H122  1  0.55970000  0.60960000  0.24910000  1.0 0.1384016197
H  H123  1  0.56060000  0.11050000  0.25090000  1.0 0.1384016197
H  H124  1  0.38950000  0.93940000  0.74910000  1.0 0.1384016197
H  H125  1  0.03950000  0.03210000  0.86100000  1.0 0.1207187721
H  H126  1  0.46790000  0.46050000  0.13900000  1.0 0.1207187721
H  H127  1  0.57890000  0.07150000  0.36100000  1.0 0.1207187721
H  H128  1  0.42850000  0.92110000  0.63900000  1.0 0.1207187721
C  C1  1  0.03000000  0.37570000  0.59950000  1.0 -0.0291680989
C  C2  1  0.06950000  0.72380000  0.59950000  1.0 -0.0291680989
C  C3  1  0.97380000  0.81950000  0.09950000  1.0 -0.0291680989
C  C4  1  0.62570000  0.78000000  0.09950000  1.0 -0.0291680989
C  C5  1  0.06400000  0.35130000  0.62090000  1.0 -0.0811423764
C  C6  1  0.05690000  0.76960000  0.62090000  1.0 -0.0811423764
C  C7  1  0.01960000  0.80690000  0.12090000  1.0 -0.0811423764
C  C8  1  0.60130000  0.81400000  0.12090000  1.0 -0.0811423764
C  C9  1  0.04780000  0.43000000  0.63120000  1.0 0.5666882445
C  C10  1  0.08340000  0.70120000  0.63120000  1.0 0.5666882445
C  C11  1  0.95120000  0.83340000  0.13120000  1.0 0.5666882445
C  C12  1  0.68000000  0.79780000  0.13120000  1.0 0.5666882445
C  C13  1  0.98060000  0.22420000  0.52040000  1.0 0.1073408386
C  C14  1  0.03980000  0.79620000  0.52040000  1.0 0.1073408386
C  C15  1  0.04620000  0.78980000  0.02040000  1.0 0.1073408386
C  C16  1  0.47420000  0.73060000  0.02040000  1.0 0.1073408386
C  C17  1  0.04740000  0.29830000  0.59030000  1.0 -0.1704187095
C  C18  1  0.04290000  0.79200000  0.59030000  1.0 -0.1704187095
C  C19  1  0.04200000  0.79290000  0.09030000  1.0 -0.1704187095
C  C20  1  0.54830000  0.79740000  0.09030000  1.0 -0.1704187095
C  C21  1  0.99590000  0.27630000  0.54800000  1.0 0.0833100481
C  C22  1  0.05210000  0.77170000  0.54800000  1.0 0.0833100481
C  C23  1  0.02170000  0.80210000  0.04800000  1.0 0.0833100481
C  C24  1  0.52630000  0.74590000  0.04800000  1.0 0.0833100481
C  C25  1  0.01350000  0.19220000  0.52250000  1.0 -0.2209257315
C  C26  1  0.00900000  0.83030000  0.52250000  1.0 -0.2209257315
C  C27  1  0.08030000  0.75900000  0.02250000  1.0 -0.2209257315
C  C28  1  0.44220000  0.76350000  0.02250000  1.0 -0.2209257315
C  C29  1  0.99720000  0.13860000  0.49200000  1.0 0.1207187721
C  C30  1  0.99480000  0.85340000  0.49200000  1.0 0.1207187721
C  C31  1  0.10340000  0.74480000  0.99200000  1.0 0.1207187721
C  C32  1  0.38860000  0.74720000  0.99200000  1.0 0.1207187721
C  C33  1  0.97910000  0.35310000  0.55700000  1.0 -0.0811423764
C  C34  1  0.07790000  0.70390000  0.55700000  1.0 -0.0811423764
C  C35  1  0.95390000  0.82790000  0.05700000  1.0 -0.0811423764
C  C36  1  0.60310000  0.72910000  0.05700000  1.0 -0.0811423764
C  C37  1  0.93850000  0.20630000  0.49980000  1.0 -0.1940550468
C  C38  1  0.06130000  0.79350000  0.49980000  1.0 -0.1940550468
C  C39  1  0.04350000  0.81130000  0.99980000  1.0 -0.1940550468
C  C40  1  0.45630000  0.68850000  0.99980000  1.0 -0.1940550468
C  C41  1  0.92220000  0.15190000  0.46730000  1.0 0.1384016197
C  C42  1  0.04510000  0.81540000  0.46730000  1.0 0.1384016197
C  C43  1  0.06540000  0.79510000  0.96730000  1.0 0.1384016197
C  C44  1  0.40190000  0.67220000  0.96730000  1.0 0.1384016197
C  C45  1  0.96360000  0.30310000  0.53390000  1.0 -0.1325213703
C  C46  1  0.07030000  0.73080000  0.53390000  1.0 -0.1325213703
C  C47  1  0.98080000  0.82030000  0.03390000  1.0 -0.1325213703
C  C48  1  0.55310000  0.71360000  0.03390000  1.0 -0.1325213703
C  C49  1  0.77620000  0.43050000  0.40050000  1.0 -0.0291680989
C  C50  1  0.12430000  0.47000000  0.40050000  1.0 -0.0291680989
C  C51  1  0.72000000  0.87430000  0.90050000  1.0 -0.0291680989
C  C52  1  0.68050000  0.52620000  0.90050000  1.0 -0.0291680989
C  C53  1  0.73040000  0.44310000  0.37910000  1.0 -0.0811423764
C  C54  1  0.14870000  0.43600000  0.37910000  1.0 -0.0811423764
C  C55  1  0.68600000  0.89870000  0.87910000  1.0 -0.0811423764
C  C56  1  0.69310000  0.48040000  0.87910000  1.0 -0.0811423764
C  C57  1  0.79880000  0.41660000  0.36880000  1.0 0.5666882445
C  C58  1  0.07000000  0.45220000  0.36880000  1.0 0.5666882445
C  C59  1  0.70220000  0.82000000  0.86880000  1.0 0.5666882445
C  C60  1  0.66666667  0.54880000  0.86880000  1.0 0.5666882445
C  C61  1  0.70380000  0.46020000  0.47960000  1.0 0.1073408386
C  C62  1  0.27580000  0.51940000  0.47960000  1.0 0.1073408386
C  C63  1  0.76940000  0.02580000  0.97960000  1.0 0.1073408386
C  C64  1  0.71020000  0.45380000  0.97960000  1.0 0.1073408386
C  C65  1  0.70800000  0.45710000  0.40970000  1.0 -0.1704187095
C  C66  1  0.20170000  0.45260000  0.40970000  1.0 -0.1704187095
C  C67  1  0.70260000  0.95170000  0.90970000  1.0 -0.1704187095
C  C68  1  0.70710000  0.45800000  0.90970000  1.0 -0.1704187095
C  C69  1  0.72830000  0.44790000  0.45200000  1.0 0.0833100481
C  C70  1  0.22370000  0.50410000  0.45200000  1.0 0.0833100481
C  C71  1  0.75410000  0.97370000  0.95200000  1.0 0.0833100481
C  C72  1  0.69790000  0.47830000  0.95200000  1.0 0.0833100481
C  C73  1  0.66970000  0.49100000  0.47750000  1.0 -0.2209257315
C  C74  1  0.30780000  0.48650000  0.47750000  1.0 -0.2209257315
C  C75  1  0.73650000  0.05780000  0.97750000  1.0 -0.2209257315
C  C76  1  0.74100000  0.41970000  0.97750000  1.0 -0.2209257315
C  C77  1  0.64660000  0.50520000  0.50800000  1.0 0.1207187721
C  C78  1  0.36140000  0.50280000  0.50800000  1.0 0.1207187721
C  C79  1  0.75280000  0.11140000  0.00800000  1.0 0.1207187721
C  C80  1  0.75520000  0.39660000  0.00800000  1.0 0.1207187721
C  C81  1  0.79610000  0.42210000  0.44300000  1.0 -0.0811423764
C  C82  1  0.14690000  0.52090000  0.44300000  1.0 -0.0811423764
C  C83  1  0.77090000  0.89690000  0.94300000  1.0 -0.0811423764
C  C84  1  0.67210000  0.54610000  0.94300000  1.0 -0.0811423764
C  C85  1  0.70650000  0.43870000  0.50020000  1.0 -0.1940550468
C  C86  1  0.29370000  0.56150000  0.50020000  1.0 -0.1940550468
C  C87  1  0.81150000  0.04370000  0.00020000  1.0 -0.1940550468
C  C88  1  0.68870000  0.45650000  0.00020000  1.0 -0.1940550468
C  C89  1  0.68460000  0.45490000  0.53270000  1.0 0.1384016197
C  C90  1  0.34810000  0.57780000  0.53270000  1.0 0.1384016197
C  C91  1  0.82780000  0.09810000  0.03270000  1.0 0.1384016197
C  C92  1  0.70490000  0.43460000  0.03270000  1.0 0.1384016197
C  C93  1  0.76920000  0.42970000  0.46610000  1.0 -0.1325213703
C  C94  1  0.19690000  0.53640000  0.46610000  1.0 -0.1325213703
C  C95  1  0.78640000  0.94690000  0.96610000  1.0 -0.1325213703
C  C96  1  0.67970000  0.51920000  0.96610000  1.0 -0.1325213703
C  C97  1  0.18050000  0.28000000  0.15430000  1.0 -0.0291680989
C  C98  1  0.22000000  0.31950000  0.84570000  1.0 -0.0291680989
C  C99  1  0.62430000  0.22380000  0.65430000  1.0 -0.0291680989
C  C100  1  0.27620000  0.87570000  0.34570000  1.0 -0.0291680989
C  C101  1  0.19310000  0.31400000  0.21270000  1.0 -0.0811423764
C  C102  1  0.18600000  0.30690000  0.78730000  1.0 -0.0811423764
C  C103  1  0.64870000  0.26960000  0.71270000  1.0 -0.0811423764
C  C104  1  0.23040000  0.85130000  0.28730000  1.0 -0.0811423764
C  C105  1  0.16660000  0.29780000  0.11780000  1.0 0.5666882445
C  C106  1  0.20220000  0.33340000  0.88220000  1.0 0.5666882445
C  C107  1  0.57000000  0.20120000  0.61780000  1.0 0.5645121812
C  C108  1  0.29880000  0.93000000  0.38220000  1.0 0.5666882445
C  C109  1  0.21020000  0.23060000  0.25640000  1.0 0.1073408386
C  C110  1  0.26940000  0.28980000  0.74360000  1.0 0.1073408386
C  C111  1  0.77580000  0.29620000  0.75640000  1.0 0.1073408386
C  C112  1  0.20380000  0.72420000  0.24360000  1.0 0.1073408386
C  C113  1  0.20710000  0.29740000  0.24910000  1.0 -0.1704187095
C  C114  1  0.20260000  0.29290000  0.75090000  1.0 -0.1704187095
C  C115  1  0.70170000  0.29200000  0.74910000  1.0 -0.1704187095
C  C116  1  0.20800000  0.79830000  0.25090000  1.0 -0.1704187095
C  C117  1  0.19790000  0.24590000  0.21960000  1.0 0.0833100481
C  C118  1  0.25410000  0.30210000  0.78040000  1.0 0.0833100481
C  C119  1  0.72370000  0.27170000  0.71960000  1.0 0.0833100481
C  C120  1  0.22830000  0.77630000  0.28040000  1.0 0.0833100481
C  C121  1  0.24100000  0.26350000  0.32130000  1.0 -0.2209257315
C  C122  1  0.23650000  0.25900000  0.67870000  1.0 -0.2209257315
C  C123  1  0.80780000  0.33030000  0.82130000  1.0 -0.2209257315
C  C124  1  0.16970000  0.69220000  0.17870000  1.0 -0.2209257315
C  C125  1  0.25520000  0.24720000  0.35860000  1.0 0.1207187721
C  C126  1  0.25280000  0.24480000  0.64140000  1.0 0.1207187721
C  C127  1  0.86140000  0.35340000  0.85860000  1.0 0.1207187721
C  C128  1  0.14660000  0.63860000  0.14140000  1.0 0.1207187721
C  C129  1  0.17210000  0.22910000  0.12600000  1.0 -0.0811423764
C  C130  1  0.27090000  0.32790000  0.87400000  1.0 -0.0811423764
C  C131  1  0.64690000  0.20390000  0.62600000  1.0 -0.0811423764
C  C132  1  0.29610000  0.85310000  0.37400000  1.0 -0.0811423764
C  C133  1  0.18870000  0.18850000  0.23220000  1.0 -0.1940550468
C  C134  1  0.31150000  0.31130000  0.76780000  1.0 -0.1940550468
C  C135  1  0.79370000  0.29350000  0.73220000  1.0 -0.1940550468
C  C136  1  0.20650000  0.70630000  0.26780000  1.0 -0.1940550468
C  C137  1  0.20490000  0.17220000  0.27030000  1.0 0.1384016197
C  C138  1  0.32780000  0.29510000  0.72970000  1.0 0.1384016197
C  C139  1  0.84810000  0.31540000  0.77030000  1.0 0.1384016197
C  C140  1  0.18460000  0.65190000  0.22970000  1.0 0.1384016197
C  C141  1  0.17970000  0.21360000  0.16050000  1.0 -0.1325213703
C  C142  1  0.28640000  0.32030000  0.83950000  1.0 -0.1325213703
C  C143  1  0.69690000  0.23080000  0.66050000  1.0 -0.1325213703
C  C144  1  0.26920000  0.80310000  0.33950000  1.0 -0.1325213703
C  C145  1  0.12570000  0.02620000  0.84570000  1.0 -0.0291680989
C  C146  1  0.47380000  0.37430000  0.15430000  1.0 -0.0291680989
C  C147  1  0.56950000  0.97000000  0.34570000  1.0 -0.0291680989
C  C148  1  0.53000000  0.93050000  0.65430000  1.0 -0.0291680989
C  C149  1  0.10130000  0.98040000  0.78730000  1.0 -0.0811423764
C  C150  1  0.51960000  0.39870000  0.21270000  1.0 -0.0811423764
C  C151  1  0.55690000  0.93600000  0.28730000  1.0 -0.0811423764
C  C152  1  0.56400000  0.94310000  0.71270000  1.0 -0.0811423764
C  C153  1  0.18000000  0.04880000  0.88220000  1.0 0.5666882445
C  C154  1  0.45120000  0.32000000  0.11780000  1.0 0.5666882445
C  C155  1  0.58340000  0.95220000  0.38220000  1.0 0.5666882445
C  C156  1  0.54780000  0.91660000  0.61780000  1.0 0.5645121812
C  C157  1  0.97420000  0.95380000  0.74360000  1.0 0.1073408386
C  C158  1  0.54620000  0.52580000  0.25640000  1.0 0.1073408386
C  C159  1  0.53980000  0.01940000  0.24360000  1.0 0.1073408386
C  C160  1  0.48060000  0.96020000  0.75640000  1.0 0.1073408386
C  C161  1  0.04830000  0.95800000  0.75090000  1.0 -0.1704187095
C  C162  1  0.54200000  0.45170000  0.24910000  1.0 -0.1704187095
C  C163  1  0.54290000  0.95260000  0.25090000  1.0 -0.1704187095
C  C164  1  0.54740000  0.95710000  0.74910000  1.0 -0.1704187095
C  C165  1  0.02630000  0.97830000  0.78040000  1.0 0.0833100481
C  C166  1  0.52170000  0.47370000  0.21960000  1.0 0.0833100481
C  C167  1  0.55210000  0.00410000  0.28040000  1.0 0.0833100481
C  C168  1  0.49590000  0.94790000  0.71960000  1.0 0.0833100481
C  C169  1  0.94220000  0.91970000  0.67870000  1.0 -0.2209257315
C  C170  1  0.58030000  0.55780000  0.32130000  1.0 -0.2209257315
C  C171  1  0.50900000  0.98650000  0.17870000  1.0 -0.2209257315
C  C172  1  0.51350000  0.99100000  0.82130000  1.0 -0.2209257315
C  C173  1  0.88860000  0.89660000  0.64140000  1.0 0.1207187721
C  C174  1  0.60340000  0.61140000  0.35860000  1.0 0.1207187721
C  C175  1  0.49480000  0.00280000  0.14140000  1.0 0.1207187721
C  C176  1  0.49720000  0.00520000  0.85860000  1.0 0.1207187721
C  C177  1  0.10310000  0.04610000  0.87400000  1.0 -0.0811423764
C  C178  1  0.45390000  0.39690000  0.12600000  1.0 -0.0811423764
C  C179  1  0.57790000  0.02090000  0.37400000  1.0 -0.0811423764
C  C180  1  0.47910000  0.92210000  0.62600000  1.0 -0.0811423764
C  C181  1  0.95630000  0.95650000  0.76780000  1.0 -0.1940550468
C  C182  1  0.54350000  0.54370000  0.23220000  1.0 -0.1956570418
C  C183  1  0.56130000  0.06150000  0.26780000  1.0 -0.1940550468
C  C184  1  0.43850000  0.93870000  0.73220000  1.0 -0.1940550468
C  C185  1  0.90190000  0.93460000  0.72970000  1.0 0.1384016197
C  C186  1  0.56540000  0.59810000  0.27030000  1.0 0.1384016197
C  C187  1  0.54510000  0.07780000  0.22970000  1.0 0.1384016197
C  C188  1  0.42220000  0.95490000  0.77030000  1.0 0.1384016197
C  C189  1  0.05310000  0.01920000  0.83950000  1.0 -0.1325213703
C  C190  1  0.48080000  0.44690000  0.16050000  1.0 -0.1325213703
C  C191  1  0.57030000  0.03640000  0.33950000  1.0 -0.1325213703
C  C192  1  0.46360000  0.92970000  0.66050000  1.0 -0.1325213703
N  N1  1  0.94955000  0.12185000  0.46230000  1.0 -0.2118733395
N  N2  1  0.01275000  0.84045000  0.46230000  1.0 -0.2118733395
N  N3  1  0.09045000  0.76275000  0.96230000  1.0 -0.2118733395
N  N4  1  0.37185000  0.69955000  0.96230000  1.0 -0.2118733395
N  N5  1  0.65955000  0.48725000  0.53770000  1.0 -0.2118733395
N  N6  1  0.37815000  0.55045000  0.53770000  1.0 -0.2118733395
N  N7  1  0.80045000  0.12815000  0.03770000  1.0 -0.2118733395
N  N8  1  0.73725000  0.40955000  0.03770000  1.0 -0.2118733395
N  N9  1  0.23725000  0.19955000  0.32770000  1.0 -0.2118733395
N  N10  1  0.30045000  0.26275000  0.67230000  1.0 -0.2118733395
N  N11  1  0.87815000  0.34045000  0.82770000  1.0 -0.2118733395
N  N12  1  0.15955000  0.62185000  0.17230000  1.0 -0.2118733395
N  N13  1  0.87185000  0.90955000  0.67230000  1.0 -0.2118733395
N  N14  1  0.59045000  0.62815000  0.32770000  1.0 -0.2118733395
N  N15  1  0.51275000  0.05045000  0.17230000  1.0 -0.2118733395
N  N16  1  0.44955000  0.98725000  0.82770000  1.0 -0.2118733395
O  O1  1  0.18152000  0.64282000  0.85990000  1.0 -0.8577463766
O  O2  1  0.17838000  0.71708000  0.85990000  1.0 -0.8577463766
O  O3  1  0.96708000  0.92838000  0.35990000  1.0 -0.8577463766
O  O4  1  0.89282000  0.93152000  0.35990000  1.0 -0.8577463766
O  O5  1  0.09825000  0.64365000  0.77260000  1.0 -0.8577463766
O  O6  1  0.17435000  0.62895000  0.77260000  1.0 -0.8577463766
O  O7  1  0.87895000  0.92435000  0.27260000  1.0 -0.8577463766
O  O8  1  0.89365000  0.84825000  0.27260000  1.0 -0.8577463766
O  O9  1  0.09577000  0.65707000  0.86450000  1.0 -0.8304572052
O  O10  1  0.26873000  0.70743000  0.86450000  1.0 -0.8304572052
O  O11  1  0.95743000  0.01873000  0.36450000  1.0 -0.8304572052
O  O12  1  0.90707000  0.84577000  0.36450000  1.0 -0.8304572052
O  O13  1  0.09301000  0.55871000  0.77070000  1.0 -0.8304572052
O  O14  1  0.17769000  0.71199000  0.77070000  1.0 -0.8304572052
O  O15  1  0.96199000  0.92769000  0.27070000  1.0 -0.8304572052
O  O16  1  0.80871000  0.84301000  0.27070000  1.0 -0.8304572052
O  O17  1  0.08239000  0.73599000  0.77660000  1.0 -0.9187637148
O  O18  1  0.19421000  0.54061000  0.77660000  1.0 -0.9187637148
O  O19  1  0.79061000  0.94421000  0.27660000  1.0 -0.9187637148
O  O20  1  0.98599000  0.83239000  0.27660000  1.0 -0.9187637148
O  O21  1  0.19173000  0.74423000  0.96890000  1.0 -0.8478567247
O  O22  1  0.27717000  0.72467000  0.96890000  1.0 -0.8478567247
O  O23  1  0.97467000  0.02717000  0.46890000  1.0 -0.8478567247
O  O24  1  0.99423000  0.94173000  0.46890000  1.0 -0.8478567247
O  O25  1  0.08791000  0.74951000  0.85820000  1.0 -0.9187637148
O  O26  1  0.27029000  0.60869000  0.85820000  1.0 -0.9187637148
O  O27  1  0.85869000  0.02029000  0.35820000  1.0 -0.9187637148
O  O28  1  0.99951000  0.83791000  0.35820000  1.0 -0.9187637148
O  O29  1  0.08510000  0.54110000  0.66640000  1.0 -0.8442126335
O  O30  1  0.08130000  0.62530000  0.66640000  1.0 -0.8442126335
O  O31  1  0.87530000  0.83130000  0.16640000  1.0 -0.8478567247
O  O32  1  0.79110000  0.83510000  0.16640000  1.0 -0.8478567247
O  O33  1  0.17465000  0.79825000  0.86040000  1.0 -0.779315154
O  O34  1  0.18575000  0.56215000  0.86040000  1.0 -0.779315154
O  O35  1  0.81215000  0.93575000  0.36040000  1.0 -0.779315154
O  O36  1  0.04825000  0.92465000  0.36040000  1.0 -0.779315154
O  O37  1  0.18908000  0.65778000  0.95310000  1.0 -0.8304572052
O  O38  1  0.26402000  0.79532000  0.95310000  1.0 -0.8304572052
O  O39  1  0.04532000  0.01402000  0.45310000  1.0 -0.8304572052
O  O40  1  0.90778000  0.93908000  0.45310000  1.0 -0.8304572052
O  O41  1  0.18143000  0.81293000  0.95250000  1.0 -0.7938872597
O  O42  1  0.27107000  0.63957000  0.95250000  1.0 -0.7938872597
O  O43  1  0.88957000  0.02107000  0.45250000  1.0 -0.8000394629
O  O44  1  0.06293000  0.93143000  0.45250000  1.0 -0.7938872597
O  O45  1  0.10372000  0.84252000  0.88100000  1.0 -0.5489688264
O  O46  1  0.27728000  0.53848000  0.88100000  1.0 -0.5489688264
O  O47  1  0.78848000  0.02728000  0.38100000  1.0 -0.5489688264
O  O48  1  0.09252000  0.85372000  0.38100000  1.0 -0.5489688264
O  O49  1  0.00890000  0.64810000  0.68100000  1.0 -0.8000394629
O  O50  1  0.17210000  0.53290000  0.68100000  1.0 -0.8000394629
O  O51  1  0.78290000  0.92210000  0.18100000  1.0 -0.8000394629
O  O52  1  0.89810000  0.75890000  0.18100000  1.0 -0.8000394629
O  O53  1  0.09487000  0.44857000  0.67210000  1.0 -0.4893801789
O  O54  1  0.07723000  0.72353000  0.67210000  1.0 -0.4893801789
O  O55  1  0.97353000  0.82723000  0.17210000  1.0 -0.4893801789
O  O56  1  0.69857000  0.84487000  0.17210000  1.0 -0.4893801789
O  O57  1  0.27927000  0.82987000  0.06240000  1.0 -0.5301480414
O  O58  1  0.28313000  0.73253000  0.06240000  1.0 -0.5301480414
O  O59  1  0.98253000  0.03313000  0.56240000  1.0 -0.5301480414
O  O60  1  0.07987000  0.02927000  0.56240000  1.0 -0.5301480414
O  O61  1  0.01646000  0.66316000  0.77370000  1.0 -0.779315154
O  O62  1  0.25724000  0.61054000  0.77370000  1.0 -0.779315154
O  O63  1  0.86054000  0.00724000  0.27370000  1.0 -0.779315154
O  O64  1  0.91316000  0.76646000  0.27370000  1.0 -0.779315154
O  O65  1  0.10904000  0.57674000  0.87530000  1.0 -0.5173805346
O  O66  1  0.26626000  0.79856000  0.87530000  1.0 -0.5173805346
O  O67  1  0.04856000  0.01626000  0.37530000  1.0 -0.5173805346
O  O68  1  0.82674000  0.85904000  0.37530000  1.0 -0.5173805346
O  O69  1  0.00163000  0.57683000  0.76140000  1.0 -0.4893801789
O  O70  1  0.25977000  0.68457000  0.76140000  1.0 -0.4893801789
O  O71  1  0.93457000  0.00977000  0.26140000  1.0 -0.4893801789
O  O72  1  0.82683000  0.75163000  0.26140000  1.0 -0.4893801789
O  O73  1  0.01159000  0.56529000  0.67970000  1.0 -0.8478567247
O  O74  1  0.16811000  0.61441000  0.67970000  1.0 -0.8478567247
O  O75  1  0.86441000  0.91811000  0.17970000  1.0 -0.8478567247
O  O76  1  0.81529000  0.76159000  0.17970000  1.0 -0.8478567247
O  O77  1  0.98561000  0.73571000  0.75430000  1.0 -0.5173805346
O  O78  1  0.26869000  0.51859000  0.75430000  1.0 -0.5173805346
O  O79  1  0.76859000  0.01869000  0.25430000  1.0 -0.5173805346
O  O80  1  0.98571000  0.73561000  0.25430000  1.0 -0.5173805346
O  O81  1  0.98824000  0.54694000  0.57350000  1.0 -0.4970707977
O  O82  1  0.08526000  0.52656000  0.57350000  1.0 -0.4970707977
O  O83  1  0.77656000  0.83526000  0.07350000  1.0 -0.4970707977
O  O84  1  0.79694000  0.73824000  0.07350000  1.0 -0.4970707977
O  O85  1  0.01650000  0.46040000  0.62990000  1.0 -0.4566620429
O  O86  1  0.11340000  0.66950000  0.62990000  1.0 -0.4566620429
O  O87  1  0.91950000  0.86340000  0.12990000  1.0 -0.4566620429
O  O88  1  0.71040000  0.76650000  0.12990000  1.0 -0.4566620429
O  O89  1  0.78292000  0.32162000  0.14010000  1.0 -0.8577463766
O  O90  1  0.85718000  0.31848000  0.14010000  1.0 -0.8577463766
O  O91  1  0.56848000  0.60718000  0.64010000  1.0 -0.8577463766
O  O92  1  0.57162000  0.53292000  0.64010000  1.0 -0.8577463766
O  O93  1  0.87105000  0.32565000  0.22740000  1.0 -0.8577463766
O  O94  1  0.85635000  0.40175000  0.22740000  1.0 -0.8577463766
O  O95  1  0.65175000  0.60635000  0.72740000  1.0 -0.8577463766
O  O96  1  0.57565000  0.62105000  0.72740000  1.0 -0.8577463766
O  O97  1  0.79257000  0.23127000  0.13550000  1.0 -0.8304572052
O  O98  1  0.84293000  0.40423000  0.13550000  1.0 -0.8304572052
O  O99  1  0.65423000  0.59293000  0.63550000  1.0 -0.8304572052
O  O100  1  0.48127000  0.54257000  0.63550000  1.0 -0.8304572052
O  O101  1  0.78801000  0.32231000  0.22930000  1.0 -0.8304572052
O  O102  1  0.94129000  0.40699000  0.22930000  1.0 -0.8304572052
O  O103  1  0.65699000  0.69129000  0.72930000  1.0 -0.8304572052
O  O104  1  0.57231000  0.53801000  0.72930000  1.0 -0.8304572052
O  O105  1  0.95939000  0.30579000  0.22340000  1.0 -0.9187637148
O  O106  1  0.76401000  0.41761000  0.22340000  1.0 -0.9187637148
O  O107  1  0.66761000  0.51401000  0.72340000  1.0 -0.9187637148
O  O108  1  0.55579000  0.70939000  0.72340000  1.0 -0.9187637148
O  O109  1  0.77533000  0.22283000  0.03110000  1.0 -0.8478567247
O  O110  1  0.75577000  0.30827000  0.03110000  1.0 -0.8478567247
O  O111  1  0.55827000  0.50577000  0.53110000  1.0 -0.8478567247
O  O112  1  0.47283000  0.52533000  0.53110000  1.0 -0.8478567247
O  O113  1  0.89131000  0.22971000  0.14180000  1.0 -0.9187637148
O  O114  1  0.75049000  0.41209000  0.14180000  1.0 -0.9187637148
O  O115  1  0.66209000  0.50049000  0.64180000  1.0 -0.9187637148
O  O116  1  0.47971000  0.64131000  0.64180000  1.0 -0.9187637148
O  O117  1  0.87470000  0.41870000  0.33360000  1.0 -0.8478567247
O  O118  1  0.95890000  0.41490000  0.33360000  1.0 -0.8478567247
O  O119  1  0.66490000  0.70890000  0.83360000  1.0 -0.8478567247
O  O120  1  0.66870000  0.62470000  0.83360000  1.0 -0.8478567247
O  O121  1  0.93785000  0.31425000  0.13960000  1.0 -0.779315154
O  O122  1  0.70175000  0.32535000  0.13960000  1.0 -0.779315154
O  O123  1  0.57535000  0.45175000  0.63960000  1.0 -0.779315154
O  O124  1  0.56425000  0.68785000  0.63960000  1.0 -0.779315154
O  O125  1  0.70468000  0.23598000  0.04690000  1.0 -0.8304572052
O  O126  1  0.84222000  0.31092000  0.04690000  1.0 -0.8304572052
O  O127  1  0.56092000  0.59222000  0.54690000  1.0 -0.8304572052
O  O128  1  0.48598000  0.45468000  0.54690000  1.0 -0.8304572052
O  O129  1  0.86043000  0.22893000  0.04750000  1.0 -0.7938872597
O  O130  1  0.68707000  0.31857000  0.04750000  1.0 -0.7938872597
O  O131  1  0.56857000  0.43707000  0.54750000  1.0 -0.7938872597
O  O132  1  0.47893000  0.61043000  0.54750000  1.0 -0.7938872597
O  O133  1  0.96152000  0.22272000  0.11900000  1.0 -0.5489688264
O  O134  1  0.65748000  0.39628000  0.11900000  1.0 -0.5489688264
O  O135  1  0.64628000  0.40748000  0.61900000  1.0 -0.5489688264
O  O136  1  0.47272000  0.71152000  0.61900000  1.0 -0.5489688264
O  O137  1  0.96710000  0.32790000  0.31900000  1.0 -0.8000394629
O  O138  1  0.85190000  0.49110000  0.31900000  1.0 -0.8000394629
O  O139  1  0.74110000  0.60190000  0.81900000  1.0 -0.8000394629
O  O140  1  0.57790000  0.71710000  0.81900000  1.0 -0.8000394629
O  O141  1  0.77647000  0.42277000  0.32790000  1.0 -0.4893801789
O  O142  1  0.05143000  0.40513000  0.32790000  1.0 -0.4893801789
O  O143  1  0.65513000  0.80143000  0.82790000  1.0 -0.4893801789
O  O144  1  0.67277000  0.52647000  0.82790000  1.0 -0.4893801789
O  O145  1  0.76747000  0.21687000  0.93760000  1.0 -0.5301480414
O  O146  1  0.67013000  0.22073000  0.93760000  1.0 -0.5301480414
O  O147  1  0.47073000  0.42013000  0.43760000  1.0 -0.5301480414
O  O148  1  0.46687000  0.51747000  0.43760000  1.0 -0.5301480414
O  O149  1  0.88946000  0.24276000  0.22630000  1.0 -0.779315154
O  O150  1  0.83684000  0.48354000  0.22630000  1.0 -0.779315154
O  O151  1  0.73354000  0.58684000  0.72630000  1.0 -0.779315154
O  O152  1  0.49276000  0.63946000  0.72630000  1.0 -0.779315154
O  O153  1  0.70144000  0.23374000  0.12470000  1.0 -0.5173805346
O  O154  1  0.92326000  0.39096000  0.12470000  1.0 -0.5173805346
O  O155  1  0.64096000  0.67326000  0.62470000  1.0 -0.5173805346
O  O156  1  0.48374000  0.45144000  0.62470000  1.0 -0.5173805346
O  O157  1  0.81543000  0.24023000  0.23860000  1.0 -0.4893801789
O  O158  1  0.92317000  0.49837000  0.23860000  1.0 -0.4893801789
O  O159  1  0.74837000  0.67317000  0.73860000  1.0 -0.4893801789
O  O160  1  0.49023000  0.56543000  0.73860000  1.0 -0.4893801789
O  O161  1  0.88559000  0.33189000  0.32030000  1.0 -0.8478567247
O  O162  1  0.93471000  0.48841000  0.32030000  1.0 -0.8478567247
O  O163  1  0.73841000  0.68471000  0.82030000  1.0 -0.8478567247
O  O164  1  0.58189000  0.63559000  0.82030000  1.0 -0.8478567247
O  O165  1  0.98141000  0.23131000  0.24570000  1.0 -0.5173805346
O  O166  1  0.76429000  0.51439000  0.24570000  1.0 -0.5173805346
O  O167  1  0.76439000  0.51429000  0.74570000  1.0 -0.5173805346
O  O168  1  0.48131000  0.73141000  0.74570000  1.0 -0.5173805346
O  O169  1  0.97344000  0.41474000  0.42650000  1.0 -0.4970707977
O  O170  1  0.95306000  0.51176000  0.42650000  1.0 -0.4970707977
O  O171  1  0.76176000  0.70306000  0.92650000  1.0 -0.4970707977
O  O172  1  0.66474000  0.72344000  0.92650000  1.0 -0.4970707977
O  O173  1  0.83050000  0.38660000  0.37010000  1.0 -0.4566620429
O  O174  1  0.03960000  0.48350000  0.37010000  1.0 -0.4566620429
O  O175  1  0.73350000  0.78960000  0.87010000  1.0 -0.4566620429
O  O176  1  0.63660000  0.58050000  0.87010000  1.0 -0.4566620429
O  O177  1  0.07162000  0.43152000  0.03870000  1.0 -0.8577463766
O  O178  1  0.06848000  0.42838000  0.96130000  1.0 -0.8577463766
O  O179  1  0.35718000  0.21708000  0.53870000  1.0 -0.8577463766
O  O180  1  0.28292000  0.14282000  0.46130000  1.0 -0.8577463766
O  O181  1  0.07565000  0.34825000  0.95460000  1.0 -0.8577463766
O  O182  1  0.15175000  0.42435000  0.04540000  1.0 -0.8577463766
O  O183  1  0.35635000  0.12895000  0.45460000  1.0 -0.8577463766
O  O184  1  0.37105000  0.14365000  0.54540000  1.0 -0.8577463766
O  O185  1  0.98127000  0.34577000  0.93870000  1.0 -0.8304572052
O  O186  1  0.15423000  0.51873000  0.06130000  1.0 -0.8304572052
O  O187  1  0.34293000  0.20743000  0.43870000  1.0 -0.8304572052
O  O188  1  0.29257000  0.15707000  0.56130000  1.0 -0.8304572052
O  O189  1  0.07231000  0.34301000  0.03430000  1.0 -0.8304572052
O  O190  1  0.15699000  0.42769000  0.96570000  1.0 -0.8304572052
O  O191  1  0.44129000  0.21199000  0.53430000  1.0 -0.8304572052
O  O192  1  0.28801000  0.05871000  0.46570000  1.0 -0.8304572052
O  O193  1  0.05579000  0.33239000  0.84640000  1.0 -0.9187637148
O  O194  1  0.16761000  0.44421000  0.15360000  1.0 -0.9187637148
O  O195  1  0.26401000  0.04061000  0.34640000  1.0 -0.9187637148
O  O196  1  0.45939000  0.23599000  0.65360000  1.0 -0.9187637148
O  O197  1  0.97283000  0.44173000  0.94750000  1.0 -0.8478567247
O  O198  1  0.05827000  0.52717000  0.05250000  1.0 -0.8478567247
O  O199  1  0.25577000  0.22467000  0.44750000  1.0 -0.8478567247
O  O200  1  0.27533000  0.24423000  0.55250000  1.0 -0.8478567247
O  O201  1  0.97971000  0.33791000  0.83840000  1.0 -0.9187637148
O  O202  1  0.16209000  0.52029000  0.16160000  1.0 -0.9187637148
O  O203  1  0.25049000  0.10869000  0.33840000  1.0 -0.9187637148
O  O204  1  0.39131000  0.24951000  0.66160000  1.0 -0.9187637148
O  O205  1  0.16870000  0.33510000  0.04400000  1.0 -0.8478567247
O  O206  1  0.16490000  0.33130000  0.95600000  1.0 -0.8442126335
O  O207  1  0.45890000  0.12530000  0.54400000  1.0 -0.8478567247
O  O208  1  0.37470000  0.04110000  0.45600000  1.0 -0.8478567247
O  O209  1  0.06425000  0.42465000  0.87640000  1.0 -0.779315154
O  O210  1  0.07535000  0.43575000  0.12360000  1.0 -0.779315154
O  O211  1  0.20175000  0.06215000  0.37640000  1.0 -0.779315154
O  O212  1  0.43785000  0.29825000  0.62360000  1.0 -0.779315154
O  O213  1  0.98598000  0.43908000  0.03130000  1.0 -0.8304572052
O  O214  1  0.06092000  0.51402000  0.96870000  1.0 -0.8304572052
O  O215  1  0.34222000  0.29532000  0.53130000  1.0 -0.8304572052
O  O216  1  0.20468000  0.15778000  0.46870000  1.0 -0.8304572052
O  O217  1  0.97893000  0.43143000  0.86850000  1.0 -0.7938872597
O  O218  1  0.06857000  0.52107000  0.13150000  1.0 -0.7938872597
O  O219  1  0.18707000  0.13957000  0.36850000  1.0 -0.7938872597
O  O220  1  0.36043000  0.31293000  0.63150000  1.0 -0.7938872597
O  O221  1  0.97272000  0.35372000  0.76120000  1.0 -0.5489688264
O  O222  1  0.14628000  0.52728000  0.23880000  1.0 -0.5489688264
O  O223  1  0.15748000  0.03848000  0.26120000  1.0 -0.5489688264
O  O224  1  0.46152000  0.34252000  0.73880000  1.0 -0.5489688264
O  O225  1  0.07790000  0.25890000  0.86080000  1.0 -0.8000394629
O  O226  1  0.24110000  0.42210000  0.13920000  1.0 -0.8000394629
O  O227  1  0.35190000  0.03290000  0.36080000  1.0 -0.8000394629
O  O228  1  0.46710000  0.14810000  0.63920000  1.0 -0.8000394629
O  O229  1  0.17277000  0.34487000  0.14630000  1.0 -0.4893801789
O  O230  1  0.15513000  0.32723000  0.85370000  1.0 -0.4893801789
O  O231  1  0.55143000  0.22353000  0.64630000  1.0 -0.4893801789
O  O232  1  0.27647000  0.94857000  0.35370000  1.0 -0.4893801789
O  O233  1  0.96687000  0.52927000  0.94940000  1.0 -0.5301480414
O  O234  1  0.97073000  0.53313000  0.05060000  1.0 -0.5301480414
O  O235  1  0.17013000  0.23253000  0.44940000  1.0 -0.5301480414
O  O236  1  0.26747000  0.32987000  0.55060000  1.0 -0.5301480414
O  O237  1  0.99276000  0.26646000  0.85330000  1.0 -0.779315154
O  O238  1  0.23354000  0.50724000  0.14670000  1.0 -0.779315154
O  O239  1  0.33684000  0.11054000  0.35330000  1.0 -0.779315154
O  O240  1  0.38946000  0.16316000  0.64670000  1.0 -0.779315154
O  O241  1  0.98374000  0.35904000  0.03230000  1.0 -0.5173805346
O  O242  1  0.14096000  0.51626000  0.96770000  1.0 -0.5173805346
O  O243  1  0.42326000  0.29856000  0.53230000  1.0 -0.5173805346
O  O244  1  0.20144000  0.07674000  0.46770000  1.0 -0.5173805346
O  O245  1  0.99023000  0.25163000  0.92480000  1.0 -0.4893801789
O  O246  1  0.24837000  0.50977000  0.07520000  1.0 -0.4893801789
O  O247  1  0.42317000  0.18457000  0.42480000  1.0 -0.4893801789
O  O248  1  0.31543000  0.07683000  0.57520000  1.0 -0.4893801789
O  O249  1  0.08189000  0.26159000  0.94630000  1.0 -0.8478567247
O  O250  1  0.23841000  0.41811000  0.05370000  1.0 -0.8478567247
O  O251  1  0.43471000  0.11441000  0.44630000  1.0 -0.8478567247
O  O252  1  0.38559000  0.06529000  0.55370000  1.0 -0.8478567247
O  O253  1  0.98131000  0.23561000  0.74990000  1.0 -0.5173805346
O  O254  1  0.26439000  0.51869000  0.25010000  1.0 -0.5173805346
O  O255  1  0.26429000  0.01859000  0.24990000  1.0 -0.5173805346
O  O256  1  0.48141000  0.23571000  0.75010000  1.0 -0.5173805346
O  O257  1  0.16474000  0.23824000  0.94130000  1.0 -0.4970707977
O  O258  1  0.26176000  0.33526000  0.05870000  1.0 -0.4970707977
O  O259  1  0.45306000  0.02656000  0.44130000  1.0 -0.4970707977
O  O260  1  0.47344000  0.04694000  0.55870000  1.0 -0.4970707977
O  O261  1  0.13660000  0.26650000  0.05610000  1.0 -0.4566620429
O  O262  1  0.23350000  0.36340000  0.94390000  1.0 -0.4566620429
O  O263  1  0.53960000  0.16950000  0.55610000  1.0 -0.4566620429
O  O264  1  0.33050000  0.96040000  0.44390000  1.0 -0.4566620429
O  O265  1  0.39282000  0.03292000  0.96130000  1.0 -0.8577463766
O  O266  1  0.46708000  0.10718000  0.03870000  1.0 -0.8577463766
O  O267  1  0.67838000  0.81848000  0.46130000  1.0 -0.8577463766
O  O268  1  0.68152000  0.82162000  0.53870000  1.0 -0.8577463766
O  O269  1  0.39365000  0.12105000  0.04540000  1.0 -0.8577463766
O  O270  1  0.37895000  0.10635000  0.95460000  1.0 -0.8577463766
O  O271  1  0.67435000  0.90175000  0.54540000  1.0 -0.8577463766
O  O272  1  0.59825000  0.82565000  0.45460000  1.0 -0.8577463766
O  O273  1  0.40707000  0.04257000  0.06130000  1.0 -0.8304572052
O  O274  1  0.45743000  0.09293000  0.93870000  1.0 -0.8304572052
O  O275  1  0.76873000  0.90423000  0.56130000  1.0 -0.8304572052
O  O276  1  0.59577000  0.73127000  0.43870000  1.0 -0.8304572052
O  O277  1  0.30871000  0.03801000  0.96570000  1.0 -0.8304572052
O  O278  1  0.46199000  0.19129000  0.03430000  1.0 -0.8304572052
O  O279  1  0.67769000  0.90699000  0.46570000  1.0 -0.8304572052
O  O280  1  0.59301000  0.82231000  0.53430000  1.0 -0.8304572052
O  O281  1  0.48599000  0.20939000  0.15360000  1.0 -0.9187637148
O  O282  1  0.29061000  0.01401000  0.84640000  1.0 -0.9187637148
O  O283  1  0.69421000  0.91761000  0.65360000  1.0 -0.9187637148
O  O284  1  0.58239000  0.80579000  0.34640000  1.0 -0.9187637148
O  O285  1  0.49423000  0.02533000  0.05250000  1.0 -0.8478567247
O  O286  1  0.47467000  0.00577000  0.94750000  1.0 -0.8478567247
O  O287  1  0.77717000  0.80827000  0.55250000  1.0 -0.8478567247
O  O288  1  0.69173000  0.72283000  0.44750000  1.0 -0.8478567247
O  O289  1  0.49951000  0.14131000  0.16160000  1.0 -0.9187637148
O  O290  1  0.35869000  0.00049000  0.83840000  1.0 -0.9187637148
O  O291  1  0.77029000  0.91209000  0.66160000  1.0 -0.9187637148
O  O292  1  0.58791000  0.72971000  0.33840000  1.0 -0.9187637148
O  O293  1  0.29110000  0.12470000  0.95600000  1.0 -0.8442126335
O  O294  1  0.37530000  0.20890000  0.04400000  1.0 -0.8478567247
O  O295  1  0.58130000  0.91490000  0.45600000  1.0 -0.8478567247
O  O296  1  0.58510000  0.91870000  0.54400000  1.0 -0.8478567247
O  O297  1  0.54825000  0.18785000  0.12360000  1.0 -0.779315154
O  O298  1  0.31215000  0.95175000  0.87640000  1.0 -0.779315154
O  O299  1  0.68575000  0.82535000  0.62360000  1.0 -0.779315154
O  O300  1  0.67465000  0.81425000  0.37640000  1.0 -0.779315154
O  O301  1  0.40778000  0.95468000  0.96870000  1.0 -0.8304572052
O  O302  1  0.54532000  0.09222000  0.03130000  1.0 -0.8304572052
O  O303  1  0.76402000  0.81092000  0.46870000  1.0 -0.8304572052
O  O304  1  0.68908000  0.73598000  0.53130000  1.0 -0.8304572052
O  O305  1  0.56293000  0.11043000  0.13150000  1.0 -0.7938872597
O  O306  1  0.38957000  0.93707000  0.86850000  1.0 -0.7938872597
O  O307  1  0.77107000  0.81857000  0.63150000  1.0 -0.7938872597
O  O308  1  0.68143000  0.72893000  0.36850000  1.0 -0.7938872597
O  O309  1  0.59252000  0.21152000  0.23880000  1.0 -0.5489688264
O  O310  1  0.28848000  0.90748000  0.76120000  1.0 -0.5489688264
O  O311  1  0.77728000  0.89628000  0.73880000  1.0 -0.5489688264
O  O312  1  0.60372000  0.72272000  0.26120000  1.0 -0.5489688264
O  O313  1  0.39810000  0.21710000  0.13920000  1.0 -0.8000394629
O  O314  1  0.28290000  0.10190000  0.86080000  1.0 -0.8000394629
O  O315  1  0.67210000  0.99110000  0.63920000  1.0 -0.8000394629
O  O316  1  0.50890000  0.82790000  0.36080000  1.0 -0.8000394629
O  O317  1  0.19857000  0.02647000  0.85370000  1.0 -0.4893801789
O  O318  1  0.47353000  0.30143000  0.14630000  1.0 -0.4893801789
O  O319  1  0.57723000  0.90513000  0.35370000  1.0 -0.4893801789
O  O320  1  0.59487000  0.92277000  0.64630000  1.0 -0.4893801789
O  O321  1  0.57987000  0.01747000  0.05060000  1.0 -0.5301480414
O  O322  1  0.48253000  0.92013000  0.94940000  1.0 -0.5301480414
O  O323  1  0.78313000  0.72073000  0.55060000  1.0 -0.5301480414
O  O324  1  0.77927000  0.71687000  0.44940000  1.0 -0.5301480414
O  O325  1  0.41316000  0.13946000  0.14670000  1.0 -0.779315154
O  O326  1  0.36054000  0.08684000  0.85330000  1.0 -0.779315154
O  O327  1  0.75724000  0.98354000  0.64670000  1.0 -0.779315154
O  O328  1  0.51646000  0.74276000  0.35330000  1.0 -0.779315154
O  O329  1  0.32674000  0.95144000  0.96770000  1.0 -0.5173805346
O  O330  1  0.54856000  0.17326000  0.03230000  1.0 -0.5173805346
O  O331  1  0.76626000  0.89096000  0.46770000  1.0 -0.5173805346
O  O332  1  0.60904000  0.73374000  0.53230000  1.0 -0.5173805346
O  O333  1  0.32683000  0.06543000  0.07520000  1.0 -0.4893801789
O  O334  1  0.43457000  0.17317000  0.92480000  1.0 -0.4893801789
O  O335  1  0.75977000  0.99837000  0.57520000  1.0 -0.4893801789
O  O336  1  0.50163000  0.74023000  0.42480000  1.0 -0.4893801789
O  O337  1  0.31529000  0.13559000  0.05370000  1.0 -0.8478567247
O  O338  1  0.36441000  0.18471000  0.94630000  1.0 -0.8478567247
O  O339  1  0.66811000  0.98841000  0.55370000  1.0 -0.8478567247
O  O340  1  0.51159000  0.83189000  0.44630000  1.0 -0.8478567247
O  O341  1  0.48571000  0.23141000  0.25010000  1.0 -0.5173805346
O  O342  1  0.26859000  0.01429000  0.74990000  1.0 -0.5173805346
O  O343  1  0.76869000  0.01439000  0.75010000  1.0 -0.5173805346
O  O344  1  0.48561000  0.73131000  0.24990000  1.0 -0.5173805346
O  O345  1  0.29694000  0.22344000  0.05870000  1.0 -0.4970707977
O  O346  1  0.27656000  0.20306000  0.94130000  1.0 -0.4970707977
O  O347  1  0.58526000  0.01176000  0.55870000  1.0 -0.4970707977
O  O348  1  0.48824000  0.91474000  0.44130000  1.0 -0.4970707977
O  O349  1  0.21040000  0.08050000  0.94390000  1.0 -0.4566620429
O  O350  1  0.41950000  0.28960000  0.05610000  1.0 -0.4566620429
O  O351  1  0.61340000  0.98350000  0.44390000  1.0 -0.4566620429
O  O352  1  0.51650000  0.88660000  0.55610000  1.0 -0.4566620429
