# DDEC6 charges by PACMAN v1.1 (https://github.com/mtap-research/PACMAN-charge/)
data_MAWFAT_ASR_pacman
_symmetry_space_group_name_H-M   'P 1'
_cell_length_a   17.00730000
_cell_length_b   17.00730000
_cell_length_c   24.52300000
_cell_angle_alpha   73.85820000
_cell_angle_beta   106.14200000
_cell_angle_gamma   91.63660000
_symmetry_Int_Tables_number   1
_chemical_formula_structural   Mn2Cu3H176C124(N2O5)4
_chemical_formula_sum   'Mn4 Cu6 H352 C248 N16 O40'
_cell_volume   6535.83858141
_cell_formula_units_Z   2
loop_
 _symmetry_equiv_pos_site_id
 _symmetry_equiv_pos_as_xyz
  1  'x, y, z'
loop_
 _atom_site_type_symbol
 _atom_site_label
 _atom_site_symmetry_multiplicity
 _atom_site_fract_x
 _atom_site_fract_y
 _atom_site_fract_z
 _atom_site_occupancy
 _atom_site_charge
Mn  Mn1  1  0.71280000  0.87370000  0.41510000  1.0 0.9003606805
Mn  Mn2  1  0.87370000  0.71280000  0.08490000  1.0 0.9003606805
Mn  Mn3  1  0.28720000  0.12630000  0.58490000  1.0 0.9003606805
Mn  Mn4  1  0.12630000  0.28720000  0.91510000  1.0 0.9003606805
Cu  Cu1  1  0.00000000  0.00000000  0.50000000  1.0 0.6583118805
Cu  Cu2  1  0.00000000  0.00000000  0.00000000  1.0 0.6583118805
Cu  Cu3  1  0.50000000  0.00000000  0.50000000  1.0 0.6456630298
Cu  Cu4  1  0.00000000  0.50000000  0.00000000  1.0 0.6456630298
Cu  Cu5  1  0.73467000  0.73467000  0.25000000  1.0 0.3825879165
Cu  Cu6  1  0.26533000  0.26533000  0.75000000  1.0 0.3825879165
H  H1  1  0.84100000  0.88020000  0.69390000  1.0 0.1102749339
H  H2  1  0.88020000  0.84100000  0.80610000  1.0 0.1102749339
H  H3  1  0.15900000  0.11980000  0.30610000  1.0 0.1102749339
H  H4  1  0.11980000  0.15900000  0.19390000  1.0 0.1102749339
H  H5  1  0.93110000  0.76130000  0.74190000  1.0 0.1102749339
H  H6  1  0.76130000  0.93110000  0.75810000  1.0 0.1102749339
H  H7  1  0.06890000  0.23870000  0.25810000  1.0 0.1102749339
H  H8  1  0.23870000  0.06890000  0.24190000  1.0 0.1102749339
H  H9  1  0.02870000  0.72490000  0.70450000  1.0 0.1191441278
H  H10  1  0.72490000  0.02870000  0.79550000  1.0 0.1191441278
H  H11  1  0.97130000  0.27510000  0.29550000  1.0 0.1191441278
H  H12  1  0.27510000  0.97130000  0.20450000  1.0 0.1191441278
H  H13  1  0.78540000  0.97760000  0.61550000  1.0 0.1006895504
H  H14  1  0.97760000  0.78540000  0.88450000  1.0 0.1006895504
H  H15  1  0.21460000  0.02240000  0.38450000  1.0 0.1006895504
H  H16  1  0.02240000  0.21460000  0.11550000  1.0 0.1006895504
H  H17  1  0.79650000  0.97910000  0.55390000  1.0 0.1102749339
H  H18  1  0.97910000  0.79650000  0.94610000  1.0 0.1102749339
H  H19  1  0.20350000  0.02090000  0.44610000  1.0 0.1102749339
H  H20  1  0.02090000  0.20350000  0.05390000  1.0 0.1102749339
H  H21  1  0.83110000  0.10470000  0.57310000  1.0 0.1102749339
H  H22  1  0.10470000  0.83110000  0.92690000  1.0 0.1102749339
H  H23  1  0.16890000  0.89530000  0.42690000  1.0 0.1102749339
H  H24  1  0.89530000  0.16890000  0.07310000  1.0 0.1102749339
H  H25  1  0.90920000  0.06180000  0.56970000  1.0 0.1102749339
H  H26  1  0.06180000  0.90920000  0.93030000  1.0 0.1102749339
H  H27  1  0.09080000  0.93820000  0.43030000  1.0 0.1102749339
H  H28  1  0.93820000  0.09080000  0.06970000  1.0 0.1102749339
H  H29  1  0.89820000  0.06020000  0.63140000  1.0 0.1191441278
H  H30  1  0.06020000  0.89820000  0.86860000  1.0 0.1191441278
H  H31  1  0.10180000  0.93980000  0.36860000  1.0 0.1191441278
H  H32  1  0.93980000  0.10180000  0.13140000  1.0 0.1191441278
H  H33  1  0.08300000  0.75060000  0.61810000  1.0 0.1006895504
H  H34  1  0.75060000  0.08300000  0.88190000  1.0 0.1006895504
H  H35  1  0.91700000  0.24940000  0.38190000  1.0 0.1006895504
H  H36  1  0.24940000  0.91700000  0.11810000  1.0 0.1006895504
H  H37  1  0.05200000  0.82500000  0.56130000  1.0 0.1006895504
H  H38  1  0.82500000  0.05200000  0.93870000  1.0 0.1006895504
H  H39  1  0.94800000  0.17500000  0.43870000  1.0 0.1006895504
H  H40  1  0.17500000  0.94800000  0.06130000  1.0 0.1006895504
H  H41  1  0.01530000  0.69690000  0.53400000  1.0 0.1191441278
H  H42  1  0.69690000  0.01530000  0.96600000  1.0 0.1191441278
H  H43  1  0.98470000  0.30310000  0.46600000  1.0 0.1191441278
H  H44  1  0.30310000  0.98470000  0.03400000  1.0 0.1191441278
H  H45  1  0.93410000  0.74750000  0.52360000  1.0 0.1191441278
H  H46  1  0.74750000  0.93410000  0.97640000  1.0 0.1191441278
H  H47  1  0.06590000  0.25250000  0.47640000  1.0 0.1191441278
H  H48  1  0.25250000  0.06590000  0.02360000  1.0 0.1191441278
H  H49  1  0.96480000  0.67320000  0.58030000  1.0 0.1102749339
H  H50  1  0.67320000  0.96480000  0.91970000  1.0 0.1102749339
H  H51  1  0.03520000  0.32680000  0.41970000  1.0 0.1102749339
H  H52  1  0.32680000  0.03520000  0.08030000  1.0 0.1102749339
H  H53  1  0.38010000  0.67590000  0.50310000  1.0 0.1275340536
H  H54  1  0.67590000  0.38010000  0.99690000  1.0 0.1275340536
H  H55  1  0.61990000  0.32410000  0.49690000  1.0 0.1275340536
H  H56  1  0.32410000  0.61990000  0.00310000  1.0 0.1275340536
H  H57  1  0.44340000  0.62320000  0.59620000  1.0 0.1191441278
H  H58  1  0.62320000  0.44340000  0.90380000  1.0 0.1191441278
H  H59  1  0.55660000  0.37680000  0.40380000  1.0 0.1191441278
H  H60  1  0.37680000  0.55660000  0.09620000  1.0 0.1191441278
H  H61  1  0.52990000  0.68070000  0.65190000  1.0 0.1275340536
H  H62  1  0.68070000  0.52990000  0.84810000  1.0 0.1275340536
H  H63  1  0.47010000  0.31930000  0.34810000  1.0 0.1275340536
H  H64  1  0.31930000  0.47010000  0.15190000  1.0 0.1275340536
H  H65  1  0.45730000  0.83670000  0.40750000  1.0 0.1102749339
H  H66  1  0.83670000  0.45730000  0.09250000  1.0 0.1102749339
H  H67  1  0.54270000  0.16330000  0.59250000  1.0 0.1102749339
H  H68  1  0.16330000  0.54270000  0.90750000  1.0 0.1102749339
H  H69  1  0.39130000  0.76970000  0.40640000  1.0 0.1006895504
H  H70  1  0.76970000  0.39130000  0.09360000  1.0 0.1006895504
H  H71  1  0.60870000  0.23030000  0.59360000  1.0 0.1006895504
H  H72  1  0.23030000  0.60870000  0.90640000  1.0 0.1006895504
H  H73  1  0.32520000  0.90320000  0.37210000  1.0 0.1191441278
H  H74  1  0.90320000  0.32520000  0.12790000  1.0 0.1191441278
H  H75  1  0.67480000  0.09680000  0.62790000  1.0 0.1191441278
H  H76  1  0.09680000  0.67480000  0.87210000  1.0 0.1191441278
H  H77  1  0.37000000  0.91900000  0.43300000  1.0 0.1102749339
H  H78  1  0.91900000  0.37000000  0.06700000  1.0 0.1102749339
H  H79  1  0.63000000  0.08100000  0.56700000  1.0 0.1102749339
H  H80  1  0.08100000  0.63000000  0.93300000  1.0 0.1102749339
H  H81  1  0.30390000  0.85290000  0.42980000  1.0 0.1191441278
H  H82  1  0.85290000  0.30390000  0.07020000  1.0 0.1191441278
H  H83  1  0.69610000  0.14710000  0.57020000  1.0 0.1191441278
H  H84  1  0.14710000  0.69610000  0.92980000  1.0 0.1191441278
H  H85  1  0.58600000  0.87540000  0.61310000  1.0 0.1006895504
H  H86  1  0.87540000  0.58600000  0.88690000  1.0 0.1006895504
H  H87  1  0.41400000  0.12460000  0.38690000  1.0 0.1006895504
H  H88  1  0.12460000  0.41400000  0.11310000  1.0 0.1006895504
H  H89  1  0.64760000  0.82820000  0.59500000  1.0 0.1102749339
H  H90  1  0.82820000  0.64760000  0.90500000  1.0 0.1102749339
H  H91  1  0.35240000  0.17180000  0.40500000  1.0 0.1102749339
H  H92  1  0.17180000  0.35240000  0.09500000  1.0 0.1102749339
H  H93  1  0.68820000  0.80440000  0.69880000  1.0 0.1191441278
H  H94  1  0.80440000  0.68820000  0.80120000  1.0 0.1191441278
H  H95  1  0.31180000  0.19560000  0.30120000  1.0 0.1191441278
H  H96  1  0.19560000  0.31180000  0.19880000  1.0 0.1191441278
H  H97  1  0.66570000  0.72090000  0.68440000  1.0 0.1191441278
H  H98  1  0.72090000  0.66570000  0.81560000  1.0 0.1191441278
H  H99  1  0.33430000  0.27910000  0.31560000  1.0 0.1191441278
H  H100  1  0.27910000  0.33430000  0.18440000  1.0 0.1191441278
H  H101  1  0.60370000  0.76790000  0.70260000  1.0 0.1191441278
H  H102  1  0.76790000  0.60370000  0.79740000  1.0 0.1191441278
H  H103  1  0.39630000  0.23210000  0.29740000  1.0 0.1191441278
H  H104  1  0.23210000  0.39630000  0.20260000  1.0 0.1191441278
H  H105  1  0.02580000  0.60380000  0.43680000  1.0 0.0804990414
H  H106  1  0.60380000  0.02580000  0.06320000  1.0 0.0804990414
H  H107  1  0.97420000  0.39620000  0.56320000  1.0 0.0804990414
H  H108  1  0.39620000  0.97420000  0.93680000  1.0 0.0804990414
H  H109  1  0.97800000  0.47280000  0.45850000  1.0 0.0804990414
H  H110  1  0.47280000  0.97800000  0.04150000  1.0 0.0804990414
H  H111  1  0.02200000  0.52720000  0.54150000  1.0 0.0804990414
H  H112  1  0.52720000  0.02200000  0.95850000  1.0 0.0804990414
H  H113  1  0.83890000  0.45350000  0.42670000  1.0 0.1473914099
H  H114  1  0.45350000  0.83890000  0.07330000  1.0 0.1473914099
H  H115  1  0.16110000  0.54650000  0.57330000  1.0 0.1473914099
H  H116  1  0.54650000  0.16110000  0.92670000  1.0 0.1473914099
H  H117  1  0.93480000  0.76780000  0.33870000  1.0 0.0909177204
H  H118  1  0.76780000  0.93480000  0.16130000  1.0 0.0909177204
H  H119  1  0.06520000  0.23220000  0.66130000  1.0 0.0909177204
H  H120  1  0.23220000  0.06520000  0.83870000  1.0 0.0909177204
H  H121  1  0.00290000  0.74130000  0.40070000  1.0 0.0804990414
H  H122  1  0.74130000  0.00290000  0.09930000  1.0 0.0804990414
H  H123  1  0.99710000  0.25870000  0.59930000  1.0 0.0804990414
H  H124  1  0.25870000  0.99710000  0.90070000  1.0 0.0804990414
H  H125  1  0.69660000  0.52460000  0.36570000  1.0 0.1368524053
H  H126  1  0.52460000  0.69660000  0.13430000  1.0 0.1368524053
H  H127  1  0.30340000  0.47540000  0.63430000  1.0 0.1368524053
H  H128  1  0.47540000  0.30340000  0.86570000  1.0 0.1368524053
H  H129  1  0.69080000  0.62080000  0.35120000  1.0 0.0909177204
H  H130  1  0.62080000  0.69080000  0.14880000  1.0 0.0909177204
H  H131  1  0.30920000  0.37920000  0.64880000  1.0 0.0909177204
H  H132  1  0.37920000  0.30920000  0.85120000  1.0 0.0909177204
H  H133  1  0.89870000  0.83550000  0.40580000  1.0 0.1191441278
H  H134  1  0.83550000  0.89870000  0.09420000  1.0 0.1191441278
H  H135  1  0.10130000  0.16450000  0.59420000  1.0 0.1191441278
H  H136  1  0.16450000  0.10130000  0.90580000  1.0 0.1191441278
H  H137  1  0.89910000  0.74930000  0.45080000  1.0 0.1102749339
H  H138  1  0.74930000  0.89910000  0.04920000  1.0 0.1102749339
H  H139  1  0.10090000  0.25070000  0.54920000  1.0 0.1102749339
H  H140  1  0.25070000  0.10090000  0.95080000  1.0 0.1102749339
H  H141  1  0.83140000  0.77420000  0.38980000  1.0 0.1597101775
H  H142  1  0.77420000  0.83140000  0.11020000  1.0 0.1597101775
H  H143  1  0.16860000  0.22580000  0.61020000  1.0 0.1597101775
H  H144  1  0.22580000  0.16860000  0.88980000  1.0 0.1597101775
H  H145  1  0.64890000  0.56470000  0.43930000  1.0 0.0909177204
H  H146  1  0.56470000  0.64890000  0.06070000  1.0 0.0909177204
H  H147  1  0.35110000  0.43530000  0.56070000  1.0 0.0909177204
H  H148  1  0.43530000  0.35110000  0.93930000  1.0 0.0909177204
H  H149  1  0.73120000  0.60760000  0.45680000  1.0 0.1191441278
H  H150  1  0.60760000  0.73120000  0.04320000  1.0 0.1102749339
H  H151  1  0.26880000  0.39240000  0.54320000  1.0 0.1191441278
H  H152  1  0.39240000  0.26880000  0.95680000  1.0 0.1191441278
H  H153  1  0.93230000  0.41290000  0.73920000  1.0 0.1102749339
H  H154  1  0.41290000  0.93230000  0.76080000  1.0 0.1102749339
H  H155  1  0.06770000  0.58710000  0.26080000  1.0 0.1102749339
H  H156  1  0.58710000  0.06770000  0.23920000  1.0 0.1102749339
H  H157  1  0.94670000  0.36990000  0.80660000  1.0 0.1275340536
H  H158  1  0.36990000  0.94670000  0.69340000  1.0 0.1275340536
H  H159  1  0.05330000  0.63010000  0.19340000  1.0 0.1275340536
H  H160  1  0.63010000  0.05330000  0.30660000  1.0 0.1275340536
H  H161  1  0.81720000  0.48680000  0.75720000  1.0 0.0909177204
H  H162  1  0.48680000  0.81720000  0.74280000  1.0 0.0909177204
H  H163  1  0.18280000  0.51320000  0.24280000  1.0 0.0909177204
H  H164  1  0.51320000  0.18280000  0.25720000  1.0 0.0909177204
H  H165  1  0.88400000  0.47100000  0.81950000  1.0 0.1102749339
H  H166  1  0.47100000  0.88400000  0.68050000  1.0 0.1102749339
H  H167  1  0.11600000  0.52900000  0.18050000  1.0 0.1102749339
H  H168  1  0.52900000  0.11600000  0.31950000  1.0 0.1102749339
H  H169  1  0.90440000  0.58840000  0.72590000  1.0 0.0804990414
H  H170  1  0.58840000  0.90440000  0.77410000  1.0 0.0804990414
H  H171  1  0.09560000  0.41160000  0.27410000  1.0 0.0804990414
H  H172  1  0.41160000  0.09560000  0.22590000  1.0 0.0804990414
H  H173  1  0.95560000  0.51340000  0.72340000  1.0 0.0909177204
H  H174  1  0.51340000  0.95560000  0.77660000  1.0 0.0909177204
H  H175  1  0.04440000  0.48660000  0.27660000  1.0 0.0909177204
H  H176  1  0.48660000  0.04440000  0.22340000  1.0 0.0909177204
H  H177  1  0.03760000  0.57320000  0.79560000  1.0 0.1191441278
H  H178  1  0.57320000  0.03760000  0.70440000  1.0 0.1191441278
H  H179  1  0.96240000  0.42680000  0.20440000  1.0 0.1191441278
H  H180  1  0.42680000  0.96240000  0.29560000  1.0 0.1191441278
H  H181  1  0.96880000  0.56040000  0.82810000  1.0 0.1191441278
H  H182  1  0.56040000  0.96880000  0.67190000  1.0 0.1191441278
H  H183  1  0.03120000  0.43960000  0.17190000  1.0 0.1191441278
H  H184  1  0.43960000  0.03120000  0.32810000  1.0 0.1191441278
H  H185  1  0.01760000  0.48440000  0.82690000  1.0 0.1275340536
H  H186  1  0.48440000  0.01760000  0.67310000  1.0 0.1275340536
H  H187  1  0.98240000  0.51560000  0.17310000  1.0 0.1275340536
H  H188  1  0.51560000  0.98240000  0.32690000  1.0 0.1275340536
H  H189  1  0.74650000  0.33190000  0.68030000  1.0 0.1006895504
H  H190  1  0.33190000  0.74650000  0.81970000  1.0 0.1006895504
H  H191  1  0.25350000  0.66810000  0.31970000  1.0 0.1006895504
H  H192  1  0.66810000  0.25350000  0.18030000  1.0 0.1006895504
H  H193  1  0.74980000  0.41740000  0.69290000  1.0 0.1102749339
H  H194  1  0.41740000  0.74980000  0.80710000  1.0 0.1102749339
H  H195  1  0.25020000  0.58260000  0.30710000  1.0 0.1102749339
H  H196  1  0.58260000  0.25020000  0.19290000  1.0 0.1102749339
H  H197  1  0.86960000  0.36680000  0.64210000  1.0 0.1102749339
H  H198  1  0.36680000  0.86960000  0.85790000  1.0 0.1102749339
H  H199  1  0.13040000  0.63320000  0.35790000  1.0 0.1102749339
H  H200  1  0.63320000  0.13040000  0.14210000  1.0 0.1102749339
H  H201  1  0.85780000  0.45740000  0.64610000  1.0 0.1191441278
H  H202  1  0.45740000  0.85780000  0.85390000  1.0 0.1191441278
H  H203  1  0.14220000  0.54260000  0.35390000  1.0 0.1191441278
H  H204  1  0.54260000  0.14220000  0.14610000  1.0 0.1191441278
H  H205  1  0.73250000  0.36910000  0.58570000  1.0 0.0909177204
H  H206  1  0.36910000  0.73250000  0.91430000  1.0 0.0909177204
H  H207  1  0.26750000  0.63090000  0.41430000  1.0 0.0909177204
H  H208  1  0.63090000  0.26750000  0.08570000  1.0 0.0909177204
H  H209  1  0.71040000  0.44920000  0.59820000  1.0 0.0909177204
H  H210  1  0.44920000  0.71040000  0.90180000  1.0 0.0909177204
H  H211  1  0.28960000  0.55080000  0.40180000  1.0 0.0909177204
H  H212  1  0.55080000  0.28960000  0.09820000  1.0 0.0909177204
H  H213  1  0.69650000  0.47510000  0.49660000  1.0 0.0804990414
H  H214  1  0.47510000  0.69650000  0.00340000  1.0 0.0804990414
H  H215  1  0.30350000  0.52490000  0.50340000  1.0 0.0804990414
H  H216  1  0.52490000  0.30350000  0.99660000  1.0 0.0804990414
H  H217  1  0.76620000  0.52820000  0.52230000  1.0 0.0909177204
H  H218  1  0.52820000  0.76620000  0.97770000  1.0 0.0909177204
H  H219  1  0.23380000  0.47180000  0.47770000  1.0 0.0909177204
H  H220  1  0.47180000  0.23380000  0.02230000  1.0 0.0909177204
H  H221  1  0.78870000  0.44750000  0.50970000  1.0 0.1275340536
H  H222  1  0.44750000  0.78870000  0.99030000  1.0 0.1275340536
H  H223  1  0.21130000  0.55250000  0.49030000  1.0 0.1275340536
H  H224  1  0.55250000  0.21130000  0.00970000  1.0 0.1275340536
H  H225  1  0.76650000  0.37370000  0.79180000  1.0 0.1102749339
H  H226  1  0.37370000  0.76650000  0.70820000  1.0 0.1102749339
H  H227  1  0.23350000  0.62630000  0.20820000  1.0 0.1102749339
H  H228  1  0.62630000  0.23350000  0.29180000  1.0 0.1102749339
H  H229  1  0.74600000  0.28740000  0.78210000  1.0 0.1191441278
H  H230  1  0.28740000  0.74600000  0.71790000  1.0 0.1191441278
H  H231  1  0.25400000  0.71260000  0.21790000  1.0 0.1191441278
H  H232  1  0.71260000  0.25400000  0.28210000  1.0 0.1191441278
H  H233  1  0.85570000  0.22970000  0.85860000  1.0 0.1191441278
H  H234  1  0.22970000  0.85570000  0.64140000  1.0 0.1191441278
H  H235  1  0.14430000  0.77030000  0.14140000  1.0 0.1191441278
H  H236  1  0.77030000  0.14430000  0.35860000  1.0 0.1191441278
H  H237  1  0.87800000  0.31600000  0.86800000  1.0 0.1275340536
H  H238  1  0.31600000  0.87800000  0.63200000  1.0 0.1275340536
H  H239  1  0.12200000  0.68400000  0.13200000  1.0 0.1275340536
H  H240  1  0.68400000  0.12200000  0.36800000  1.0 0.1275340536
H  H241  1  0.73290000  0.23570000  0.88560000  1.0 0.0804990414
H  H242  1  0.23570000  0.73290000  0.61440000  1.0 0.0804990414
H  H243  1  0.26710000  0.76430000  0.11440000  1.0 0.0804990414
H  H244  1  0.76430000  0.26710000  0.38560000  1.0 0.0804990414
H  H245  1  0.74830000  0.32530000  0.88990000  1.0 0.0804990414
H  H246  1  0.32530000  0.74830000  0.61010000  1.0 0.0804990414
H  H247  1  0.25170000  0.67470000  0.11010000  1.0 0.0804990414
H  H248  1  0.67470000  0.25170000  0.38990000  1.0 0.0804990414
H  H249  1  0.77950000  0.23470000  0.98200000  1.0 0.1102749339
H  H250  1  0.23470000  0.77950000  0.51800000  1.0 0.1102749339
H  H251  1  0.22050000  0.76530000  0.01800000  1.0 0.1102749339
H  H252  1  0.76530000  0.22050000  0.48200000  1.0 0.1102749339
H  H253  1  0.84460000  0.18820000  0.96620000  1.0 0.1275340536
H  H254  1  0.18820000  0.84460000  0.53380000  1.0 0.1275340536
H  H255  1  0.15540000  0.81180000  0.03380000  1.0 0.1275340536
H  H256  1  0.81180000  0.15540000  0.46620000  1.0 0.1275340536
H  H257  1  0.85850000  0.27790000  0.97080000  1.0 0.1368524053
H  H258  1  0.27790000  0.85850000  0.52920000  1.0 0.1368524053
H  H259  1  0.14150000  0.72210000  0.02920000  1.0 0.1368524053
H  H260  1  0.72210000  0.14150000  0.47080000  1.0 0.1368524053
H  H261  1  0.94150000  0.27850000  0.75260000  1.0 0.0909177204
H  H262  1  0.27850000  0.94150000  0.74740000  1.0 0.0909177204
H  H263  1  0.05850000  0.72150000  0.24740000  1.0 0.0909177204
H  H264  1  0.72150000  0.05850000  0.25260000  1.0 0.0909177204
H  H265  1  0.91800000  0.24120000  0.81230000  1.0 0.1191441278
H  H266  1  0.24120000  0.91800000  0.68770000  1.0 0.1191441278
H  H267  1  0.08200000  0.75880000  0.18770000  1.0 0.1191441278
H  H268  1  0.75880000  0.08200000  0.31230000  1.0 0.1191441278
H  H269  1  0.80880000  0.23140000  0.70210000  1.0 0.1102749339
H  H270  1  0.23140000  0.80880000  0.79790000  1.0 0.1102749339
H  H271  1  0.19120000  0.76860000  0.29790000  1.0 0.1102749339
H  H272  1  0.76860000  0.19120000  0.20210000  1.0 0.1102749339
H  H273  1  0.80170000  0.18290000  0.76400000  1.0 0.1006895504
H  H274  1  0.18290000  0.80170000  0.73600000  1.0 0.1006895504
H  H275  1  0.19830000  0.81710000  0.23600000  1.0 0.1006895504
H  H276  1  0.81710000  0.19830000  0.26400000  1.0 0.1006895504
H  H277  1  0.87060000  0.12540000  0.69100000  1.0 0.0804990414
H  H278  1  0.12540000  0.87060000  0.80900000  1.0 0.0804990414
H  H279  1  0.12940000  0.87460000  0.30900000  1.0 0.0804990414
H  H280  1  0.87460000  0.12940000  0.19100000  1.0 0.0804990414
H  H281  1  0.83420000  0.07320000  0.74140000  1.0 0.0700023273
H  H282  1  0.07320000  0.83420000  0.75860000  1.0 0.0700023273
H  H283  1  0.16580000  0.92680000  0.25860000  1.0 0.0700023273
H  H284  1  0.92680000  0.16580000  0.24140000  1.0 0.0700023273
H  H285  1  0.98080000  0.04560000  0.76770000  1.0 0.1102749339
H  H286  1  0.04560000  0.98080000  0.73230000  1.0 0.1102749339
H  H287  1  0.01920000  0.95440000  0.23230000  1.0 0.1102749339
H  H288  1  0.95440000  0.01920000  0.26770000  1.0 0.1102749339
H  H289  1  0.99380000  0.13780000  0.76590000  1.0 0.1191441278
H  H290  1  0.13780000  0.99380000  0.73410000  1.0 0.1191441278
H  H291  1  0.00620000  0.86220000  0.23410000  1.0 0.1191441278
H  H292  1  0.86220000  0.00620000  0.26590000  1.0 0.1191441278
H  H293  1  0.95790000  0.08070000  0.81440000  1.0 0.1275340536
H  H294  1  0.08070000  0.95790000  0.68560000  1.0 0.1275340536
H  H295  1  0.04210000  0.91930000  0.18560000  1.0 0.1275340536
H  H296  1  0.91930000  0.04210000  0.31440000  1.0 0.1275340536
H  H297  1  0.73180000  0.51200000  0.46960000  1.0 0.0909177204
H  H298  1  0.51200000  0.73180000  0.03040000  1.0 0.0909177204
H  H299  1  0.26820000  0.48800000  0.53040000  1.0 0.0909177204
H  H300  1  0.48800000  0.26820000  0.96960000  1.0 0.0909177204
H  H301  1  0.02920000  0.62500000  0.40870000  1.0 0.0804990414
H  H302  1  0.62500000  0.02920000  0.09130000  1.0 0.0804990414
H  H303  1  0.97080000  0.37500000  0.59130000  1.0 0.0804990414
H  H304  1  0.37500000  0.97080000  0.90870000  1.0 0.0804990414
H  H305  1  0.03390000  0.48430000  0.42320000  1.0 0.0804990414
H  H306  1  0.48430000  0.03390000  0.07680000  1.0 0.0804990414
H  H307  1  0.96610000  0.51570000  0.57680000  1.0 0.0804990414
H  H308  1  0.51570000  0.96610000  0.92320000  1.0 0.0804990414
H  H309  1  0.94110000  0.42710000  0.35770000  1.0 0.1102749339
H  H310  1  0.42710000  0.94110000  0.14230000  1.0 0.1102749339
H  H311  1  0.05890000  0.57290000  0.64230000  1.0 0.1102749339
H  H312  1  0.57290000  0.05890000  0.85770000  1.0 0.1102749339
H  H313  1  0.92560000  0.76860000  0.35170000  1.0 0.1102749339
H  H314  1  0.76860000  0.92560000  0.14830000  1.0 0.1102749339
H  H315  1  0.07440000  0.23140000  0.64830000  1.0 0.1102749339
H  H316  1  0.23140000  0.07440000  0.85170000  1.0 0.1102749339
H  H317  1  0.89340000  0.77600000  0.28300000  1.0 0.057632684
H  H318  1  0.77600000  0.89340000  0.21700000  1.0 0.057632684
H  H319  1  0.10660000  0.22400000  0.71700000  1.0 0.057632684
H  H320  1  0.22400000  0.10660000  0.78300000  1.0 0.057632684
H  H321  1  0.03950000  0.81370000  0.30540000  1.0 0.0804990414
H  H322  1  0.81370000  0.03950000  0.19460000  1.0 0.0804990414
H  H323  1  0.96050000  0.18630000  0.69460000  1.0 0.0804990414
H  H324  1  0.18630000  0.96050000  0.80540000  1.0 0.0804990414
H  H325  1  0.03270000  0.73390000  0.28470000  1.0 0.0700023273
H  H326  1  0.73390000  0.03270000  0.21530000  1.0 0.0700023273
H  H327  1  0.96730000  0.26610000  0.71530000  1.0 0.0700023273
H  H328  1  0.26610000  0.96730000  0.78470000  1.0 0.0700023273
H  H329  1  0.06440000  0.72800000  0.35220000  1.0 0.0909177204
H  H330  1  0.72800000  0.06440000  0.14780000  1.0 0.0909177204
H  H331  1  0.93560000  0.27200000  0.64780000  1.0 0.0909177204
H  H332  1  0.27200000  0.93560000  0.85220000  1.0 0.0909177204
H  H333  1  0.78910000  0.47030000  0.29350000  1.0 0.0804990414
H  H334  1  0.47030000  0.78910000  0.20650000  1.0 0.0804990414
H  H335  1  0.21090000  0.52970000  0.70650000  1.0 0.0804990414
H  H336  1  0.52970000  0.21090000  0.79350000  1.0 0.0804990414
H  H337  1  0.79520000  0.53400000  0.23690000  1.0 0.1006895504
H  H338  1  0.53400000  0.79520000  0.26310000  1.0 0.1006895504
H  H339  1  0.20480000  0.46600000  0.76310000  1.0 0.1006895504
H  H340  1  0.46600000  0.20480000  0.73690000  1.0 0.1006895504
H  H341  1  0.76340000  0.41480000  0.22690000  1.0 0.1006895504
H  H342  1  0.41480000  0.76340000  0.27310000  1.0 0.1006895504
H  H343  1  0.23660000  0.58520000  0.77310000  1.0 0.1006895504
H  H344  1  0.58520000  0.23660000  0.72690000  1.0 0.1006895504
H  H345  1  0.85030000  0.37790000  0.26770000  1.0 0.1102749339
H  H346  1  0.37790000  0.85030000  0.23230000  1.0 0.1102749339
H  H347  1  0.14970000  0.62210000  0.73230000  1.0 0.1102749339
H  H348  1  0.62210000  0.14970000  0.76770000  1.0 0.1102749339
H  H349  1  0.84200000  0.44440000  0.20730000  1.0 0.1275340536
H  H350  1  0.44440000  0.84200000  0.29270000  1.0 0.1275340536
H  H351  1  0.15800000  0.55560000  0.79270000  1.0 0.1275340536
H  H352  1  0.55560000  0.15800000  0.70730000  1.0 0.1275340536
C  C1  1  0.86530000  0.91050000  0.48920000  1.0 0.3300928914
C  C2  1  0.91050000  0.86530000  0.01080000  1.0 0.3300928914
C  C3  1  0.13470000  0.08950000  0.51080000  1.0 0.3300928914
C  C4  1  0.08950000  0.13470000  0.98920000  1.0 0.3300928914
C  C5  1  0.86630000  0.95770000  0.42780000  1.0 0.4517282502
C  C6  1  0.95770000  0.86630000  0.07220000  1.0 0.4517282502
C  C7  1  0.13370000  0.04230000  0.57220000  1.0 0.4517282502
C  C8  1  0.04230000  0.13370000  0.92780000  1.0 0.4517282502
C  C9  1  0.93600000  0.87720000  0.59260000  1.0 0.1473914099
C  C10  1  0.87720000  0.93600000  0.90740000  1.0 0.1473914099
C  C11  1  0.06400000  0.12280000  0.40740000  1.0 0.1473914099
C  C12  1  0.12280000  0.06400000  0.09260000  1.0 0.1473914099
C  C13  1  0.87910000  0.90730000  0.62130000  1.0 0.0804990414
C  C14  1  0.90730000  0.87910000  0.87870000  1.0 0.0804990414
C  C15  1  0.12090000  0.09270000  0.37870000  1.0 0.0804990414
C  C16  1  0.09270000  0.12090000  0.12130000  1.0 0.0804990414
C  C17  1  0.87670000  0.86470000  0.67560000  1.0 -0.168941866
C  C18  1  0.86470000  0.87670000  0.82440000  1.0 -0.168941866
C  C19  1  0.12330000  0.13530000  0.32440000  1.0 -0.168941866
C  C20  1  0.13530000  0.12330000  0.17560000  1.0 -0.168941866
C  C21  1  0.93350000  0.79250000  0.70470000  1.0 -0.0980280471
C  C22  1  0.79250000  0.93350000  0.79530000  1.0 -0.0980280471
C  C23  1  0.06650000  0.20750000  0.29530000  1.0 -0.0980280471
C  C24  1  0.20750000  0.06650000  0.20470000  1.0 -0.0980280471
C  C25  1  0.98950000  0.76690000  0.68210000  1.0 -0.1772475473
C  C26  1  0.76690000  0.98950000  0.81790000  1.0 -0.1772475473
C  C27  1  0.01050000  0.23310000  0.31790000  1.0 -0.1772475473
C  C28  1  0.23310000  0.01050000  0.18210000  1.0 -0.1772475473
C  C29  1  0.98390000  0.81170000  0.61760000  1.0 0.0415339109
C  C30  1  0.81170000  0.98390000  0.88240000  1.0 0.0415339109
C  C31  1  0.01610000  0.18830000  0.38240000  1.0 0.0415339109
C  C32  1  0.18830000  0.01610000  0.11760000  1.0 0.0415339109
C  C33  1  0.82570000  0.97930000  0.59400000  1.0 -0.168941866
C  C34  1  0.97930000  0.82570000  0.90600000  1.0 -0.168941866
C  C35  1  0.17430000  0.02070000  0.40600000  1.0 -0.168941866
C  C36  1  0.02070000  0.17430000  0.09400000  1.0 -0.168941866
C  C37  1  0.87010000  0.05890000  0.59180000  1.0 -0.3596448681
C  C38  1  0.05890000  0.87010000  0.90820000  1.0 -0.3596448681
C  C39  1  0.12990000  0.94110000  0.40820000  1.0 -0.3596448681
C  C40  1  0.94110000  0.12990000  0.09180000  1.0 -0.3596448681
C  C41  1  0.03440000  0.78000000  0.58880000  1.0 -0.1908327534
C  C42  1  0.78000000  0.03440000  0.91120000  1.0 -0.1908327534
C  C43  1  0.96560000  0.22000000  0.41120000  1.0 -0.1908327534
C  C44  1  0.22000000  0.96560000  0.08880000  1.0 -0.1908327534
C  C45  1  0.98170000  0.71790000  0.55290000  1.0 -0.3482005826
C  C46  1  0.71790000  0.98170000  0.94710000  1.0 -0.3482005826
C  C47  1  0.01830000  0.28210000  0.44710000  1.0 -0.3482005826
C  C48  1  0.28210000  0.01830000  0.05290000  1.0 -0.3482005826
C  C49  1  0.58810000  0.89370000  0.47050000  1.0 0.3377561786
C  C50  1  0.89370000  0.58810000  0.02950000  1.0 0.3377561786
C  C51  1  0.41190000  0.10630000  0.52950000  1.0 0.3377561786
C  C52  1  0.10630000  0.41190000  0.97050000  1.0 0.3377561786
C  C53  1  0.60960000  0.97980000  0.44220000  1.0 0.4517282502
C  C54  1  0.97980000  0.60960000  0.05780000  1.0 0.4517282502
C  C55  1  0.39040000  0.02020000  0.55780000  1.0 0.4517282502
C  C56  1  0.02020000  0.39040000  0.94220000  1.0 0.4517282502
C  C57  1  0.50840000  0.81580000  0.52670000  1.0 0.1275340536
C  C58  1  0.81580000  0.50840000  0.97330000  1.0 0.1275340536
C  C59  1  0.49160000  0.18420000  0.47330000  1.0 0.1275340536
C  C60  1  0.18420000  0.49160000  0.02670000  1.0 0.1275340536
C  C61  1  0.44750000  0.77730000  0.49210000  1.0 0.0700023273
C  C62  1  0.77730000  0.44750000  0.00790000  1.0 0.0700023273
C  C63  1  0.55250000  0.22270000  0.50790000  1.0 0.0700023273
C  C64  1  0.22270000  0.55250000  0.99210000  1.0 0.0700023273
C  C65  1  0.42180000  0.70340000  0.52230000  1.0 -0.1642891846
C  C66  1  0.70340000  0.42180000  0.97770000  1.0 -0.1642891846
C  C67  1  0.57820000  0.29660000  0.47770000  1.0 -0.1642891846
C  C68  1  0.29660000  0.57820000  0.02230000  1.0 -0.1642891846
C  C69  1  0.45830000  0.67490000  0.57820000  1.0 -0.1095548248
C  C70  1  0.67490000  0.45830000  0.92180000  1.0 -0.1095548248
C  C71  1  0.54170000  0.32510000  0.42180000  1.0 -0.1095548248
C  C72  1  0.32510000  0.54170000  0.07820000  1.0 -0.1095548248
C  C73  1  0.51030000  0.70590000  0.61150000  1.0 -0.1306102864
C  C74  1  0.70590000  0.51030000  0.88850000  1.0 -0.1306102864
C  C75  1  0.48970000  0.29410000  0.38850000  1.0 -0.1306102864
C  C76  1  0.29410000  0.48970000  0.11150000  1.0 -0.1306102864
C  C77  1  0.53800000  0.78240000  0.58400000  1.0 0.0205533242
C  C78  1  0.78240000  0.53800000  0.91600000  1.0 0.0205533242
C  C79  1  0.46200000  0.21760000  0.41600000  1.0 0.0205533242
C  C80  1  0.21760000  0.46200000  0.08400000  1.0 0.0205533242
C  C81  1  0.41400000  0.81260000  0.42440000  1.0 -0.168941866
C  C82  1  0.81260000  0.41400000  0.07560000  1.0 -0.168941866
C  C83  1  0.58600000  0.18740000  0.57560000  1.0 -0.168941866
C  C84  1  0.18740000  0.58600000  0.92440000  1.0 -0.168941866
C  C85  1  0.34700000  0.87800000  0.41380000  1.0 -0.3797944977
C  C86  1  0.87800000  0.34700000  0.08620000  1.0 -0.3797944977
C  C87  1  0.65300000  0.12200000  0.58620000  1.0 -0.3797944977
C  C88  1  0.12200000  0.65300000  0.91380000  1.0 -0.3797944977
C  C89  1  0.60520000  0.82120000  0.61520000  1.0 -0.1515429697
C  C90  1  0.82120000  0.60520000  0.88480000  1.0 -0.1515429697
C  C91  1  0.39480000  0.17880000  0.38480000  1.0 -0.1515429697
C  C92  1  0.17880000  0.39480000  0.11520000  1.0 -0.1515429697
C  C93  1  0.64450000  0.77410000  0.68160000  1.0 -0.3690126818
C  C94  1  0.77410000  0.64450000  0.81840000  1.0 -0.3690126818
C  C95  1  0.35550000  0.22590000  0.31840000  1.0 -0.3690126818
C  C96  1  0.22590000  0.35550000  0.18160000  1.0 -0.3690126818
C  C97  1  0.73530000  0.75710000  0.35460000  1.0 0.3048118421
C  C98  1  0.75710000  0.73530000  0.14540000  1.0 0.3048118421
C  C99  1  0.26470000  0.24290000  0.64540000  1.0 0.3048118421
C  C100  1  0.24290000  0.26470000  0.85460000  1.0 0.3048118421
C  C101  1  0.68340000  0.83000000  0.30740000  1.0 0.3377561786
C  C102  1  0.83000000  0.68340000  0.19260000  1.0 0.3377561786
C  C103  1  0.31660000  0.17000000  0.69260000  1.0 0.3377561786
C  C104  1  0.17000000  0.31660000  0.80740000  1.0 0.3377561786
C  C105  1  0.91540000  0.66280000  0.39190000  1.0 0.0415339109
C  C106  1  0.66280000  0.91540000  0.10810000  1.0 0.0415339109
C  C107  1  0.08460000  0.33720000  0.60810000  1.0 0.0415339109
C  C108  1  0.33720000  0.08460000  0.89190000  1.0 0.0415339109
C  C109  1  0.97000000  0.59600000  0.42400000  1.0 -0.0911935798
C  C110  1  0.59600000  0.97000000  0.07600000  1.0 -0.0911935798
C  C111  1  0.03000000  0.40400000  0.57600000  1.0 -0.0911935798
C  C112  1  0.40400000  0.03000000  0.92400000  1.0 -0.0911935798
C  C113  1  0.94130000  0.51750000  0.43710000  1.0 -0.1306102864
C  C114  1  0.51750000  0.94130000  0.06290000  1.0 -0.1306102864
C  C115  1  0.05870000  0.48250000  0.56290000  1.0 -0.1306102864
C  C116  1  0.48250000  0.05870000  0.93710000  1.0 -0.1306102864
C  C117  1  0.85810000  0.50590000  0.41800000  1.0 -0.2577444545
C  C118  1  0.50590000  0.85810000  0.08200000  1.0 -0.2577444545
C  C119  1  0.14190000  0.49410000  0.58200000  1.0 -0.2577444545
C  C120  1  0.49410000  0.14190000  0.91800000  1.0 -0.2577444545
C  C121  1  0.80340000  0.57280000  0.38590000  1.0 -0.0040113763
C  C122  1  0.57280000  0.80340000  0.11410000  1.0 -0.0040113763
C  C123  1  0.19660000  0.42720000  0.61410000  1.0 -0.0040113763
C  C124  1  0.42720000  0.19660000  0.88590000  1.0 -0.0040113763
C  C125  1  0.83200000  0.65120000  0.37290000  1.0 -0.0202754235
C  C126  1  0.65120000  0.83200000  0.12710000  1.0 -0.0202754235
C  C127  1  0.16800000  0.34880000  0.62710000  1.0 -0.0202754235
C  C128  1  0.34880000  0.16800000  0.87290000  1.0 -0.0202754235
C  C129  1  0.94500000  0.74100000  0.38060000  1.0 -0.1306102864
C  C130  1  0.74100000  0.94500000  0.11940000  1.0 -0.1306102864
C  C131  1  0.05500000  0.25900000  0.61940000  1.0 -0.1306102864
C  C132  1  0.25900000  0.05500000  0.88060000  1.0 -0.1306102864
C  C133  1  0.71880000  0.57100000  0.37960000  1.0 -0.0392063304
C  C134  1  0.57100000  0.71880000  0.12040000  1.0 -0.0392063304
C  C135  1  0.28120000  0.42900000  0.62040000  1.0 -0.0392063304
C  C136  1  0.42900000  0.28120000  0.87960000  1.0 -0.0392063304
C  C137  1  0.88792000  0.77872000  0.40960000  1.0 -0.4526364437
C  C138  1  0.77872000  0.88792000  0.09040000  1.0 -0.4526364437
C  C139  1  0.11208000  0.22128000  0.59040000  1.0 -0.4526364437
C  C140  1  0.22128000  0.11208000  0.90960000  1.0 -0.4526364437
C  C141  1  0.70670000  0.56330000  0.44250000  1.0 -0.1095548248
C  C142  1  0.56330000  0.70670000  0.05750000  1.0 -0.1095548248
C  C143  1  0.29330000  0.43670000  0.55750000  1.0 -0.1095548248
C  C144  1  0.43670000  0.29330000  0.94250000  1.0 -0.1095548248
C  C145  1  0.90540000  0.39740000  0.77040000  1.0 -0.1772475473
C  C146  1  0.39740000  0.90540000  0.72960000  1.0 -0.1772475473
C  C147  1  0.09460000  0.60260000  0.22960000  1.0 -0.1772475473
C  C148  1  0.60260000  0.09460000  0.27040000  1.0 -0.1772475473
C  C149  1  0.87470000  0.47370000  0.77810000  1.0 -0.1772475473
C  C150  1  0.47370000  0.87470000  0.72190000  1.0 -0.1772475473
C  C151  1  0.12530000  0.52630000  0.22190000  1.0 -0.1772475473
C  C152  1  0.52630000  0.12530000  0.27810000  1.0 -0.1772475473
C  C153  1  0.93210000  0.53550000  0.74830000  1.0 -0.0980280471
C  C154  1  0.53550000  0.93210000  0.75170000  1.0 -0.0980280471
C  C155  1  0.06790000  0.46450000  0.25170000  1.0 -0.0980280471
C  C156  1  0.46450000  0.06790000  0.24830000  1.0 -0.0980280471
C  C157  1  0.99470000  0.53870000  0.80490000  1.0 -0.3903478118
C  C158  1  0.53870000  0.99470000  0.69510000  1.0 -0.3903478118
C  C159  1  0.00530000  0.46130000  0.19510000  1.0 -0.3903478118
C  C160  1  0.46130000  0.00530000  0.30490000  1.0 -0.3903478118
C  C161  1  0.78320000  0.37280000  0.69190000  1.0 -0.1306102864
C  C162  1  0.37280000  0.78320000  0.80810000  1.0 -0.1306102864
C  C163  1  0.21680000  0.62720000  0.30810000  1.0 -0.1306102864
C  C164  1  0.62720000  0.21680000  0.19190000  1.0 -0.1306102864
C  C165  1  0.83090000  0.40730000  0.64250000  1.0 -0.2167968757
C  C166  1  0.40730000  0.83090000  0.85750000  1.0 -0.2167968757
C  C167  1  0.16910000  0.59270000  0.35750000  1.0 -0.2167968757
C  C168  1  0.59270000  0.16910000  0.14250000  1.0 -0.2167968757
C  C169  1  0.75170000  0.42270000  0.58800000  1.0 -0.1243005513
C  C170  1  0.42270000  0.75170000  0.91200000  1.0 -0.1243005513
C  C171  1  0.24830000  0.57730000  0.41200000  1.0 -0.1243005513
C  C172  1  0.57730000  0.24830000  0.08800000  1.0 -0.1243005513
C  C173  1  0.75070000  0.47330000  0.52270000  1.0 -0.3262833587
C  C174  1  0.47330000  0.75070000  0.97730000  1.0 -0.3262833587
C  C175  1  0.24930000  0.52670000  0.47730000  1.0 -0.3262833587
C  C176  1  0.52670000  0.24930000  0.02270000  1.0 -0.3262833587
C  C177  1  0.79060000  0.32120000  0.79470000  1.0 -0.1306102864
C  C178  1  0.32120000  0.79060000  0.70530000  1.0 -0.1306102864
C  C179  1  0.20940000  0.67880000  0.20530000  1.0 -0.1306102864
C  C180  1  0.67880000  0.20940000  0.29470000  1.0 -0.1306102864
C  C181  1  0.83290000  0.28310000  0.85510000  1.0 -0.1908327534
C  C182  1  0.28310000  0.83290000  0.64490000  1.0 -0.1908327534
C  C183  1  0.16710000  0.71690000  0.14490000  1.0 -0.1908327534
C  C184  1  0.71690000  0.16710000  0.35510000  1.0 -0.1908327534
C  C185  1  0.77510000  0.27250000  0.89650000  1.0 -0.0980280471
C  C186  1  0.27250000  0.77510000  0.60350000  1.0 -0.0980280471
C  C187  1  0.22490000  0.72750000  0.10350000  1.0 -0.0980280471
C  C188  1  0.72750000  0.22490000  0.39650000  1.0 -0.0980280471
C  C189  1  0.81800000  0.24060000  0.95920000  1.0 -0.3797944977
C  C190  1  0.24060000  0.81800000  0.54080000  1.0 -0.3797944977
C  C191  1  0.18200000  0.75940000  0.04080000  1.0 -0.3797944977
C  C192  1  0.75940000  0.18200000  0.45920000  1.0 -0.3797944977
C  C193  1  0.89630000  0.26370000  0.76980000  1.0 -0.1095548248
C  C194  1  0.26370000  0.89630000  0.73020000  1.0 -0.1095548248
C  C195  1  0.10370000  0.73630000  0.23020000  1.0 -0.1095548248
C  C196  1  0.73630000  0.10370000  0.26980000  1.0 -0.1095548248
C  C197  1  0.84060000  0.19940000  0.74110000  1.0 -0.2015152505
C  C198  1  0.19940000  0.84060000  0.75890000  1.0 -0.2015152505
C  C199  1  0.15940000  0.80060000  0.25890000  1.0 -0.2015152505
C  C200  1  0.80060000  0.15940000  0.24110000  1.0 -0.2015152505
C  C201  1  0.87050000  0.11670000  0.73180000  1.0 -0.069780274
C  C202  1  0.11670000  0.87050000  0.76820000  1.0 -0.069780274
C  C203  1  0.12950000  0.88330000  0.26820000  1.0 -0.069780274
C  C204  1  0.88330000  0.12950000  0.23180000  1.0 -0.069780274
C  C205  1  0.95930000  0.09290000  0.77400000  1.0 -0.3690126818
C  C206  1  0.09290000  0.95930000  0.72600000  1.0 -0.3690126818
C  C207  1  0.04070000  0.90710000  0.22600000  1.0 -0.3690126818
C  C208  1  0.90710000  0.04070000  0.27400000  1.0 -0.3690126818
C  C209  1  0.87820000  0.61780000  0.29540000  1.0 0.0483228148
C  C210  1  0.61780000  0.87820000  0.20460000  1.0 0.0483228148
C  C211  1  0.12180000  0.38220000  0.70460000  1.0 0.0483228148
C  C212  1  0.38220000  0.12180000  0.79540000  1.0 0.0483228148
C  C213  1  0.93370000  0.65210000  0.33460000  1.0 0.009690109
C  C214  1  0.65210000  0.93370000  0.16540000  1.0 0.009690109
C  C215  1  0.06630000  0.34790000  0.66540000  1.0 0.009690109
C  C216  1  0.34790000  0.06630000  0.83460000  1.0 0.009690109
C  C217  1  0.99200000  0.60200000  0.38250000  1.0 -0.0791730664
C  C218  1  0.60200000  0.99200000  0.11750000  1.0 -0.0791730664
C  C219  1  0.00800000  0.39800000  0.61750000  1.0 -0.0791730664
C  C220  1  0.39800000  0.00800000  0.88250000  1.0 -0.0791730664
C  C221  1  0.99480000  0.51780000  0.39110000  1.0 -0.0202754235
C  C222  1  0.51780000  0.99480000  0.10890000  1.0 -0.0202754235
C  C223  1  0.00520000  0.48220000  0.60890000  1.0 -0.0202754235
C  C224  1  0.48220000  0.00520000  0.89110000  1.0 -0.0202754235
C  C225  1  0.93930000  0.48350000  0.35190000  1.0 -0.248705466
C  C226  1  0.48350000  0.93930000  0.14810000  1.0 -0.248705466
C  C227  1  0.06070000  0.51650000  0.64810000  1.0 -0.248705466
C  C228  1  0.51650000  0.06070000  0.85190000  1.0 -0.248705466
C  C229  1  0.88090000  0.53350000  0.30400000  1.0 -0.006940167
C  C230  1  0.53350000  0.88090000  0.19600000  1.0 -0.006940167
C  C231  1  0.11910000  0.46650000  0.69600000  1.0 -0.006940167
C  C232  1  0.46650000  0.11910000  0.80400000  1.0 -0.006940167
C  C233  1  0.93350000  0.74890000  0.32000000  1.0 -0.1243005513
C  C234  1  0.74890000  0.93350000  0.18000000  1.0 -0.1243005513
C  C235  1  0.06650000  0.25110000  0.68000000  1.0 -0.1243005513
C  C236  1  0.25110000  0.06650000  0.82000000  1.0 -0.1243005513
C  C237  1  0.02720000  0.75700000  0.31510000  1.0 -0.3903478118
C  C238  1  0.75700000  0.02720000  0.18490000  1.0 -0.3903478118
C  C239  1  0.97280000  0.24300000  0.68490000  1.0 -0.3903478118
C  C240  1  0.24300000  0.97280000  0.81510000  1.0 -0.3903478118
C  C241  1  0.82600000  0.48920000  0.26920000  1.0 -0.142344021
C  C242  1  0.48920000  0.82600000  0.23080000  1.0 -0.142344021
C  C243  1  0.17400000  0.51080000  0.73080000  1.0 -0.142344021
C  C244  1  0.51080000  0.17400000  0.76920000  1.0 -0.142344021
C  C245  1  0.81990000  0.42650000  0.24050000  1.0 -0.3690126818
C  C246  1  0.42650000  0.81990000  0.25950000  1.0 -0.3690126818
C  C247  1  0.18010000  0.57350000  0.75950000  1.0 -0.3690126818
C  C248  1  0.57350000  0.18010000  0.74050000  1.0 -0.3690126818
N  N1  1  0.75990000  0.70330000  0.33550000  1.0 -0.3903478118
N  N2  1  0.70330000  0.75990000  0.16450000  1.0 -0.3903478118
N  N3  1  0.24010000  0.29670000  0.66450000  1.0 -0.3903478118
N  N4  1  0.29670000  0.24010000  0.83550000  1.0 -0.3903478118
N  N5  1  0.92750000  0.92130000  0.53190000  1.0 -0.4322485185
N  N6  1  0.92130000  0.92750000  0.96810000  1.0 -0.4322485185
N  N7  1  0.07250000  0.07870000  0.46810000  1.0 -0.4322485185
N  N8  1  0.07870000  0.07250000  0.03190000  1.0 -0.4322485185
N  N9  1  0.53370000  0.89190000  0.49960000  1.0 -0.4381178102
N  N10  1  0.89190000  0.53370000  0.00040000  1.0 -0.4381178102
N  N11  1  0.46630000  0.10810000  0.50040000  1.0 -0.4381178102
N  N12  1  0.10810000  0.46630000  0.99960000  1.0 -0.4381178102
N  N13  1  0.83980000  0.33400000  0.75520000  1.0 0.1597101775
N  N14  1  0.33400000  0.83980000  0.74480000  1.0 0.1597101775
N  N15  1  0.16020000  0.66600000  0.24480000  1.0 0.1597101775
N  N16  1  0.66600000  0.16020000  0.25520000  1.0 0.1597101775
O  O1  1  0.67160000  0.82820000  0.25440000  1.0 -0.2693543068
O  O2  1  0.82820000  0.67160000  0.24560000  1.0 -0.2693543068
O  O3  1  0.32840000  0.17180000  0.74560000  1.0 -0.2693543068
O  O4  1  0.17180000  0.32840000  0.75440000  1.0 -0.2693543068
O  O5  1  0.80660000  0.86440000  0.49670000  1.0 -0.4606705985
O  O6  1  0.86440000  0.80660000  0.00330000  1.0 -0.4606705985
O  O7  1  0.19340000  0.13560000  0.50330000  1.0 -0.4606705985
O  O8  1  0.13560000  0.19340000  0.99670000  1.0 -0.4606705985
O  O9  1  0.80890000  0.94930000  0.38520000  1.0 -0.4797651998
O  O10  1  0.94930000  0.80890000  0.11480000  1.0 -0.4797651998
O  O11  1  0.19110000  0.05070000  0.61480000  1.0 -0.4797651998
O  O12  1  0.05070000  0.19110000  0.88520000  1.0 -0.4797651998
O  O13  1  0.92220000  0.00680000  0.42250000  1.0 -0.4739184088
O  O14  1  0.00680000  0.92220000  0.07750000  1.0 -0.4739184088
O  O15  1  0.07780000  0.99320000  0.57750000  1.0 -0.4739184088
O  O16  1  0.99320000  0.07780000  0.92250000  1.0 -0.4739184088
O  O17  1  0.61950000  0.83650000  0.46060000  1.0 -0.4606705985
O  O18  1  0.83650000  0.61950000  0.03940000  1.0 -0.4606705985
O  O19  1  0.38050000  0.16350000  0.53940000  1.0 -0.4606705985
O  O20  1  0.16350000  0.38050000  0.96060000  1.0 -0.4606705985
O  O21  1  0.65830000  0.98890000  0.41290000  1.0 -0.4381178102
O  O22  1  0.98890000  0.65830000  0.08710000  1.0 -0.4381178102
O  O23  1  0.34170000  0.01110000  0.58710000  1.0 -0.4381178102
O  O24  1  0.01110000  0.34170000  0.91290000  1.0 -0.4381178102
O  O25  1  0.57410000  0.04030000  0.45150000  1.0 -0.4896103672
O  O26  1  0.04030000  0.57410000  0.04850000  1.0 -0.4896103672
O  O27  1  0.42590000  0.95970000  0.54850000  1.0 -0.4896103672
O  O28  1  0.95970000  0.42590000  0.95150000  1.0 -0.4896103672
O  O29  1  0.74910000  0.75750000  0.40850000  1.0 -0.4526364437
O  O30  1  0.75750000  0.74910000  0.09150000  1.0 -0.4526364437
O  O31  1  0.25090000  0.24250000  0.59150000  1.0 -0.4526364437
O  O32  1  0.24250000  0.25090000  0.90850000  1.0 -0.4526364437
O  O33  1  0.65560000  0.88200000  0.32380000  1.0 -0.4381178102
O  O34  1  0.88200000  0.65560000  0.17620000  1.0 -0.4381178102
O  O35  1  0.34440000  0.11800000  0.67620000  1.0 -0.4381178102
O  O36  1  0.11800000  0.34440000  0.82380000  1.0 -0.4381178102
O  O37  1  0.50450000  0.74990000  0.06610000  1.0 -0.0640287387
O  O38  1  0.74990000  0.50450000  0.43390000  1.0 -0.0640287387
O  O39  1  0.49550000  0.25010000  0.93390000  1.0 -0.0640287387
O  O40  1  0.25010000  0.49550000  0.56610000  1.0 -0.0640287387
