# DDEC6 charges by PACMAN v1.1 (https://github.com/mtap-research/PACMAN-charge/)
data_MAXFIA_ion_pacman
_symmetry_space_group_name_H-M   'P 1'
_cell_length_a   11.39600000
_cell_length_b   11.39600000
_cell_length_c   13.91300000
_cell_angle_alpha   90.00000000
_cell_angle_beta   90.00000000
_cell_angle_gamma   90.00000000
_symmetry_Int_Tables_number   1
_chemical_formula_structural   AgBH6C8(NF)4
_chemical_formula_sum   'Ag4 B4 H24 C32 N16 F16'
_cell_volume   1806.86483701
_cell_formula_units_Z   4
loop_
 _symmetry_equiv_pos_site_id
 _symmetry_equiv_pos_as_xyz
  1  'x, y, z'
loop_
 _atom_site_type_symbol
 _atom_site_label
 _atom_site_symmetry_multiplicity
 _atom_site_fract_x
 _atom_site_fract_y
 _atom_site_fract_z
 _atom_site_occupancy
 _atom_site_charge
Ag  Ag1  1  0.10919000  0.10919000  0.00000000  1.0 0.3316579516
Ag  Ag2  1  0.89081000  0.89081000  0.50000000  1.0 0.3316579516
Ag  Ag3  1  0.39081000  0.60919000  0.75000000  1.0 0.3316579516
Ag  Ag4  1  0.60919000  0.39081000  0.25000000  1.0 0.3316579516
B  B1  1  0.37420000  0.37420000  0.50000000  1.0 1.0620471295
B  B2  1  0.62580000  0.62580000  0.00000000  1.0 1.0620471295
B  B3  1  0.87420000  0.12580000  0.75000000  1.0 1.0620471295
B  B4  1  0.12580000  0.87420000  0.25000000  1.0 1.0620471295
H  H1  1  0.41260000  0.44630000  0.93120000  1.0 0.1307102944
H  H2  1  0.58740000  0.55370000  0.43120000  1.0 0.1307102944
H  H3  1  0.05370000  0.91260000  0.68120000  1.0 0.1307102944
H  H4  1  0.94630000  0.08740000  0.18120000  1.0 0.1307102944
H  H5  1  0.08740000  0.94630000  0.81880000  1.0 0.1307102944
H  H6  1  0.91260000  0.05370000  0.31880000  1.0 0.1307102944
H  H7  1  0.44630000  0.41260000  0.06880000  1.0 0.1307102944
H  H8  1  0.55370000  0.58740000  0.56880000  1.0 0.1307102944
H  H9  1  0.41600000  0.19250000  0.28550000  1.0 0.1413624807
H  H10  1  0.58400000  0.80750000  0.78550000  1.0 0.1413624807
H  H11  1  0.30750000  0.91600000  0.03550000  1.0 0.1413624807
H  H12  1  0.69250000  0.08400000  0.53550000  1.0 0.1413624807
H  H13  1  0.08400000  0.69250000  0.46450000  1.0 0.1413624807
H  H14  1  0.91600000  0.30750000  0.96450000  1.0 0.1413624807
H  H15  1  0.19250000  0.41600000  0.71450000  1.0 0.1413624807
H  H16  1  0.80750000  0.58400000  0.21450000  1.0 0.1413624807
H  H17  1  0.10010000  0.26430000  0.79290000  1.0 0.1413624807
H  H18  1  0.89990000  0.73570000  0.29290000  1.0 0.1413624807
H  H19  1  0.23570000  0.60010000  0.54290000  1.0 0.1413624807
H  H20  1  0.76430000  0.39990000  0.04290000  1.0 0.1413624807
H  H21  1  0.39990000  0.76430000  0.95710000  1.0 0.1413624807
H  H22  1  0.60010000  0.23570000  0.45710000  1.0 0.1413624807
H  H23  1  0.26430000  0.10010000  0.20710000  1.0 0.1413624807
H  H24  1  0.73570000  0.89990000  0.70710000  1.0 0.1413624807
C  C1  1  0.32280000  0.28790000  0.04970000  1.0 0.1458294894
C  C2  1  0.67720000  0.71210000  0.54970000  1.0 0.1458294894
C  C3  1  0.21210000  0.82280000  0.79970000  1.0 0.1458294894
C  C4  1  0.78790000  0.17720000  0.29970000  1.0 0.1458294894
C  C5  1  0.17720000  0.78790000  0.70030000  1.0 0.1458294894
C  C6  1  0.82280000  0.21210000  0.20030000  1.0 0.1458294894
C  C7  1  0.28790000  0.32280000  0.95030000  1.0 0.1458294894
C  C8  1  0.71210000  0.67720000  0.45030000  1.0 0.1458294894
C  C9  1  0.41040000  0.34680000  0.09860000  1.0 -0.002429814
C  C10  1  0.58960000  0.65320000  0.59860000  1.0 -0.002429814
C  C11  1  0.15320000  0.91040000  0.84860000  1.0 -0.002429814
C  C12  1  0.84680000  0.08960000  0.34860000  1.0 -0.002429814
C  C13  1  0.08960000  0.84680000  0.65140000  1.0 -0.002429814
C  C14  1  0.91040000  0.15320000  0.15140000  1.0 -0.002429814
C  C15  1  0.34680000  0.41040000  0.90140000  1.0 -0.002429814
C  C16  1  0.65320000  0.58960000  0.40140000  1.0 -0.002429814
C  C17  1  0.39230000  0.22050000  0.22420000  1.0 0.0203193684
C  C18  1  0.60770000  0.77950000  0.72420000  1.0 0.0203193684
C  C19  1  0.27950000  0.89230000  0.97420000  1.0 0.0203193684
C  C20  1  0.72050000  0.10770000  0.47420000  1.0 0.0203193684
C  C21  1  0.10770000  0.72050000  0.52580000  1.0 0.0203193684
C  C22  1  0.89230000  0.27950000  0.02580000  1.0 0.0203193684
C  C23  1  0.22050000  0.39230000  0.77580000  1.0 0.0203193684
C  C24  1  0.77950000  0.60770000  0.27580000  1.0 0.0203193684
C  C25  1  0.16360000  0.30340000  0.82350000  1.0 0.063081298
C  C26  1  0.83640000  0.69660000  0.32350000  1.0 0.063081298
C  C27  1  0.19660000  0.66360000  0.57350000  1.0 0.063081298
C  C28  1  0.80340000  0.33640000  0.07350000  1.0 0.063081298
C  C29  1  0.33640000  0.80340000  0.92650000  1.0 0.063081298
C  C30  1  0.66360000  0.19660000  0.42650000  1.0 0.063081298
C  C31  1  0.30340000  0.16360000  0.17650000  1.0 0.063081298
C  C32  1  0.69660000  0.83640000  0.67650000  1.0 0.063081298
N  N1  1  0.27090000  0.19510000  0.08870000  1.0 -0.1951033269
N  N2  1  0.72910000  0.80490000  0.58870000  1.0 -0.1951033269
N  N3  1  0.30490000  0.77090000  0.83870000  1.0 -0.1951033269
N  N4  1  0.69510000  0.22910000  0.33870000  1.0 -0.1947085504
N  N5  1  0.22910000  0.69510000  0.66130000  1.0 -0.1951033269
N  N6  1  0.77090000  0.30490000  0.16130000  1.0 -0.1947085504
N  N7  1  0.19510000  0.27090000  0.91130000  1.0 -0.1951033269
N  N8  1  0.80490000  0.72910000  0.41130000  1.0 -0.1951033269
N  N9  1  0.44700000  0.31480000  0.18670000  1.0 -0.1098113638
N  N10  1  0.55300000  0.68520000  0.68670000  1.0 -0.1098113638
N  N11  1  0.18520000  0.94700000  0.93670000  1.0 -0.1098113638
N  N12  1  0.81480000  0.05300000  0.43670000  1.0 -0.1098113638
N  N13  1  0.05300000  0.81480000  0.56330000  1.0 -0.1098113638
N  N14  1  0.94700000  0.18520000  0.06330000  1.0 -0.1098113638
N  N15  1  0.31480000  0.44700000  0.81330000  1.0 -0.1098113638
N  N16  1  0.68520000  0.55300000  0.31330000  1.0 -0.1098113638
F  F1  1  0.40140000  0.44230000  0.57630000  1.0 -0.5218745713
F  F2  1  0.44230000  0.40140000  0.42370000  1.0 -0.5218745713
F  F3  1  0.39250000  0.25860000  0.51960000  1.0 -0.5103975703
F  F4  1  0.25860000  0.39250000  0.48040000  1.0 -0.5103975703
F  F5  1  0.59860000  0.55770000  0.07630000  1.0 -0.5218745713
F  F6  1  0.55770000  0.59860000  0.92370000  1.0 -0.5218745713
F  F7  1  0.60750000  0.74140000  0.01960000  1.0 -0.5103975703
F  F8  1  0.74140000  0.60750000  0.98040000  1.0 -0.5103975703
F  F9  1  0.94230000  0.09860000  0.82630000  1.0 -0.5218745713
F  F10  1  0.90140000  0.05770000  0.67370000  1.0 -0.5218745713
F  F11  1  0.75860000  0.10750000  0.76960000  1.0 -0.5103975703
F  F12  1  0.89250000  0.24140000  0.73040000  1.0 -0.5103975703
F  F13  1  0.05770000  0.90140000  0.32630000  1.0 -0.5218745713
F  F14  1  0.09860000  0.94230000  0.17370000  1.0 -0.5218745713
F  F15  1  0.24140000  0.89250000  0.26960000  1.0 -0.5103975703
F  F16  1  0.10750000  0.75860000  0.23040000  1.0 -0.5103975703
