# DDEC6 charges by PACMAN v1.1 (https://github.com/mtap-research/PACMAN-charge/)
data_MAZFEC01_ASR_pacman
_symmetry_space_group_name_H-M   'P 1'
_cell_length_a   17.18060000
_cell_length_b   17.18060000
_cell_length_c   14.39800000
_cell_angle_alpha   85.39800000
_cell_angle_beta   94.60200000
_cell_angle_gamma   132.44100000
_symmetry_Int_Tables_number   1
_chemical_formula_structural   NdH10C22N2O11
_chemical_formula_sum   'Nd4 H40 C88 N8 O44'
_cell_volume   3124.23257569
_cell_formula_units_Z   4
loop_
 _symmetry_equiv_pos_site_id
 _symmetry_equiv_pos_as_xyz
  1  'x, y, z'
loop_
 _atom_site_type_symbol
 _atom_site_label
 _atom_site_symmetry_multiplicity
 _atom_site_fract_x
 _atom_site_fract_y
 _atom_site_fract_z
 _atom_site_occupancy
 _atom_site_charge
Nd  Nd1  1  0.38491000  0.00425000  0.50927000  1.0 1.881814216
Nd  Nd2  1  0.00425000  0.38491000  0.99073000  1.0 1.881814216
Nd  Nd3  1  0.61509000  0.99575000  0.49073000  1.0 1.881814216
Nd  Nd4  1  0.99575000  0.61509000  0.00927000  1.0 1.881814216
H  H1  1  0.26828000  0.78898000  0.76111000  1.0 0.1313183173
H  H2  1  0.26202000  0.59180000  0.93540000  1.0 0.1313183173
H  H3  1  0.48627000  0.76929000  0.74669000  1.0 0.1313183173
H  H4  1  0.65767000  0.75227000  0.06915000  1.0 0.1313183173
H  H5  1  0.28296000  0.32518000  0.85581000  1.0 0.1313183173
H  H6  1  0.51020000  0.34532000  0.38081000  1.0 0.0975624591
H  H7  1  0.50923000  0.46077000  0.28688000  1.0 0.1143708273
H  H8  1  0.34985000  0.40473000  0.22466000  1.0 0.1143708273
H  H9  1  0.19942000  0.22598000  0.23148000  1.0 0.0975624591
H  H10  1  0.19660000  0.11612000  0.34046000  1.0 0.0975624591
H  H11  1  0.78898000  0.26828000  0.73889000  1.0 0.1313183173
H  H12  1  0.59180000  0.26202000  0.56460000  1.0 0.1313183173
H  H13  1  0.76929000  0.48627000  0.75331000  1.0 0.1313183173
H  H14  1  0.75227000  0.65767000  0.43085000  1.0 0.1313183173
H  H15  1  0.32518000  0.28296000  0.64419000  1.0 0.1313183173
H  H16  1  0.34532000  0.51020000  0.11919000  1.0 0.0975624591
H  H17  1  0.46077000  0.50923000  0.21312000  1.0 0.1143708273
H  H18  1  0.40473000  0.34985000  0.27534000  1.0 0.1143708273
H  H19  1  0.22598000  0.19942000  0.26852000  1.0 0.0975624591
H  H20  1  0.11612000  0.19660000  0.15954000  1.0 0.0975624591
H  H21  1  0.73172000  0.21102000  0.23889000  1.0 0.1313183173
H  H22  1  0.73798000  0.40820000  0.06460000  1.0 0.1313183173
H  H23  1  0.51373000  0.23071000  0.25331000  1.0 0.1313183173
H  H24  1  0.34233000  0.24773000  0.93085000  1.0 0.1313183173
H  H25  1  0.71704000  0.67482000  0.14419000  1.0 0.1313183173
H  H26  1  0.48980000  0.65468000  0.61919000  1.0 0.0975624591
H  H27  1  0.49077000  0.53923000  0.71312000  1.0 0.1143708273
H  H28  1  0.65015000  0.59527000  0.77534000  1.0 0.1143708273
H  H29  1  0.80058000  0.77402000  0.76852000  1.0 0.0975624591
H  H30  1  0.80340000  0.88388000  0.65954000  1.0 0.0975624591
H  H31  1  0.21102000  0.73172000  0.26111000  1.0 0.1313183173
H  H32  1  0.40820000  0.73798000  0.43540000  1.0 0.1313183173
H  H33  1  0.23071000  0.51373000  0.24669000  1.0 0.1313183173
H  H34  1  0.24773000  0.34233000  0.56915000  1.0 0.1313183173
H  H35  1  0.67482000  0.71704000  0.35581000  1.0 0.1313183173
H  H36  1  0.65468000  0.48980000  0.88081000  1.0 0.0975624591
H  H37  1  0.53923000  0.49077000  0.78688000  1.0 0.1143708273
H  H38  1  0.59527000  0.65015000  0.72466000  1.0 0.1143708273
H  H39  1  0.77402000  0.80058000  0.73148000  1.0 0.0975624591
H  H40  1  0.88388000  0.80340000  0.84046000  1.0 0.0975624591
C  C1  1  0.42970000  0.86910000  0.66040000  1.0 0.6458840712
C  C2  1  0.15820000  0.65440000  0.90110000  1.0 0.617338021
C  C3  1  0.38380000  0.79040000  0.73960000  1.0 -0.0177556188
C  C4  1  0.29610000  0.75910000  0.78220000  1.0 -0.0816191366
C  C5  1  0.24920000  0.68480000  0.85490000  1.0 -0.0177556188
C  C6  1  0.29240000  0.64180000  0.88640000  1.0 -0.1689610847
C  C7  1  0.37900000  0.67220000  0.84610000  1.0 0.1798577502
C  C8  1  0.42640000  0.74780000  0.77290000  1.0 -0.1761888054
C  C9  1  0.50710000  0.68290000  0.94360000  1.0 0.4209483565
C  C10  1  0.54190000  0.63130000  0.99530000  1.0 -0.0507395719
C  C11  1  0.48530000  0.52610000  0.97730000  1.0 -0.0252547164
C  C12  1  0.39790000  0.46830000  0.91020000  1.0 -0.0985347897
C  C13  1  0.36560000  0.52180000  0.85970000  1.0 0.4209483565
C  C14  1  0.62310000  0.68290000  0.05700000  1.0 -0.0816191366
C  C15  1  0.34220000  0.36380000  0.89580000  1.0 -0.1058190942
C  C16  1  0.44750000  0.32170000  0.35170000  1.0 -0.0611386561
C  C17  1  0.44670000  0.39130000  0.29690000  1.0 -0.1761888054
C  C18  1  0.35180000  0.35700000  0.25700000  1.0 -0.0611386561
C  C19  1  0.26040000  0.25140000  0.26600000  1.0 -0.0507395719
C  C20  1  0.25990000  0.18330000  0.32600000  1.0 -0.0816191366
C  C21  1  0.35520000  0.21680000  0.36320000  1.0 -0.0611386561
C  C22  1  0.35690000  0.13930000  0.42100000  1.0 0.4683632671
C  C23  1  0.86910000  0.42970000  0.83960000  1.0 0.6458840712
C  C24  1  0.65440000  0.15820000  0.59890000  1.0 0.617338021
C  C25  1  0.79040000  0.38380000  0.76040000  1.0 -0.0177556188
C  C26  1  0.75910000  0.29610000  0.71780000  1.0 -0.0816191366
C  C27  1  0.68480000  0.24920000  0.64510000  1.0 -0.0177556188
C  C28  1  0.64180000  0.29240000  0.61360000  1.0 -0.1689610847
C  C29  1  0.67220000  0.37900000  0.65390000  1.0 0.1798577502
C  C30  1  0.74780000  0.42640000  0.72710000  1.0 -0.1761888054
C  C31  1  0.68290000  0.50710000  0.55640000  1.0 0.4209483565
C  C32  1  0.63130000  0.54190000  0.50470000  1.0 -0.0507395719
C  C33  1  0.52610000  0.48530000  0.52270000  1.0 -0.0177556188
C  C34  1  0.46830000  0.39790000  0.58980000  1.0 -0.0985347897
C  C35  1  0.52180000  0.36560000  0.64030000  1.0 0.4209483565
C  C36  1  0.68290000  0.62310000  0.44300000  1.0 -0.0816191366
C  C37  1  0.36380000  0.34220000  0.60420000  1.0 -0.1058190942
C  C38  1  0.32170000  0.44750000  0.14830000  1.0 -0.0611386561
C  C39  1  0.39130000  0.44670000  0.20310000  1.0 -0.1761888054
C  C40  1  0.35700000  0.35180000  0.24300000  1.0 -0.0611386561
C  C41  1  0.25140000  0.26040000  0.23400000  1.0 -0.0507395719
C  C42  1  0.18330000  0.25990000  0.17400000  1.0 -0.0816191366
C  C43  1  0.21680000  0.35520000  0.13680000  1.0 -0.0611386561
C  C44  1  0.13930000  0.35690000  0.07900000  1.0 0.4683632671
C  C45  1  0.57030000  0.13090000  0.33960000  1.0 0.6458840712
C  C46  1  0.84180000  0.34560000  0.09890000  1.0 0.617338021
C  C47  1  0.61620000  0.20960000  0.26040000  1.0 -0.0177556188
C  C48  1  0.70390000  0.24090000  0.21780000  1.0 -0.0816191366
C  C49  1  0.75080000  0.31520000  0.14510000  1.0 -0.0177556188
C  C50  1  0.70760000  0.35820000  0.11360000  1.0 -0.1689610847
C  C51  1  0.62100000  0.32780000  0.15390000  1.0 0.1798577502
C  C52  1  0.57360000  0.25220000  0.22710000  1.0 -0.1761888054
C  C53  1  0.49290000  0.31710000  0.05640000  1.0 0.4255976125
C  C54  1  0.45810000  0.36870000  0.00470000  1.0 -0.0507395719
C  C55  1  0.51470000  0.47390000  0.02270000  1.0 -0.0177556188
C  C56  1  0.60210000  0.53170000  0.08980000  1.0 -0.0985347897
C  C57  1  0.63440000  0.47820000  0.14030000  1.0 0.4209483565
C  C58  1  0.37690000  0.31710000  0.94300000  1.0 -0.0816191366
C  C59  1  0.65780000  0.63620000  0.10420000  1.0 -0.0985347897
C  C60  1  0.55250000  0.67830000  0.64830000  1.0 -0.0611386561
C  C61  1  0.55330000  0.60870000  0.70310000  1.0 -0.1761888054
C  C62  1  0.64820000  0.64300000  0.74300000  1.0 -0.0507395719
C  C63  1  0.73960000  0.74860000  0.73400000  1.0 -0.0507395719
C  C64  1  0.74010000  0.81670000  0.67400000  1.0 -0.0816191366
C  C65  1  0.64480000  0.78320000  0.63680000  1.0 -0.0611386561
C  C66  1  0.64310000  0.86070000  0.57900000  1.0 0.4683632671
C  C67  1  0.13090000  0.57030000  0.16040000  1.0 0.6458840712
C  C68  1  0.34560000  0.84180000  0.40110000  1.0 0.617338021
C  C69  1  0.20960000  0.61620000  0.23960000  1.0 -0.0177556188
C  C70  1  0.24090000  0.70390000  0.28220000  1.0 -0.0816191366
C  C71  1  0.31520000  0.75080000  0.35490000  1.0 -0.0177556188
C  C72  1  0.35820000  0.70760000  0.38640000  1.0 -0.1689610847
C  C73  1  0.32780000  0.62100000  0.34610000  1.0 0.1798577502
C  C74  1  0.25220000  0.57360000  0.27290000  1.0 -0.1761888054
C  C75  1  0.31710000  0.49290000  0.44360000  1.0 0.4209483565
C  C76  1  0.36870000  0.45810000  0.49530000  1.0 -0.0507395719
C  C77  1  0.47390000  0.51470000  0.47730000  1.0 -0.0252547164
C  C78  1  0.53170000  0.60210000  0.41020000  1.0 -0.0985347897
C  C79  1  0.47820000  0.63440000  0.35970000  1.0 0.4209483565
C  C80  1  0.31710000  0.37690000  0.55700000  1.0 -0.0816191366
C  C81  1  0.63620000  0.65780000  0.39580000  1.0 -0.1058190942
C  C82  1  0.67830000  0.55250000  0.85170000  1.0 -0.0611386561
C  C83  1  0.60870000  0.55330000  0.79690000  1.0 -0.1761888054
C  C84  1  0.64300000  0.64820000  0.75700000  1.0 -0.0507395719
C  C85  1  0.74860000  0.73960000  0.76600000  1.0 -0.0507395719
C  C86  1  0.81670000  0.74010000  0.82600000  1.0 -0.0816191366
C  C87  1  0.78320000  0.64480000  0.86320000  1.0 -0.0611386561
C  C88  1  0.86070000  0.64310000  0.92100000  1.0 0.4683632671
N  N1  1  0.42148000  0.62572000  0.88350000  1.0 -0.251451391
N  N2  1  0.35510000  0.14910000  0.43400000  1.0 0.5060488924
N  N3  1  0.62572000  0.42148000  0.61650000  1.0 -0.251451391
N  N4  1  0.14910000  0.35510000  0.06600000  1.0 0.5042001947
N  N5  1  0.57852000  0.37428000  0.11650000  1.0 -0.251451391
N  N6  1  0.64490000  0.85090000  0.56600000  1.0 0.5042001947
N  N7  1  0.37428000  0.57852000  0.38350000  1.0 -0.251451391
N  N8  1  0.85090000  0.64490000  0.93400000  1.0 0.5060488924
O  O1  1  0.37813000  0.89367000  0.62740000  1.0 -0.6697433249
O  O2  1  0.51540000  0.90460000  0.63100000  1.0 -0.6584330008
O  O3  1  0.14115000  0.71485000  0.89670000  1.0 -0.58044381
O  O4  1  0.10127000  0.56873000  0.94760000  1.0 -0.7100005999
O  O5  1  0.55360000  0.77600000  0.95720000  1.0 -0.4000669077
O  O6  1  0.29390000  0.47930000  0.80430000  1.0 -0.3579663739
O  O7  1  0.35910000  0.21450000  0.38900000  1.0 -0.0666169964
O  O8  1  0.28630000  0.05570000  0.41800000  1.0 -0.3103608668
O  O9  1  0.41850000  0.17750000  0.49800000  1.0 -0.3002012477
O  O10  1  0.28790000  0.03810000  0.40700000  1.0 -0.4059021429
O  O11  1  0.43740000  0.18060000  0.47990000  1.0 -0.3166018084
O  O12  1  0.89367000  0.37813000  0.87260000  1.0 -0.6697433249
O  O13  1  0.90460000  0.51540000  0.86900000  1.0 -0.6584330008
O  O14  1  0.71485000  0.14115000  0.60330000  1.0 -0.58044381
O  O15  1  0.56873000  0.10127000  0.55240000  1.0 -0.7100005999
O  O16  1  0.77600000  0.55360000  0.54280000  1.0 -0.4000669077
O  O17  1  0.47930000  0.29390000  0.69570000  1.0 -0.3579663739
O  O18  1  0.21450000  0.35910000  0.11100000  1.0 -0.0611386561
O  O19  1  0.05570000  0.28630000  0.08200000  1.0 -0.3002012477
O  O20  1  0.17750000  0.41850000  0.00200000  1.0 -0.3002012477
O  O21  1  0.03810000  0.28790000  0.09300000  1.0 -0.4059021429
O  O22  1  0.18060000  0.43740000  0.02010000  1.0 -0.3103608668
O  O23  1  0.62187000  0.10633000  0.37260000  1.0 -0.6697433249
O  O24  1  0.48460000  0.09540000  0.36900000  1.0 -0.6584330008
O  O25  1  0.85885000  0.28515000  0.10330000  1.0 -0.58044381
O  O26  1  0.89873000  0.43127000  0.05240000  1.0 -0.7100005999
O  O27  1  0.44640000  0.22400000  0.04280000  1.0 -0.4000669077
O  O28  1  0.70610000  0.52070000  0.19570000  1.0 -0.3579663739
O  O29  1  0.64090000  0.78550000  0.61100000  1.0 -0.0611386561
O  O30  1  0.71370000  0.94430000  0.58200000  1.0 -0.3002012477
O  O31  1  0.58150000  0.82250000  0.50200000  1.0 -0.3002012477
O  O32  1  0.71210000  0.96190000  0.59300000  1.0 -0.4059021429
O  O33  1  0.56260000  0.81940000  0.52010000  1.0 -0.3103608668
O  O34  1  0.10633000  0.62187000  0.12740000  1.0 -0.6697433249
O  O35  1  0.09540000  0.48460000  0.13100000  1.0 -0.6584330008
O  O36  1  0.28515000  0.85885000  0.39670000  1.0 -0.58044381
O  O37  1  0.43127000  0.89873000  0.44760000  1.0 -0.7100005999
O  O38  1  0.22400000  0.44640000  0.45720000  1.0 -0.4000669077
O  O39  1  0.52070000  0.70610000  0.30430000  1.0 -0.3579663739
O  O40  1  0.78550000  0.64090000  0.88900000  1.0 -0.0611386561
O  O41  1  0.94430000  0.71370000  0.91800000  1.0 -0.3103608668
O  O42  1  0.82250000  0.58150000  0.99800000  1.0 -0.3002012477
O  O43  1  0.96190000  0.71210000  0.90700000  1.0 -0.4000669077
O  O44  1  0.81940000  0.56260000  0.97990000  1.0 -0.3166018084
