# DDEC6 charges by PACMAN v1.1 (https://github.com/mtap-research/PACMAN-charge/)
data_MAZFEC09_ASR_pacman
_symmetry_space_group_name_H-M   'P 1'
_cell_length_a   17.06660000
_cell_length_b   17.06660000
_cell_length_c   14.43600000
_cell_angle_alpha   84.71830000
_cell_angle_beta   95.28170000
_cell_angle_gamma   133.96700000
_symmetry_Int_Tables_number   1
_chemical_formula_structural   NdH10C22N2O11
_chemical_formula_sum   'Nd4 H40 C88 N8 O44'
_cell_volume   3011.15671776
_cell_formula_units_Z   4
loop_
 _symmetry_equiv_pos_site_id
 _symmetry_equiv_pos_as_xyz
  1  'x, y, z'
loop_
 _atom_site_type_symbol
 _atom_site_label
 _atom_site_symmetry_multiplicity
 _atom_site_fract_x
 _atom_site_fract_y
 _atom_site_fract_z
 _atom_site_occupancy
 _atom_site_charge
Nd  Nd1  1  0.00419000  0.38431000  0.49019000  1.0 1.7602427567
Nd  Nd2  1  0.38431000  0.00419000  0.00981000  1.0 1.7602427567
Nd  Nd3  1  0.99581000  0.61569000  0.50981000  1.0 1.7602427567
Nd  Nd4  1  0.61569000  0.99581000  0.99019000  1.0 1.7602427567
H  H1  1  0.79475000  0.27373000  0.23709000  1.0 0.1416248309
H  H2  1  0.60841000  0.27927000  0.05138000  1.0 0.109917179
H  H3  1  0.78532000  0.49680000  0.24432000  1.0 0.1177739317
H  H4  1  0.75208000  0.65580000  0.92674000  1.0 0.1416248309
H  H5  1  0.30282000  0.25634000  0.13953000  1.0 0.1177739317
H  H6  1  0.32814000  0.48128000  0.62891000  1.0 0.1026251728
H  H7  1  0.44414000  0.47794000  0.72186000  1.0 0.109917179
H  H8  1  0.38480000  0.31292000  0.77697000  1.0 0.109917179
H  H9  1  0.20420000  0.15260000  0.75259000  1.0 0.109917179
H  H10  1  0.08836000  0.15572000  0.65897000  1.0 0.0845757036
H  H11  1  0.27373000  0.79475000  0.26291000  1.0 0.1416248309
H  H12  1  0.27927000  0.60841000  0.44862000  1.0 0.109917179
H  H13  1  0.49680000  0.78532000  0.25568000  1.0 0.1177739317
H  H14  1  0.65580000  0.75208000  0.57326000  1.0 0.1416248309
H  H15  1  0.25634000  0.30282000  0.36047000  1.0 0.1177739317
H  H16  1  0.48128000  0.32814000  0.87109000  1.0 0.1026251728
H  H17  1  0.47794000  0.44414000  0.77814000  1.0 0.109917179
H  H18  1  0.31292000  0.38480000  0.72303000  1.0 0.109917179
H  H19  1  0.15260000  0.20420000  0.74741000  1.0 0.109917179
H  H20  1  0.15572000  0.08836000  0.84103000  1.0 0.0845757036
H  H21  1  0.20525000  0.72627000  0.76291000  1.0 0.1416248309
H  H22  1  0.39159000  0.72073000  0.94862000  1.0 0.109917179
H  H23  1  0.21468000  0.50320000  0.75568000  1.0 0.1177739317
H  H24  1  0.24792000  0.34420000  0.07326000  1.0 0.1416248309
H  H25  1  0.69718000  0.74366000  0.86047000  1.0 0.1177739317
H  H26  1  0.67186000  0.51872000  0.37109000  1.0 0.1026251728
H  H27  1  0.55586000  0.52206000  0.27814000  1.0 0.109917179
H  H28  1  0.61520000  0.68708000  0.22303000  1.0 0.109917179
H  H29  1  0.79580000  0.84740000  0.24741000  1.0 0.109917179
H  H30  1  0.91164000  0.84428000  0.34103000  1.0 0.0845757036
H  H31  1  0.72627000  0.20525000  0.73709000  1.0 0.1416248309
H  H32  1  0.72073000  0.39159000  0.55138000  1.0 0.109917179
H  H33  1  0.50320000  0.21468000  0.74432000  1.0 0.1177739317
H  H34  1  0.34420000  0.24792000  0.42674000  1.0 0.1416248309
H  H35  1  0.74366000  0.69718000  0.63953000  1.0 0.1177739317
H  H36  1  0.51872000  0.67186000  0.12891000  1.0 0.1026251728
H  H37  1  0.52206000  0.55586000  0.22186000  1.0 0.109917179
H  H38  1  0.68708000  0.61520000  0.27697000  1.0 0.109917179
H  H39  1  0.84740000  0.79580000  0.25259000  1.0 0.109917179
H  H40  1  0.84428000  0.91164000  0.15897000  1.0 0.0845757036
C  C1  1  0.88110000  0.43890000  0.33300000  1.0 0.643934306
C  C2  1  0.66220000  0.16100000  0.08900000  1.0 0.612509724
C  C3  1  0.79730000  0.38870000  0.25360000  1.0 0.0043331705
C  C4  1  0.76500000  0.30140000  0.21430000  1.0 -0.0977203732
C  C5  1  0.68710000  0.25070000  0.13910000  1.0 0.0043331705
C  C6  1  0.65110000  0.30250000  0.10620000  1.0 -0.1707733383
C  C7  1  0.67440000  0.37960000  0.14840000  1.0 0.1549112613
C  C8  1  0.75810000  0.43270000  0.22060000  1.0 -0.1906895747
C  C9  1  0.68310000  0.51090000  0.05600000  1.0 0.3260329405
C  C10  1  0.63510000  0.54290000  0.99700000  1.0 -0.0492822302
C  C11  1  0.52960000  0.48840000  0.02130000  1.0 -0.0773728301
C  C12  1  0.46120000  0.39080000  0.08600000  1.0 -0.1822884155
C  C13  1  0.52340000  0.36660000  0.13700000  1.0 0.3981893177
C  C14  1  0.68330000  0.62470000  0.94100000  1.0 -0.1204842209
C  C15  1  0.34650000  0.32150000  0.10500000  1.0 -0.1627668028
C  C16  1  0.19490000  0.31910000  0.63900000  1.0 0.0472575037
C  C17  1  0.30270000  0.41530000  0.65500000  1.0 -0.0977203732
C  C18  1  0.37290000  0.41310000  0.70900000  1.0 -0.0977203732
C  C19  1  0.33710000  0.31490000  0.74300000  1.0 -0.0388125328
C  C20  1  0.22950000  0.21850000  0.72700000  1.0 -0.0339219084
C  C21  1  0.15940000  0.22060000  0.67300000  1.0 -0.1707733383
C  C22  1  0.11640000  0.32160000  0.58100000  1.0 0.3360140885
C  C23  1  0.43890000  0.88110000  0.16700000  1.0 0.643934306
C  C24  1  0.16100000  0.66220000  0.41100000  1.0 0.612509724
C  C25  1  0.38870000  0.79730000  0.24640000  1.0 0.0043331705
C  C26  1  0.30140000  0.76500000  0.28570000  1.0 -0.0977203732
C  C27  1  0.25070000  0.68710000  0.36090000  1.0 0.0043331705
C  C28  1  0.30250000  0.65110000  0.39380000  1.0 -0.1707733383
C  C29  1  0.37960000  0.67440000  0.35160000  1.0 0.1549112613
C  C30  1  0.43270000  0.75810000  0.27940000  1.0 -0.1906895747
C  C31  1  0.51090000  0.68310000  0.44400000  1.0 0.3260329405
C  C32  1  0.54290000  0.63510000  0.50300000  1.0 -0.0492822302
C  C33  1  0.48840000  0.52960000  0.47870000  1.0 -0.0773728301
C  C34  1  0.39080000  0.46120000  0.41400000  1.0 -0.1822884155
C  C35  1  0.36660000  0.52340000  0.36300000  1.0 0.3981893177
C  C36  1  0.62470000  0.68330000  0.55900000  1.0 -0.1204842209
C  C37  1  0.32150000  0.34650000  0.39500000  1.0 -0.1627668028
C  C38  1  0.31910000  0.19490000  0.86100000  1.0 0.0472575037
C  C39  1  0.41530000  0.30270000  0.84500000  1.0 -0.0977203732
C  C40  1  0.41310000  0.37290000  0.79100000  1.0 -0.0977203732
C  C41  1  0.31490000  0.33710000  0.75700000  1.0 -0.0388125328
C  C42  1  0.21850000  0.22950000  0.77300000  1.0 -0.0339219084
C  C43  1  0.22060000  0.15940000  0.82700000  1.0 -0.1707733383
C  C44  1  0.32160000  0.11640000  0.91900000  1.0 0.3360140885
C  C45  1  0.11890000  0.56110000  0.66700000  1.0 0.643934306
C  C46  1  0.33780000  0.83900000  0.91100000  1.0 0.612509724
C  C47  1  0.20270000  0.61130000  0.74640000  1.0 0.0043331705
C  C48  1  0.23500000  0.69860000  0.78570000  1.0 -0.0977203732
C  C49  1  0.31290000  0.74930000  0.86090000  1.0 0.0043331705
C  C50  1  0.34890000  0.69750000  0.89380000  1.0 -0.1707733383
C  C51  1  0.32560000  0.62040000  0.85160000  1.0 0.1549112613
C  C52  1  0.24190000  0.56730000  0.77940000  1.0 -0.1906895747
C  C53  1  0.31690000  0.48910000  0.94400000  1.0 0.3260329405
C  C54  1  0.36490000  0.45710000  0.00300000  1.0 -0.0492822302
C  C55  1  0.47040000  0.51160000  0.97870000  1.0 -0.0773728301
C  C56  1  0.53880000  0.60920000  0.91400000  1.0 -0.1822884155
C  C57  1  0.47660000  0.63340000  0.86300000  1.0 0.3981893177
C  C58  1  0.31670000  0.37530000  0.05900000  1.0 -0.1204842209
C  C59  1  0.65350000  0.67850000  0.89500000  1.0 -0.1627668028
C  C60  1  0.80510000  0.68090000  0.36100000  1.0 0.0472575037
C  C61  1  0.69730000  0.58470000  0.34500000  1.0 -0.0977203732
C  C62  1  0.62710000  0.58690000  0.29100000  1.0 -0.0977203732
C  C63  1  0.66290000  0.68510000  0.25700000  1.0 -0.0388125328
C  C64  1  0.77050000  0.78150000  0.27300000  1.0 -0.0339219084
C  C65  1  0.84060000  0.77940000  0.32700000  1.0 -0.1627668028
C  C66  1  0.88360000  0.67840000  0.41900000  1.0 0.3360140885
C  C67  1  0.56110000  0.11890000  0.83300000  1.0 0.643934306
C  C68  1  0.83900000  0.33780000  0.58900000  1.0 0.612509724
C  C69  1  0.61130000  0.20270000  0.75360000  1.0 0.0043331705
C  C70  1  0.69860000  0.23500000  0.71430000  1.0 -0.0977203732
C  C71  1  0.74930000  0.31290000  0.63910000  1.0 0.0043331705
C  C72  1  0.69750000  0.34890000  0.60620000  1.0 -0.1707733383
C  C73  1  0.62040000  0.32560000  0.64840000  1.0 0.1557042564
C  C74  1  0.56730000  0.24190000  0.72060000  1.0 -0.1906895747
C  C75  1  0.48910000  0.31690000  0.55600000  1.0 0.3260329405
C  C76  1  0.45710000  0.36490000  0.49700000  1.0 -0.0492822302
C  C77  1  0.51160000  0.47040000  0.52130000  1.0 -0.0773728301
C  C78  1  0.60920000  0.53880000  0.58600000  1.0 -0.1822884155
C  C79  1  0.63340000  0.47660000  0.63700000  1.0 0.3981893177
C  C80  1  0.37530000  0.31670000  0.44100000  1.0 -0.1204842209
C  C81  1  0.67850000  0.65350000  0.60500000  1.0 -0.1627668028
C  C82  1  0.68090000  0.80510000  0.13900000  1.0 0.0472575037
C  C83  1  0.58470000  0.69730000  0.15500000  1.0 -0.0977203732
C  C84  1  0.58690000  0.62710000  0.20900000  1.0 -0.0977203732
C  C85  1  0.68510000  0.66290000  0.24300000  1.0 -0.0388125328
C  C86  1  0.78150000  0.77050000  0.22700000  1.0 -0.0339219084
C  C87  1  0.77940000  0.84060000  0.17300000  1.0 -0.1627668028
C  C88  1  0.67840000  0.88360000  0.08100000  1.0 0.3360140885
N  N1  1  0.62630000  0.42130000  0.11610000  1.0 -0.2365393655
N  N2  1  0.14760000  0.35440000  0.56900000  1.0 0.2231176684
N  N3  1  0.42130000  0.62630000  0.38390000  1.0 -0.2365393655
N  N4  1  0.35440000  0.14760000  0.93100000  1.0 0.2231176684
N  N5  1  0.37370000  0.57870000  0.88390000  1.0 -0.2365393655
N  N6  1  0.85240000  0.64560000  0.43100000  1.0 0.2255234162
N  N7  1  0.57870000  0.37370000  0.61610000  1.0 -0.2365393655
N  N8  1  0.64560000  0.85240000  0.06900000  1.0 0.2255234162
O  O1  1  0.90120000  0.38320000  0.36620000  1.0 -0.6676968371
O  O2  1  0.90720000  0.51740000  0.36650000  1.0 -0.6313396131
O  O3  1  0.72060000  0.14300000  0.09350000  1.0 -0.5837397014
O  O4  1  0.56990000  0.09990000  0.04830000  1.0 -0.720836479
O  O5  1  0.78120000  0.55840000  0.03260000  1.0 -0.4642254745
O  O6  1  0.48420000  0.29560000  0.19660000  1.0 -0.4000244772
O  O7  1  0.18850000  0.44350000  0.52300000  1.0 -0.1204842209
O  O8  1  0.21190000  0.34410000  0.60600000  1.0 0.0265794547
O  O9  1  0.04410000  0.27990000  0.57700000  1.0 -0.1204842209
O  O10  1  0.16380000  0.39820000  0.52500000  1.0 -0.0162908039
O  O11  1  0.02110000  0.26290000  0.60000000  1.0 -0.2365393655
O  O12  1  0.38320000  0.90120000  0.13380000  1.0 -0.6676968371
O  O13  1  0.51740000  0.90720000  0.13350000  1.0 -0.6313396131
O  O14  1  0.14300000  0.72060000  0.40650000  1.0 -0.5837397014
O  O15  1  0.09990000  0.56990000  0.45170000  1.0 -0.720836479
O  O16  1  0.55840000  0.78120000  0.46740000  1.0 -0.4642254745
O  O17  1  0.29560000  0.48420000  0.30340000  1.0 -0.4000244772
O  O18  1  0.44350000  0.18850000  0.97700000  1.0 -0.1204842209
O  O19  1  0.34410000  0.21190000  0.89400000  1.0 0.0265794547
O  O20  1  0.27990000  0.04410000  0.92300000  1.0 -0.1204842209
O  O21  1  0.39820000  0.16380000  0.97500000  1.0 -0.0162908039
O  O22  1  0.26290000  0.02110000  0.90000000  1.0 -0.2365393655
O  O23  1  0.09880000  0.61680000  0.63380000  1.0 -0.6676968371
O  O24  1  0.09280000  0.48260000  0.63350000  1.0 -0.6313396131
O  O25  1  0.27940000  0.85700000  0.90650000  1.0 -0.5837397014
O  O26  1  0.43010000  0.90010000  0.95170000  1.0 -0.720836479
O  O27  1  0.21880000  0.44160000  0.96740000  1.0 -0.4642254745
O  O28  1  0.51580000  0.70440000  0.80340000  1.0 -0.4000244772
O  O29  1  0.81150000  0.55650000  0.47700000  1.0 -0.1204842209
O  O30  1  0.78810000  0.65590000  0.39400000  1.0 0.0265794547
O  O31  1  0.95590000  0.72010000  0.42300000  1.0 -0.1204842209
O  O32  1  0.83620000  0.60180000  0.47500000  1.0 -0.0162908039
O  O33  1  0.97890000  0.73710000  0.40000000  1.0 -0.2365393655
O  O34  1  0.61680000  0.09880000  0.86620000  1.0 -0.6676968371
O  O35  1  0.48260000  0.09280000  0.86650000  1.0 -0.6313396131
O  O36  1  0.85700000  0.27940000  0.59350000  1.0 -0.5837397014
O  O37  1  0.90010000  0.43010000  0.54830000  1.0 -0.720836479
O  O38  1  0.44160000  0.21880000  0.53260000  1.0 -0.4642254745
O  O39  1  0.70440000  0.51580000  0.69660000  1.0 -0.4000244772
O  O40  1  0.55650000  0.81150000  0.02300000  1.0 -0.1204842209
O  O41  1  0.65590000  0.78810000  0.10600000  1.0 0.0265794547
O  O42  1  0.72010000  0.95590000  0.07700000  1.0 -0.1204842209
O  O43  1  0.60180000  0.83620000  0.02500000  1.0 -0.0162908039
O  O44  1  0.73710000  0.97890000  0.10000000  1.0 -0.2365393655
