# DDEC6 charges by PACMAN v1.1 (https://github.com/mtap-research/PACMAN-charge/)
data_MECWOH_FSR_pacman
_symmetry_space_group_name_H-M   'P 1'
_cell_length_a   25.33830000
_cell_length_b   25.33830000
_cell_length_c   25.33830000
_cell_angle_alpha   109.47100000
_cell_angle_beta   109.47100000
_cell_angle_gamma   109.47100000
_symmetry_Int_Tables_number   1
_chemical_formula_structural   Zn2H70C40N8O5
_chemical_formula_sum   'Zn24 H840 C480 N96 O60'
_cell_volume   12523.16429427
_cell_formula_units_Z   12
loop_
 _symmetry_equiv_pos_site_id
 _symmetry_equiv_pos_as_xyz
  1  'x, y, z'
loop_
 _atom_site_type_symbol
 _atom_site_label
 _atom_site_symmetry_multiplicity
 _atom_site_fract_x
 _atom_site_fract_y
 _atom_site_fract_z
 _atom_site_occupancy
 _atom_site_charge
Zn  Zn1  1  0.50000000  0.35375000  0.64624000  1.0 0.4993236846
Zn  Zn2  1  0.64625000  0.50000000  0.35376000  1.0 0.4993236846
Zn  Zn3  1  0.35376000  0.64624000  0.50000000  1.0 0.4993236846
Zn  Zn4  1  0.14625000  0.29249000  0.64624000  1.0 0.4993236846
Zn  Zn5  1  0.85376000  0.50000000  0.14625000  1.0 0.4993236846
Zn  Zn6  1  0.35376000  0.70751000  0.85376000  1.0 0.4993236846
Zn  Zn7  1  0.70751000  0.85376000  0.35376000  1.0 0.4993236846
Zn  Zn8  1  0.50000000  0.14625000  0.85376000  1.0 0.4993236846
Zn  Zn9  1  0.29249000  0.64624000  0.14625000  1.0 0.4993236846
Zn  Zn10  1  0.14625000  0.85376000  0.50000000  1.0 0.4993236846
Zn  Zn11  1  0.85376000  0.35376000  0.70751000  1.0 0.4993236846
Zn  Zn12  1  0.64624000  0.14625000  0.29249000  1.0 0.4993236846
Zn  Zn13  1  0.50000000  0.64625000  0.35376000  1.0 0.4993236846
Zn  Zn14  1  0.35376000  0.50000000  0.64624000  1.0 0.4993236846
Zn  Zn15  1  0.64624000  0.35375000  0.50000000  1.0 0.4993236846
Zn  Zn16  1  0.85376000  0.70751000  0.35376000  1.0 0.4993236846
Zn  Zn17  1  0.14625000  0.50000000  0.85376000  1.0 0.4993236846
Zn  Zn18  1  0.64624000  0.29249000  0.14625000  1.0 0.4993236846
Zn  Zn19  1  0.29249000  0.14625000  0.64624000  1.0 0.4993236846
Zn  Zn20  1  0.50000000  0.85376000  0.14625000  1.0 0.4993236846
Zn  Zn21  1  0.70751000  0.35375000  0.85376000  1.0 0.4993236846
Zn  Zn22  1  0.85376000  0.14625000  0.50000000  1.0 0.4993236846
Zn  Zn23  1  0.14625000  0.64624000  0.29249000  1.0 0.4993236846
Zn  Zn24  1  0.35376000  0.85376000  0.70751000  1.0 0.4993236846
H  H1  1  0.37780000  0.22470000  0.51830000  1.0 0.088769798
H  H2  1  0.51830000  0.37780000  0.22470000  1.0 0.088769798
H  H3  1  0.22470000  0.51830000  0.37780000  1.0 0.088769798
H  H4  1  0.14050000  0.29360000  0.51830000  1.0 0.088769798
H  H5  1  0.85950000  0.37780000  0.15310000  1.0 0.088769798
H  H6  1  0.22470000  0.70640000  0.84690000  1.0 0.088769798
H  H7  1  0.70640000  0.84690000  0.22470000  1.0 0.088769798
H  H8  1  0.37780000  0.15310000  0.85950000  1.0 0.088769798
H  H9  1  0.29360000  0.51830000  0.14050000  1.0 0.088769798
H  H10  1  0.15310000  0.85950000  0.37780000  1.0 0.088769798
H  H11  1  0.84690000  0.22470000  0.70640000  1.0 0.088769798
H  H12  1  0.51830000  0.14050000  0.29360000  1.0 0.088769798
H  H13  1  0.70640000  0.85950000  0.48170000  1.0 0.088769798
H  H14  1  0.29360000  0.77530000  0.15310000  1.0 0.088769798
H  H15  1  0.62220000  0.14050000  0.84690000  1.0 0.088769798
H  H16  1  0.48170000  0.70640000  0.85950000  1.0 0.088769798
H  H17  1  0.15310000  0.29360000  0.77530000  1.0 0.088769798
H  H18  1  0.84690000  0.62220000  0.14050000  1.0 0.088769798
H  H19  1  0.85950000  0.48170000  0.70640000  1.0 0.088769798
H  H20  1  0.77530000  0.15310000  0.29360000  1.0 0.088769798
H  H21  1  0.14050000  0.84690000  0.62220000  1.0 0.088769798
H  H22  1  0.77530000  0.62220000  0.48170000  1.0 0.088769798
H  H23  1  0.62220000  0.48170000  0.77530000  1.0 0.088769798
H  H24  1  0.48170000  0.77530000  0.62220000  1.0 0.088769798
H  H25  1  0.62220000  0.77530000  0.48170000  1.0 0.088769798
H  H26  1  0.48170000  0.62220000  0.77530000  1.0 0.088769798
H  H27  1  0.77530000  0.48170000  0.62220000  1.0 0.088769798
H  H28  1  0.85950000  0.70640000  0.48170000  1.0 0.088769798
H  H29  1  0.14050000  0.62220000  0.84690000  1.0 0.088769798
H  H30  1  0.77530000  0.29360000  0.15310000  1.0 0.088769798
H  H31  1  0.29360000  0.15310000  0.77530000  1.0 0.088769798
H  H32  1  0.62220000  0.84690000  0.14050000  1.0 0.088769798
H  H33  1  0.70640000  0.48170000  0.85950000  1.0 0.088769798
H  H34  1  0.84690000  0.14050000  0.62220000  1.0 0.088769798
H  H35  1  0.15310000  0.77530000  0.29360000  1.0 0.088769798
H  H36  1  0.48170000  0.85950000  0.70640000  1.0 0.088769798
H  H37  1  0.29360000  0.14050000  0.51830000  1.0 0.088769798
H  H38  1  0.70640000  0.22470000  0.84690000  1.0 0.088769798
H  H39  1  0.37780000  0.85950000  0.15310000  1.0 0.088769798
H  H40  1  0.51830000  0.29360000  0.14050000  1.0 0.088769798
H  H41  1  0.84690000  0.70640000  0.22470000  1.0 0.088769798
H  H42  1  0.15310000  0.37780000  0.85950000  1.0 0.088769798
H  H43  1  0.14050000  0.51830000  0.29360000  1.0 0.088769798
H  H44  1  0.22470000  0.84690000  0.70640000  1.0 0.088769798
H  H45  1  0.85950000  0.15310000  0.37780000  1.0 0.088769798
H  H46  1  0.22470000  0.37780000  0.51830000  1.0 0.088769798
H  H47  1  0.37780000  0.51830000  0.22470000  1.0 0.088769798
H  H48  1  0.51830000  0.22470000  0.37780000  1.0 0.088769798
H  H49  1  0.48620000  0.31090000  0.74390000  1.0 0.0807206376
H  H50  1  0.74390000  0.48620000  0.31090000  1.0 0.0807206376
H  H51  1  0.31090000  0.74390000  0.48620000  1.0 0.0807206376
H  H52  1  0.25770000  0.43300000  0.74390000  1.0 0.0807206376
H  H53  1  0.74230000  0.48620000  0.17530000  1.0 0.0807206376
H  H54  1  0.31090000  0.56700000  0.82470000  1.0 0.0807206376
H  H55  1  0.56700000  0.82470000  0.31090000  1.0 0.0807206376
H  H56  1  0.48620000  0.17530000  0.74230000  1.0 0.0807206376
H  H57  1  0.43300000  0.74390000  0.25770000  1.0 0.0807206376
H  H58  1  0.17530000  0.74230000  0.48620000  1.0 0.0807206376
H  H59  1  0.82470000  0.31090000  0.56700000  1.0 0.0807206376
H  H60  1  0.74390000  0.25770000  0.43300000  1.0 0.0807206376
H  H61  1  0.56700000  0.74230000  0.25610000  1.0 0.0807206376
H  H62  1  0.43300000  0.68910000  0.17530000  1.0 0.0807206376
H  H63  1  0.51380000  0.25770000  0.82470000  1.0 0.0807206376
H  H64  1  0.25610000  0.56700000  0.74230000  1.0 0.0807206376
H  H65  1  0.17530000  0.43300000  0.68910000  1.0 0.0807206376
H  H66  1  0.82470000  0.51380000  0.25770000  1.0 0.0807206376
H  H67  1  0.74230000  0.25610000  0.56700000  1.0 0.0807206376
H  H68  1  0.68910000  0.17530000  0.43300000  1.0 0.0807206376
H  H69  1  0.25770000  0.82470000  0.51380000  1.0 0.0807206376
H  H70  1  0.68910000  0.51380000  0.25610000  1.0 0.0807206376
H  H71  1  0.51380000  0.25610000  0.68910000  1.0 0.0807206376
H  H72  1  0.25610000  0.68910000  0.51380000  1.0 0.0807206376
H  H73  1  0.51380000  0.68910000  0.25610000  1.0 0.0807206376
H  H74  1  0.25610000  0.51380000  0.68910000  1.0 0.0807206376
H  H75  1  0.68910000  0.25610000  0.51380000  1.0 0.0807206376
H  H76  1  0.74230000  0.56700000  0.25610000  1.0 0.0807206376
H  H77  1  0.25770000  0.51380000  0.82470000  1.0 0.0807206376
H  H78  1  0.68910000  0.43300000  0.17530000  1.0 0.0807206376
H  H79  1  0.43300000  0.17530000  0.68910000  1.0 0.0807206376
H  H80  1  0.51380000  0.82470000  0.25770000  1.0 0.0807206376
H  H81  1  0.56700000  0.25610000  0.74230000  1.0 0.0807206376
H  H82  1  0.82470000  0.25770000  0.51380000  1.0 0.0807206376
H  H83  1  0.17530000  0.68910000  0.43300000  1.0 0.0807206376
H  H84  1  0.25610000  0.74230000  0.56700000  1.0 0.0807206376
H  H85  1  0.43300000  0.25770000  0.74390000  1.0 0.0807206376
H  H86  1  0.56700000  0.31090000  0.82470000  1.0 0.0807206376
H  H87  1  0.48620000  0.74230000  0.17530000  1.0 0.0807206376
H  H88  1  0.74390000  0.43300000  0.25770000  1.0 0.0807206376
H  H89  1  0.82470000  0.56700000  0.31090000  1.0 0.0807206376
H  H90  1  0.17530000  0.48620000  0.74230000  1.0 0.0807206376
H  H91  1  0.25770000  0.74390000  0.43300000  1.0 0.0807206376
H  H92  1  0.31090000  0.82470000  0.56700000  1.0 0.0807206376
H  H93  1  0.74230000  0.17530000  0.48620000  1.0 0.0807206376
H  H94  1  0.31090000  0.48620000  0.74390000  1.0 0.0807206376
H  H95  1  0.48620000  0.74390000  0.31090000  1.0 0.0807206376
H  H96  1  0.74390000  0.31090000  0.48620000  1.0 0.0807206376
H  H97  1  0.44160000  0.35760000  0.79920000  1.0 0.10080551
H  H98  1  0.79920000  0.44160000  0.35760000  1.0 0.10080551
H  H99  1  0.35760000  0.79920000  0.44160000  1.0 0.10080551
H  H100  1  0.35760000  0.44160000  0.79920000  1.0 0.10080551
H  H101  1  0.64240000  0.44160000  0.08400000  1.0 0.10080551
H  H102  1  0.35760000  0.55840000  0.91600000  1.0 0.10080551
H  H103  1  0.55840000  0.91600000  0.35760000  1.0 0.10080551
H  H104  1  0.44160000  0.08400000  0.64240000  1.0 0.10080551
H  H105  1  0.44160000  0.79920000  0.35760000  1.0 0.10080551
H  H106  1  0.08400000  0.64240000  0.44160000  1.0 0.10080551
H  H107  1  0.91600000  0.35760000  0.55840000  1.0 0.10080551
H  H108  1  0.79920000  0.35760000  0.44160000  1.0 0.10080551
H  H109  1  0.55840000  0.64240000  0.20080000  1.0 0.10080551
H  H110  1  0.44160000  0.64240000  0.08400000  1.0 0.10080551
H  H111  1  0.55840000  0.35760000  0.91600000  1.0 0.10080551
H  H112  1  0.20080000  0.55840000  0.64240000  1.0 0.10080551
H  H113  1  0.08400000  0.44160000  0.64240000  1.0 0.10080551
H  H114  1  0.91600000  0.55840000  0.35760000  1.0 0.10080551
H  H115  1  0.64240000  0.20080000  0.55840000  1.0 0.10080551
H  H116  1  0.64240000  0.08400000  0.44160000  1.0 0.10080551
H  H117  1  0.35760000  0.91600000  0.55840000  1.0 0.10080551
H  H118  1  0.64240000  0.55840000  0.20080000  1.0 0.10080551
H  H119  1  0.55840000  0.20080000  0.64240000  1.0 0.10080551
H  H120  1  0.20080000  0.64240000  0.55840000  1.0 0.10080551
H  H121  1  0.42610000  0.36530000  0.73780000  1.0 0.0503671789
H  H122  1  0.73780000  0.42610000  0.36530000  1.0 0.0503671789
H  H123  1  0.36530000  0.73780000  0.42610000  1.0 0.0503671789
H  H124  1  0.31170000  0.37250000  0.73780000  1.0 0.0503671789
H  H125  1  0.68830000  0.42610000  0.06080000  1.0 0.0503671789
H  H126  1  0.36530000  0.62750000  0.93920000  1.0 0.0503671789
H  H127  1  0.62750000  0.93920000  0.36530000  1.0 0.0503671789
H  H128  1  0.42610000  0.06080000  0.68830000  1.0 0.0503671789
H  H129  1  0.37250000  0.73780000  0.31170000  1.0 0.0503671789
H  H130  1  0.06080000  0.68830000  0.42610000  1.0 0.0503671789
H  H131  1  0.93920000  0.36530000  0.62750000  1.0 0.0503671789
H  H132  1  0.73780000  0.31170000  0.37250000  1.0 0.0503671789
H  H133  1  0.62750000  0.68830000  0.26220000  1.0 0.0503671789
H  H134  1  0.37250000  0.63470000  0.06080000  1.0 0.0503671789
H  H135  1  0.57390000  0.31170000  0.93920000  1.0 0.0503671789
H  H136  1  0.26220000  0.62750000  0.68830000  1.0 0.0503671789
H  H137  1  0.06080000  0.37250000  0.63470000  1.0 0.0503671789
H  H138  1  0.93920000  0.57390000  0.31170000  1.0 0.0503671789
H  H139  1  0.68830000  0.26220000  0.62750000  1.0 0.0503671789
H  H140  1  0.63470000  0.06080000  0.37250000  1.0 0.0503671789
H  H141  1  0.31170000  0.93920000  0.57390000  1.0 0.0503671789
H  H142  1  0.63470000  0.57390000  0.26220000  1.0 0.0503671789
H  H143  1  0.57390000  0.26220000  0.63470000  1.0 0.0503671789
H  H144  1  0.26220000  0.63470000  0.57390000  1.0 0.0503671789
H  H145  1  0.57390000  0.63470000  0.26220000  1.0 0.0503671789
H  H146  1  0.26220000  0.57390000  0.63470000  1.0 0.0503671789
H  H147  1  0.63470000  0.26220000  0.57390000  1.0 0.0503671789
H  H148  1  0.68830000  0.62750000  0.26220000  1.0 0.0503671789
H  H149  1  0.31170000  0.57390000  0.93920000  1.0 0.0503671789
H  H150  1  0.63470000  0.37250000  0.06080000  1.0 0.0503671789
H  H151  1  0.37250000  0.06080000  0.63470000  1.0 0.0503671789
H  H152  1  0.57390000  0.93920000  0.31170000  1.0 0.0503671789
H  H153  1  0.62750000  0.26220000  0.68830000  1.0 0.0503671789
H  H154  1  0.93920000  0.31170000  0.57390000  1.0 0.0503671789
H  H155  1  0.06080000  0.63470000  0.37250000  1.0 0.0503671789
H  H156  1  0.26220000  0.68830000  0.62750000  1.0 0.0503671789
H  H157  1  0.37250000  0.31170000  0.73780000  1.0 0.0503671789
H  H158  1  0.62750000  0.36530000  0.93920000  1.0 0.0503671789
H  H159  1  0.42610000  0.68830000  0.06080000  1.0 0.0503671789
H  H160  1  0.73780000  0.37250000  0.31170000  1.0 0.0503671789
H  H161  1  0.93920000  0.62750000  0.36530000  1.0 0.0503671789
H  H162  1  0.06080000  0.42610000  0.68830000  1.0 0.0503671789
H  H163  1  0.31170000  0.73780000  0.37250000  1.0 0.0503671789
H  H164  1  0.36530000  0.93920000  0.62750000  1.0 0.0503671789
H  H165  1  0.68830000  0.06080000  0.42610000  1.0 0.0503671789
H  H166  1  0.36530000  0.42610000  0.73780000  1.0 0.0503671789
H  H167  1  0.42610000  0.73780000  0.36530000  1.0 0.0503671789
H  H168  1  0.73780000  0.36530000  0.42610000  1.0 0.0503671789
H  H169  1  0.47780000  0.22890000  0.53830000  1.0 0.0503671789
H  H170  1  0.53830000  0.47780000  0.22890000  1.0 0.0503671789
H  H171  1  0.22890000  0.53830000  0.47780000  1.0 0.0503671789
H  H172  1  0.06050000  0.30940000  0.53830000  1.0 0.0503671789
H  H173  1  0.93950000  0.47780000  0.24890000  1.0 0.0503671789
H  H174  1  0.22890000  0.69060000  0.75110000  1.0 0.0503671789
H  H175  1  0.69060000  0.75110000  0.22890000  1.0 0.0503671789
H  H176  1  0.47780000  0.24890000  0.93950000  1.0 0.0503671789
H  H177  1  0.30940000  0.53830000  0.06050000  1.0 0.0503671789
H  H178  1  0.24890000  0.93950000  0.47780000  1.0 0.0503671789
H  H179  1  0.75110000  0.22890000  0.69060000  1.0 0.0503671789
H  H180  1  0.53830000  0.06050000  0.30940000  1.0 0.0503671789
H  H181  1  0.69060000  0.93950000  0.46170000  1.0 0.0503671789
H  H182  1  0.30940000  0.77110000  0.24890000  1.0 0.0503671789
H  H183  1  0.52220000  0.06050000  0.75110000  1.0 0.0503671789
H  H184  1  0.46170000  0.69060000  0.93950000  1.0 0.0503671789
H  H185  1  0.24890000  0.30940000  0.77110000  1.0 0.0503671789
H  H186  1  0.75110000  0.52220000  0.06050000  1.0 0.0503671789
H  H187  1  0.93950000  0.46170000  0.69060000  1.0 0.0503671789
H  H188  1  0.77110000  0.24890000  0.30940000  1.0 0.0503671789
H  H189  1  0.06050000  0.75110000  0.52220000  1.0 0.0503671789
H  H190  1  0.77110000  0.52220000  0.46170000  1.0 0.0503671789
H  H191  1  0.52220000  0.46170000  0.77110000  1.0 0.0503671789
H  H192  1  0.46170000  0.77110000  0.52220000  1.0 0.0503671789
H  H193  1  0.52220000  0.77110000  0.46170000  1.0 0.0503671789
H  H194  1  0.46170000  0.52220000  0.77110000  1.0 0.0503671789
H  H195  1  0.77110000  0.46170000  0.52220000  1.0 0.0503671789
H  H196  1  0.93950000  0.69060000  0.46170000  1.0 0.0503671789
H  H197  1  0.06050000  0.52220000  0.75110000  1.0 0.0503671789
H  H198  1  0.77110000  0.30940000  0.24890000  1.0 0.0503671789
H  H199  1  0.30940000  0.24890000  0.77110000  1.0 0.0503671789
H  H200  1  0.52220000  0.75110000  0.06050000  1.0 0.0503671789
H  H201  1  0.69060000  0.46170000  0.93950000  1.0 0.0503671789
H  H202  1  0.75110000  0.06050000  0.52220000  1.0 0.0503671789
H  H203  1  0.24890000  0.77110000  0.30940000  1.0 0.0503671789
H  H204  1  0.46170000  0.93950000  0.69060000  1.0 0.0503671789
H  H205  1  0.30940000  0.06050000  0.53830000  1.0 0.0503671789
H  H206  1  0.69060000  0.22890000  0.75110000  1.0 0.0503671789
H  H207  1  0.47780000  0.93950000  0.24890000  1.0 0.0503671789
H  H208  1  0.53830000  0.30940000  0.06050000  1.0 0.0503671789
H  H209  1  0.75110000  0.69060000  0.22890000  1.0 0.0503671789
H  H210  1  0.24890000  0.47780000  0.93950000  1.0 0.0503671789
H  H211  1  0.06050000  0.53830000  0.30940000  1.0 0.0503671789
H  H212  1  0.22890000  0.75110000  0.69060000  1.0 0.0503671789
H  H213  1  0.93950000  0.24890000  0.47780000  1.0 0.0503671789
H  H214  1  0.22890000  0.47780000  0.53830000  1.0 0.0503671789
H  H215  1  0.47780000  0.53830000  0.22890000  1.0 0.0503671789
H  H216  1  0.53830000  0.22890000  0.47780000  1.0 0.0503671789
H  H217  1  0.63390000  0.45350000  0.59620000  1.0 0.057905767
H  H218  1  0.59620000  0.63390000  0.45350000  1.0 0.057905767
H  H219  1  0.45350000  0.59620000  0.63390000  1.0 0.057905767
H  H220  1  0.96230000  0.14270000  0.59620000  1.0 0.057905767
H  H221  1  0.03770000  0.63390000  0.18040000  1.0 0.057905767
H  H222  1  0.45350000  0.85730000  0.81960000  1.0 0.057905767
H  H223  1  0.85730000  0.81960000  0.45350000  1.0 0.057905767
H  H224  1  0.63390000  0.18040000  0.03770000  1.0 0.057905767
H  H225  1  0.14270000  0.59620000  0.96230000  1.0 0.057905767
H  H226  1  0.18040000  0.03770000  0.63390000  1.0 0.057905767
H  H227  1  0.81960000  0.45350000  0.85730000  1.0 0.057905767
H  H228  1  0.59620000  0.96230000  0.14270000  1.0 0.057905767
H  H229  1  0.85730000  0.03770000  0.40380000  1.0 0.057905767
H  H230  1  0.14270000  0.54650000  0.18040000  1.0 0.057905767
H  H231  1  0.36610000  0.96230000  0.81960000  1.0 0.057905767
H  H232  1  0.40380000  0.85730000  0.03770000  1.0 0.057905767
H  H233  1  0.18040000  0.14270000  0.54650000  1.0 0.057905767
H  H234  1  0.81960000  0.36610000  0.96230000  1.0 0.057905767
H  H235  1  0.03770000  0.40380000  0.85730000  1.0 0.057905767
H  H236  1  0.54650000  0.18040000  0.14270000  1.0 0.057905767
H  H237  1  0.96230000  0.81960000  0.36610000  1.0 0.057905767
H  H238  1  0.54650000  0.36610000  0.40380000  1.0 0.057905767
H  H239  1  0.36610000  0.40380000  0.54650000  1.0 0.057905767
H  H240  1  0.40380000  0.54650000  0.36610000  1.0 0.057905767
H  H241  1  0.36610000  0.54650000  0.40380000  1.0 0.057905767
H  H242  1  0.40380000  0.36610000  0.54650000  1.0 0.057905767
H  H243  1  0.54650000  0.40380000  0.36610000  1.0 0.057905767
H  H244  1  0.03770000  0.85730000  0.40380000  1.0 0.057905767
H  H245  1  0.96230000  0.36610000  0.81960000  1.0 0.057905767
H  H246  1  0.54650000  0.14270000  0.18040000  1.0 0.057905767
H  H247  1  0.14270000  0.18040000  0.54650000  1.0 0.057905767
H  H248  1  0.36610000  0.81960000  0.96230000  1.0 0.057905767
H  H249  1  0.85730000  0.40380000  0.03770000  1.0 0.057905767
H  H250  1  0.81960000  0.96230000  0.36610000  1.0 0.057905767
H  H251  1  0.18040000  0.54650000  0.14270000  1.0 0.057905767
H  H252  1  0.40380000  0.03770000  0.85730000  1.0 0.057905767
H  H253  1  0.14270000  0.96230000  0.59620000  1.0 0.057905767
H  H254  1  0.85730000  0.45350000  0.81960000  1.0 0.057905767
H  H255  1  0.63390000  0.03770000  0.18040000  1.0 0.057905767
H  H256  1  0.59620000  0.14270000  0.96230000  1.0 0.057905767
H  H257  1  0.81960000  0.85730000  0.45350000  1.0 0.057905767
H  H258  1  0.18040000  0.63390000  0.03770000  1.0 0.057905767
H  H259  1  0.96230000  0.59620000  0.14270000  1.0 0.057905767
H  H260  1  0.45350000  0.81960000  0.85730000  1.0 0.057905767
H  H261  1  0.03770000  0.18040000  0.63390000  1.0 0.057905767
H  H262  1  0.45350000  0.63390000  0.59620000  1.0 0.057905767
H  H263  1  0.63390000  0.59620000  0.45350000  1.0 0.057905767
H  H264  1  0.59620000  0.45350000  0.63390000  1.0 0.057905767
H  H265  1  0.42710000  0.19990000  0.54140000  1.0 0.0503671789
H  H266  1  0.54140000  0.42710000  0.19990000  1.0 0.0503671789
H  H267  1  0.19990000  0.54140000  0.42710000  1.0 0.0503671789
H  H268  1  0.11430000  0.34150000  0.54140000  1.0 0.0503671789
H  H269  1  0.88570000  0.42710000  0.22720000  1.0 0.0503671789
H  H270  1  0.19990000  0.65850000  0.77280000  1.0 0.0503671789
H  H271  1  0.65850000  0.77280000  0.19990000  1.0 0.0503671789
H  H272  1  0.42710000  0.22720000  0.88570000  1.0 0.0503671789
H  H273  1  0.34150000  0.54140000  0.11430000  1.0 0.0503671789
H  H274  1  0.22720000  0.88570000  0.42710000  1.0 0.0503671789
H  H275  1  0.77280000  0.19990000  0.65850000  1.0 0.0503671789
H  H276  1  0.54140000  0.11430000  0.34150000  1.0 0.0503671789
H  H277  1  0.65850000  0.88570000  0.45860000  1.0 0.0503671789
H  H278  1  0.34150000  0.80010000  0.22720000  1.0 0.0503671789
H  H279  1  0.57290000  0.11430000  0.77280000  1.0 0.0503671789
H  H280  1  0.45860000  0.65850000  0.88570000  1.0 0.0503671789
H  H281  1  0.22720000  0.34150000  0.80010000  1.0 0.0503671789
H  H282  1  0.77280000  0.57290000  0.11430000  1.0 0.0503671789
H  H283  1  0.88570000  0.45860000  0.65850000  1.0 0.0503671789
H  H284  1  0.80010000  0.22720000  0.34150000  1.0 0.0503671789
H  H285  1  0.11430000  0.77280000  0.57290000  1.0 0.0503671789
H  H286  1  0.80010000  0.57290000  0.45860000  1.0 0.0503671789
H  H287  1  0.57290000  0.45860000  0.80010000  1.0 0.0503671789
H  H288  1  0.45860000  0.80010000  0.57290000  1.0 0.0503671789
H  H289  1  0.57290000  0.80010000  0.45860000  1.0 0.0503671789
H  H290  1  0.45860000  0.57290000  0.80010000  1.0 0.0503671789
H  H291  1  0.80010000  0.45860000  0.57290000  1.0 0.0503671789
H  H292  1  0.88570000  0.65850000  0.45860000  1.0 0.0503671789
H  H293  1  0.11430000  0.57290000  0.77280000  1.0 0.0503671789
H  H294  1  0.80010000  0.34150000  0.22720000  1.0 0.0503671789
H  H295  1  0.34150000  0.22720000  0.80010000  1.0 0.0503671789
H  H296  1  0.57290000  0.77280000  0.11430000  1.0 0.0503671789
H  H297  1  0.65850000  0.45860000  0.88570000  1.0 0.0503671789
H  H298  1  0.77280000  0.11430000  0.57290000  1.0 0.0503671789
H  H299  1  0.22720000  0.80010000  0.34150000  1.0 0.0503671789
H  H300  1  0.45860000  0.88570000  0.65850000  1.0 0.0503671789
H  H301  1  0.34150000  0.11430000  0.54140000  1.0 0.0503671789
H  H302  1  0.65850000  0.19990000  0.77280000  1.0 0.0503671789
H  H303  1  0.42710000  0.88570000  0.22720000  1.0 0.0503671789
H  H304  1  0.54140000  0.34150000  0.11430000  1.0 0.0503671789
H  H305  1  0.77280000  0.65850000  0.19990000  1.0 0.0503671789
H  H306  1  0.22720000  0.42710000  0.88570000  1.0 0.0503671789
H  H307  1  0.11430000  0.54140000  0.34150000  1.0 0.0503671789
H  H308  1  0.19990000  0.77280000  0.65850000  1.0 0.0503671789
H  H309  1  0.88570000  0.22720000  0.42710000  1.0 0.0503671789
H  H310  1  0.19990000  0.42710000  0.54140000  1.0 0.0503671789
H  H311  1  0.42710000  0.54140000  0.19990000  1.0 0.0503671789
H  H312  1  0.54140000  0.19990000  0.42710000  1.0 0.0503671789
H  H313  1  0.34630000  0.29010000  0.68940000  1.0 0.088769798
H  H314  1  0.68940000  0.34630000  0.29010000  1.0 0.088769798
H  H315  1  0.29010000  0.68940000  0.34630000  1.0 0.088769798
H  H316  1  0.34310000  0.39930000  0.68940000  1.0 0.088769798
H  H317  1  0.65690000  0.34630000  0.05620000  1.0 0.088769798
H  H318  1  0.29010000  0.60070000  0.94380000  1.0 0.088769798
H  H319  1  0.60070000  0.94380000  0.29010000  1.0 0.088769798
H  H320  1  0.34630000  0.05620000  0.65690000  1.0 0.088769798
H  H321  1  0.39930000  0.68940000  0.34310000  1.0 0.088769798
H  H322  1  0.05620000  0.65690000  0.34630000  1.0 0.088769798
H  H323  1  0.94380000  0.29010000  0.60070000  1.0 0.088769798
H  H324  1  0.68940000  0.34310000  0.39930000  1.0 0.088769798
H  H325  1  0.60070000  0.65690000  0.31060000  1.0 0.088769798
H  H326  1  0.39930000  0.70990000  0.05620000  1.0 0.088769798
H  H327  1  0.65370000  0.34310000  0.94380000  1.0 0.088769798
H  H328  1  0.31060000  0.60070000  0.65690000  1.0 0.088769798
H  H329  1  0.05620000  0.39930000  0.70990000  1.0 0.088769798
H  H330  1  0.94380000  0.65370000  0.34310000  1.0 0.088769798
H  H331  1  0.65690000  0.31060000  0.60070000  1.0 0.088769798
H  H332  1  0.70990000  0.05620000  0.39930000  1.0 0.088769798
H  H333  1  0.34310000  0.94380000  0.65370000  1.0 0.088769798
H  H334  1  0.70990000  0.65370000  0.31060000  1.0 0.088769798
H  H335  1  0.65370000  0.31060000  0.70990000  1.0 0.088769798
H  H336  1  0.31060000  0.70990000  0.65370000  1.0 0.088769798
H  H337  1  0.65370000  0.70990000  0.31060000  1.0 0.088769798
H  H338  1  0.31060000  0.65370000  0.70990000  1.0 0.088769798
H  H339  1  0.70990000  0.31060000  0.65370000  1.0 0.088769798
H  H340  1  0.65690000  0.60070000  0.31060000  1.0 0.088769798
H  H341  1  0.34310000  0.65370000  0.94380000  1.0 0.088769798
H  H342  1  0.70990000  0.39930000  0.05620000  1.0 0.088769798
H  H343  1  0.39930000  0.05620000  0.70990000  1.0 0.088769798
H  H344  1  0.65370000  0.94380000  0.34310000  1.0 0.088769798
H  H345  1  0.60070000  0.31060000  0.65690000  1.0 0.088769798
H  H346  1  0.94380000  0.34310000  0.65370000  1.0 0.088769798
H  H347  1  0.05620000  0.70990000  0.39930000  1.0 0.088769798
H  H348  1  0.31060000  0.65690000  0.60070000  1.0 0.088769798
H  H349  1  0.39930000  0.34310000  0.68940000  1.0 0.088769798
H  H350  1  0.60070000  0.29010000  0.94380000  1.0 0.088769798
H  H351  1  0.34630000  0.65690000  0.05620000  1.0 0.088769798
H  H352  1  0.68940000  0.39930000  0.34310000  1.0 0.088769798
H  H353  1  0.94380000  0.60070000  0.29010000  1.0 0.088769798
H  H354  1  0.05620000  0.34630000  0.65690000  1.0 0.088769798
H  H355  1  0.34310000  0.68940000  0.39930000  1.0 0.088769798
H  H356  1  0.29010000  0.94380000  0.60070000  1.0 0.088769798
H  H357  1  0.65690000  0.05620000  0.34630000  1.0 0.088769798
H  H358  1  0.29010000  0.34630000  0.68940000  1.0 0.088769798
H  H359  1  0.34630000  0.68940000  0.29010000  1.0 0.088769798
H  H360  1  0.68940000  0.29010000  0.34630000  1.0 0.088769798
H  H361  1  0.43610000  0.35620000  0.79230000  1.0 0.10080551
H  H362  1  0.79230000  0.43610000  0.35620000  1.0 0.10080551
H  H363  1  0.35620000  0.79230000  0.43610000  1.0 0.10080551
H  H364  1  0.35620000  0.43610000  0.79230000  1.0 0.10080551
H  H365  1  0.64380000  0.43610000  0.07990000  1.0 0.10080551
H  H366  1  0.35620000  0.56390000  0.92010000  1.0 0.10080551
H  H367  1  0.56390000  0.92010000  0.35620000  1.0 0.10080551
H  H368  1  0.43610000  0.07990000  0.64380000  1.0 0.10080551
H  H369  1  0.43610000  0.79230000  0.35620000  1.0 0.10080551
H  H370  1  0.07990000  0.64380000  0.43610000  1.0 0.10080551
H  H371  1  0.92010000  0.35620000  0.56390000  1.0 0.10080551
H  H372  1  0.79230000  0.35620000  0.43610000  1.0 0.10080551
H  H373  1  0.56390000  0.64380000  0.20770000  1.0 0.10080551
H  H374  1  0.43610000  0.64380000  0.07990000  1.0 0.10080551
H  H375  1  0.56390000  0.35620000  0.92010000  1.0 0.10080551
H  H376  1  0.20770000  0.56390000  0.64380000  1.0 0.10080551
H  H377  1  0.07990000  0.43610000  0.64380000  1.0 0.10080551
H  H378  1  0.92010000  0.56390000  0.35620000  1.0 0.10080551
H  H379  1  0.64380000  0.20770000  0.56390000  1.0 0.10080551
H  H380  1  0.64380000  0.07990000  0.43610000  1.0 0.10080551
H  H381  1  0.35620000  0.92010000  0.56390000  1.0 0.10080551
H  H382  1  0.64380000  0.56390000  0.20770000  1.0 0.10080551
H  H383  1  0.56390000  0.20770000  0.64380000  1.0 0.10080551
H  H384  1  0.20770000  0.64380000  0.56390000  1.0 0.10080551
H  H385  1  0.42650000  0.28630000  0.76640000  1.0 0.0669659313
H  H386  1  0.76640000  0.42650000  0.28630000  1.0 0.0669659313
H  H387  1  0.28630000  0.76640000  0.42650000  1.0 0.0669659313
H  H388  1  0.33990000  0.48010000  0.76640000  1.0 0.0669659313
H  H389  1  0.66010000  0.42650000  0.14020000  1.0 0.0669659313
H  H390  1  0.28630000  0.51990000  0.85980000  1.0 0.0669659313
H  H391  1  0.51990000  0.85980000  0.28630000  1.0 0.0669659313
H  H392  1  0.42650000  0.14020000  0.66010000  1.0 0.0669659313
H  H393  1  0.48010000  0.76640000  0.33990000  1.0 0.0669659313
H  H394  1  0.14020000  0.66010000  0.42650000  1.0 0.0669659313
H  H395  1  0.85980000  0.28630000  0.51990000  1.0 0.0669659313
H  H396  1  0.76640000  0.33990000  0.48010000  1.0 0.0669659313
H  H397  1  0.51990000  0.66010000  0.23360000  1.0 0.0669659313
H  H398  1  0.48010000  0.71370000  0.14020000  1.0 0.0669659313
H  H399  1  0.57350000  0.33990000  0.85980000  1.0 0.0669659313
H  H400  1  0.23360000  0.51990000  0.66010000  1.0 0.0669659313
H  H401  1  0.14020000  0.48010000  0.71370000  1.0 0.0669659313
H  H402  1  0.85980000  0.57350000  0.33990000  1.0 0.0669659313
H  H403  1  0.66010000  0.23360000  0.51990000  1.0 0.0669659313
H  H404  1  0.71370000  0.14020000  0.48010000  1.0 0.0669659313
H  H405  1  0.33990000  0.85980000  0.57350000  1.0 0.0669659313
H  H406  1  0.71370000  0.57350000  0.23360000  1.0 0.0669659313
H  H407  1  0.57350000  0.23360000  0.71370000  1.0 0.0669659313
H  H408  1  0.23360000  0.71370000  0.57350000  1.0 0.0669659313
H  H409  1  0.57350000  0.71370000  0.23360000  1.0 0.0669659313
H  H410  1  0.23360000  0.57350000  0.71370000  1.0 0.0669659313
H  H411  1  0.71370000  0.23360000  0.57350000  1.0 0.0669659313
H  H412  1  0.66010000  0.51990000  0.23360000  1.0 0.0669659313
H  H413  1  0.33990000  0.57350000  0.85980000  1.0 0.0669659313
H  H414  1  0.71370000  0.48010000  0.14020000  1.0 0.0669659313
H  H415  1  0.48010000  0.14020000  0.71370000  1.0 0.0669659313
H  H416  1  0.57350000  0.85980000  0.33990000  1.0 0.0669659313
H  H417  1  0.51990000  0.23360000  0.66010000  1.0 0.0669659313
H  H418  1  0.85980000  0.33990000  0.57350000  1.0 0.0669659313
H  H419  1  0.14020000  0.71370000  0.48010000  1.0 0.0669659313
H  H420  1  0.23360000  0.66010000  0.51990000  1.0 0.0669659313
H  H421  1  0.48010000  0.33990000  0.76640000  1.0 0.0669659313
H  H422  1  0.51990000  0.28630000  0.85980000  1.0 0.0669659313
H  H423  1  0.42650000  0.66010000  0.14020000  1.0 0.0669659313
H  H424  1  0.76640000  0.48010000  0.33990000  1.0 0.0669659313
H  H425  1  0.85980000  0.51990000  0.28630000  1.0 0.0669659313
H  H426  1  0.14020000  0.42650000  0.66010000  1.0 0.0669659313
H  H427  1  0.33990000  0.76640000  0.48010000  1.0 0.0669659313
H  H428  1  0.28630000  0.85980000  0.51990000  1.0 0.0669659313
H  H429  1  0.66010000  0.14020000  0.42650000  1.0 0.0669659313
H  H430  1  0.28630000  0.42650000  0.76640000  1.0 0.0669659313
H  H431  1  0.42650000  0.76640000  0.28630000  1.0 0.0669659313
H  H432  1  0.76640000  0.28630000  0.42650000  1.0 0.0669659313
H  H433  1  0.57140000  0.50080000  0.57140000  1.0 0.088769798
H  H434  1  0.57140000  0.57140000  0.50080000  1.0 0.088769798
H  H435  1  0.50080000  0.57140000  0.57140000  1.0 0.088769798
H  H436  1  0.00000000  0.07060000  0.57140000  1.0 0.088769798
H  H437  1  0.00000000  0.57140000  0.07060000  1.0 0.088769798
H  H438  1  0.50080000  0.92940000  0.92940000  1.0 0.088769798
H  H439  1  0.92940000  0.92940000  0.50080000  1.0 0.088769798
H  H440  1  0.57140000  0.07060000  0.00000000  1.0 0.088769798
H  H441  1  0.07060000  0.57140000  0.00000000  1.0 0.088769798
H  H442  1  0.07060000  0.00000000  0.57140000  1.0 0.088769798
H  H443  1  0.92940000  0.50080000  0.92940000  1.0 0.088769798
H  H444  1  0.57140000  0.00000000  0.07060000  1.0 0.088769798
H  H445  1  0.92940000  0.00000000  0.42860000  1.0 0.088769798
H  H446  1  0.07060000  0.49920000  0.07060000  1.0 0.088769798
H  H447  1  0.42860000  0.00000000  0.92940000  1.0 0.088769798
H  H448  1  0.42860000  0.92940000  0.00000000  1.0 0.088769798
H  H449  1  0.07060000  0.07060000  0.49920000  1.0 0.088769798
H  H450  1  0.92940000  0.42860000  0.00000000  1.0 0.088769798
H  H451  1  0.00000000  0.42860000  0.92940000  1.0 0.088769798
H  H452  1  0.49920000  0.07060000  0.07060000  1.0 0.088769798
H  H453  1  0.00000000  0.92940000  0.42860000  1.0 0.088769798
H  H454  1  0.49920000  0.42860000  0.42860000  1.0 0.088769798
H  H455  1  0.42860000  0.42860000  0.49920000  1.0 0.088769798
H  H456  1  0.42860000  0.49920000  0.42860000  1.0 0.088769798
H  H457  1  0.54680000  0.43730000  0.50890000  1.0 0.0807206376
H  H458  1  0.50890000  0.54680000  0.43730000  1.0 0.0807206376
H  H459  1  0.43730000  0.50890000  0.54680000  1.0 0.0807206376
H  H460  1  0.96210000  0.07160000  0.50890000  1.0 0.0807206376
H  H461  1  0.03790000  0.54680000  0.10950000  1.0 0.0807206376
H  H462  1  0.43730000  0.92840000  0.89050000  1.0 0.0807206376
H  H463  1  0.92840000  0.89050000  0.43730000  1.0 0.0807206376
H  H464  1  0.54680000  0.10950000  0.03790000  1.0 0.0807206376
H  H465  1  0.07160000  0.50890000  0.96210000  1.0 0.0807206376
H  H466  1  0.10950000  0.03790000  0.54680000  1.0 0.0807206376
H  H467  1  0.89050000  0.43730000  0.92840000  1.0 0.0807206376
H  H468  1  0.50890000  0.96210000  0.07160000  1.0 0.0807206376
H  H469  1  0.92840000  0.03790000  0.49110000  1.0 0.0807206376
H  H470  1  0.07160000  0.56270000  0.10950000  1.0 0.0807206376
H  H471  1  0.45320000  0.96210000  0.89050000  1.0 0.0807206376
H  H472  1  0.49110000  0.92840000  0.03790000  1.0 0.0807206376
H  H473  1  0.10950000  0.07160000  0.56270000  1.0 0.0807206376
H  H474  1  0.89050000  0.45320000  0.96210000  1.0 0.0807206376
H  H475  1  0.03790000  0.49110000  0.92840000  1.0 0.0807206376
H  H476  1  0.56270000  0.10950000  0.07160000  1.0 0.0807206376
H  H477  1  0.96210000  0.89050000  0.45320000  1.0 0.0807206376
H  H478  1  0.56270000  0.45320000  0.49110000  1.0 0.0807206376
H  H479  1  0.45320000  0.49110000  0.56270000  1.0 0.0807206376
H  H480  1  0.49110000  0.56270000  0.45320000  1.0 0.0807206376
H  H481  1  0.45320000  0.56270000  0.49110000  1.0 0.0807206376
H  H482  1  0.49110000  0.45320000  0.56270000  1.0 0.0807206376
H  H483  1  0.56270000  0.49110000  0.45320000  1.0 0.0807206376
H  H484  1  0.03790000  0.92840000  0.49110000  1.0 0.0807206376
H  H485  1  0.96210000  0.45320000  0.89050000  1.0 0.0807206376
H  H486  1  0.56270000  0.07160000  0.10950000  1.0 0.0807206376
H  H487  1  0.07160000  0.10950000  0.56270000  1.0 0.0807206376
H  H488  1  0.45320000  0.89050000  0.96210000  1.0 0.0807206376
H  H489  1  0.92840000  0.49110000  0.03790000  1.0 0.0807206376
H  H490  1  0.89050000  0.96210000  0.45320000  1.0 0.0807206376
H  H491  1  0.10950000  0.56270000  0.07160000  1.0 0.0807206376
H  H492  1  0.49110000  0.03790000  0.92840000  1.0 0.0807206376
H  H493  1  0.07160000  0.96210000  0.50890000  1.0 0.0807206376
H  H494  1  0.92840000  0.43730000  0.89050000  1.0 0.0807206376
H  H495  1  0.54680000  0.03790000  0.10950000  1.0 0.0807206376
H  H496  1  0.50890000  0.07160000  0.96210000  1.0 0.0807206376
H  H497  1  0.89050000  0.92840000  0.43730000  1.0 0.0807206376
H  H498  1  0.10950000  0.54680000  0.03790000  1.0 0.0807206376
H  H499  1  0.96210000  0.50890000  0.07160000  1.0 0.0807206376
H  H500  1  0.43730000  0.89050000  0.92840000  1.0 0.0807206376
H  H501  1  0.03790000  0.10950000  0.54680000  1.0 0.0807206376
H  H502  1  0.43730000  0.54680000  0.50890000  1.0 0.0807206376
H  H503  1  0.54680000  0.50890000  0.43730000  1.0 0.0807206376
H  H504  1  0.50890000  0.43730000  0.54680000  1.0 0.0807206376
H  H505  1  0.42980000  0.27930000  0.49050000  1.0 0.10080551
H  H506  1  0.49050000  0.42980000  0.27930000  1.0 0.10080551
H  H507  1  0.27930000  0.49050000  0.42980000  1.0 0.10080551
H  H508  1  0.06070000  0.21120000  0.49050000  1.0 0.10080551
H  H509  1  0.93930000  0.42980000  0.15050000  1.0 0.10080551
H  H510  1  0.27930000  0.78880000  0.84950000  1.0 0.10080551
H  H511  1  0.78880000  0.84950000  0.27930000  1.0 0.10080551
H  H512  1  0.42980000  0.15050000  0.93930000  1.0 0.10080551
H  H513  1  0.21120000  0.49050000  0.06070000  1.0 0.10080551
H  H514  1  0.15050000  0.93930000  0.42980000  1.0 0.10080551
H  H515  1  0.84950000  0.27930000  0.78880000  1.0 0.10080551
H  H516  1  0.49050000  0.06070000  0.21120000  1.0 0.10080551
H  H517  1  0.78880000  0.93930000  0.50950000  1.0 0.10080551
H  H518  1  0.21120000  0.72070000  0.15050000  1.0 0.10080551
H  H519  1  0.57020000  0.06070000  0.84950000  1.0 0.10080551
H  H520  1  0.50950000  0.78880000  0.93930000  1.0 0.10080551
H  H521  1  0.15050000  0.21120000  0.72070000  1.0 0.10080551
H  H522  1  0.84950000  0.57020000  0.06070000  1.0 0.10080551
H  H523  1  0.93930000  0.50950000  0.78880000  1.0 0.10080551
H  H524  1  0.72070000  0.15050000  0.21120000  1.0 0.10080551
H  H525  1  0.06070000  0.84950000  0.57020000  1.0 0.10080551
H  H526  1  0.72070000  0.57020000  0.50950000  1.0 0.10080551
H  H527  1  0.57020000  0.50950000  0.72070000  1.0 0.10080551
H  H528  1  0.50950000  0.72070000  0.57020000  1.0 0.10080551
H  H529  1  0.57020000  0.72070000  0.50950000  1.0 0.10080551
H  H530  1  0.50950000  0.57020000  0.72070000  1.0 0.10080551
H  H531  1  0.72070000  0.50950000  0.57020000  1.0 0.10080551
H  H532  1  0.93930000  0.78880000  0.50950000  1.0 0.10080551
H  H533  1  0.06070000  0.57020000  0.84950000  1.0 0.10080551
H  H534  1  0.72070000  0.21120000  0.15050000  1.0 0.10080551
H  H535  1  0.21120000  0.15050000  0.72070000  1.0 0.10080551
H  H536  1  0.57020000  0.84950000  0.06070000  1.0 0.10080551
H  H537  1  0.78880000  0.50950000  0.93930000  1.0 0.10080551
H  H538  1  0.84950000  0.06070000  0.57020000  1.0 0.10080551
H  H539  1  0.15050000  0.72070000  0.21120000  1.0 0.10080551
H  H540  1  0.50950000  0.93930000  0.78880000  1.0 0.10080551
H  H541  1  0.21120000  0.06070000  0.49050000  1.0 0.10080551
H  H542  1  0.78880000  0.27930000  0.84950000  1.0 0.10080551
H  H543  1  0.42980000  0.93930000  0.15050000  1.0 0.10080551
H  H544  1  0.49050000  0.21120000  0.06070000  1.0 0.10080551
H  H545  1  0.84950000  0.78880000  0.27930000  1.0 0.10080551
H  H546  1  0.15050000  0.42980000  0.93930000  1.0 0.10080551
H  H547  1  0.06070000  0.49050000  0.21120000  1.0 0.10080551
H  H548  1  0.27930000  0.84950000  0.78880000  1.0 0.10080551
H  H549  1  0.93930000  0.15050000  0.42980000  1.0 0.10080551
H  H550  1  0.27930000  0.42980000  0.49050000  1.0 0.10080551
H  H551  1  0.42980000  0.49050000  0.27930000  1.0 0.10080551
H  H552  1  0.49050000  0.27930000  0.42980000  1.0 0.10080551
H  H553  1  0.67350000  0.40600000  0.63590000  1.0 0.0503671789
H  H554  1  0.63590000  0.67350000  0.40600000  1.0 0.0503671789
H  H555  1  0.40600000  0.63590000  0.67350000  1.0 0.0503671789
H  H556  1  0.96240000  0.22990000  0.63590000  1.0 0.0503671789
H  H557  1  0.03760000  0.67350000  0.26750000  1.0 0.0503671789
H  H558  1  0.40600000  0.77010000  0.73250000  1.0 0.0503671789
H  H559  1  0.77010000  0.73250000  0.40600000  1.0 0.0503671789
H  H560  1  0.67350000  0.26750000  0.03760000  1.0 0.0503671789
H  H561  1  0.22990000  0.63590000  0.96240000  1.0 0.0503671789
H  H562  1  0.26750000  0.03760000  0.67350000  1.0 0.0503671789
H  H563  1  0.73250000  0.40600000  0.77010000  1.0 0.0503671789
H  H564  1  0.63590000  0.96240000  0.22990000  1.0 0.0503671789
H  H565  1  0.77010000  0.03760000  0.36410000  1.0 0.0503671789
H  H566  1  0.22990000  0.59400000  0.26750000  1.0 0.0503671789
H  H567  1  0.32650000  0.96240000  0.73250000  1.0 0.0503671789
H  H568  1  0.36410000  0.77010000  0.03760000  1.0 0.0503671789
H  H569  1  0.26750000  0.22990000  0.59400000  1.0 0.0503671789
H  H570  1  0.73250000  0.32650000  0.96240000  1.0 0.0503671789
H  H571  1  0.03760000  0.36410000  0.77010000  1.0 0.0503671789
H  H572  1  0.59400000  0.26750000  0.22990000  1.0 0.0503671789
H  H573  1  0.96240000  0.73250000  0.32650000  1.0 0.0503671789
H  H574  1  0.59400000  0.32650000  0.36410000  1.0 0.0503671789
H  H575  1  0.32650000  0.36410000  0.59400000  1.0 0.0503671789
H  H576  1  0.36410000  0.59400000  0.32650000  1.0 0.0503671789
H  H577  1  0.32650000  0.59400000  0.36410000  1.0 0.0503671789
H  H578  1  0.36410000  0.32650000  0.59400000  1.0 0.0503671789
H  H579  1  0.59400000  0.36410000  0.32650000  1.0 0.0503671789
H  H580  1  0.03760000  0.77010000  0.36410000  1.0 0.0503671789
H  H581  1  0.96240000  0.32650000  0.73250000  1.0 0.0503671789
H  H582  1  0.59400000  0.22990000  0.26750000  1.0 0.0503671789
H  H583  1  0.22990000  0.26750000  0.59400000  1.0 0.0503671789
H  H584  1  0.32650000  0.73250000  0.96240000  1.0 0.0503671789
H  H585  1  0.77010000  0.36410000  0.03760000  1.0 0.0503671789
H  H586  1  0.73250000  0.96240000  0.32650000  1.0 0.0503671789
H  H587  1  0.26750000  0.59400000  0.22990000  1.0 0.0503671789
H  H588  1  0.36410000  0.03760000  0.77010000  1.0 0.0503671789
H  H589  1  0.22990000  0.96240000  0.63590000  1.0 0.0503671789
H  H590  1  0.77010000  0.40600000  0.73250000  1.0 0.0503671789
H  H591  1  0.67350000  0.03760000  0.26750000  1.0 0.0503671789
H  H592  1  0.63590000  0.22990000  0.96240000  1.0 0.0503671789
H  H593  1  0.73250000  0.77010000  0.40600000  1.0 0.0503671789
H  H594  1  0.26750000  0.67350000  0.03760000  1.0 0.0503671789
H  H595  1  0.96240000  0.63590000  0.22990000  1.0 0.0503671789
H  H596  1  0.40600000  0.73250000  0.77010000  1.0 0.0503671789
H  H597  1  0.03760000  0.26750000  0.67350000  1.0 0.0503671789
H  H598  1  0.40600000  0.67350000  0.63590000  1.0 0.0503671789
H  H599  1  0.67350000  0.63590000  0.40600000  1.0 0.0503671789
H  H600  1  0.63590000  0.40600000  0.67350000  1.0 0.0503671789
H  H601  1  0.69600000  0.51120000  0.69600000  1.0 0.0669659313
H  H602  1  0.69600000  0.69600000  0.51120000  1.0 0.0669659313
H  H603  1  0.51120000  0.69600000  0.69600000  1.0 0.0669659313
H  H604  1  0.00000000  0.18480000  0.69600000  1.0 0.0669659313
H  H605  1  0.00000000  0.69600000  0.18480000  1.0 0.0669659313
H  H606  1  0.51120000  0.81520000  0.81520000  1.0 0.0669659313
H  H607  1  0.81520000  0.81520000  0.51120000  1.0 0.0669659313
H  H608  1  0.69600000  0.18480000  0.00000000  1.0 0.0669659313
H  H609  1  0.18480000  0.69600000  0.00000000  1.0 0.0669659313
H  H610  1  0.18480000  0.00000000  0.69600000  1.0 0.0669659313
H  H611  1  0.81520000  0.51120000  0.81520000  1.0 0.0669659313
H  H612  1  0.69600000  0.00000000  0.18480000  1.0 0.0669659313
H  H613  1  0.81520000  0.00000000  0.30400000  1.0 0.0669659313
H  H614  1  0.18480000  0.48880000  0.18480000  1.0 0.0669659313
H  H615  1  0.30400000  0.00000000  0.81520000  1.0 0.0669659313
H  H616  1  0.30400000  0.81520000  0.00000000  1.0 0.0669659313
H  H617  1  0.18480000  0.18480000  0.48880000  1.0 0.0669659313
H  H618  1  0.81520000  0.30400000  0.00000000  1.0 0.0669659313
H  H619  1  0.00000000  0.30400000  0.81520000  1.0 0.0669659313
H  H620  1  0.48880000  0.18480000  0.18480000  1.0 0.0669659313
H  H621  1  0.00000000  0.81520000  0.30400000  1.0 0.0669659313
H  H622  1  0.48880000  0.30400000  0.30400000  1.0 0.0669659313
H  H623  1  0.30400000  0.30400000  0.48880000  1.0 0.0669659313
H  H624  1  0.30400000  0.48880000  0.30400000  1.0 0.0669659313
H  H625  1  0.65430000  0.48560000  0.62550000  1.0 0.0360809047
H  H626  1  0.62550000  0.65430000  0.48560000  1.0 0.0360809047
H  H627  1  0.48560000  0.62550000  0.65430000  1.0 0.0360809047
H  H628  1  0.97120000  0.13990000  0.62550000  1.0 0.0360809047
H  H629  1  0.02880000  0.65430000  0.16870000  1.0 0.0360809047
H  H630  1  0.48560000  0.86010000  0.83130000  1.0 0.0360809047
H  H631  1  0.86010000  0.83130000  0.48560000  1.0 0.0360809047
H  H632  1  0.65430000  0.16870000  0.02880000  1.0 0.0360809047
H  H633  1  0.13990000  0.62550000  0.97120000  1.0 0.0360809047
H  H634  1  0.16870000  0.02880000  0.65430000  1.0 0.0360809047
H  H635  1  0.83130000  0.48560000  0.86010000  1.0 0.0360809047
H  H636  1  0.62550000  0.97120000  0.13990000  1.0 0.0360809047
H  H637  1  0.86010000  0.02880000  0.37450000  1.0 0.0360809047
H  H638  1  0.13990000  0.51440000  0.16870000  1.0 0.0360809047
H  H639  1  0.34570000  0.97120000  0.83130000  1.0 0.0360809047
H  H640  1  0.37450000  0.86010000  0.02880000  1.0 0.0360809047
H  H641  1  0.16870000  0.13990000  0.51440000  1.0 0.0360809047
H  H642  1  0.83130000  0.34570000  0.97120000  1.0 0.0360809047
H  H643  1  0.02880000  0.37450000  0.86010000  1.0 0.0360809047
H  H644  1  0.51440000  0.16870000  0.13990000  1.0 0.0360809047
H  H645  1  0.97120000  0.83130000  0.34570000  1.0 0.0360809047
H  H646  1  0.51440000  0.34570000  0.37450000  1.0 0.0360809047
H  H647  1  0.34570000  0.37450000  0.51440000  1.0 0.0360809047
H  H648  1  0.37450000  0.51440000  0.34570000  1.0 0.0360809047
H  H649  1  0.34570000  0.51440000  0.37450000  1.0 0.0360809047
H  H650  1  0.37450000  0.34570000  0.51440000  1.0 0.0360809047
H  H651  1  0.51440000  0.37450000  0.34570000  1.0 0.0360809047
H  H652  1  0.02880000  0.86010000  0.37450000  1.0 0.0360809047
H  H653  1  0.97120000  0.34570000  0.83130000  1.0 0.0360809047
H  H654  1  0.51440000  0.13990000  0.16870000  1.0 0.0360809047
H  H655  1  0.13990000  0.16870000  0.51440000  1.0 0.0360809047
H  H656  1  0.34570000  0.83130000  0.97120000  1.0 0.0360809047
H  H657  1  0.86010000  0.37450000  0.02880000  1.0 0.0360809047
H  H658  1  0.83130000  0.97120000  0.34570000  1.0 0.0360809047
H  H659  1  0.16870000  0.51440000  0.13990000  1.0 0.0360809047
H  H660  1  0.37450000  0.02880000  0.86010000  1.0 0.0360809047
H  H661  1  0.13990000  0.97120000  0.62550000  1.0 0.0360809047
H  H662  1  0.86010000  0.48560000  0.83130000  1.0 0.0360809047
H  H663  1  0.65430000  0.02880000  0.16870000  1.0 0.0360809047
H  H664  1  0.62550000  0.13990000  0.97120000  1.0 0.0360809047
H  H665  1  0.83130000  0.86010000  0.48560000  1.0 0.0360809047
H  H666  1  0.16870000  0.65430000  0.02880000  1.0 0.0360809047
H  H667  1  0.97120000  0.62550000  0.13990000  1.0 0.0360809047
H  H668  1  0.48560000  0.83130000  0.86010000  1.0 0.0360809047
H  H669  1  0.02880000  0.16870000  0.65430000  1.0 0.0360809047
H  H670  1  0.48560000  0.65430000  0.62550000  1.0 0.0360809047
H  H671  1  0.65430000  0.62550000  0.48560000  1.0 0.0360809047
H  H672  1  0.62550000  0.48560000  0.65430000  1.0 0.0360809047
H  H673  1  0.79960000  0.55390000  0.75430000  1.0 0.1457334537
H  H674  1  0.75430000  0.79960000  0.55390000  1.0 0.1457334537
H  H675  1  0.55390000  0.75430000  0.79960000  1.0 0.1457334537
H  H676  1  0.95470000  0.20040000  0.75430000  1.0 0.1457334537
H  H677  1  0.04530000  0.79960000  0.24570000  1.0 0.1457334537
H  H678  1  0.55390000  0.79960000  0.75430000  1.0 0.1457334537
H  H679  1  0.79960000  0.75430000  0.55390000  1.0 0.1457334537
H  H680  1  0.79960000  0.24570000  0.04530000  1.0 0.1457334537
H  H681  1  0.20040000  0.75430000  0.95470000  1.0 0.1444090641
H  H682  1  0.24570000  0.04530000  0.79960000  1.0 0.1444090641
H  H683  1  0.75430000  0.55390000  0.79960000  1.0 0.1457334537
H  H684  1  0.75430000  0.95470000  0.20040000  1.0 0.1457334537
H  H685  1  0.79960000  0.04530000  0.24570000  1.0 0.1457334537
H  H686  1  0.20040000  0.44610000  0.24570000  1.0 0.1457334537
H  H687  1  0.20040000  0.95470000  0.75430000  1.0 0.1457334537
H  H688  1  0.24570000  0.79960000  0.04530000  1.0 0.1457334537
H  H689  1  0.24570000  0.20040000  0.44610000  1.0 0.1457334537
H  H690  1  0.75430000  0.20040000  0.95470000  1.0 0.1444090641
H  H691  1  0.04530000  0.24570000  0.79960000  1.0 0.1457334537
H  H692  1  0.44610000  0.24570000  0.20040000  1.0 0.1457334537
H  H693  1  0.95470000  0.75430000  0.20040000  1.0 0.1457334537
H  H694  1  0.44610000  0.20040000  0.24570000  1.0 0.1457334537
H  H695  1  0.20040000  0.24570000  0.44610000  1.0 0.1457334537
H  H696  1  0.24570000  0.44610000  0.20040000  1.0 0.1457334537
H  H697  1  0.73280000  0.53560000  0.70960000  1.0 0.10080551
H  H698  1  0.70960000  0.73280000  0.53560000  1.0 0.10080551
H  H699  1  0.53560000  0.70960000  0.73280000  1.0 0.10080551
H  H700  1  0.97680000  0.17400000  0.70960000  1.0 0.10080551
H  H701  1  0.02320000  0.73280000  0.19720000  1.0 0.10080551
H  H702  1  0.53560000  0.82600000  0.80280000  1.0 0.10080551
H  H703  1  0.82600000  0.80280000  0.53560000  1.0 0.10080551
H  H704  1  0.73280000  0.19720000  0.02320000  1.0 0.10080551
H  H705  1  0.17400000  0.70960000  0.97680000  1.0 0.10080551
H  H706  1  0.19720000  0.02320000  0.73280000  1.0 0.10080551
H  H707  1  0.80280000  0.53560000  0.82600000  1.0 0.10080551
H  H708  1  0.70960000  0.97680000  0.17400000  1.0 0.10080551
H  H709  1  0.82600000  0.02320000  0.29040000  1.0 0.10080551
H  H710  1  0.17400000  0.46440000  0.19720000  1.0 0.10080551
H  H711  1  0.26720000  0.97680000  0.80280000  1.0 0.10080551
H  H712  1  0.29040000  0.82600000  0.02320000  1.0 0.10080551
H  H713  1  0.19720000  0.17400000  0.46440000  1.0 0.10080551
H  H714  1  0.80280000  0.26720000  0.97680000  1.0 0.10080551
H  H715  1  0.02320000  0.29040000  0.82600000  1.0 0.10080551
H  H716  1  0.46440000  0.19720000  0.17400000  1.0 0.10080551
H  H717  1  0.97680000  0.80280000  0.26720000  1.0 0.10080551
H  H718  1  0.46440000  0.26720000  0.29040000  1.0 0.10080551
H  H719  1  0.26720000  0.29040000  0.46440000  1.0 0.10080551
H  H720  1  0.29040000  0.46440000  0.26720000  1.0 0.10080551
H  H721  1  0.26720000  0.46440000  0.29040000  1.0 0.10080551
H  H722  1  0.29040000  0.26720000  0.46440000  1.0 0.10080551
H  H723  1  0.46440000  0.29040000  0.26720000  1.0 0.10080551
H  H724  1  0.02320000  0.82600000  0.29040000  1.0 0.10080551
H  H725  1  0.97680000  0.26720000  0.80280000  1.0 0.10080551
H  H726  1  0.46440000  0.17400000  0.19720000  1.0 0.10080551
H  H727  1  0.17400000  0.19720000  0.46440000  1.0 0.10080551
H  H728  1  0.26720000  0.80280000  0.97680000  1.0 0.10080551
H  H729  1  0.82600000  0.29040000  0.02320000  1.0 0.10080551
H  H730  1  0.80280000  0.97680000  0.26720000  1.0 0.10080551
H  H731  1  0.19720000  0.46440000  0.17400000  1.0 0.10080551
H  H732  1  0.29040000  0.02320000  0.82600000  1.0 0.10080551
H  H733  1  0.17400000  0.97680000  0.70960000  1.0 0.10080551
H  H734  1  0.82600000  0.53560000  0.80280000  1.0 0.10080551
H  H735  1  0.73280000  0.02320000  0.19720000  1.0 0.10080551
H  H736  1  0.70960000  0.17400000  0.97680000  1.0 0.10080551
H  H737  1  0.80280000  0.82600000  0.53560000  1.0 0.10080551
H  H738  1  0.19720000  0.73280000  0.02320000  1.0 0.10080551
H  H739  1  0.97680000  0.70960000  0.17400000  1.0 0.10080551
H  H740  1  0.53560000  0.80280000  0.82600000  1.0 0.10080551
H  H741  1  0.02320000  0.19720000  0.73280000  1.0 0.10080551
H  H742  1  0.53560000  0.73280000  0.70960000  1.0 0.10080551
H  H743  1  0.73280000  0.70960000  0.53560000  1.0 0.10080551
H  H744  1  0.70960000  0.53560000  0.73280000  1.0 0.10080551
H  H745  1  0.69630000  0.45410000  0.71540000  1.0 0.0503671789
H  H746  1  0.71540000  0.69630000  0.45410000  1.0 0.0503671789
H  H747  1  0.45410000  0.71540000  0.69630000  1.0 0.0503671789
H  H748  1  0.01910000  0.26130000  0.71540000  1.0 0.0503671789
H  H749  1  0.98090000  0.69630000  0.24220000  1.0 0.0503671789
H  H750  1  0.45410000  0.73870000  0.75780000  1.0 0.0503671789
H  H751  1  0.73870000  0.75780000  0.45410000  1.0 0.0503671789
H  H752  1  0.69630000  0.24220000  0.98090000  1.0 0.0503671789
H  H753  1  0.26130000  0.71540000  0.01910000  1.0 0.0503671789
H  H754  1  0.24220000  0.98090000  0.69630000  1.0 0.0503671789
H  H755  1  0.75780000  0.45410000  0.73870000  1.0 0.0503671789
H  H756  1  0.71540000  0.01910000  0.26130000  1.0 0.0503671789
H  H757  1  0.73870000  0.98090000  0.28460000  1.0 0.0503671789
H  H758  1  0.26130000  0.54590000  0.24220000  1.0 0.0503671789
H  H759  1  0.30370000  0.01910000  0.75780000  1.0 0.0503671789
H  H760  1  0.28460000  0.73870000  0.98090000  1.0 0.0503671789
H  H761  1  0.24220000  0.26130000  0.54590000  1.0 0.0503671789
H  H762  1  0.75780000  0.30370000  0.01910000  1.0 0.0503671789
H  H763  1  0.98090000  0.28460000  0.73870000  1.0 0.0503671789
H  H764  1  0.54590000  0.24220000  0.26130000  1.0 0.0503671789
H  H765  1  0.01910000  0.75780000  0.30370000  1.0 0.0503671789
H  H766  1  0.54590000  0.30370000  0.28460000  1.0 0.0503671789
H  H767  1  0.30370000  0.28460000  0.54590000  1.0 0.0503671789
H  H768  1  0.28460000  0.54590000  0.30370000  1.0 0.0503671789
H  H769  1  0.30370000  0.54590000  0.28460000  1.0 0.0503671789
H  H770  1  0.28460000  0.30370000  0.54590000  1.0 0.0503671789
H  H771  1  0.54590000  0.28460000  0.30370000  1.0 0.0503671789
H  H772  1  0.98090000  0.73870000  0.28460000  1.0 0.0503671789
H  H773  1  0.01910000  0.30370000  0.75780000  1.0 0.0503671789
H  H774  1  0.54590000  0.26130000  0.24220000  1.0 0.0503671789
H  H775  1  0.26130000  0.24220000  0.54590000  1.0 0.0503671789
H  H776  1  0.30370000  0.75780000  0.01910000  1.0 0.0503671789
H  H777  1  0.73870000  0.28460000  0.98090000  1.0 0.0503671789
H  H778  1  0.75780000  0.01910000  0.30370000  1.0 0.0503671789
H  H779  1  0.24220000  0.54590000  0.26130000  1.0 0.0503671789
H  H780  1  0.28460000  0.98090000  0.73870000  1.0 0.0503671789
H  H781  1  0.26130000  0.01910000  0.71540000  1.0 0.0503671789
H  H782  1  0.73870000  0.45410000  0.75780000  1.0 0.0503671789
H  H783  1  0.69630000  0.98090000  0.24220000  1.0 0.0503671789
H  H784  1  0.71540000  0.26130000  0.01910000  1.0 0.0503671789
H  H785  1  0.75780000  0.73870000  0.45410000  1.0 0.0503671789
H  H786  1  0.24220000  0.69630000  0.98090000  1.0 0.0503671789
H  H787  1  0.01910000  0.71540000  0.26130000  1.0 0.0503671789
H  H788  1  0.45410000  0.75780000  0.73870000  1.0 0.0503671789
H  H789  1  0.98090000  0.24220000  0.69630000  1.0 0.0503671789
H  H790  1  0.45410000  0.69630000  0.71540000  1.0 0.0503671789
H  H791  1  0.69630000  0.71540000  0.45410000  1.0 0.0503671789
H  H792  1  0.71540000  0.45410000  0.69630000  1.0 0.0503671789
H  H793  1  0.74680000  0.49690000  0.77710000  1.0 0.088769798
H  H794  1  0.77710000  0.74680000  0.49690000  1.0 0.088769798
H  H795  1  0.49690000  0.77710000  0.74680000  1.0 0.088769798
H  H796  1  0.03030000  0.28020000  0.77710000  1.0 0.088769798
H  H797  1  0.96970000  0.74680000  0.24990000  1.0 0.088769798
H  H798  1  0.49690000  0.71980000  0.75010000  1.0 0.088769798
H  H799  1  0.71980000  0.75010000  0.49690000  1.0 0.088769798
H  H800  1  0.74680000  0.24990000  0.96970000  1.0 0.088769798
H  H801  1  0.28020000  0.77710000  0.03030000  1.0 0.088769798
H  H802  1  0.24990000  0.96970000  0.74680000  1.0 0.088769798
H  H803  1  0.75010000  0.49690000  0.71980000  1.0 0.088769798
H  H804  1  0.77710000  0.03030000  0.28020000  1.0 0.088769798
H  H805  1  0.71980000  0.96970000  0.22290000  1.0 0.088769798
H  H806  1  0.28020000  0.50310000  0.24990000  1.0 0.088769798
H  H807  1  0.25320000  0.03030000  0.75010000  1.0 0.088769798
H  H808  1  0.22290000  0.71980000  0.96970000  1.0 0.088769798
H  H809  1  0.24990000  0.28020000  0.50310000  1.0 0.088769798
H  H810  1  0.75010000  0.25320000  0.03030000  1.0 0.088769798
H  H811  1  0.96970000  0.22290000  0.71980000  1.0 0.088769798
H  H812  1  0.50310000  0.24990000  0.28020000  1.0 0.088769798
H  H813  1  0.03030000  0.75010000  0.25320000  1.0 0.088769798
H  H814  1  0.50310000  0.25320000  0.22290000  1.0 0.088769798
H  H815  1  0.25320000  0.22290000  0.50310000  1.0 0.088769798
H  H816  1  0.22290000  0.50310000  0.25320000  1.0 0.088769798
H  H817  1  0.25320000  0.50310000  0.22290000  1.0 0.088769798
H  H818  1  0.22290000  0.25320000  0.50310000  1.0 0.088769798
H  H819  1  0.50310000  0.22290000  0.25320000  1.0 0.088769798
H  H820  1  0.96970000  0.71980000  0.22290000  1.0 0.088769798
H  H821  1  0.03030000  0.25320000  0.75010000  1.0 0.088769798
H  H822  1  0.50310000  0.28020000  0.24990000  1.0 0.088769798
H  H823  1  0.28020000  0.24990000  0.50310000  1.0 0.088769798
H  H824  1  0.25320000  0.75010000  0.03030000  1.0 0.088769798
H  H825  1  0.71980000  0.22290000  0.96970000  1.0 0.088769798
H  H826  1  0.75010000  0.03030000  0.25320000  1.0 0.088769798
H  H827  1  0.24990000  0.50310000  0.28020000  1.0 0.088769798
H  H828  1  0.22290000  0.96970000  0.71980000  1.0 0.088769798
H  H829  1  0.28020000  0.03030000  0.77710000  1.0 0.088769798
H  H830  1  0.71980000  0.49690000  0.75010000  1.0 0.088769798
H  H831  1  0.74680000  0.96970000  0.24990000  1.0 0.088769798
H  H832  1  0.77710000  0.28020000  0.03030000  1.0 0.088769798
H  H833  1  0.75010000  0.71980000  0.49690000  1.0 0.088769798
H  H834  1  0.24990000  0.74680000  0.96970000  1.0 0.088769798
H  H835  1  0.03030000  0.77710000  0.28020000  1.0 0.088769798
H  H836  1  0.49690000  0.75010000  0.71980000  1.0 0.088769798
H  H837  1  0.96970000  0.24990000  0.74680000  1.0 0.088769798
H  H838  1  0.49690000  0.74680000  0.77710000  1.0 0.088769798
H  H839  1  0.74680000  0.77710000  0.49690000  1.0 0.088769798
H  H840  1  0.77710000  0.49690000  0.74680000  1.0 0.088769798
C  C1  1  0.37818000  0.22422000  0.55616000  1.0 -0.0376148552
C  C2  1  0.55616000  0.37818000  0.22422000  1.0 -0.0376148552
C  C3  1  0.22422000  0.55616000  0.37818000  1.0 -0.0376148552
C  C4  1  0.17798000  0.33194000  0.55616000  1.0 -0.0376148552
C  C5  1  0.82202000  0.37818000  0.15396000  1.0 -0.0376148552
C  C6  1  0.22422000  0.66806000  0.84604000  1.0 -0.0376148552
C  C7  1  0.66806000  0.84604000  0.22422000  1.0 -0.0376148552
C  C8  1  0.37818000  0.15396000  0.82202000  1.0 -0.0376148552
C  C9  1  0.33194000  0.55616000  0.17798000  1.0 -0.0376148552
C  C10  1  0.15396000  0.82202000  0.37818000  1.0 -0.0376148552
C  C11  1  0.84604000  0.22422000  0.66806000  1.0 -0.0376148552
C  C12  1  0.55616000  0.17798000  0.33194000  1.0 -0.0376148552
C  C13  1  0.66806000  0.82202000  0.44384000  1.0 -0.0376148552
C  C14  1  0.33194000  0.77578000  0.15396000  1.0 -0.0376148552
C  C15  1  0.62182000  0.17798000  0.84604000  1.0 -0.0376148552
C  C16  1  0.44384000  0.66806000  0.82202000  1.0 -0.0376148552
C  C17  1  0.15396000  0.33194000  0.77578000  1.0 -0.0376148552
C  C18  1  0.84604000  0.62182000  0.17798000  1.0 -0.0376148552
C  C19  1  0.82202000  0.44384000  0.66806000  1.0 -0.0376148552
C  C20  1  0.77578000  0.15396000  0.33194000  1.0 -0.0376148552
C  C21  1  0.17798000  0.84604000  0.62182000  1.0 -0.0376148552
C  C22  1  0.77578000  0.62182000  0.44384000  1.0 -0.0376148552
C  C23  1  0.62182000  0.44384000  0.77578000  1.0 -0.0376148552
C  C24  1  0.44384000  0.77578000  0.62182000  1.0 -0.0376148552
C  C25  1  0.62182000  0.77578000  0.44384000  1.0 -0.0376148552
C  C26  1  0.44384000  0.62182000  0.77578000  1.0 -0.0376148552
C  C27  1  0.77578000  0.44384000  0.62182000  1.0 -0.0376148552
C  C28  1  0.82202000  0.66806000  0.44384000  1.0 -0.0376148552
C  C29  1  0.17798000  0.62182000  0.84604000  1.0 -0.0376148552
C  C30  1  0.77578000  0.33194000  0.15396000  1.0 -0.0376148552
C  C31  1  0.33194000  0.15396000  0.77578000  1.0 -0.0376148552
C  C32  1  0.62182000  0.84604000  0.17798000  1.0 -0.0376148552
C  C33  1  0.66806000  0.44384000  0.82202000  1.0 -0.0376148552
C  C34  1  0.84604000  0.17798000  0.62182000  1.0 -0.0376148552
C  C35  1  0.15396000  0.77578000  0.33194000  1.0 -0.0376148552
C  C36  1  0.44384000  0.82202000  0.66806000  1.0 -0.0376148552
C  C37  1  0.33194000  0.17798000  0.55616000  1.0 -0.0376148552
C  C38  1  0.66806000  0.22422000  0.84604000  1.0 -0.0376148552
C  C39  1  0.37818000  0.82202000  0.15396000  1.0 -0.0376148552
C  C40  1  0.55616000  0.33194000  0.17798000  1.0 -0.0376148552
C  C41  1  0.84604000  0.66806000  0.22422000  1.0 -0.0376148552
C  C42  1  0.15396000  0.37818000  0.82202000  1.0 -0.0376148552
C  C43  1  0.17798000  0.55616000  0.33194000  1.0 -0.0376148552
C  C44  1  0.22422000  0.84604000  0.66806000  1.0 -0.0376148552
C  C45  1  0.82202000  0.15396000  0.37818000  1.0 -0.0376148552
C  C46  1  0.22422000  0.37818000  0.55616000  1.0 -0.0376148552
C  C47  1  0.37818000  0.55616000  0.22422000  1.0 -0.0376148552
C  C48  1  0.55616000  0.22422000  0.37818000  1.0 -0.0376148552
C  C49  1  0.40460000  0.24990000  0.65450000  1.0 0.0807206376
C  C50  1  0.65450000  0.40460000  0.24990000  1.0 0.0807206376
C  C51  1  0.24990000  0.65450000  0.40460000  1.0 0.0807206376
C  C52  1  0.24990000  0.40460000  0.65450000  1.0 0.0807206376
C  C53  1  0.75010000  0.40460000  0.15470000  1.0 0.0807206376
C  C54  1  0.24990000  0.59540000  0.84530000  1.0 0.0807206376
C  C55  1  0.59540000  0.84530000  0.24990000  1.0 0.0807206376
C  C56  1  0.40460000  0.15470000  0.75010000  1.0 0.0807206376
C  C57  1  0.40460000  0.65450000  0.24990000  1.0 0.0807206376
C  C58  1  0.15470000  0.75010000  0.40460000  1.0 0.0807206376
C  C59  1  0.84530000  0.24990000  0.59540000  1.0 0.0807206376
C  C60  1  0.65450000  0.24990000  0.40460000  1.0 0.0807206376
C  C61  1  0.59540000  0.75010000  0.34550000  1.0 0.0807206376
C  C62  1  0.40460000  0.75010000  0.15470000  1.0 0.0807206376
C  C63  1  0.59540000  0.24990000  0.84530000  1.0 0.0807206376
C  C64  1  0.34550000  0.59540000  0.75010000  1.0 0.0807206376
C  C65  1  0.15470000  0.40460000  0.75010000  1.0 0.0807206376
C  C66  1  0.84530000  0.59540000  0.24990000  1.0 0.0807206376
C  C67  1  0.75010000  0.34550000  0.59540000  1.0 0.0807206376
C  C68  1  0.75010000  0.15470000  0.40460000  1.0 0.0807206376
C  C69  1  0.24990000  0.84530000  0.59540000  1.0 0.0807206376
C  C70  1  0.75010000  0.59540000  0.34550000  1.0 0.0807206376
C  C71  1  0.59540000  0.34550000  0.75010000  1.0 0.0807206376
C  C72  1  0.34550000  0.75010000  0.59540000  1.0 0.0807206376
C  C73  1  0.44060000  0.28760000  0.72820000  1.0 -0.1189951066
C  C74  1  0.72820000  0.44060000  0.28760000  1.0 -0.1189951066
C  C75  1  0.28760000  0.72820000  0.44060000  1.0 -0.1189951066
C  C76  1  0.28760000  0.44060000  0.72820000  1.0 -0.1189951066
C  C77  1  0.71240000  0.44060000  0.15300000  1.0 -0.1189951066
C  C78  1  0.28760000  0.55940000  0.84700000  1.0 -0.1189951066
C  C79  1  0.55940000  0.84700000  0.28760000  1.0 -0.1189951066
C  C80  1  0.44060000  0.15300000  0.71240000  1.0 -0.1189951066
C  C81  1  0.44060000  0.72820000  0.28760000  1.0 -0.1189951066
C  C82  1  0.15300000  0.71240000  0.44060000  1.0 -0.1189951066
C  C83  1  0.84700000  0.28760000  0.55940000  1.0 -0.1189951066
C  C84  1  0.72820000  0.28760000  0.44060000  1.0 -0.1189951066
C  C85  1  0.55940000  0.71240000  0.27180000  1.0 -0.1189951066
C  C86  1  0.44060000  0.71240000  0.15300000  1.0 -0.1189951066
C  C87  1  0.55940000  0.28760000  0.84700000  1.0 -0.1189951066
C  C88  1  0.27180000  0.55940000  0.71240000  1.0 -0.1189951066
C  C89  1  0.15300000  0.44060000  0.71240000  1.0 -0.1189951066
C  C90  1  0.84700000  0.55940000  0.28760000  1.0 -0.1189951066
C  C91  1  0.71240000  0.27180000  0.55940000  1.0 -0.1189951066
C  C92  1  0.71240000  0.15300000  0.44060000  1.0 -0.1189951066
C  C93  1  0.28760000  0.84700000  0.55940000  1.0 -0.1189951066
C  C94  1  0.71240000  0.55940000  0.27180000  1.0 -0.1189951066
C  C95  1  0.55940000  0.27180000  0.71240000  1.0 -0.1189951066
C  C96  1  0.27180000  0.71240000  0.55940000  1.0 -0.1189951066
C  C97  1  0.41790000  0.33490000  0.75280000  1.0 -0.1515322832
C  C98  1  0.75280000  0.41790000  0.33490000  1.0 -0.1515322832
C  C99  1  0.33490000  0.75280000  0.41790000  1.0 -0.1515322832
C  C100  1  0.33490000  0.41790000  0.75280000  1.0 -0.1515322832
C  C101  1  0.66510000  0.41790000  0.08300000  1.0 -0.1515322832
C  C102  1  0.33490000  0.58210000  0.91700000  1.0 -0.1515322832
C  C103  1  0.58210000  0.91700000  0.33490000  1.0 -0.1515322832
C  C104  1  0.41790000  0.08300000  0.66510000  1.0 -0.1515322832
C  C105  1  0.41790000  0.75280000  0.33490000  1.0 -0.1515322832
C  C106  1  0.08300000  0.66510000  0.41790000  1.0 -0.1515322832
C  C107  1  0.91700000  0.33490000  0.58210000  1.0 -0.1515322832
C  C108  1  0.75280000  0.33490000  0.41790000  1.0 -0.1515322832
C  C109  1  0.58210000  0.66510000  0.24720000  1.0 -0.1515322832
C  C110  1  0.41790000  0.66510000  0.08300000  1.0 -0.1515322832
C  C111  1  0.58210000  0.33490000  0.91700000  1.0 -0.1515322832
C  C112  1  0.24720000  0.58210000  0.66510000  1.0 -0.1515322832
C  C113  1  0.08300000  0.41790000  0.66510000  1.0 -0.1515322832
C  C114  1  0.91700000  0.58210000  0.33490000  1.0 -0.1515322832
C  C115  1  0.66510000  0.24720000  0.58210000  1.0 -0.1515322832
C  C116  1  0.66510000  0.08300000  0.41790000  1.0 -0.1515322832
C  C117  1  0.33490000  0.91700000  0.58210000  1.0 -0.1515322832
C  C118  1  0.66510000  0.58210000  0.24720000  1.0 -0.1515322832
C  C119  1  0.58210000  0.24720000  0.66510000  1.0 -0.1515322832
C  C120  1  0.24720000  0.66510000  0.58210000  1.0 -0.1515322832
C  C121  1  0.50607000  0.26571000  0.53892000  1.0 -0.1423235804
C  C122  1  0.53892000  0.50607000  0.26571000  1.0 -0.1423235804
C  C123  1  0.26571000  0.53892000  0.50607000  1.0 -0.1423235804
C  C124  1  0.03285000  0.27321000  0.53892000  1.0 -0.1423235804
C  C125  1  0.96715000  0.50607000  0.24036000  1.0 -0.1423235804
C  C126  1  0.26571000  0.72679000  0.75964000  1.0 -0.1423235804
C  C127  1  0.72679000  0.75964000  0.26571000  1.0 -0.1423235804
C  C128  1  0.50607000  0.24036000  0.96715000  1.0 -0.1423235804
C  C129  1  0.27321000  0.53892000  0.03285000  1.0 -0.1423235804
C  C130  1  0.24036000  0.96715000  0.50607000  1.0 -0.1423235804
C  C131  1  0.75964000  0.26571000  0.72679000  1.0 -0.1423235804
C  C132  1  0.53892000  0.03285000  0.27321000  1.0 -0.1423235804
C  C133  1  0.72679000  0.96715000  0.46108000  1.0 -0.1423235804
C  C134  1  0.27321000  0.73429000  0.24036000  1.0 -0.1423235804
C  C135  1  0.49393000  0.03285000  0.75964000  1.0 -0.1423235804
C  C136  1  0.46108000  0.72679000  0.96715000  1.0 -0.1423235804
C  C137  1  0.24036000  0.27321000  0.73429000  1.0 -0.1423235804
C  C138  1  0.75964000  0.49393000  0.03285000  1.0 -0.1423235804
C  C139  1  0.96715000  0.46108000  0.72679000  1.0 -0.1423235804
C  C140  1  0.73429000  0.24036000  0.27321000  1.0 -0.1423235804
C  C141  1  0.03285000  0.75964000  0.49393000  1.0 -0.1423235804
C  C142  1  0.73429000  0.49393000  0.46108000  1.0 -0.1423235804
C  C143  1  0.49393000  0.46108000  0.73429000  1.0 -0.1423235804
C  C144  1  0.46108000  0.73429000  0.49393000  1.0 -0.1423235804
C  C145  1  0.49393000  0.73429000  0.46108000  1.0 -0.1423235804
C  C146  1  0.46108000  0.49393000  0.73429000  1.0 -0.1423235804
C  C147  1  0.73429000  0.46108000  0.49393000  1.0 -0.1423235804
C  C148  1  0.96715000  0.72679000  0.46108000  1.0 -0.1423235804
C  C149  1  0.03285000  0.49393000  0.75964000  1.0 -0.1423235804
C  C150  1  0.73429000  0.27321000  0.24036000  1.0 -0.1423235804
C  C151  1  0.27321000  0.24036000  0.73429000  1.0 -0.1423235804
C  C152  1  0.49393000  0.75964000  0.03285000  1.0 -0.1423235804
C  C153  1  0.72679000  0.46108000  0.96715000  1.0 -0.1423235804
C  C154  1  0.75964000  0.03285000  0.49393000  1.0 -0.1423235804
C  C155  1  0.24036000  0.73429000  0.27321000  1.0 -0.1423235804
C  C156  1  0.46108000  0.96715000  0.72679000  1.0 -0.1423235804
C  C157  1  0.27321000  0.03285000  0.53892000  1.0 -0.1423235804
C  C158  1  0.72679000  0.26571000  0.75964000  1.0 -0.1423235804
C  C159  1  0.50607000  0.96715000  0.24036000  1.0 -0.1423235804
C  C160  1  0.53892000  0.27321000  0.03285000  1.0 -0.1423235804
C  C161  1  0.75964000  0.72679000  0.26571000  1.0 -0.1423235804
C  C162  1  0.24036000  0.50607000  0.96715000  1.0 -0.1423235804
C  C163  1  0.03285000  0.53892000  0.27321000  1.0 -0.1423235804
C  C164  1  0.26571000  0.75964000  0.72679000  1.0 -0.1423235804
C  C165  1  0.96715000  0.24036000  0.50607000  1.0 -0.1423235804
C  C166  1  0.26571000  0.50607000  0.53892000  1.0 -0.1423235804
C  C167  1  0.50607000  0.53892000  0.26571000  1.0 -0.1423235804
C  C168  1  0.53892000  0.26571000  0.50607000  1.0 -0.1423235804
C  C169  1  0.56124000  0.36260000  0.56124000  1.0 0.1735942102
C  C170  1  0.56124000  0.56124000  0.36260000  1.0 0.1735942102
C  C171  1  0.36260000  0.56124000  0.56124000  1.0 0.1735942102
C  C172  1  0.00000000  0.19864000  0.56124000  1.0 0.1735942102
C  C173  1  0.00000000  0.56124000  0.19864000  1.0 0.1735942102
C  C174  1  0.36260000  0.80136000  0.80136000  1.0 0.1735942102
C  C175  1  0.80136000  0.80136000  0.36260000  1.0 0.1735942102
C  C176  1  0.56124000  0.19864000  0.00000000  1.0 0.1735942102
C  C177  1  0.19864000  0.56124000  0.00000000  1.0 0.1735942102
C  C178  1  0.19864000  0.00000000  0.56124000  1.0 0.1735942102
C  C179  1  0.80136000  0.36260000  0.80136000  1.0 0.1735942102
C  C180  1  0.56124000  0.00000000  0.19864000  1.0 0.1735942102
C  C181  1  0.80136000  0.00000000  0.43876000  1.0 0.1735942102
C  C182  1  0.19864000  0.63740000  0.19864000  1.0 0.1735942102
C  C183  1  0.43876000  0.00000000  0.80136000  1.0 0.1735942102
C  C184  1  0.43876000  0.80136000  0.00000000  1.0 0.1735942102
C  C185  1  0.19864000  0.19864000  0.63740000  1.0 0.1735942102
C  C186  1  0.80136000  0.43876000  0.00000000  1.0 0.1735942102
C  C187  1  0.00000000  0.43876000  0.80136000  1.0 0.1735942102
C  C188  1  0.63740000  0.19864000  0.19864000  1.0 0.1735942102
C  C189  1  0.00000000  0.80136000  0.43876000  1.0 0.1735942102
C  C190  1  0.63740000  0.43876000  0.43876000  1.0 0.1735942102
C  C191  1  0.43876000  0.43876000  0.63740000  1.0 0.1735942102
C  C192  1  0.43876000  0.63740000  0.43876000  1.0 0.1735942102
C  C193  1  0.59140000  0.43540000  0.59140000  1.0 -0.0768507953
C  C194  1  0.59140000  0.59140000  0.43540000  1.0 -0.0768507953
C  C195  1  0.43540000  0.59140000  0.59140000  1.0 -0.0768507953
C  C196  1  0.00000000  0.15600000  0.59140000  1.0 -0.0768507953
C  C197  1  0.00000000  0.59140000  0.15600000  1.0 -0.0768507953
C  C198  1  0.43540000  0.84400000  0.84400000  1.0 -0.0768507953
C  C199  1  0.84400000  0.84400000  0.43540000  1.0 -0.0768507953
C  C200  1  0.59140000  0.15600000  0.00000000  1.0 -0.0768507953
C  C201  1  0.15600000  0.59140000  0.00000000  1.0 -0.0768507953
C  C202  1  0.15600000  0.00000000  0.59140000  1.0 -0.0768507953
C  C203  1  0.84400000  0.43540000  0.84400000  1.0 -0.0768507953
C  C204  1  0.59140000  0.00000000  0.15600000  1.0 -0.0768507953
C  C205  1  0.84400000  0.00000000  0.40860000  1.0 -0.0768507953
C  C206  1  0.15600000  0.56460000  0.15600000  1.0 -0.0768507953
C  C207  1  0.40860000  0.00000000  0.84400000  1.0 -0.0768507953
C  C208  1  0.40860000  0.84400000  0.00000000  1.0 -0.0768507953
C  C209  1  0.15600000  0.15600000  0.56460000  1.0 -0.0768507953
C  C210  1  0.84400000  0.40860000  0.00000000  1.0 -0.0743890965
C  C211  1  0.00000000  0.40860000  0.84400000  1.0 -0.0768507953
C  C212  1  0.56460000  0.15600000  0.15600000  1.0 -0.0768507953
C  C213  1  0.00000000  0.84400000  0.40860000  1.0 -0.0768507953
C  C214  1  0.56460000  0.40860000  0.40860000  1.0 -0.0768507953
C  C215  1  0.40860000  0.40860000  0.56460000  1.0 -0.0768507953
C  C216  1  0.40860000  0.56460000  0.40860000  1.0 -0.0768507953
C  C217  1  0.55090000  0.45440000  0.55090000  1.0 -0.3405458382
C  C218  1  0.55090000  0.55090000  0.45440000  1.0 -0.3405458382
C  C219  1  0.45440000  0.55090000  0.55090000  1.0 -0.3405458382
C  C220  1  0.00000000  0.09650000  0.55090000  1.0 -0.3405458382
C  C221  1  0.00000000  0.55090000  0.09650000  1.0 -0.3405458382
C  C222  1  0.45440000  0.90350000  0.90350000  1.0 -0.3405458382
C  C223  1  0.90350000  0.90350000  0.45440000  1.0 -0.3405458382
C  C224  1  0.55090000  0.09650000  0.00000000  1.0 -0.3405458382
C  C225  1  0.09650000  0.55090000  0.00000000  1.0 -0.3405458382
C  C226  1  0.09650000  0.00000000  0.55090000  1.0 -0.3405458382
C  C227  1  0.90350000  0.45440000  0.90350000  1.0 -0.3405458382
C  C228  1  0.55090000  0.00000000  0.09650000  1.0 -0.3405458382
C  C229  1  0.90350000  0.00000000  0.44910000  1.0 -0.3405458382
C  C230  1  0.09650000  0.54560000  0.09650000  1.0 -0.3405458382
C  C231  1  0.44910000  0.00000000  0.90350000  1.0 -0.3405458382
C  C232  1  0.44910000  0.90350000  0.00000000  1.0 -0.3405458382
C  C233  1  0.09650000  0.09650000  0.54560000  1.0 -0.3405458382
C  C234  1  0.90350000  0.44910000  0.00000000  1.0 -0.3405458382
C  C235  1  0.00000000  0.44910000  0.90350000  1.0 -0.3405458382
C  C236  1  0.54560000  0.09650000  0.09650000  1.0 -0.3405458382
C  C237  1  0.00000000  0.90350000  0.44910000  1.0 -0.3405458382
C  C238  1  0.54560000  0.44910000  0.44910000  1.0 -0.3405458382
C  C239  1  0.44910000  0.44910000  0.54560000  1.0 -0.3405458382
C  C240  1  0.44910000  0.54560000  0.44910000  1.0 -0.3405458382
C  C241  1  0.40835000  0.20686000  0.56849000  1.0 -0.056300202
C  C242  1  0.56849000  0.40835000  0.20686000  1.0 -0.056300202
C  C243  1  0.20686000  0.56849000  0.40835000  1.0 -0.056300202
C  C244  1  0.16014000  0.36163000  0.56849000  1.0 -0.056300202
C  C245  1  0.83986000  0.40835000  0.20149000  1.0 -0.056300202
C  C246  1  0.20686000  0.63837000  0.79851000  1.0 -0.056300202
C  C247  1  0.63837000  0.79851000  0.20686000  1.0 -0.056300202
C  C248  1  0.40835000  0.20149000  0.83986000  1.0 -0.056300202
C  C249  1  0.36163000  0.56849000  0.16014000  1.0 -0.056300202
C  C250  1  0.20149000  0.83986000  0.40835000  1.0 -0.056300202
C  C251  1  0.79851000  0.20686000  0.63837000  1.0 -0.056300202
C  C252  1  0.56849000  0.16014000  0.36163000  1.0 -0.056300202
C  C253  1  0.63837000  0.83986000  0.43151000  1.0 -0.056300202
C  C254  1  0.36163000  0.79314000  0.20149000  1.0 -0.056300202
C  C255  1  0.59165000  0.16014000  0.79851000  1.0 -0.056300202
C  C256  1  0.43151000  0.63837000  0.83986000  1.0 -0.056300202
C  C257  1  0.20149000  0.36163000  0.79314000  1.0 -0.056300202
C  C258  1  0.79851000  0.59165000  0.16014000  1.0 -0.056300202
C  C259  1  0.83986000  0.43151000  0.63837000  1.0 -0.056300202
C  C260  1  0.79314000  0.20149000  0.36163000  1.0 -0.056300202
C  C261  1  0.16014000  0.79851000  0.59165000  1.0 -0.056300202
C  C262  1  0.79314000  0.59165000  0.43151000  1.0 -0.056300202
C  C263  1  0.59165000  0.43151000  0.79314000  1.0 -0.056300202
C  C264  1  0.43151000  0.79314000  0.59165000  1.0 -0.056300202
C  C265  1  0.59165000  0.79314000  0.43151000  1.0 -0.056300202
C  C266  1  0.43151000  0.59165000  0.79314000  1.0 -0.056300202
C  C267  1  0.79314000  0.43151000  0.59165000  1.0 -0.056300202
C  C268  1  0.83986000  0.63837000  0.43151000  1.0 -0.056300202
C  C269  1  0.16014000  0.59165000  0.79851000  1.0 -0.056300202
C  C270  1  0.79314000  0.36163000  0.20149000  1.0 -0.056300202
C  C271  1  0.36163000  0.20149000  0.79314000  1.0 -0.056300202
C  C272  1  0.59165000  0.79851000  0.16014000  1.0 -0.056300202
C  C273  1  0.63837000  0.43151000  0.83986000  1.0 -0.056300202
C  C274  1  0.79851000  0.16014000  0.59165000  1.0 -0.056300202
C  C275  1  0.20149000  0.79314000  0.36163000  1.0 -0.056300202
C  C276  1  0.43151000  0.83986000  0.63837000  1.0 -0.056300202
C  C277  1  0.36163000  0.16014000  0.56849000  1.0 -0.056300202
C  C278  1  0.63837000  0.20686000  0.79851000  1.0 -0.056300202
C  C279  1  0.40835000  0.83986000  0.20149000  1.0 -0.056300202
C  C280  1  0.56849000  0.36163000  0.16014000  1.0 -0.056300202
C  C281  1  0.79851000  0.63837000  0.20686000  1.0 -0.056300202
C  C282  1  0.20149000  0.40835000  0.83986000  1.0 -0.056300202
C  C283  1  0.16014000  0.56849000  0.36163000  1.0 -0.056300202
C  C284  1  0.20686000  0.79851000  0.63837000  1.0 -0.056300202
C  C285  1  0.83986000  0.20149000  0.40835000  1.0 -0.056300202
C  C286  1  0.20686000  0.40835000  0.56849000  1.0 -0.056300202
C  C287  1  0.40835000  0.56849000  0.20686000  1.0 -0.056300202
C  C288  1  0.56849000  0.20686000  0.40835000  1.0 -0.056300202
C  C289  1  0.38684000  0.25450000  0.64134000  1.0 0.1151338852
C  C290  1  0.64134000  0.38684000  0.25450000  1.0 0.1151338852
C  C291  1  0.25450000  0.64134000  0.38684000  1.0 0.1151338852
C  C292  1  0.25450000  0.38684000  0.64134000  1.0 0.1151338852
C  C293  1  0.74550000  0.38684000  0.13234000  1.0 0.1151338852
C  C294  1  0.25450000  0.61316000  0.86766000  1.0 0.1151338852
C  C295  1  0.61316000  0.86766000  0.25450000  1.0 0.1151338852
C  C296  1  0.38684000  0.13234000  0.74550000  1.0 0.1151338852
C  C297  1  0.38684000  0.64134000  0.25450000  1.0 0.1151338852
C  C298  1  0.13234000  0.74550000  0.38684000  1.0 0.1151338852
C  C299  1  0.86766000  0.25450000  0.61316000  1.0 0.1151338852
C  C300  1  0.64134000  0.25450000  0.38684000  1.0 0.1151338852
C  C301  1  0.61316000  0.74550000  0.35866000  1.0 0.1151338852
C  C302  1  0.38684000  0.74550000  0.13234000  1.0 0.1151338852
C  C303  1  0.61316000  0.25450000  0.86766000  1.0 0.1151338852
C  C304  1  0.35866000  0.61316000  0.74550000  1.0 0.1151338852
C  C305  1  0.13234000  0.38684000  0.74550000  1.0 0.1151338852
C  C306  1  0.86766000  0.61316000  0.25450000  1.0 0.1151338852
C  C307  1  0.74550000  0.35866000  0.61316000  1.0 0.1151338852
C  C308  1  0.74550000  0.13234000  0.38684000  1.0 0.1151338852
C  C309  1  0.25450000  0.86766000  0.61316000  1.0 0.1151338852
C  C310  1  0.74550000  0.61316000  0.35866000  1.0 0.1151338852
C  C311  1  0.61316000  0.35866000  0.74550000  1.0 0.1151338852
C  C312  1  0.35866000  0.74550000  0.61316000  1.0 0.1151338852
C  C313  1  0.38860000  0.30550000  0.69410000  1.0 -0.1088673437
C  C314  1  0.69410000  0.38860000  0.30550000  1.0 -0.1088673437
C  C315  1  0.30550000  0.69410000  0.38860000  1.0 -0.1088673437
C  C316  1  0.30550000  0.38860000  0.69410000  1.0 -0.1088673437
C  C317  1  0.69450000  0.38860000  0.08310000  1.0 -0.1088673437
C  C318  1  0.30550000  0.61140000  0.91690000  1.0 -0.1088673437
C  C319  1  0.61140000  0.91690000  0.30550000  1.0 -0.1088673437
C  C320  1  0.38860000  0.08310000  0.69450000  1.0 -0.1088673437
C  C321  1  0.38860000  0.69410000  0.30550000  1.0 -0.1088673437
C  C322  1  0.08310000  0.69450000  0.38860000  1.0 -0.1088673437
C  C323  1  0.91690000  0.30550000  0.61140000  1.0 -0.1088673437
C  C324  1  0.69410000  0.30550000  0.38860000  1.0 -0.1088673437
C  C325  1  0.61140000  0.69450000  0.30590000  1.0 -0.1088673437
C  C326  1  0.38860000  0.69450000  0.08310000  1.0 -0.1088673437
C  C327  1  0.61140000  0.30550000  0.91690000  1.0 -0.1088673437
C  C328  1  0.30590000  0.61140000  0.69450000  1.0 -0.1088673437
C  C329  1  0.08310000  0.38860000  0.69450000  1.0 -0.1088673437
C  C330  1  0.91690000  0.61140000  0.30550000  1.0 -0.1088673437
C  C331  1  0.69450000  0.30590000  0.61140000  1.0 -0.1088673437
C  C332  1  0.69450000  0.08310000  0.38860000  1.0 -0.1088673437
C  C333  1  0.30550000  0.91690000  0.61140000  1.0 -0.1088673437
C  C334  1  0.69450000  0.61140000  0.30590000  1.0 -0.1088673437
C  C335  1  0.61140000  0.30590000  0.69450000  1.0 -0.1088673437
C  C336  1  0.30590000  0.69450000  0.61140000  1.0 -0.1088673437
C  C337  1  0.43740000  0.32350000  0.76090000  1.0 -0.1423235804
C  C338  1  0.76090000  0.43740000  0.32350000  1.0 -0.1423235804
C  C339  1  0.32350000  0.76090000  0.43740000  1.0 -0.1423235804
C  C340  1  0.32350000  0.43740000  0.76090000  1.0 -0.1423235804
C  C341  1  0.67650000  0.43740000  0.11390000  1.0 -0.1423235804
C  C342  1  0.32350000  0.56260000  0.88610000  1.0 -0.1423235804
C  C343  1  0.56260000  0.88610000  0.32350000  1.0 -0.1423235804
C  C344  1  0.43740000  0.11390000  0.67650000  1.0 -0.1423235804
C  C345  1  0.43740000  0.76090000  0.32350000  1.0 -0.1423235804
C  C346  1  0.11390000  0.67650000  0.43740000  1.0 -0.1423235804
C  C347  1  0.88610000  0.32350000  0.56260000  1.0 -0.1423235804
C  C348  1  0.76090000  0.32350000  0.43740000  1.0 -0.1423235804
C  C349  1  0.56260000  0.67650000  0.23910000  1.0 -0.1423235804
C  C350  1  0.43740000  0.67650000  0.11390000  1.0 -0.1423235804
C  C351  1  0.56260000  0.32350000  0.88610000  1.0 -0.1423235804
C  C352  1  0.23910000  0.56260000  0.67650000  1.0 -0.1423235804
C  C353  1  0.11390000  0.43740000  0.67650000  1.0 -0.1423235804
C  C354  1  0.88610000  0.56260000  0.32350000  1.0 -0.1423235804
C  C355  1  0.67650000  0.23910000  0.56260000  1.0 -0.1423235804
C  C356  1  0.67650000  0.11390000  0.43740000  1.0 -0.1423235804
C  C357  1  0.32350000  0.88610000  0.56260000  1.0 -0.1423235804
C  C358  1  0.67650000  0.56260000  0.23910000  1.0 -0.1423235804
C  C359  1  0.56260000  0.23910000  0.67650000  1.0 -0.1423235804
C  C360  1  0.23910000  0.67650000  0.56260000  1.0 -0.1423235804
C  C361  1  0.47595000  0.29933000  0.50920000  1.0 -0.0768507953
C  C362  1  0.50920000  0.47595000  0.29933000  1.0 -0.0768507953
C  C363  1  0.29933000  0.50920000  0.47595000  1.0 -0.0768507953
C  C364  1  0.03325000  0.20987000  0.50920000  1.0 -0.0768507953
C  C365  1  0.96675000  0.47595000  0.17662000  1.0 -0.0768507953
C  C366  1  0.29933000  0.79013000  0.82338000  1.0 -0.0768507953
C  C367  1  0.79013000  0.82338000  0.29933000  1.0 -0.0768507953
C  C368  1  0.47595000  0.17662000  0.96675000  1.0 -0.0768507953
C  C369  1  0.20987000  0.50920000  0.03325000  1.0 -0.0768507953
C  C370  1  0.17662000  0.96675000  0.47595000  1.0 -0.0768507953
C  C371  1  0.82338000  0.29933000  0.79013000  1.0 -0.0768507953
C  C372  1  0.50920000  0.03325000  0.20987000  1.0 -0.0768507953
C  C373  1  0.79013000  0.96675000  0.49080000  1.0 -0.0768507953
C  C374  1  0.20987000  0.70067000  0.17662000  1.0 -0.0768507953
C  C375  1  0.52405000  0.03325000  0.82338000  1.0 -0.0768507953
C  C376  1  0.49080000  0.79013000  0.96675000  1.0 -0.0768507953
C  C377  1  0.17662000  0.20987000  0.70067000  1.0 -0.0768507953
C  C378  1  0.82338000  0.52405000  0.03325000  1.0 -0.0768507953
C  C379  1  0.96675000  0.49080000  0.79013000  1.0 -0.0768507953
C  C380  1  0.70067000  0.17662000  0.20987000  1.0 -0.0768507953
C  C381  1  0.03325000  0.82338000  0.52405000  1.0 -0.0768507953
C  C382  1  0.70067000  0.52405000  0.49080000  1.0 -0.0768507953
C  C383  1  0.52405000  0.49080000  0.70067000  1.0 -0.0768507953
C  C384  1  0.49080000  0.70067000  0.52405000  1.0 -0.0768507953
C  C385  1  0.52405000  0.70067000  0.49080000  1.0 -0.0768507953
C  C386  1  0.49080000  0.52405000  0.70067000  1.0 -0.0768507953
C  C387  1  0.70067000  0.49080000  0.52405000  1.0 -0.0768507953
C  C388  1  0.96675000  0.79013000  0.49080000  1.0 -0.0768507953
C  C389  1  0.03325000  0.52405000  0.82338000  1.0 -0.0768507953
C  C390  1  0.70067000  0.20987000  0.17662000  1.0 -0.0768507953
C  C391  1  0.20987000  0.17662000  0.70067000  1.0 -0.0768507953
C  C392  1  0.52405000  0.82338000  0.03325000  1.0 -0.0768507953
C  C393  1  0.79013000  0.49080000  0.96675000  1.0 -0.0768507953
C  C394  1  0.82338000  0.03325000  0.52405000  1.0 -0.0768507953
C  C395  1  0.17662000  0.70067000  0.20987000  1.0 -0.0768507953
C  C396  1  0.49080000  0.96675000  0.79013000  1.0 -0.0768507953
C  C397  1  0.20987000  0.03325000  0.50920000  1.0 -0.0768507953
C  C398  1  0.79013000  0.29933000  0.82338000  1.0 -0.0768507953
C  C399  1  0.47595000  0.96675000  0.17662000  1.0 -0.0768507953
C  C400  1  0.50920000  0.20987000  0.03325000  1.0 -0.0768507953
C  C401  1  0.82338000  0.79013000  0.29933000  1.0 -0.0768507953
C  C402  1  0.17662000  0.47595000  0.96675000  1.0 -0.0768507953
C  C403  1  0.03325000  0.50920000  0.20987000  1.0 -0.0768507953
C  C404  1  0.29933000  0.82338000  0.79013000  1.0 -0.0768507953
C  C405  1  0.96675000  0.17662000  0.47595000  1.0 -0.0768507953
C  C406  1  0.29933000  0.47595000  0.50920000  1.0 -0.0768507953
C  C407  1  0.47595000  0.50920000  0.29933000  1.0 -0.0768507953
C  C408  1  0.50920000  0.29933000  0.47595000  1.0 -0.0768507953
C  C409  1  0.57800000  0.36440000  0.57800000  1.0 0.130661018
C  C410  1  0.57800000  0.57800000  0.36440000  1.0 0.130661018
C  C411  1  0.36440000  0.57800000  0.57800000  1.0 0.130661018
C  C412  1  0.00000000  0.21360000  0.57800000  1.0 0.130661018
C  C413  1  0.00000000  0.57800000  0.21360000  1.0 0.130661018
C  C414  1  0.36440000  0.78640000  0.78640000  1.0 0.130661018
C  C415  1  0.78640000  0.78640000  0.36440000  1.0 0.130661018
C  C416  1  0.57800000  0.21360000  0.00000000  1.0 0.130661018
C  C417  1  0.21360000  0.57800000  0.00000000  1.0 0.130661018
C  C418  1  0.21360000  0.00000000  0.57800000  1.0 0.130661018
C  C419  1  0.78640000  0.36440000  0.78640000  1.0 0.130661018
C  C420  1  0.57800000  0.00000000  0.21360000  1.0 0.130661018
C  C421  1  0.78640000  0.00000000  0.42200000  1.0 0.130661018
C  C422  1  0.21360000  0.63560000  0.21360000  1.0 0.130661018
C  C423  1  0.42200000  0.00000000  0.78640000  1.0 0.130661018
C  C424  1  0.42200000  0.78640000  0.00000000  1.0 0.130661018
C  C425  1  0.21360000  0.21360000  0.63560000  1.0 0.130661018
C  C426  1  0.78640000  0.42200000  0.00000000  1.0 0.130661018
C  C427  1  0.00000000  0.42200000  0.78640000  1.0 0.130661018
C  C428  1  0.63560000  0.21360000  0.21360000  1.0 0.130661018
C  C429  1  0.00000000  0.78640000  0.42200000  1.0 0.130661018
C  C430  1  0.63560000  0.42200000  0.42200000  1.0 0.130661018
C  C431  1  0.42200000  0.42200000  0.63560000  1.0 0.130661018
C  C432  1  0.42200000  0.63560000  0.42200000  1.0 0.130661018
C  C433  1  0.63910000  0.41240000  0.63910000  1.0 -0.3457923694
C  C434  1  0.63910000  0.63910000  0.41240000  1.0 -0.3457923694
C  C435  1  0.41240000  0.63910000  0.63910000  1.0 -0.3457923694
C  C436  1  0.00000000  0.22670000  0.63910000  1.0 -0.3457923694
C  C437  1  0.00000000  0.63910000  0.22670000  1.0 -0.3457923694
C  C438  1  0.41240000  0.77330000  0.77330000  1.0 -0.3457923694
C  C439  1  0.77330000  0.77330000  0.41240000  1.0 -0.3457923694
C  C440  1  0.63910000  0.22670000  0.00000000  1.0 -0.3457923694
C  C441  1  0.22670000  0.63910000  0.00000000  1.0 -0.3457923694
C  C442  1  0.22670000  0.00000000  0.63910000  1.0 -0.3457923694
C  C443  1  0.77330000  0.41240000  0.77330000  1.0 -0.3457923694
C  C444  1  0.63910000  0.00000000  0.22670000  1.0 -0.3457923694
C  C445  1  0.77330000  0.00000000  0.36090000  1.0 -0.3457923694
C  C446  1  0.22670000  0.58760000  0.22670000  1.0 -0.3457923694
C  C447  1  0.36090000  0.00000000  0.77330000  1.0 -0.3457923694
C  C448  1  0.36090000  0.77330000  0.00000000  1.0 -0.3457923694
C  C449  1  0.22670000  0.22670000  0.58760000  1.0 -0.3457923694
C  C450  1  0.77330000  0.36090000  0.00000000  1.0 -0.3457923694
C  C451  1  0.00000000  0.36090000  0.77330000  1.0 -0.3457923694
C  C452  1  0.58760000  0.22670000  0.22670000  1.0 -0.3457923694
C  C453  1  0.00000000  0.77330000  0.36090000  1.0 -0.3457923694
C  C454  1  0.58760000  0.36090000  0.36090000  1.0 -0.3457923694
C  C455  1  0.36090000  0.36090000  0.58760000  1.0 -0.3457923694
C  C456  1  0.36090000  0.58760000  0.36090000  1.0 -0.3457923694
C  C457  1  0.65550000  0.48020000  0.65550000  1.0 -0.313947823
C  C458  1  0.65550000  0.65550000  0.48020000  1.0 -0.313947823
C  C459  1  0.48020000  0.65550000  0.65550000  1.0 -0.313947823
C  C460  1  0.00000000  0.17530000  0.65550000  1.0 -0.313947823
C  C461  1  0.00000000  0.65550000  0.17530000  1.0 -0.313947823
C  C462  1  0.48020000  0.82470000  0.82470000  1.0 -0.313947823
C  C463  1  0.82470000  0.82470000  0.48020000  1.0 -0.313947823
C  C464  1  0.65550000  0.17530000  0.00000000  1.0 -0.313947823
C  C465  1  0.17530000  0.65550000  0.00000000  1.0 -0.313947823
C  C466  1  0.17530000  0.00000000  0.65550000  1.0 -0.313947823
C  C467  1  0.82470000  0.48020000  0.82470000  1.0 -0.313947823
C  C468  1  0.65550000  0.00000000  0.17530000  1.0 -0.313947823
C  C469  1  0.82470000  0.00000000  0.34450000  1.0 -0.313947823
C  C470  1  0.17530000  0.51980000  0.17530000  1.0 -0.313947823
C  C471  1  0.34450000  0.00000000  0.82470000  1.0 -0.313947823
C  C472  1  0.34450000  0.82470000  0.00000000  1.0 -0.313947823
C  C473  1  0.17530000  0.17530000  0.51980000  1.0 -0.313947823
C  C474  1  0.82470000  0.34450000  0.00000000  1.0 -0.313947823
C  C475  1  0.00000000  0.34450000  0.82470000  1.0 -0.313947823
C  C476  1  0.51980000  0.17530000  0.17530000  1.0 -0.313947823
C  C477  1  0.00000000  0.82470000  0.34450000  1.0 -0.313947823
C  C478  1  0.51980000  0.34450000  0.34450000  1.0 -0.313947823
C  C479  1  0.34450000  0.34450000  0.51980000  1.0 -0.313947823
C  C480  1  0.34450000  0.51980000  0.34450000  1.0 -0.313947823
N  N1  1  0.42433000  0.26896000  0.61683000  1.0 -0.2758794317
N  N2  1  0.61683000  0.42433000  0.26896000  1.0 -0.2758794317
N  N3  1  0.26896000  0.61683000  0.42433000  1.0 -0.2758794317
N  N4  1  0.19250000  0.34787000  0.61683000  1.0 -0.2758794317
N  N5  1  0.80750000  0.42433000  0.15537000  1.0 -0.2758794317
N  N6  1  0.26896000  0.65213000  0.84463000  1.0 -0.2758794317
N  N7  1  0.65213000  0.84463000  0.26896000  1.0 -0.2758794317
N  N8  1  0.42433000  0.15537000  0.80750000  1.0 -0.2758794317
N  N9  1  0.34787000  0.61683000  0.19250000  1.0 -0.2758794317
N  N10  1  0.15537000  0.80750000  0.42433000  1.0 -0.2758794317
N  N11  1  0.84463000  0.26896000  0.65213000  1.0 -0.2758794317
N  N12  1  0.61683000  0.19250000  0.34787000  1.0 -0.2758794317
N  N13  1  0.65213000  0.80750000  0.38317000  1.0 -0.2758794317
N  N14  1  0.34787000  0.73104000  0.15537000  1.0 -0.2758794317
N  N15  1  0.57567000  0.19250000  0.84463000  1.0 -0.2758794317
N  N16  1  0.38317000  0.65213000  0.80750000  1.0 -0.2758794317
N  N17  1  0.15537000  0.34787000  0.73104000  1.0 -0.2758794317
N  N18  1  0.84463000  0.57567000  0.19250000  1.0 -0.2758794317
N  N19  1  0.80750000  0.38317000  0.65213000  1.0 -0.2758794317
N  N20  1  0.73104000  0.15537000  0.34787000  1.0 -0.2758794317
N  N21  1  0.19250000  0.84463000  0.57567000  1.0 -0.2758794317
N  N22  1  0.73104000  0.57567000  0.38317000  1.0 -0.2758794317
N  N23  1  0.57567000  0.38317000  0.73104000  1.0 -0.2758794317
N  N24  1  0.38317000  0.73104000  0.57567000  1.0 -0.2758794317
N  N25  1  0.57567000  0.73104000  0.38317000  1.0 -0.2758794317
N  N26  1  0.38317000  0.57567000  0.73104000  1.0 -0.2758794317
N  N27  1  0.73104000  0.38317000  0.57567000  1.0 -0.2758794317
N  N28  1  0.80750000  0.65213000  0.38317000  1.0 -0.2758794317
N  N29  1  0.19250000  0.57567000  0.84463000  1.0 -0.2758794317
N  N30  1  0.73104000  0.34787000  0.15537000  1.0 -0.2758794317
N  N31  1  0.34787000  0.15537000  0.73104000  1.0 -0.2758794317
N  N32  1  0.57567000  0.84463000  0.19250000  1.0 -0.2758794317
N  N33  1  0.65213000  0.38317000  0.80750000  1.0 -0.2758794317
N  N34  1  0.84463000  0.19250000  0.57567000  1.0 -0.2758794317
N  N35  1  0.15537000  0.73104000  0.34787000  1.0 -0.2758794317
N  N36  1  0.38317000  0.80750000  0.65213000  1.0 -0.2758794317
N  N37  1  0.34787000  0.19250000  0.61683000  1.0 -0.2758794317
N  N38  1  0.65213000  0.26896000  0.84463000  1.0 -0.2758794317
N  N39  1  0.42433000  0.80750000  0.15537000  1.0 -0.2758794317
N  N40  1  0.61683000  0.34787000  0.19250000  1.0 -0.2758794317
N  N41  1  0.84463000  0.65213000  0.26896000  1.0 -0.2758794317
N  N42  1  0.15537000  0.42433000  0.80750000  1.0 -0.2758794317
N  N43  1  0.19250000  0.61683000  0.34787000  1.0 -0.2758794317
N  N44  1  0.26896000  0.84463000  0.65213000  1.0 -0.2758794317
N  N45  1  0.80750000  0.15537000  0.42433000  1.0 -0.2758794317
N  N46  1  0.26896000  0.42433000  0.61683000  1.0 -0.2758794317
N  N47  1  0.42433000  0.61683000  0.26896000  1.0 -0.2758794317
N  N48  1  0.61683000  0.26896000  0.42433000  1.0 -0.2758794317
N  N49  1  0.52173000  0.33409000  0.57580000  1.0 -0.2608041669
N  N50  1  0.57580000  0.52173000  0.33409000  1.0 -0.2608041669
N  N51  1  0.33409000  0.57580000  0.52173000  1.0 -0.2608041669
N  N52  1  0.05407000  0.24171000  0.57580000  1.0 -0.2608041669
N  N53  1  0.94593000  0.52173000  0.18764000  1.0 -0.2608041669
N  N54  1  0.33409000  0.75829000  0.81236000  1.0 -0.2608041669
N  N55  1  0.75829000  0.81236000  0.33409000  1.0 -0.2608041669
N  N56  1  0.52173000  0.18764000  0.94593000  1.0 -0.2608041669
N  N57  1  0.24171000  0.57580000  0.05407000  1.0 -0.2608041669
N  N58  1  0.18764000  0.94593000  0.52173000  1.0 -0.2608041669
N  N59  1  0.81236000  0.33409000  0.75829000  1.0 -0.2608041669
N  N60  1  0.57580000  0.05407000  0.24171000  1.0 -0.2608041669
N  N61  1  0.75829000  0.94593000  0.42420000  1.0 -0.2608041669
N  N62  1  0.24171000  0.66591000  0.18764000  1.0 -0.2608041669
N  N63  1  0.47827000  0.05407000  0.81236000  1.0 -0.2608041669
N  N64  1  0.42420000  0.75829000  0.94593000  1.0 -0.2608041669
N  N65  1  0.18764000  0.24171000  0.66591000  1.0 -0.2608041669
N  N66  1  0.81236000  0.47827000  0.05407000  1.0 -0.2608041669
N  N67  1  0.94593000  0.42420000  0.75829000  1.0 -0.2608041669
N  N68  1  0.66591000  0.18764000  0.24171000  1.0 -0.2608041669
N  N69  1  0.05407000  0.81236000  0.47827000  1.0 -0.2608041669
N  N70  1  0.66591000  0.47827000  0.42420000  1.0 -0.2608041669
N  N71  1  0.47827000  0.42420000  0.66591000  1.0 -0.2608041669
N  N72  1  0.42420000  0.66591000  0.47827000  1.0 -0.2608041669
N  N73  1  0.47827000  0.66591000  0.42420000  1.0 -0.2608041669
N  N74  1  0.42420000  0.47827000  0.66591000  1.0 -0.2608041669
N  N75  1  0.66591000  0.42420000  0.47827000  1.0 -0.2608041669
N  N76  1  0.94593000  0.75829000  0.42420000  1.0 -0.2608041669
N  N77  1  0.05407000  0.47827000  0.81236000  1.0 -0.2608041669
N  N78  1  0.66591000  0.24171000  0.18764000  1.0 -0.2608041669
N  N79  1  0.24171000  0.18764000  0.66591000  1.0 -0.2608041669
N  N80  1  0.47827000  0.81236000  0.05407000  1.0 -0.2608041669
N  N81  1  0.75829000  0.42420000  0.94593000  1.0 -0.2608041669
N  N82  1  0.81236000  0.05407000  0.47827000  1.0 -0.2608041669
N  N83  1  0.18764000  0.66591000  0.24171000  1.0 -0.2608041669
N  N84  1  0.42420000  0.94593000  0.75829000  1.0 -0.2608041669
N  N85  1  0.24171000  0.05407000  0.57580000  1.0 -0.2608041669
N  N86  1  0.75829000  0.33409000  0.81236000  1.0 -0.2608041669
N  N87  1  0.52173000  0.94593000  0.18764000  1.0 -0.2608041669
N  N88  1  0.57580000  0.24171000  0.05407000  1.0 -0.2608041669
N  N89  1  0.81236000  0.75829000  0.33409000  1.0 -0.2608041669
N  N90  1  0.18764000  0.52173000  0.94593000  1.0 -0.2608041669
N  N91  1  0.05407000  0.57580000  0.24171000  1.0 -0.2608041669
N  N92  1  0.33409000  0.81236000  0.75829000  1.0 -0.2608041669
N  N93  1  0.94593000  0.18764000  0.52173000  1.0 -0.2608041669
N  N94  1  0.33409000  0.52173000  0.57580000  1.0 -0.2608041669
N  N95  1  0.52173000  0.57580000  0.33409000  1.0 -0.2608041669
N  N96  1  0.57580000  0.33409000  0.52173000  1.0 -0.2608041669
O  O1  1  0.73820000  0.47640000  0.73820000  1.0 -0.1007192348
O  O2  1  0.73820000  0.73820000  0.47640000  1.0 -0.1007192348
O  O3  1  0.47640000  0.73820000  0.73820000  1.0 -0.1007192348
O  O4  1  0.00000000  0.26180000  0.73820000  1.0 -0.1007192348
O  O5  1  0.00000000  0.73820000  0.26180000  1.0 -0.1007192348
O  O6  1  0.73820000  0.26180000  0.00000000  1.0 -0.1007192348
O  O7  1  0.26180000  0.73820000  0.00000000  1.0 -0.1007192348
O  O8  1  0.26180000  0.00000000  0.73820000  1.0 -0.1007192348
O  O9  1  0.73820000  0.00000000  0.26180000  1.0 -0.1007192348
O  O10  1  0.26180000  0.52360000  0.26180000  1.0 -0.1007192348
O  O11  1  0.26180000  0.26180000  0.52360000  1.0 -0.1007192348
O  O12  1  0.52360000  0.26180000  0.26180000  1.0 -0.1007192348
O  O13  1  0.75900000  0.52200000  0.71700000  1.0 -0.1189951066
O  O14  1  0.71700000  0.75900000  0.52200000  1.0 -0.1189951066
O  O15  1  0.52200000  0.71700000  0.75900000  1.0 -0.1189951066
O  O16  1  0.95800000  0.19500000  0.71700000  1.0 -0.1189951066
O  O17  1  0.04200000  0.75900000  0.23700000  1.0 -0.1189951066
O  O18  1  0.52200000  0.80500000  0.76300000  1.0 -0.1189951066
O  O19  1  0.80500000  0.76300000  0.52200000  1.0 -0.1189951066
O  O20  1  0.75900000  0.23700000  0.04200000  1.0 -0.1189951066
O  O21  1  0.19500000  0.71700000  0.95800000  1.0 -0.1189951066
O  O22  1  0.23700000  0.04200000  0.75900000  1.0 -0.1189951066
O  O23  1  0.76300000  0.52200000  0.80500000  1.0 -0.1189951066
O  O24  1  0.71700000  0.95800000  0.19500000  1.0 -0.1189951066
O  O25  1  0.80500000  0.04200000  0.28300000  1.0 -0.1189951066
O  O26  1  0.19500000  0.47800000  0.23700000  1.0 -0.1189951066
O  O27  1  0.24100000  0.95800000  0.76300000  1.0 -0.1189951066
O  O28  1  0.28300000  0.80500000  0.04200000  1.0 -0.1189951066
O  O29  1  0.23700000  0.19500000  0.47800000  1.0 -0.1189951066
O  O30  1  0.76300000  0.24100000  0.95800000  1.0 -0.1189951066
O  O31  1  0.04200000  0.28300000  0.80500000  1.0 -0.1189951066
O  O32  1  0.47800000  0.23700000  0.19500000  1.0 -0.1189951066
O  O33  1  0.95800000  0.76300000  0.24100000  1.0 -0.1189951066
O  O34  1  0.47800000  0.24100000  0.28300000  1.0 -0.1189951066
O  O35  1  0.24100000  0.28300000  0.47800000  1.0 -0.1189951066
O  O36  1  0.28300000  0.47800000  0.24100000  1.0 -0.1189951066
O  O37  1  0.24100000  0.47800000  0.28300000  1.0 -0.1189951066
O  O38  1  0.28300000  0.24100000  0.47800000  1.0 -0.1189951066
O  O39  1  0.47800000  0.28300000  0.24100000  1.0 -0.1189951066
O  O40  1  0.04200000  0.80500000  0.28300000  1.0 -0.1189951066
O  O41  1  0.95800000  0.24100000  0.76300000  1.0 -0.1189951066
O  O42  1  0.47800000  0.19500000  0.23700000  1.0 -0.1189951066
O  O43  1  0.19500000  0.23700000  0.47800000  1.0 -0.1189951066
O  O44  1  0.24100000  0.76300000  0.95800000  1.0 -0.1189951066
O  O45  1  0.80500000  0.28300000  0.04200000  1.0 -0.1189951066
O  O46  1  0.76300000  0.95800000  0.24100000  1.0 -0.1189951066
O  O47  1  0.23700000  0.47800000  0.19500000  1.0 -0.1189951066
O  O48  1  0.28300000  0.04200000  0.80500000  1.0 -0.1189951066
O  O49  1  0.19500000  0.95800000  0.71700000  1.0 -0.1189951066
O  O50  1  0.80500000  0.52200000  0.76300000  1.0 -0.1189951066
O  O51  1  0.75900000  0.04200000  0.23700000  1.0 -0.1189951066
O  O52  1  0.71700000  0.19500000  0.95800000  1.0 -0.1189951066
O  O53  1  0.76300000  0.80500000  0.52200000  1.0 -0.1189951066
O  O54  1  0.23700000  0.75900000  0.04200000  1.0 -0.1189951066
O  O55  1  0.95800000  0.71700000  0.19500000  1.0 -0.1189951066
O  O56  1  0.52200000  0.76300000  0.80500000  1.0 -0.1189951066
O  O57  1  0.04200000  0.23700000  0.75900000  1.0 -0.1189951066
O  O58  1  0.52200000  0.75900000  0.71700000  1.0 -0.1189951066
O  O59  1  0.75900000  0.71700000  0.52200000  1.0 -0.1189951066
O  O60  1  0.71700000  0.52200000  0.75900000  1.0 -0.1189951066
