# DDEC6 charges by PACMAN v1.1 (https://github.com/mtap-research/PACMAN-charge/)
data_MECWIB_ASR_pacman
_symmetry_space_group_name_H-M   'P 1'
_cell_length_a   22.97650000
_cell_length_b   22.97650000
_cell_length_c   22.97650000
_cell_angle_alpha   109.47100000
_cell_angle_beta   109.47100000
_cell_angle_gamma   109.47100000
_symmetry_Int_Tables_number   1
_chemical_formula_structural   ZnH24(C3N)4
_chemical_formula_sum   'Zn24 H576 C288 N96'
_cell_volume   9337.55724595
_cell_formula_units_Z   24
loop_
 _symmetry_equiv_pos_site_id
 _symmetry_equiv_pos_as_xyz
  1  'x, y, z'
loop_
 _atom_site_type_symbol
 _atom_site_label
 _atom_site_symmetry_multiplicity
 _atom_site_fract_x
 _atom_site_fract_y
 _atom_site_fract_z
 _atom_site_occupancy
 _atom_site_charge
Zn  Zn1  1  0.92736000  0.21368000  0.96368000  1.0 0.6699758658
Zn  Zn2  1  0.96368000  0.92736000  0.21368000  1.0 0.6699758658
Zn  Zn3  1  0.21368000  0.96368000  0.92736000  1.0 0.6699758658
Zn  Zn4  1  0.53632000  0.75000000  0.96368000  1.0 0.6699758658
Zn  Zn5  1  0.21368000  0.75000000  0.28632000  1.0 0.6699758658
Zn  Zn6  1  0.75000000  0.28632000  0.21368000  1.0 0.6699758658
Zn  Zn7  1  0.75000000  0.96368000  0.53632000  1.0 0.6699758658
Zn  Zn8  1  0.28632000  0.21368000  0.75000000  1.0 0.6699758658
Zn  Zn9  1  0.96368000  0.53632000  0.75000000  1.0 0.6699758658
Zn  Zn10  1  0.28632000  0.57264000  0.53632000  1.0 0.6699758658
Zn  Zn11  1  0.57264000  0.53632000  0.28632000  1.0 0.6699758658
Zn  Zn12  1  0.53632000  0.28632000  0.57264000  1.0 0.6699758658
Zn  Zn13  1  0.07264000  0.78632000  0.03632000  1.0 0.6699758658
Zn  Zn14  1  0.03632000  0.07264000  0.78632000  1.0 0.6699758658
Zn  Zn15  1  0.78632000  0.03632000  0.07264000  1.0 0.6699758658
Zn  Zn16  1  0.46368000  0.25000000  0.03632000  1.0 0.6699758658
Zn  Zn17  1  0.78632000  0.25000000  0.71368000  1.0 0.6699758658
Zn  Zn18  1  0.25000000  0.71368000  0.78632000  1.0 0.6699758658
Zn  Zn19  1  0.25000000  0.03632000  0.46368000  1.0 0.6699758658
Zn  Zn20  1  0.71368000  0.78632000  0.25000000  1.0 0.6699758658
Zn  Zn21  1  0.03632000  0.46368000  0.25000000  1.0 0.6699758658
Zn  Zn22  1  0.71368000  0.42736000  0.46368000  1.0 0.6699758658
Zn  Zn23  1  0.42736000  0.46368000  0.71368000  1.0 0.6699758658
Zn  Zn24  1  0.46368000  0.71368000  0.42736000  1.0 0.6699758658
H  H1  1  0.76920000  0.07930000  0.86890000  1.0 0.1367923476
H  H2  1  0.86890000  0.76920000  0.07930000  1.0 0.1367923476
H  H3  1  0.07930000  0.86890000  0.76920000  1.0 0.1367923476
H  H4  1  0.59970000  0.78960000  0.86890000  1.0 0.1367923476
H  H5  1  0.90030000  0.76920000  0.18990000  1.0 0.1367923476
H  H6  1  0.07930000  0.71040000  0.31010000  1.0 0.1367923476
H  H7  1  0.71040000  0.31010000  0.07930000  1.0 0.1367923476
H  H8  1  0.76920000  0.18990000  0.90030000  1.0 0.1367923476
H  H9  1  0.78960000  0.86890000  0.59970000  1.0 0.1367923476
H  H10  1  0.18990000  0.90030000  0.76920000  1.0 0.1367923476
H  H11  1  0.31010000  0.07930000  0.71040000  1.0 0.1367923476
H  H12  1  0.86890000  0.59970000  0.78960000  1.0 0.1367923476
H  H13  1  0.42070000  0.73080000  0.63110000  1.0 0.1367923476
H  H14  1  0.73080000  0.63110000  0.42070000  1.0 0.1367923476
H  H15  1  0.63110000  0.42070000  0.73080000  1.0 0.1367923476
H  H16  1  0.71040000  0.90030000  0.63110000  1.0 0.1367923476
H  H17  1  0.78960000  0.42070000  0.18990000  1.0 0.1367923476
H  H18  1  0.73080000  0.59970000  0.31010000  1.0 0.1367923476
H  H19  1  0.63110000  0.71040000  0.90030000  1.0 0.1367923476
H  H20  1  0.18990000  0.78960000  0.42070000  1.0 0.1367923476
H  H21  1  0.31010000  0.73080000  0.59970000  1.0 0.1367923476
H  H22  1  0.90030000  0.63110000  0.71040000  1.0 0.1367923476
H  H23  1  0.42070000  0.18990000  0.78960000  1.0 0.1367923476
H  H24  1  0.59970000  0.31010000  0.73080000  1.0 0.1367923476
H  H25  1  0.23080000  0.92070000  0.13110000  1.0 0.1367923476
H  H26  1  0.13110000  0.23080000  0.92070000  1.0 0.1367923476
H  H27  1  0.92070000  0.13110000  0.23080000  1.0 0.1367923476
H  H28  1  0.40030000  0.21040000  0.13110000  1.0 0.1367923476
H  H29  1  0.09970000  0.23080000  0.81010000  1.0 0.1367923476
H  H30  1  0.92070000  0.28960000  0.68990000  1.0 0.1367923476
H  H31  1  0.28960000  0.68990000  0.92070000  1.0 0.1367923476
H  H32  1  0.23080000  0.81010000  0.09970000  1.0 0.1367923476
H  H33  1  0.21040000  0.13110000  0.40030000  1.0 0.1367923476
H  H34  1  0.81010000  0.09970000  0.23080000  1.0 0.1367923476
H  H35  1  0.68990000  0.92070000  0.28960000  1.0 0.1367923476
H  H36  1  0.13110000  0.40030000  0.21040000  1.0 0.1367923476
H  H37  1  0.57930000  0.26920000  0.36890000  1.0 0.1367923476
H  H38  1  0.26920000  0.36890000  0.57930000  1.0 0.1367923476
H  H39  1  0.36890000  0.57930000  0.26920000  1.0 0.1367923476
H  H40  1  0.28960000  0.09970000  0.36890000  1.0 0.1367923476
H  H41  1  0.21040000  0.57930000  0.81010000  1.0 0.1367923476
H  H42  1  0.26920000  0.40030000  0.68990000  1.0 0.1367923476
H  H43  1  0.36890000  0.28960000  0.09970000  1.0 0.1367923476
H  H44  1  0.81010000  0.21040000  0.57930000  1.0 0.1367923476
H  H45  1  0.68990000  0.26920000  0.40030000  1.0 0.1367923476
H  H46  1  0.09970000  0.36890000  0.28960000  1.0 0.1367923476
H  H47  1  0.57930000  0.81010000  0.21040000  1.0 0.1367923476
H  H48  1  0.40030000  0.68990000  0.26920000  1.0 0.1367923476
H  H49  1  0.71080000  0.00920000  0.91420000  1.0 0.1332217904
H  H50  1  0.91420000  0.71080000  0.00920000  1.0 0.1332217904
H  H51  1  0.00920000  0.91420000  0.71080000  1.0 0.1332217904
H  H52  1  0.70340000  0.90500000  0.91420000  1.0 0.1332217904
H  H53  1  0.79660000  0.71080000  0.20160000  1.0 0.1332217904
H  H54  1  0.00920000  0.59500000  0.29840000  1.0 0.1332217904
H  H55  1  0.59500000  0.29840000  0.00920000  1.0 0.1332217904
H  H56  1  0.71080000  0.20160000  0.79660000  1.0 0.1332217904
H  H57  1  0.90500000  0.91420000  0.70340000  1.0 0.1332217904
H  H58  1  0.20160000  0.79660000  0.71080000  1.0 0.1332217904
H  H59  1  0.29840000  0.00920000  0.59500000  1.0 0.1332217904
H  H60  1  0.91420000  0.70340000  0.90500000  1.0 0.1332217904
H  H61  1  0.49080000  0.78920000  0.58580000  1.0 0.1332217904
H  H62  1  0.78920000  0.58580000  0.49080000  1.0 0.1332217904
H  H63  1  0.58580000  0.49080000  0.78920000  1.0 0.1332217904
H  H64  1  0.59500000  0.79660000  0.58580000  1.0 0.1332217904
H  H65  1  0.90500000  0.49080000  0.20160000  1.0 0.1332217904
H  H66  1  0.78920000  0.70340000  0.29840000  1.0 0.1332217904
H  H67  1  0.58580000  0.59500000  0.79660000  1.0 0.1332217904
H  H68  1  0.20160000  0.90500000  0.49080000  1.0 0.1332217904
H  H69  1  0.29840000  0.78920000  0.70340000  1.0 0.1332217904
H  H70  1  0.79660000  0.58580000  0.59500000  1.0 0.1332217904
H  H71  1  0.49080000  0.20160000  0.90500000  1.0 0.1332217904
H  H72  1  0.70340000  0.29840000  0.78920000  1.0 0.1332217904
H  H73  1  0.28920000  0.99080000  0.08580000  1.0 0.1332217904
H  H74  1  0.08580000  0.28920000  0.99080000  1.0 0.1332217904
H  H75  1  0.99080000  0.08580000  0.28920000  1.0 0.1332217904
H  H76  1  0.29660000  0.09500000  0.08580000  1.0 0.1332217904
H  H77  1  0.20340000  0.28920000  0.79840000  1.0 0.1332217904
H  H78  1  0.99080000  0.40500000  0.70160000  1.0 0.1332217904
H  H79  1  0.40500000  0.70160000  0.99080000  1.0 0.1332217904
H  H80  1  0.28920000  0.79840000  0.20340000  1.0 0.1332217904
H  H81  1  0.09500000  0.08580000  0.29660000  1.0 0.1332217904
H  H82  1  0.79840000  0.20340000  0.28920000  1.0 0.1332217904
H  H83  1  0.70160000  0.99080000  0.40500000  1.0 0.1332217904
H  H84  1  0.08580000  0.29660000  0.09500000  1.0 0.1332217904
H  H85  1  0.50920000  0.21080000  0.41420000  1.0 0.1332217904
H  H86  1  0.21080000  0.41420000  0.50920000  1.0 0.1332217904
H  H87  1  0.41420000  0.50920000  0.21080000  1.0 0.1332217904
H  H88  1  0.40500000  0.20340000  0.41420000  1.0 0.1332217904
H  H89  1  0.09500000  0.50920000  0.79840000  1.0 0.1332217904
H  H90  1  0.21080000  0.29660000  0.70160000  1.0 0.1332217904
H  H91  1  0.41420000  0.40500000  0.20340000  1.0 0.1332217904
H  H92  1  0.79840000  0.09500000  0.50920000  1.0 0.1332217904
H  H93  1  0.70160000  0.21080000  0.29660000  1.0 0.1332217904
H  H94  1  0.20340000  0.41420000  0.40500000  1.0 0.1332217904
H  H95  1  0.50920000  0.79840000  0.09500000  1.0 0.1332217904
H  H96  1  0.29660000  0.70160000  0.21080000  1.0 0.1332217904
H  H97  1  0.94490000  0.12360000  0.10210000  1.0 0.0538796387
H  H98  1  0.10210000  0.94490000  0.12360000  1.0 0.0538796387
H  H99  1  0.12360000  0.10210000  0.94490000  1.0 0.0538796387
H  H100  1  0.65720000  0.97850000  0.10210000  1.0 0.0538796387
H  H101  1  0.84280000  0.94490000  0.32130000  1.0 0.0538796387
H  H102  1  0.12360000  0.52150000  0.17870000  1.0 0.0538796387
H  H103  1  0.52150000  0.17870000  0.12360000  1.0 0.0538796387
H  H104  1  0.94490000  0.32130000  0.84280000  1.0 0.0538796387
H  H105  1  0.97850000  0.10210000  0.65720000  1.0 0.0538796387
H  H106  1  0.32130000  0.84280000  0.94490000  1.0 0.0538796387
H  H107  1  0.17870000  0.12360000  0.52150000  1.0 0.0538796387
H  H108  1  0.10210000  0.65720000  0.97850000  1.0 0.0538796387
H  H109  1  0.37640000  0.55510000  0.39790000  1.0 0.0538796387
H  H110  1  0.55510000  0.39790000  0.37640000  1.0 0.0538796387
H  H111  1  0.39790000  0.37640000  0.55510000  1.0 0.0538796387
H  H112  1  0.52150000  0.84280000  0.39790000  1.0 0.0538796387
H  H113  1  0.97850000  0.37640000  0.32130000  1.0 0.0538796387
H  H114  1  0.55510000  0.65720000  0.17870000  1.0 0.0538796387
H  H115  1  0.39790000  0.52150000  0.84280000  1.0 0.0538796387
H  H116  1  0.32130000  0.97850000  0.37640000  1.0 0.0538796387
H  H117  1  0.17870000  0.55510000  0.65720000  1.0 0.0538796387
H  H118  1  0.84280000  0.39790000  0.52150000  1.0 0.0538796387
H  H119  1  0.37640000  0.32130000  0.97850000  1.0 0.0538796387
H  H120  1  0.65720000  0.17870000  0.55510000  1.0 0.0538796387
H  H121  1  0.05510000  0.87640000  0.89790000  1.0 0.0538796387
H  H122  1  0.89790000  0.05510000  0.87640000  1.0 0.0538796387
H  H123  1  0.87640000  0.89790000  0.05510000  1.0 0.0538796387
H  H124  1  0.34280000  0.02150000  0.89790000  1.0 0.0538796387
H  H125  1  0.15720000  0.05510000  0.67870000  1.0 0.0538796387
H  H126  1  0.87640000  0.47850000  0.82130000  1.0 0.0538796387
H  H127  1  0.47850000  0.82130000  0.87640000  1.0 0.0538796387
H  H128  1  0.05510000  0.67870000  0.15720000  1.0 0.0538796387
H  H129  1  0.02150000  0.89790000  0.34280000  1.0 0.0538796387
H  H130  1  0.67870000  0.15720000  0.05510000  1.0 0.0538796387
H  H131  1  0.82130000  0.87640000  0.47850000  1.0 0.0538796387
H  H132  1  0.89790000  0.34280000  0.02150000  1.0 0.0538796387
H  H133  1  0.62360000  0.44490000  0.60210000  1.0 0.0538796387
H  H134  1  0.44490000  0.60210000  0.62360000  1.0 0.0538796387
H  H135  1  0.60210000  0.62360000  0.44490000  1.0 0.0538796387
H  H136  1  0.47850000  0.15720000  0.60210000  1.0 0.0538796387
H  H137  1  0.02150000  0.62360000  0.67870000  1.0 0.0538796387
H  H138  1  0.44490000  0.34280000  0.82130000  1.0 0.0538796387
H  H139  1  0.60210000  0.47850000  0.15720000  1.0 0.0538796387
H  H140  1  0.67870000  0.02150000  0.62360000  1.0 0.0538796387
H  H141  1  0.82130000  0.44490000  0.34280000  1.0 0.0538796387
H  H142  1  0.15720000  0.60210000  0.47850000  1.0 0.0538796387
H  H143  1  0.62360000  0.67870000  0.02150000  1.0 0.0538796387
H  H144  1  0.34280000  0.82130000  0.44490000  1.0 0.0538796387
H  H145  1  0.97690000  0.18040000  0.08210000  1.0 0.0538796387
H  H146  1  0.08210000  0.97690000  0.18040000  1.0 0.0538796387
H  H147  1  0.18040000  0.08210000  0.97690000  1.0 0.0538796387
H  H148  1  0.60520000  0.90170000  0.08210000  1.0 0.0538796387
H  H149  1  0.89480000  0.97690000  0.29650000  1.0 0.0538796387
H  H150  1  0.18040000  0.59830000  0.20350000  1.0 0.0538796387
H  H151  1  0.59830000  0.20350000  0.18040000  1.0 0.0538796387
H  H152  1  0.97690000  0.29650000  0.89480000  1.0 0.0538796387
H  H153  1  0.90170000  0.08210000  0.60520000  1.0 0.0538796387
H  H154  1  0.29650000  0.89480000  0.97690000  1.0 0.0538796387
H  H155  1  0.20350000  0.18040000  0.59830000  1.0 0.0538796387
H  H156  1  0.08210000  0.60520000  0.90170000  1.0 0.0538796387
H  H157  1  0.31960000  0.52310000  0.41790000  1.0 0.0538796387
H  H158  1  0.52310000  0.41790000  0.31960000  1.0 0.0538796387
H  H159  1  0.41790000  0.31960000  0.52310000  1.0 0.0538796387
H  H160  1  0.59830000  0.89480000  0.41790000  1.0 0.0538796387
H  H161  1  0.90170000  0.31960000  0.29650000  1.0 0.0538796387
H  H162  1  0.52310000  0.60520000  0.20350000  1.0 0.0538796387
H  H163  1  0.41790000  0.59830000  0.89480000  1.0 0.0538796387
H  H164  1  0.29650000  0.90170000  0.31960000  1.0 0.0538796387
H  H165  1  0.20350000  0.52310000  0.60520000  1.0 0.0538796387
H  H166  1  0.89480000  0.41790000  0.59830000  1.0 0.0538796387
H  H167  1  0.31960000  0.29650000  0.90170000  1.0 0.0538796387
H  H168  1  0.60520000  0.20350000  0.52310000  1.0 0.0538796387
H  H169  1  0.02310000  0.81960000  0.91790000  1.0 0.0538796387
H  H170  1  0.91790000  0.02310000  0.81960000  1.0 0.0538796387
H  H171  1  0.81960000  0.91790000  0.02310000  1.0 0.0538796387
H  H172  1  0.39480000  0.09830000  0.91790000  1.0 0.0538796387
H  H173  1  0.10520000  0.02310000  0.70350000  1.0 0.0538796387
H  H174  1  0.81960000  0.40170000  0.79650000  1.0 0.0538796387
H  H175  1  0.40170000  0.79650000  0.81960000  1.0 0.0538796387
H  H176  1  0.02310000  0.70350000  0.10520000  1.0 0.0538796387
H  H177  1  0.09830000  0.91790000  0.39480000  1.0 0.0538796387
H  H178  1  0.70350000  0.10520000  0.02310000  1.0 0.0538796387
H  H179  1  0.79650000  0.81960000  0.40170000  1.0 0.0538796387
H  H180  1  0.91790000  0.39480000  0.09830000  1.0 0.0538796387
H  H181  1  0.68040000  0.47690000  0.58210000  1.0 0.0538796387
H  H182  1  0.47690000  0.58210000  0.68040000  1.0 0.0538796387
H  H183  1  0.58210000  0.68040000  0.47690000  1.0 0.0538796387
H  H184  1  0.40170000  0.10520000  0.58210000  1.0 0.0538796387
H  H185  1  0.09830000  0.68040000  0.70350000  1.0 0.0538796387
H  H186  1  0.47690000  0.39480000  0.79650000  1.0 0.0538796387
H  H187  1  0.58210000  0.40170000  0.10520000  1.0 0.0538796387
H  H188  1  0.70350000  0.09830000  0.68040000  1.0 0.0538796387
H  H189  1  0.79650000  0.47690000  0.39480000  1.0 0.0538796387
H  H190  1  0.10520000  0.58210000  0.40170000  1.0 0.0538796387
H  H191  1  0.68040000  0.70350000  0.09830000  1.0 0.0538796387
H  H192  1  0.39480000  0.79650000  0.47690000  1.0 0.0538796387
H  H193  1  0.99200000  0.23620000  0.19400000  1.0 0.0866478689
H  H194  1  0.19400000  0.99200000  0.23620000  1.0 0.0866478689
H  H195  1  0.23620000  0.19400000  0.99200000  1.0 0.0866478689
H  H196  1  0.70200000  0.95780000  0.19400000  1.0 0.0866478689
H  H197  1  0.79800000  0.99200000  0.25580000  1.0 0.0866478689
H  H198  1  0.23620000  0.54220000  0.24420000  1.0 0.0866478689
H  H199  1  0.54220000  0.24420000  0.23620000  1.0 0.0866478689
H  H200  1  0.99200000  0.25580000  0.79800000  1.0 0.0866478689
H  H201  1  0.95780000  0.19400000  0.70200000  1.0 0.0866478689
H  H202  1  0.25580000  0.79800000  0.99200000  1.0 0.0866478689
H  H203  1  0.24420000  0.23620000  0.54220000  1.0 0.0866478689
H  H204  1  0.19400000  0.70200000  0.95780000  1.0 0.0866478689
H  H205  1  0.26380000  0.50800000  0.30600000  1.0 0.0866478689
H  H206  1  0.50800000  0.30600000  0.26380000  1.0 0.0866478689
H  H207  1  0.30600000  0.26380000  0.50800000  1.0 0.0866478689
H  H208  1  0.54220000  0.79800000  0.30600000  1.0 0.0866478689
H  H209  1  0.95780000  0.26380000  0.25580000  1.0 0.0866478689
H  H210  1  0.50800000  0.70200000  0.24420000  1.0 0.0866478689
H  H211  1  0.30600000  0.54220000  0.79800000  1.0 0.0866478689
H  H212  1  0.25580000  0.95780000  0.26380000  1.0 0.0866478689
H  H213  1  0.24420000  0.50800000  0.70200000  1.0 0.0866478689
H  H214  1  0.79800000  0.30600000  0.54220000  1.0 0.0866478689
H  H215  1  0.26380000  0.25580000  0.95780000  1.0 0.0866478689
H  H216  1  0.70200000  0.24420000  0.50800000  1.0 0.0866478689
H  H217  1  0.00800000  0.76380000  0.80600000  1.0 0.0866478689
H  H218  1  0.80600000  0.00800000  0.76380000  1.0 0.0866478689
H  H219  1  0.76380000  0.80600000  0.00800000  1.0 0.0866478689
H  H220  1  0.29800000  0.04220000  0.80600000  1.0 0.0866478689
H  H221  1  0.20200000  0.00800000  0.74420000  1.0 0.0866478689
H  H222  1  0.76380000  0.45780000  0.75580000  1.0 0.0866478689
H  H223  1  0.45780000  0.75580000  0.76380000  1.0 0.0866478689
H  H224  1  0.00800000  0.74420000  0.20200000  1.0 0.0866478689
H  H225  1  0.04220000  0.80600000  0.29800000  1.0 0.0866478689
H  H226  1  0.74420000  0.20200000  0.00800000  1.0 0.0866478689
H  H227  1  0.75580000  0.76380000  0.45780000  1.0 0.0866478689
H  H228  1  0.80600000  0.29800000  0.04220000  1.0 0.0866478689
H  H229  1  0.73620000  0.49200000  0.69400000  1.0 0.0866478689
H  H230  1  0.49200000  0.69400000  0.73620000  1.0 0.0866478689
H  H231  1  0.69400000  0.73620000  0.49200000  1.0 0.0866478689
H  H232  1  0.45780000  0.20200000  0.69400000  1.0 0.0866478689
H  H233  1  0.04220000  0.73620000  0.74420000  1.0 0.0866478689
H  H234  1  0.49200000  0.29800000  0.75580000  1.0 0.0866478689
H  H235  1  0.69400000  0.45780000  0.20200000  1.0 0.0866478689
H  H236  1  0.74420000  0.04220000  0.73620000  1.0 0.0866478689
H  H237  1  0.75580000  0.49200000  0.29800000  1.0 0.0866478689
H  H238  1  0.20200000  0.69400000  0.45780000  1.0 0.0866478689
H  H239  1  0.73620000  0.74420000  0.04220000  1.0 0.0866478689
H  H240  1  0.29800000  0.75580000  0.49200000  1.0 0.0866478689
H  H241  1  0.90780000  0.19290000  0.16210000  1.0 0.0866478689
H  H242  1  0.16210000  0.90780000  0.19290000  1.0 0.0866478689
H  H243  1  0.19290000  0.16210000  0.90780000  1.0 0.0866478689
H  H244  1  0.75430000  0.96920000  0.16210000  1.0 0.0866478689
H  H245  1  0.74570000  0.90780000  0.21490000  1.0 0.0866478689
H  H246  1  0.19290000  0.53080000  0.28510000  1.0 0.0866478689
H  H247  1  0.53080000  0.28510000  0.19290000  1.0 0.0866478689
H  H248  1  0.90780000  0.21490000  0.74570000  1.0 0.0866478689
H  H249  1  0.96920000  0.16210000  0.75430000  1.0 0.0866478689
H  H250  1  0.21490000  0.74570000  0.90780000  1.0 0.0866478689
H  H251  1  0.28510000  0.19290000  0.53080000  1.0 0.0866478689
H  H252  1  0.16210000  0.75430000  0.96920000  1.0 0.0866478689
H  H253  1  0.30710000  0.59220000  0.33790000  1.0 0.0866478689
H  H254  1  0.59220000  0.33790000  0.30710000  1.0 0.0866478689
H  H255  1  0.33790000  0.30710000  0.59220000  1.0 0.0866478689
H  H256  1  0.53080000  0.74570000  0.33790000  1.0 0.0866478689
H  H257  1  0.96920000  0.30710000  0.21490000  1.0 0.0866478689
H  H258  1  0.59220000  0.75430000  0.28510000  1.0 0.0866478689
H  H259  1  0.33790000  0.53080000  0.74570000  1.0 0.0866478689
H  H260  1  0.21490000  0.96920000  0.30710000  1.0 0.0866478689
H  H261  1  0.28510000  0.59220000  0.75430000  1.0 0.0866478689
H  H262  1  0.74570000  0.33790000  0.53080000  1.0 0.0866478689
H  H263  1  0.30710000  0.21490000  0.96920000  1.0 0.0866478689
H  H264  1  0.75430000  0.28510000  0.59220000  1.0 0.0866478689
H  H265  1  0.09220000  0.80710000  0.83790000  1.0 0.0866478689
H  H266  1  0.83790000  0.09220000  0.80710000  1.0 0.0866478689
H  H267  1  0.80710000  0.83790000  0.09220000  1.0 0.0866478689
H  H268  1  0.24570000  0.03080000  0.83790000  1.0 0.0866478689
H  H269  1  0.25430000  0.09220000  0.78510000  1.0 0.0866478689
H  H270  1  0.80710000  0.46920000  0.71490000  1.0 0.0866478689
H  H271  1  0.46920000  0.71490000  0.80710000  1.0 0.0866478689
H  H272  1  0.09220000  0.78510000  0.25430000  1.0 0.0866478689
H  H273  1  0.03080000  0.83790000  0.24570000  1.0 0.0866478689
H  H274  1  0.78510000  0.25430000  0.09220000  1.0 0.0866478689
H  H275  1  0.71490000  0.80710000  0.46920000  1.0 0.0866478689
H  H276  1  0.83790000  0.24570000  0.03080000  1.0 0.0866478689
H  H277  1  0.69290000  0.40780000  0.66210000  1.0 0.0866478689
H  H278  1  0.40780000  0.66210000  0.69290000  1.0 0.0866478689
H  H279  1  0.66210000  0.69290000  0.40780000  1.0 0.0866478689
H  H280  1  0.46920000  0.25430000  0.66210000  1.0 0.0866478689
H  H281  1  0.03080000  0.69290000  0.78510000  1.0 0.0866478689
H  H282  1  0.40780000  0.24570000  0.71490000  1.0 0.0866478689
H  H283  1  0.66210000  0.46920000  0.25430000  1.0 0.0866478689
H  H284  1  0.78510000  0.03080000  0.69290000  1.0 0.0866478689
H  H285  1  0.71490000  0.40780000  0.24570000  1.0 0.0866478689
H  H286  1  0.25430000  0.66210000  0.46920000  1.0 0.0866478689
H  H287  1  0.69290000  0.78510000  0.03080000  1.0 0.0866478689
H  H288  1  0.24570000  0.71490000  0.40780000  1.0 0.0866478689
H  H289  1  0.94050000  0.25100000  0.14150000  1.0 0.106098092
H  H290  1  0.14150000  0.94050000  0.25100000  1.0 0.106098092
H  H291  1  0.25100000  0.14150000  0.94050000  1.0 0.106098092
H  H292  1  0.70100000  0.89050000  0.14150000  1.0 0.106098092
H  H293  1  0.79900000  0.94050000  0.18950000  1.0 0.106098092
H  H294  1  0.25100000  0.60950000  0.31050000  1.0 0.106098092
H  H295  1  0.60950000  0.31050000  0.25100000  1.0 0.106098092
H  H296  1  0.94050000  0.18950000  0.79900000  1.0 0.106098092
H  H297  1  0.89050000  0.14150000  0.70100000  1.0 0.106098092
H  H298  1  0.18950000  0.79900000  0.94050000  1.0 0.106098092
H  H299  1  0.31050000  0.25100000  0.60950000  1.0 0.106098092
H  H300  1  0.14150000  0.70100000  0.89050000  1.0 0.106098092
H  H301  1  0.24900000  0.55950000  0.35850000  1.0 0.106098092
H  H302  1  0.55950000  0.35850000  0.24900000  1.0 0.106098092
H  H303  1  0.35850000  0.24900000  0.55950000  1.0 0.106098092
H  H304  1  0.60950000  0.79900000  0.35850000  1.0 0.106098092
H  H305  1  0.89050000  0.24900000  0.18950000  1.0 0.106098092
H  H306  1  0.55950000  0.70100000  0.31050000  1.0 0.106098092
H  H307  1  0.35850000  0.60950000  0.79900000  1.0 0.106098092
H  H308  1  0.18950000  0.89050000  0.24900000  1.0 0.106098092
H  H309  1  0.31050000  0.55950000  0.70100000  1.0 0.106098092
H  H310  1  0.79900000  0.35850000  0.60950000  1.0 0.106098092
H  H311  1  0.24900000  0.18950000  0.89050000  1.0 0.106098092
H  H312  1  0.70100000  0.31050000  0.55950000  1.0 0.106098092
H  H313  1  0.05950000  0.74900000  0.85850000  1.0 0.106098092
H  H314  1  0.85850000  0.05950000  0.74900000  1.0 0.106098092
H  H315  1  0.74900000  0.85850000  0.05950000  1.0 0.106098092
H  H316  1  0.29900000  0.10950000  0.85850000  1.0 0.106098092
H  H317  1  0.20100000  0.05950000  0.81050000  1.0 0.106098092
H  H318  1  0.74900000  0.39050000  0.68950000  1.0 0.106098092
H  H319  1  0.39050000  0.68950000  0.74900000  1.0 0.106098092
H  H320  1  0.05950000  0.81050000  0.20100000  1.0 0.106098092
H  H321  1  0.10950000  0.85850000  0.29900000  1.0 0.106098092
H  H322  1  0.81050000  0.20100000  0.05950000  1.0 0.106098092
H  H323  1  0.68950000  0.74900000  0.39050000  1.0 0.106098092
H  H324  1  0.85850000  0.29900000  0.10950000  1.0 0.106098092
H  H325  1  0.75100000  0.44050000  0.64150000  1.0 0.106098092
H  H326  1  0.44050000  0.64150000  0.75100000  1.0 0.106098092
H  H327  1  0.64150000  0.75100000  0.44050000  1.0 0.106098092
H  H328  1  0.39050000  0.20100000  0.64150000  1.0 0.106098092
H  H329  1  0.10950000  0.75100000  0.81050000  1.0 0.106098092
H  H330  1  0.44050000  0.29900000  0.68950000  1.0 0.106098092
H  H331  1  0.64150000  0.39050000  0.20100000  1.0 0.106098092
H  H332  1  0.81050000  0.10950000  0.75100000  1.0 0.106098092
H  H333  1  0.68950000  0.44050000  0.29900000  1.0 0.106098092
H  H334  1  0.20100000  0.64150000  0.39050000  1.0 0.106098092
H  H335  1  0.75100000  0.81050000  0.10950000  1.0 0.106098092
H  H336  1  0.29900000  0.68950000  0.44050000  1.0 0.106098092
H  H337  1  0.92860000  0.15290000  0.12590000  1.0 0.0538796387
H  H338  1  0.12590000  0.92860000  0.15290000  1.0 0.0538796387
H  H339  1  0.15290000  0.12590000  0.92860000  1.0 0.0556865088
H  H340  1  0.69730000  0.97300000  0.12590000  1.0 0.0538796387
H  H341  1  0.80270000  0.92860000  0.27570000  1.0 0.0538796387
H  H342  1  0.15290000  0.52700000  0.22430000  1.0 0.0556865088
H  H343  1  0.52700000  0.22430000  0.15290000  1.0 0.0538796387
H  H344  1  0.92860000  0.27570000  0.80270000  1.0 0.0556865088
H  H345  1  0.97300000  0.12590000  0.69730000  1.0 0.0556865088
H  H346  1  0.27570000  0.80270000  0.92860000  1.0 0.0556865088
H  H347  1  0.22430000  0.15290000  0.52700000  1.0 0.0556865088
H  H348  1  0.12590000  0.69730000  0.97300000  1.0 0.0556865088
H  H349  1  0.34710000  0.57140000  0.37410000  1.0 0.0556865088
H  H350  1  0.57140000  0.37410000  0.34710000  1.0 0.0556865088
H  H351  1  0.37410000  0.34710000  0.57140000  1.0 0.0556865088
H  H352  1  0.52700000  0.80270000  0.37410000  1.0 0.0538796387
H  H353  1  0.97300000  0.34710000  0.27570000  1.0 0.0556865088
H  H354  1  0.57140000  0.69730000  0.22430000  1.0 0.0538796387
H  H355  1  0.37410000  0.52700000  0.80270000  1.0 0.0556865088
H  H356  1  0.27570000  0.97300000  0.34710000  1.0 0.0556865088
H  H357  1  0.22430000  0.57140000  0.69730000  1.0 0.0556865088
H  H358  1  0.80270000  0.37410000  0.52700000  1.0 0.0556865088
H  H359  1  0.34710000  0.27570000  0.97300000  1.0 0.0556865088
H  H360  1  0.69730000  0.22430000  0.57140000  1.0 0.0556865088
H  H361  1  0.07140000  0.84710000  0.87410000  1.0 0.0556865088
H  H362  1  0.87410000  0.07140000  0.84710000  1.0 0.0556865088
H  H363  1  0.84710000  0.87410000  0.07140000  1.0 0.0556865088
H  H364  1  0.30270000  0.02700000  0.87410000  1.0 0.0556865088
H  H365  1  0.19730000  0.07140000  0.72430000  1.0 0.0556865088
H  H366  1  0.84710000  0.47300000  0.77570000  1.0 0.0556865088
H  H367  1  0.47300000  0.77570000  0.84710000  1.0 0.0556865088
H  H368  1  0.07140000  0.72430000  0.19730000  1.0 0.0556865088
H  H369  1  0.02700000  0.87410000  0.30270000  1.0 0.0538796387
H  H370  1  0.72430000  0.19730000  0.07140000  1.0 0.0538796387
H  H371  1  0.77570000  0.84710000  0.47300000  1.0 0.0556865088
H  H372  1  0.87410000  0.30270000  0.02700000  1.0 0.0538796387
H  H373  1  0.65290000  0.42860000  0.62590000  1.0 0.0556865088
H  H374  1  0.42860000  0.62590000  0.65290000  1.0 0.0556865088
H  H375  1  0.62590000  0.65290000  0.42860000  1.0 0.0556865088
H  H376  1  0.47300000  0.19730000  0.62590000  1.0 0.0556865088
H  H377  1  0.02700000  0.65290000  0.72430000  1.0 0.0556865088
H  H378  1  0.42860000  0.30270000  0.77570000  1.0 0.0556865088
H  H379  1  0.62590000  0.47300000  0.19730000  1.0 0.0556865088
H  H380  1  0.72430000  0.02700000  0.65290000  1.0 0.0556865088
H  H381  1  0.77570000  0.42860000  0.30270000  1.0 0.0556865088
H  H382  1  0.19730000  0.62590000  0.47300000  1.0 0.0556865088
H  H383  1  0.65290000  0.72430000  0.02700000  1.0 0.0556865088
H  H384  1  0.30270000  0.77570000  0.42860000  1.0 0.0556865088
H  H385  1  0.96060000  0.20850000  0.10550000  1.0 0.0538796387
H  H386  1  0.10550000  0.96060000  0.20850000  1.0 0.0538796387
H  H387  1  0.20850000  0.10550000  0.96060000  1.0 0.0538796387
H  H388  1  0.64490000  0.89700000  0.10550000  1.0 0.0538796387
H  H389  1  0.85510000  0.96060000  0.25210000  1.0 0.0538796387
H  H390  1  0.20850000  0.60300000  0.24790000  1.0 0.0538796387
H  H391  1  0.60300000  0.24790000  0.20850000  1.0 0.0538796387
H  H392  1  0.96060000  0.25210000  0.85510000  1.0 0.0538796387
H  H393  1  0.89700000  0.10550000  0.64490000  1.0 0.0538796387
H  H394  1  0.25210000  0.85510000  0.96060000  1.0 0.0538796387
H  H395  1  0.24790000  0.20850000  0.60300000  1.0 0.0538796387
H  H396  1  0.10550000  0.64490000  0.89700000  1.0 0.0538796387
H  H397  1  0.29150000  0.53940000  0.39450000  1.0 0.0538796387
H  H398  1  0.53940000  0.39450000  0.29150000  1.0 0.0538796387
H  H399  1  0.39450000  0.29150000  0.53940000  1.0 0.0538796387
H  H400  1  0.60300000  0.85510000  0.39450000  1.0 0.0538796387
H  H401  1  0.89700000  0.29150000  0.25210000  1.0 0.0538796387
H  H402  1  0.53940000  0.64490000  0.24790000  1.0 0.0538796387
H  H403  1  0.39450000  0.60300000  0.85510000  1.0 0.0538796387
H  H404  1  0.25210000  0.89700000  0.29150000  1.0 0.0538796387
H  H405  1  0.24790000  0.53940000  0.64490000  1.0 0.0538796387
H  H406  1  0.85510000  0.39450000  0.60300000  1.0 0.0538796387
H  H407  1  0.29150000  0.25210000  0.89700000  1.0 0.0538796387
H  H408  1  0.64490000  0.24790000  0.53940000  1.0 0.0538796387
H  H409  1  0.03940000  0.79150000  0.89450000  1.0 0.0538796387
H  H410  1  0.89450000  0.03940000  0.79150000  1.0 0.0538796387
H  H411  1  0.79150000  0.89450000  0.03940000  1.0 0.0538796387
H  H412  1  0.35510000  0.10300000  0.89450000  1.0 0.0538796387
H  H413  1  0.14490000  0.03940000  0.74790000  1.0 0.0538796387
H  H414  1  0.79150000  0.39700000  0.75210000  1.0 0.0538796387
H  H415  1  0.39700000  0.75210000  0.79150000  1.0 0.0538796387
H  H416  1  0.03940000  0.74790000  0.14490000  1.0 0.0538796387
H  H417  1  0.10300000  0.89450000  0.35510000  1.0 0.0538796387
H  H418  1  0.74790000  0.14490000  0.03940000  1.0 0.0538796387
H  H419  1  0.75210000  0.79150000  0.39700000  1.0 0.0538796387
H  H420  1  0.89450000  0.35510000  0.10300000  1.0 0.0538796387
H  H421  1  0.70850000  0.46060000  0.60550000  1.0 0.0538796387
H  H422  1  0.46060000  0.60550000  0.70850000  1.0 0.0538796387
H  H423  1  0.60550000  0.70850000  0.46060000  1.0 0.0538796387
H  H424  1  0.39700000  0.14490000  0.60550000  1.0 0.0538796387
H  H425  1  0.10300000  0.70850000  0.74790000  1.0 0.0538796387
H  H426  1  0.46060000  0.35510000  0.75210000  1.0 0.0538796387
H  H427  1  0.60550000  0.39700000  0.14490000  1.0 0.0538796387
H  H428  1  0.74790000  0.10300000  0.70850000  1.0 0.0538796387
H  H429  1  0.75210000  0.46060000  0.35510000  1.0 0.0538796387
H  H430  1  0.14490000  0.60550000  0.39700000  1.0 0.0538796387
H  H431  1  0.70850000  0.74790000  0.10300000  1.0 0.0538796387
H  H432  1  0.35510000  0.75210000  0.46060000  1.0 0.0538796387
H  H433  1  0.96680000  0.08320000  0.07200000  1.0 0.1210502033
H  H434  1  0.07200000  0.96680000  0.08320000  1.0 0.1210502033
H  H435  1  0.08320000  0.07200000  0.96680000  1.0 0.1210502033
H  H436  1  0.60520000  0.98880000  0.07200000  1.0 0.1210502033
H  H437  1  0.89480000  0.96680000  0.38360000  1.0 0.1210502033
H  H438  1  0.08320000  0.51120000  0.11640000  1.0 0.1210502033
H  H439  1  0.51120000  0.11640000  0.08320000  1.0 0.1210502033
H  H440  1  0.96680000  0.38360000  0.89480000  1.0 0.1210502033
H  H441  1  0.98880000  0.07200000  0.60520000  1.0 0.1210502033
H  H442  1  0.38360000  0.89480000  0.96680000  1.0 0.1210502033
H  H443  1  0.11640000  0.08320000  0.51120000  1.0 0.1210502033
H  H444  1  0.07200000  0.60520000  0.98880000  1.0 0.1210502033
H  H445  1  0.41680000  0.53320000  0.42800000  1.0 0.1210502033
H  H446  1  0.53320000  0.42800000  0.41680000  1.0 0.1210502033
H  H447  1  0.42800000  0.41680000  0.53320000  1.0 0.1210502033
H  H448  1  0.51120000  0.89480000  0.42800000  1.0 0.1210502033
H  H449  1  0.98880000  0.41680000  0.38360000  1.0 0.1210502033
H  H450  1  0.53320000  0.60520000  0.11640000  1.0 0.1210502033
H  H451  1  0.42800000  0.51120000  0.89480000  1.0 0.1210502033
H  H452  1  0.38360000  0.98880000  0.41680000  1.0 0.1210502033
H  H453  1  0.11640000  0.53320000  0.60520000  1.0 0.1210502033
H  H454  1  0.89480000  0.42800000  0.51120000  1.0 0.1210502033
H  H455  1  0.41680000  0.38360000  0.98880000  1.0 0.1210502033
H  H456  1  0.60520000  0.11640000  0.53320000  1.0 0.1210502033
H  H457  1  0.03320000  0.91680000  0.92800000  1.0 0.1210502033
H  H458  1  0.92800000  0.03320000  0.91680000  1.0 0.1210502033
H  H459  1  0.91680000  0.92800000  0.03320000  1.0 0.1210502033
H  H460  1  0.39480000  0.01120000  0.92800000  1.0 0.1210502033
H  H461  1  0.10520000  0.03320000  0.61640000  1.0 0.1210502033
H  H462  1  0.91680000  0.48880000  0.88360000  1.0 0.1210502033
H  H463  1  0.48880000  0.88360000  0.91680000  1.0 0.1210502033
H  H464  1  0.03320000  0.61640000  0.10520000  1.0 0.1210502033
H  H465  1  0.01120000  0.92800000  0.39480000  1.0 0.1210502033
H  H466  1  0.61640000  0.10520000  0.03320000  1.0 0.1210502033
H  H467  1  0.88360000  0.91680000  0.48880000  1.0 0.1210502033
H  H468  1  0.92800000  0.39480000  0.01120000  1.0 0.1210502033
H  H469  1  0.58320000  0.46680000  0.57200000  1.0 0.1210502033
H  H470  1  0.46680000  0.57200000  0.58320000  1.0 0.1210502033
H  H471  1  0.57200000  0.58320000  0.46680000  1.0 0.1210502033
H  H472  1  0.48880000  0.10520000  0.57200000  1.0 0.1210502033
H  H473  1  0.01120000  0.58320000  0.61640000  1.0 0.1210502033
H  H474  1  0.46680000  0.39480000  0.88360000  1.0 0.1210502033
H  H475  1  0.57200000  0.48880000  0.10520000  1.0 0.1210502033
H  H476  1  0.61640000  0.01120000  0.58320000  1.0 0.1210502033
H  H477  1  0.88360000  0.46680000  0.39480000  1.0 0.1210502033
H  H478  1  0.10520000  0.57200000  0.48880000  1.0 0.1210502033
H  H479  1  0.58320000  0.61640000  0.01120000  1.0 0.1210502033
H  H480  1  0.39480000  0.88360000  0.46680000  1.0 0.1210502033
H  H481  1  0.03260000  0.16180000  0.13100000  1.0 0.1210502033
H  H482  1  0.13100000  0.03260000  0.16180000  1.0 0.1210502033
H  H483  1  0.16180000  0.13100000  0.03260000  1.0 0.1210502033
H  H484  1  0.59840000  0.96920000  0.13100000  1.0 0.1210502033
H  H485  1  0.90160000  0.03260000  0.37080000  1.0 0.1210502033
H  H486  1  0.16180000  0.53080000  0.12920000  1.0 0.1210502033
H  H487  1  0.53080000  0.12920000  0.16180000  1.0 0.1210502033
H  H488  1  0.03260000  0.37080000  0.90160000  1.0 0.1210502033
H  H489  1  0.96920000  0.13100000  0.59840000  1.0 0.1210502033
H  H490  1  0.37080000  0.90160000  0.03260000  1.0 0.1210502033
H  H491  1  0.12920000  0.16180000  0.53080000  1.0 0.1210502033
H  H492  1  0.13100000  0.59840000  0.96920000  1.0 0.1210502033
H  H493  1  0.33820000  0.46740000  0.36900000  1.0 0.1210502033
H  H494  1  0.46740000  0.36900000  0.33820000  1.0 0.1210502033
H  H495  1  0.36900000  0.33820000  0.46740000  1.0 0.1210502033
H  H496  1  0.53080000  0.90160000  0.36900000  1.0 0.1210502033
H  H497  1  0.96920000  0.33820000  0.37080000  1.0 0.1210502033
H  H498  1  0.46740000  0.59840000  0.12920000  1.0 0.1210502033
H  H499  1  0.36900000  0.53080000  0.90160000  1.0 0.1210502033
H  H500  1  0.37080000  0.96920000  0.33820000  1.0 0.1210502033
H  H501  1  0.12920000  0.46740000  0.59840000  1.0 0.1210502033
H  H502  1  0.90160000  0.36900000  0.53080000  1.0 0.1210502033
H  H503  1  0.33820000  0.37080000  0.96920000  1.0 0.1210502033
H  H504  1  0.59840000  0.12920000  0.46740000  1.0 0.1210502033
H  H505  1  0.96740000  0.83820000  0.86900000  1.0 0.1210502033
H  H506  1  0.86900000  0.96740000  0.83820000  1.0 0.1210502033
H  H507  1  0.83820000  0.86900000  0.96740000  1.0 0.1210502033
H  H508  1  0.40160000  0.03080000  0.86900000  1.0 0.1210502033
H  H509  1  0.09840000  0.96740000  0.62920000  1.0 0.1210502033
H  H510  1  0.83820000  0.46920000  0.87080000  1.0 0.1210502033
H  H511  1  0.46920000  0.87080000  0.83820000  1.0 0.1210502033
H  H512  1  0.96740000  0.62920000  0.09840000  1.0 0.1210502033
H  H513  1  0.03080000  0.86900000  0.40160000  1.0 0.1210502033
H  H514  1  0.62920000  0.09840000  0.96740000  1.0 0.1210502033
H  H515  1  0.87080000  0.83820000  0.46920000  1.0 0.1210502033
H  H516  1  0.86900000  0.40160000  0.03080000  1.0 0.1210502033
H  H517  1  0.66180000  0.53260000  0.63100000  1.0 0.1210502033
H  H518  1  0.53260000  0.63100000  0.66180000  1.0 0.1210502033
H  H519  1  0.63100000  0.66180000  0.53260000  1.0 0.1210502033
H  H520  1  0.46920000  0.09840000  0.63100000  1.0 0.1210502033
H  H521  1  0.03080000  0.66180000  0.62920000  1.0 0.1210502033
H  H522  1  0.53260000  0.40160000  0.87080000  1.0 0.1210502033
H  H523  1  0.63100000  0.46920000  0.09840000  1.0 0.1210502033
H  H524  1  0.62920000  0.03080000  0.66180000  1.0 0.1210502033
H  H525  1  0.87080000  0.53260000  0.40160000  1.0 0.1210502033
H  H526  1  0.09840000  0.63100000  0.46920000  1.0 0.1210502033
H  H527  1  0.66180000  0.62920000  0.03080000  1.0 0.1210502033
H  H528  1  0.40160000  0.87080000  0.53260000  1.0 0.1210502033
H  H529  1  0.99860000  0.13870000  0.04830000  1.0 0.1210502033
H  H530  1  0.04830000  0.99860000  0.13870000  1.0 0.1210502033
H  H531  1  0.13870000  0.04830000  0.99860000  1.0 0.1210502033
H  H532  1  0.54970000  0.90960000  0.04830000  1.0 0.1210502033
H  H533  1  0.95030000  0.99860000  0.35990000  1.0 0.1210502033
H  H534  1  0.13870000  0.59040000  0.14010000  1.0 0.1210502033
H  H535  1  0.59040000  0.14010000  0.13870000  1.0 0.1210502033
H  H536  1  0.99860000  0.35990000  0.95030000  1.0 0.1210502033
H  H537  1  0.90960000  0.04830000  0.54970000  1.0 0.1210502033
H  H538  1  0.35990000  0.95030000  0.99860000  1.0 0.1210502033
H  H539  1  0.14010000  0.13870000  0.59040000  1.0 0.1210502033
H  H540  1  0.04830000  0.54970000  0.90960000  1.0 0.1210502033
H  H541  1  0.36130000  0.50140000  0.45170000  1.0 0.1210502033
H  H542  1  0.50140000  0.45170000  0.36130000  1.0 0.1210502033
H  H543  1  0.45170000  0.36130000  0.50140000  1.0 0.1210502033
H  H544  1  0.59040000  0.95030000  0.45170000  1.0 0.1210502033
H  H545  1  0.90960000  0.36130000  0.35990000  1.0 0.1210502033
H  H546  1  0.50140000  0.54970000  0.14010000  1.0 0.1210502033
H  H547  1  0.45170000  0.59040000  0.95030000  1.0 0.1210502033
H  H548  1  0.35990000  0.90960000  0.36130000  1.0 0.1210502033
H  H549  1  0.14010000  0.50140000  0.54970000  1.0 0.1210502033
H  H550  1  0.95030000  0.45170000  0.59040000  1.0 0.1210502033
H  H551  1  0.36130000  0.35990000  0.90960000  1.0 0.1210502033
H  H552  1  0.54970000  0.14010000  0.50140000  1.0 0.1210502033
H  H553  1  0.00140000  0.86130000  0.95170000  1.0 0.1210502033
H  H554  1  0.95170000  0.00140000  0.86130000  1.0 0.1210502033
H  H555  1  0.86130000  0.95170000  0.00140000  1.0 0.1210502033
H  H556  1  0.45030000  0.09040000  0.95170000  1.0 0.1210502033
H  H557  1  0.04970000  0.00140000  0.64010000  1.0 0.1210502033
H  H558  1  0.86130000  0.40960000  0.85990000  1.0 0.1210502033
H  H559  1  0.40960000  0.85990000  0.86130000  1.0 0.1210502033
H  H560  1  0.00140000  0.64010000  0.04970000  1.0 0.1210502033
H  H561  1  0.09040000  0.95170000  0.45030000  1.0 0.1210502033
H  H562  1  0.64010000  0.04970000  0.00140000  1.0 0.1210502033
H  H563  1  0.85990000  0.86130000  0.40960000  1.0 0.1210502033
H  H564  1  0.95170000  0.45030000  0.09040000  1.0 0.1210502033
H  H565  1  0.63870000  0.49860000  0.54830000  1.0 0.1210502033
H  H566  1  0.49860000  0.54830000  0.63870000  1.0 0.1210502033
H  H567  1  0.54830000  0.63870000  0.49860000  1.0 0.1210502033
H  H568  1  0.40960000  0.04970000  0.54830000  1.0 0.1210502033
H  H569  1  0.09040000  0.63870000  0.64010000  1.0 0.1210502033
H  H570  1  0.49860000  0.45030000  0.85990000  1.0 0.1210502033
H  H571  1  0.54830000  0.40960000  0.04970000  1.0 0.1210502033
H  H572  1  0.64010000  0.09040000  0.63870000  1.0 0.1210502033
H  H573  1  0.85990000  0.49860000  0.45030000  1.0 0.1210502033
H  H574  1  0.04970000  0.54830000  0.40960000  1.0 0.1210502033
H  H575  1  0.63870000  0.64010000  0.09040000  1.0 0.1210502033
H  H576  1  0.45030000  0.85990000  0.49860000  1.0 0.1210502033
C  C1  1  0.79133000  0.08457000  0.91488000  1.0 -0.0878840548
C  C2  1  0.91488000  0.79133000  0.08457000  1.0 -0.0878840548
C  C3  1  0.08457000  0.91488000  0.79133000  1.0 -0.0878840548
C  C4  1  0.62355000  0.83031000  0.91488000  1.0 -0.0878840548
C  C5  1  0.87645000  0.79133000  0.20676000  1.0 -0.0878840548
C  C6  1  0.08457000  0.66969000  0.29324000  1.0 -0.0878840548
C  C7  1  0.66969000  0.29324000  0.08457000  1.0 -0.0878840548
C  C8  1  0.79133000  0.20676000  0.87645000  1.0 -0.0878840548
C  C9  1  0.83031000  0.91488000  0.62355000  1.0 -0.0878840548
C  C10  1  0.20676000  0.87645000  0.79133000  1.0 -0.0878840548
C  C11  1  0.29324000  0.08457000  0.66969000  1.0 -0.0878840548
C  C12  1  0.91488000  0.62355000  0.83031000  1.0 -0.0878840548
C  C13  1  0.41543000  0.70867000  0.58512000  1.0 -0.0878840548
C  C14  1  0.70867000  0.58512000  0.41543000  1.0 -0.0878840548
C  C15  1  0.58512000  0.41543000  0.70867000  1.0 -0.0878840548
C  C16  1  0.66969000  0.87645000  0.58512000  1.0 -0.0878840548
C  C17  1  0.83031000  0.41543000  0.20676000  1.0 -0.0878840548
C  C18  1  0.70867000  0.62355000  0.29324000  1.0 -0.0878840548
C  C19  1  0.58512000  0.66969000  0.87645000  1.0 -0.0878840548
C  C20  1  0.20676000  0.83031000  0.41543000  1.0 -0.0878840548
C  C21  1  0.29324000  0.70867000  0.62355000  1.0 -0.0878840548
C  C22  1  0.87645000  0.58512000  0.66969000  1.0 -0.0878840548
C  C23  1  0.41543000  0.20676000  0.83031000  1.0 -0.0878840548
C  C24  1  0.62355000  0.29324000  0.70867000  1.0 -0.0878840548
C  C25  1  0.20867000  0.91543000  0.08512000  1.0 -0.0878840548
C  C26  1  0.08512000  0.20867000  0.91543000  1.0 -0.0878840548
C  C27  1  0.91543000  0.08512000  0.20867000  1.0 -0.0878840548
C  C28  1  0.37645000  0.16969000  0.08512000  1.0 -0.0878840548
C  C29  1  0.12355000  0.20867000  0.79324000  1.0 -0.0878840548
C  C30  1  0.91543000  0.33031000  0.70676000  1.0 -0.0878840548
C  C31  1  0.33031000  0.70676000  0.91543000  1.0 -0.0878840548
C  C32  1  0.20867000  0.79324000  0.12355000  1.0 -0.0878840548
C  C33  1  0.16969000  0.08512000  0.37645000  1.0 -0.0878840548
C  C34  1  0.79324000  0.12355000  0.20867000  1.0 -0.0878840548
C  C35  1  0.70676000  0.91543000  0.33031000  1.0 -0.0878840548
C  C36  1  0.08512000  0.37645000  0.16969000  1.0 -0.0878840548
C  C37  1  0.58457000  0.29133000  0.41488000  1.0 -0.0878840548
C  C38  1  0.29133000  0.41488000  0.58457000  1.0 -0.0878840548
C  C39  1  0.41488000  0.58457000  0.29133000  1.0 -0.0878840548
C  C40  1  0.33031000  0.12355000  0.41488000  1.0 -0.0878840548
C  C41  1  0.16969000  0.58457000  0.79324000  1.0 -0.0878840548
C  C42  1  0.29133000  0.37645000  0.70676000  1.0 -0.0878840548
C  C43  1  0.41488000  0.33031000  0.12355000  1.0 -0.0878840548
C  C44  1  0.79324000  0.16969000  0.58457000  1.0 -0.0878840548
C  C45  1  0.70676000  0.29133000  0.37645000  1.0 -0.0878840548
C  C46  1  0.12355000  0.41488000  0.33031000  1.0 -0.0878840548
C  C47  1  0.58457000  0.79324000  0.16969000  1.0 -0.0878840548
C  C48  1  0.37645000  0.70676000  0.29133000  1.0 -0.0878840548
C  C49  1  0.75927000  0.04576000  0.93967000  1.0 -0.0832828106
C  C50  1  0.93967000  0.75927000  0.04576000  1.0 -0.0832828106
C  C51  1  0.04576000  0.93967000  0.75927000  1.0 -0.0832828106
C  C52  1  0.68040000  0.89391000  0.93967000  1.0 -0.0832828106
C  C53  1  0.81960000  0.75927000  0.21351000  1.0 -0.0832828106
C  C54  1  0.04576000  0.60609000  0.28649000  1.0 -0.0832828106
C  C55  1  0.60609000  0.28649000  0.04576000  1.0 -0.0832828106
C  C56  1  0.75927000  0.21351000  0.81960000  1.0 -0.0832828106
C  C57  1  0.89391000  0.93967000  0.68040000  1.0 -0.0832828106
C  C58  1  0.21351000  0.81960000  0.75927000  1.0 -0.0832828106
C  C59  1  0.28649000  0.04576000  0.60609000  1.0 -0.0832828106
C  C60  1  0.93967000  0.68040000  0.89391000  1.0 -0.0832828106
C  C61  1  0.45424000  0.74073000  0.56033000  1.0 -0.0832828106
C  C62  1  0.74073000  0.56033000  0.45424000  1.0 -0.0832828106
C  C63  1  0.56033000  0.45424000  0.74073000  1.0 -0.0832828106
C  C64  1  0.60609000  0.81960000  0.56033000  1.0 -0.0832828106
C  C65  1  0.89391000  0.45424000  0.21351000  1.0 -0.0832828106
C  C66  1  0.74073000  0.68040000  0.28649000  1.0 -0.0832828106
C  C67  1  0.56033000  0.60609000  0.81960000  1.0 -0.0832828106
C  C68  1  0.21351000  0.89391000  0.45424000  1.0 -0.0832828106
C  C69  1  0.28649000  0.74073000  0.68040000  1.0 -0.0832828106
C  C70  1  0.81960000  0.56033000  0.60609000  1.0 -0.0832828106
C  C71  1  0.45424000  0.21351000  0.89391000  1.0 -0.0832828106
C  C72  1  0.68040000  0.28649000  0.74073000  1.0 -0.0832828106
C  C73  1  0.24073000  0.95424000  0.06033000  1.0 -0.0832828106
C  C74  1  0.06033000  0.24073000  0.95424000  1.0 -0.0832828106
C  C75  1  0.95424000  0.06033000  0.24073000  1.0 -0.0832828106
C  C76  1  0.31960000  0.10609000  0.06033000  1.0 -0.0832828106
C  C77  1  0.18040000  0.24073000  0.78649000  1.0 -0.0832828106
C  C78  1  0.95424000  0.39391000  0.71351000  1.0 -0.0832828106
C  C79  1  0.39391000  0.71351000  0.95424000  1.0 -0.0832828106
C  C80  1  0.24073000  0.78649000  0.18040000  1.0 -0.0832828106
C  C81  1  0.10609000  0.06033000  0.31960000  1.0 -0.0832828106
C  C82  1  0.78649000  0.18040000  0.24073000  1.0 -0.0832828106
C  C83  1  0.71351000  0.95424000  0.39391000  1.0 -0.0832828106
C  C84  1  0.06033000  0.31960000  0.10609000  1.0 -0.0832828106
C  C85  1  0.54576000  0.25927000  0.43967000  1.0 -0.0832828106
C  C86  1  0.25927000  0.43967000  0.54576000  1.0 -0.0832828106
C  C87  1  0.43967000  0.54576000  0.25927000  1.0 -0.0832828106
C  C88  1  0.39391000  0.18040000  0.43967000  1.0 -0.0832828106
C  C89  1  0.10609000  0.54576000  0.78649000  1.0 -0.0832828106
C  C90  1  0.25927000  0.31960000  0.71351000  1.0 -0.0832828106
C  C91  1  0.43967000  0.39391000  0.18040000  1.0 -0.0832828106
C  C92  1  0.78649000  0.10609000  0.54576000  1.0 -0.0832828106
C  C93  1  0.71351000  0.25927000  0.31960000  1.0 -0.0832828106
C  C94  1  0.18040000  0.43967000  0.39391000  1.0 -0.0832828106
C  C95  1  0.54576000  0.78649000  0.10609000  1.0 -0.0832828106
C  C96  1  0.31960000  0.71351000  0.25927000  1.0 -0.0832828106
C  C97  1  0.86944000  0.12063000  0.02227000  1.0 0.2137273949
C  C98  1  0.02227000  0.86944000  0.12063000  1.0 0.2137273949
C  C99  1  0.12063000  0.02227000  0.86944000  1.0 0.2137273949
C  C100  1  0.65283000  0.90164000  0.02227000  1.0 0.2137273949
C  C101  1  0.84717000  0.86944000  0.24881000  1.0 0.2137273949
C  C102  1  0.12063000  0.59836000  0.25119000  1.0 0.2137273949
C  C103  1  0.59836000  0.25119000  0.12063000  1.0 0.2137273949
C  C104  1  0.86944000  0.24881000  0.84717000  1.0 0.2137273949
C  C105  1  0.90164000  0.02227000  0.65283000  1.0 0.2156605511
C  C106  1  0.24881000  0.84717000  0.86944000  1.0 0.2137273949
C  C107  1  0.25119000  0.12063000  0.59836000  1.0 0.2137273949
C  C108  1  0.02227000  0.65283000  0.90164000  1.0 0.2137273949
C  C109  1  0.37937000  0.63056000  0.47773000  1.0 0.2137273949
C  C110  1  0.63056000  0.47773000  0.37937000  1.0 0.2137273949
C  C111  1  0.47773000  0.37937000  0.63056000  1.0 0.2137273949
C  C112  1  0.59836000  0.84717000  0.47773000  1.0 0.2137273949
C  C113  1  0.90164000  0.37937000  0.24881000  1.0 0.2137273949
C  C114  1  0.63056000  0.65283000  0.25119000  1.0 0.2137273949
C  C115  1  0.47773000  0.59836000  0.84717000  1.0 0.2137273949
C  C116  1  0.24881000  0.90164000  0.37937000  1.0 0.2137273949
C  C117  1  0.25119000  0.63056000  0.65283000  1.0 0.2137273949
C  C118  1  0.84717000  0.47773000  0.59836000  1.0 0.2137273949
C  C119  1  0.37937000  0.24881000  0.90164000  1.0 0.2137273949
C  C120  1  0.65283000  0.25119000  0.63056000  1.0 0.2137273949
C  C121  1  0.13056000  0.87937000  0.97773000  1.0 0.2137273949
C  C122  1  0.97773000  0.13056000  0.87937000  1.0 0.2137273949
C  C123  1  0.87937000  0.97773000  0.13056000  1.0 0.2137273949
C  C124  1  0.34717000  0.09836000  0.97773000  1.0 0.2137273949
C  C125  1  0.15283000  0.13056000  0.75119000  1.0 0.2137273949
C  C126  1  0.87937000  0.40164000  0.74881000  1.0 0.2137273949
C  C127  1  0.40164000  0.74881000  0.87937000  1.0 0.2137273949
C  C128  1  0.13056000  0.75119000  0.15283000  1.0 0.2137273949
C  C129  1  0.09836000  0.97773000  0.34717000  1.0 0.2137273949
C  C130  1  0.75119000  0.15283000  0.13056000  1.0 0.2137273949
C  C131  1  0.74881000  0.87937000  0.40164000  1.0 0.2137273949
C  C132  1  0.97773000  0.34717000  0.09836000  1.0 0.2137273949
C  C133  1  0.62063000  0.36944000  0.52227000  1.0 0.2137273949
C  C134  1  0.36944000  0.52227000  0.62063000  1.0 0.2137273949
C  C135  1  0.52227000  0.62063000  0.36944000  1.0 0.2137273949
C  C136  1  0.40164000  0.15283000  0.52227000  1.0 0.2137273949
C  C137  1  0.09836000  0.62063000  0.75119000  1.0 0.2137273949
C  C138  1  0.36944000  0.34717000  0.74881000  1.0 0.2137273949
C  C139  1  0.52227000  0.40164000  0.15283000  1.0 0.2137273949
C  C140  1  0.75119000  0.09836000  0.62063000  1.0 0.2137273949
C  C141  1  0.74881000  0.36944000  0.34717000  1.0 0.2137273949
C  C142  1  0.15283000  0.52227000  0.40164000  1.0 0.2137273949
C  C143  1  0.62063000  0.75119000  0.09836000  1.0 0.2137273949
C  C144  1  0.34717000  0.74881000  0.36944000  1.0 0.2137273949
C  C145  1  0.93851000  0.15859000  0.09020000  1.0 -0.0999175948
C  C146  1  0.09020000  0.93851000  0.15859000  1.0 -0.0999175948
C  C147  1  0.15859000  0.09020000  0.93851000  1.0 -0.0999175948
C  C148  1  0.65169000  0.93161000  0.09020000  1.0 -0.0999175948
C  C149  1  0.84831000  0.93851000  0.27992000  1.0 -0.0999175948
C  C150  1  0.15859000  0.56839000  0.22008000  1.0 -0.0999175948
C  C151  1  0.56839000  0.22008000  0.15859000  1.0 -0.0999175948
C  C152  1  0.93851000  0.27992000  0.84831000  1.0 -0.0999175948
C  C153  1  0.93161000  0.09020000  0.65169000  1.0 -0.0999175948
C  C154  1  0.27992000  0.84831000  0.93851000  1.0 -0.0999175948
C  C155  1  0.22008000  0.15859000  0.56839000  1.0 -0.0999175948
C  C156  1  0.09020000  0.65169000  0.93161000  1.0 -0.0999175948
C  C157  1  0.34141000  0.56149000  0.40980000  1.0 -0.0999175948
C  C158  1  0.56149000  0.40980000  0.34141000  1.0 -0.0999175948
C  C159  1  0.40980000  0.34141000  0.56149000  1.0 -0.0999175948
C  C160  1  0.56839000  0.84831000  0.40980000  1.0 -0.0999175948
C  C161  1  0.93161000  0.34141000  0.27992000  1.0 -0.0999175948
C  C162  1  0.56149000  0.65169000  0.22008000  1.0 -0.0999175948
C  C163  1  0.40980000  0.56839000  0.84831000  1.0 -0.0999175948
C  C164  1  0.27992000  0.93161000  0.34141000  1.0 -0.0999175948
C  C165  1  0.22008000  0.56149000  0.65169000  1.0 -0.0999175948
C  C166  1  0.84831000  0.40980000  0.56839000  1.0 -0.0999175948
C  C167  1  0.34141000  0.27992000  0.93161000  1.0 -0.0999175948
C  C168  1  0.65169000  0.22008000  0.56149000  1.0 -0.0999175948
C  C169  1  0.06149000  0.84141000  0.90980000  1.0 -0.0999175948
C  C170  1  0.90980000  0.06149000  0.84141000  1.0 -0.0999175948
C  C171  1  0.84141000  0.90980000  0.06149000  1.0 -0.0999175948
C  C172  1  0.34831000  0.06839000  0.90980000  1.0 -0.0999175948
C  C173  1  0.15169000  0.06149000  0.72008000  1.0 -0.0999175948
C  C174  1  0.84141000  0.43161000  0.77992000  1.0 -0.0999175948
C  C175  1  0.43161000  0.77992000  0.84141000  1.0 -0.0999175948
C  C176  1  0.06149000  0.72008000  0.15169000  1.0 -0.0999175948
C  C177  1  0.06839000  0.90980000  0.34831000  1.0 -0.0999175948
C  C178  1  0.72008000  0.15169000  0.06149000  1.0 -0.0999175948
C  C179  1  0.77992000  0.84141000  0.43161000  1.0 -0.0999175948
C  C180  1  0.90980000  0.34831000  0.06839000  1.0 -0.0999175948
C  C181  1  0.65859000  0.43851000  0.59020000  1.0 -0.0999175948
C  C182  1  0.43851000  0.59020000  0.65859000  1.0 -0.0999175948
C  C183  1  0.59020000  0.65859000  0.43851000  1.0 -0.0999175948
C  C184  1  0.43161000  0.15169000  0.59020000  1.0 -0.0999175948
C  C185  1  0.06839000  0.65859000  0.72008000  1.0 -0.0999175948
C  C186  1  0.43851000  0.34831000  0.77992000  1.0 -0.0999175948
C  C187  1  0.59020000  0.43161000  0.15169000  1.0 -0.0999175948
C  C188  1  0.72008000  0.06839000  0.65859000  1.0 -0.0999175948
C  C189  1  0.77992000  0.43851000  0.34831000  1.0 -0.0999175948
C  C190  1  0.15169000  0.59020000  0.43161000  1.0 -0.0999175948
C  C191  1  0.65859000  0.72008000  0.06839000  1.0 -0.0999175948
C  C192  1  0.34831000  0.77992000  0.43851000  1.0 -0.0999175948
C  C193  1  0.94530000  0.21440000  0.15230000  1.0 -0.3164389566
C  C194  1  0.15230000  0.94530000  0.21440000  1.0 -0.3164389566
C  C195  1  0.21440000  0.15230000  0.94530000  1.0 -0.3164389566
C  C196  1  0.70700000  0.93790000  0.15230000  1.0 -0.3164389566
C  C197  1  0.79300000  0.94530000  0.23090000  1.0 -0.3164389566
C  C198  1  0.21440000  0.56210000  0.26910000  1.0 -0.3164389566
C  C199  1  0.56210000  0.26910000  0.21440000  1.0 -0.3164389566
C  C200  1  0.94530000  0.23090000  0.79300000  1.0 -0.3164389566
C  C201  1  0.93790000  0.15230000  0.70700000  1.0 -0.3164389566
C  C202  1  0.23090000  0.79300000  0.94530000  1.0 -0.3164389566
C  C203  1  0.26910000  0.21440000  0.56210000  1.0 -0.3164389566
C  C204  1  0.15230000  0.70700000  0.93790000  1.0 -0.3164389566
C  C205  1  0.28560000  0.55470000  0.34770000  1.0 -0.3164389566
C  C206  1  0.55470000  0.34770000  0.28560000  1.0 -0.3164389566
C  C207  1  0.34770000  0.28560000  0.55470000  1.0 -0.3164389566
C  C208  1  0.56210000  0.79300000  0.34770000  1.0 -0.3164389566
C  C209  1  0.93790000  0.28560000  0.23090000  1.0 -0.3164389566
C  C210  1  0.55470000  0.70700000  0.26910000  1.0 -0.3164389566
C  C211  1  0.34770000  0.56210000  0.79300000  1.0 -0.3164389566
C  C212  1  0.23090000  0.93790000  0.28560000  1.0 -0.3164389566
C  C213  1  0.26910000  0.55470000  0.70700000  1.0 -0.3164389566
C  C214  1  0.79300000  0.34770000  0.56210000  1.0 -0.3164389566
C  C215  1  0.28560000  0.23090000  0.93790000  1.0 -0.3164389566
C  C216  1  0.70700000  0.26910000  0.55470000  1.0 -0.3164389566
C  C217  1  0.05470000  0.78560000  0.84770000  1.0 -0.3164389566
C  C218  1  0.84770000  0.05470000  0.78560000  1.0 -0.3164389566
C  C219  1  0.78560000  0.84770000  0.05470000  1.0 -0.3164389566
C  C220  1  0.29300000  0.06210000  0.84770000  1.0 -0.3164389566
C  C221  1  0.20700000  0.05470000  0.76910000  1.0 -0.3164389566
C  C222  1  0.78560000  0.43790000  0.73090000  1.0 -0.3164389566
C  C223  1  0.43790000  0.73090000  0.78560000  1.0 -0.3164389566
C  C224  1  0.05470000  0.76910000  0.20700000  1.0 -0.3164389566
C  C225  1  0.06210000  0.84770000  0.29300000  1.0 -0.3164389566
C  C226  1  0.76910000  0.20700000  0.05470000  1.0 -0.3164389566
C  C227  1  0.73090000  0.78560000  0.43790000  1.0 -0.3164389566
C  C228  1  0.84770000  0.29300000  0.06210000  1.0 -0.3164389566
C  C229  1  0.71440000  0.44530000  0.65230000  1.0 -0.3164389566
C  C230  1  0.44530000  0.65230000  0.71440000  1.0 -0.3164389566
C  C231  1  0.65230000  0.71440000  0.44530000  1.0 -0.3164389566
C  C232  1  0.43790000  0.20700000  0.65230000  1.0 -0.3164389566
C  C233  1  0.06210000  0.71440000  0.76910000  1.0 -0.3164389566
C  C234  1  0.44530000  0.29300000  0.73090000  1.0 -0.3164389566
C  C235  1  0.65230000  0.43790000  0.20700000  1.0 -0.3164389566
C  C236  1  0.76910000  0.06210000  0.71440000  1.0 -0.3164389566
C  C237  1  0.73090000  0.44530000  0.29300000  1.0 -0.3164389566
C  C238  1  0.20700000  0.65230000  0.43790000  1.0 -0.3164389566
C  C239  1  0.71440000  0.76910000  0.06210000  1.0 -0.3164389566
C  C240  1  0.29300000  0.73090000  0.44530000  1.0 -0.3164389566
C  C241  1  0.98820000  0.13350000  0.08490000  1.0 -0.3285631374
C  C242  1  0.08490000  0.98820000  0.13350000  1.0 -0.3285631374
C  C243  1  0.13350000  0.08490000  0.98820000  1.0 -0.3285631374
C  C244  1  0.59670000  0.95140000  0.08490000  1.0 -0.3285631374
C  C245  1  0.90330000  0.98820000  0.35470000  1.0 -0.3285631374
C  C246  1  0.13350000  0.54860000  0.14530000  1.0 -0.3285631374
C  C247  1  0.54860000  0.14530000  0.13350000  1.0 -0.3285631374
C  C248  1  0.98820000  0.35470000  0.90330000  1.0 -0.3285631374
C  C249  1  0.95140000  0.08490000  0.59670000  1.0 -0.3285631374
C  C250  1  0.35470000  0.90330000  0.98820000  1.0 -0.3285631374
C  C251  1  0.14530000  0.13350000  0.54860000  1.0 -0.3285631374
C  C252  1  0.08490000  0.59670000  0.95140000  1.0 -0.3285631374
C  C253  1  0.36650000  0.51180000  0.41510000  1.0 -0.3285631374
C  C254  1  0.51180000  0.41510000  0.36650000  1.0 -0.3285631374
C  C255  1  0.41510000  0.36650000  0.51180000  1.0 -0.3285631374
C  C256  1  0.54860000  0.90330000  0.41510000  1.0 -0.3285631374
C  C257  1  0.95140000  0.36650000  0.35470000  1.0 -0.3285631374
C  C258  1  0.51180000  0.59670000  0.14530000  1.0 -0.3285631374
C  C259  1  0.41510000  0.54860000  0.90330000  1.0 -0.3285631374
C  C260  1  0.35470000  0.95140000  0.36650000  1.0 -0.3285631374
C  C261  1  0.14530000  0.51180000  0.59670000  1.0 -0.3285631374
C  C262  1  0.90330000  0.41510000  0.54860000  1.0 -0.3285631374
C  C263  1  0.36650000  0.35470000  0.95140000  1.0 -0.3285631374
C  C264  1  0.59670000  0.14530000  0.51180000  1.0 -0.3285631374
C  C265  1  0.01180000  0.86650000  0.91510000  1.0 -0.3285631374
C  C266  1  0.91510000  0.01180000  0.86650000  1.0 -0.3285631374
C  C267  1  0.86650000  0.91510000  0.01180000  1.0 -0.3285631374
C  C268  1  0.40330000  0.04860000  0.91510000  1.0 -0.3285631374
C  C269  1  0.09670000  0.01180000  0.64530000  1.0 -0.3285631374
C  C270  1  0.86650000  0.45140000  0.85470000  1.0 -0.3285631374
C  C271  1  0.45140000  0.85470000  0.86650000  1.0 -0.3285631374
C  C272  1  0.01180000  0.64530000  0.09670000  1.0 -0.3285631374
C  C273  1  0.04860000  0.91510000  0.40330000  1.0 -0.3285631374
C  C274  1  0.64530000  0.09670000  0.01180000  1.0 -0.3285631374
C  C275  1  0.85470000  0.86650000  0.45140000  1.0 -0.3285631374
C  C276  1  0.91510000  0.40330000  0.04860000  1.0 -0.3285631374
C  C277  1  0.63350000  0.48820000  0.58490000  1.0 -0.3285631374
C  C278  1  0.48820000  0.58490000  0.63350000  1.0 -0.3285631374
C  C279  1  0.58490000  0.63350000  0.48820000  1.0 -0.3285631374
C  C280  1  0.45140000  0.09670000  0.58490000  1.0 -0.3285631374
C  C281  1  0.04860000  0.63350000  0.64530000  1.0 -0.3285631374
C  C282  1  0.48820000  0.40330000  0.85470000  1.0 -0.3285631374
C  C283  1  0.58490000  0.45140000  0.09670000  1.0 -0.3285631374
C  C284  1  0.64530000  0.04860000  0.63350000  1.0 -0.3285631374
C  C285  1  0.85470000  0.48820000  0.40330000  1.0 -0.3285631374
C  C286  1  0.09670000  0.58490000  0.45140000  1.0 -0.3285631374
C  C287  1  0.63350000  0.64530000  0.04860000  1.0 -0.3285631374
C  C288  1  0.40330000  0.85470000  0.48820000  1.0 -0.3285631374
N  N1  1  0.86145000  0.13300000  0.96757000  1.0 -0.3810883094
N  N2  1  0.96757000  0.86145000  0.13300000  1.0 -0.3810883094
N  N3  1  0.13300000  0.96757000  0.86145000  1.0 -0.3810883094
N  N4  1  0.60612000  0.83457000  0.96757000  1.0 -0.3810883094
N  N5  1  0.89388000  0.86145000  0.22845000  1.0 -0.3810883094
N  N6  1  0.13300000  0.66543000  0.27155000  1.0 -0.3810883094
N  N7  1  0.66543000  0.27155000  0.13300000  1.0 -0.3810883094
N  N8  1  0.86145000  0.22845000  0.89388000  1.0 -0.3810883094
N  N9  1  0.83457000  0.96757000  0.60612000  1.0 -0.3810883094
N  N10  1  0.22845000  0.89388000  0.86145000  1.0 -0.3810883094
N  N11  1  0.27155000  0.13300000  0.66543000  1.0 -0.3810883094
N  N12  1  0.96757000  0.60612000  0.83457000  1.0 -0.3810883094
N  N13  1  0.36700000  0.63855000  0.53243000  1.0 -0.3810883094
N  N14  1  0.63855000  0.53243000  0.36700000  1.0 -0.3810883094
N  N15  1  0.53243000  0.36700000  0.63855000  1.0 -0.3810883094
N  N16  1  0.66543000  0.89388000  0.53243000  1.0 -0.3810883094
N  N17  1  0.83457000  0.36700000  0.22845000  1.0 -0.3810883094
N  N18  1  0.63855000  0.60612000  0.27155000  1.0 -0.3810883094
N  N19  1  0.53243000  0.66543000  0.89388000  1.0 -0.3810883094
N  N20  1  0.22845000  0.83457000  0.36700000  1.0 -0.3810883094
N  N21  1  0.27155000  0.63855000  0.60612000  1.0 -0.3810883094
N  N22  1  0.89388000  0.53243000  0.66543000  1.0 -0.3810883094
N  N23  1  0.36700000  0.22845000  0.83457000  1.0 -0.3810883094
N  N24  1  0.60612000  0.27155000  0.63855000  1.0 -0.3810883094
N  N25  1  0.13855000  0.86700000  0.03243000  1.0 -0.3810883094
N  N26  1  0.03243000  0.13855000  0.86700000  1.0 -0.3810883094
N  N27  1  0.86700000  0.03243000  0.13855000  1.0 -0.3810883094
N  N28  1  0.39388000  0.16543000  0.03243000  1.0 -0.3810883094
N  N29  1  0.10612000  0.13855000  0.77155000  1.0 -0.3810883094
N  N30  1  0.86700000  0.33457000  0.72845000  1.0 -0.3810883094
N  N31  1  0.33457000  0.72845000  0.86700000  1.0 -0.3810883094
N  N32  1  0.13855000  0.77155000  0.10612000  1.0 -0.3810883094
N  N33  1  0.16543000  0.03243000  0.39388000  1.0 -0.3810883094
N  N34  1  0.77155000  0.10612000  0.13855000  1.0 -0.3810883094
N  N35  1  0.72845000  0.86700000  0.33457000  1.0 -0.3810883094
N  N36  1  0.03243000  0.39388000  0.16543000  1.0 -0.3810883094
N  N37  1  0.63300000  0.36145000  0.46757000  1.0 -0.3810883094
N  N38  1  0.36145000  0.46757000  0.63300000  1.0 -0.3810883094
N  N39  1  0.46757000  0.63300000  0.36145000  1.0 -0.3810883094
N  N40  1  0.33457000  0.10612000  0.46757000  1.0 -0.3810883094
N  N41  1  0.16543000  0.63300000  0.77155000  1.0 -0.3810883094
N  N42  1  0.36145000  0.39388000  0.72845000  1.0 -0.3810883094
N  N43  1  0.46757000  0.33457000  0.10612000  1.0 -0.3810883094
N  N44  1  0.77155000  0.16543000  0.63300000  1.0 -0.3810883094
N  N45  1  0.72845000  0.36145000  0.39388000  1.0 -0.3810883094
N  N46  1  0.10612000  0.46757000  0.33457000  1.0 -0.3810883094
N  N47  1  0.63300000  0.77155000  0.16543000  1.0 -0.3810883094
N  N48  1  0.39388000  0.72845000  0.36145000  1.0 -0.3810883094
N  N49  1  0.80903000  0.06846000  0.00811000  1.0 -0.3810883094
N  N50  1  0.00811000  0.80903000  0.06846000  1.0 -0.3810883094
N  N51  1  0.06846000  0.00811000  0.80903000  1.0 -0.3810883094
N  N52  1  0.69908000  0.93965000  0.00811000  1.0 -0.3810883094
N  N53  1  0.80092000  0.80903000  0.24057000  1.0 -0.3810883094
N  N54  1  0.06846000  0.56035000  0.25943000  1.0 -0.3810883094
N  N55  1  0.56035000  0.25943000  0.06846000  1.0 -0.3810883094
N  N56  1  0.80903000  0.24057000  0.80092000  1.0 -0.3810883094
N  N57  1  0.93965000  0.00811000  0.69908000  1.0 -0.3810883094
N  N58  1  0.24057000  0.80092000  0.80903000  1.0 -0.3810883094
N  N59  1  0.25943000  0.06846000  0.56035000  1.0 -0.3810883094
N  N60  1  0.00811000  0.69908000  0.93965000  1.0 -0.3810883094
N  N61  1  0.43154000  0.69097000  0.49189000  1.0 -0.3810883094
N  N62  1  0.69097000  0.49189000  0.43154000  1.0 -0.3810883094
N  N63  1  0.49189000  0.43154000  0.69097000  1.0 -0.3810883094
N  N64  1  0.56035000  0.80092000  0.49189000  1.0 -0.3810883094
N  N65  1  0.93965000  0.43154000  0.24057000  1.0 -0.3810883094
N  N66  1  0.69097000  0.69908000  0.25943000  1.0 -0.3810883094
N  N67  1  0.49189000  0.56035000  0.80092000  1.0 -0.3810883094
N  N68  1  0.24057000  0.93965000  0.43154000  1.0 -0.3810883094
N  N69  1  0.25943000  0.69097000  0.69908000  1.0 -0.3810883094
N  N70  1  0.80092000  0.49189000  0.56035000  1.0 -0.3810883094
N  N71  1  0.43154000  0.24057000  0.93965000  1.0 -0.3810883094
N  N72  1  0.69908000  0.25943000  0.69097000  1.0 -0.3810883094
N  N73  1  0.19097000  0.93154000  0.99189000  1.0 -0.3810883094
N  N74  1  0.99189000  0.19097000  0.93154000  1.0 -0.3810883094
N  N75  1  0.93154000  0.99189000  0.19097000  1.0 -0.3810883094
N  N76  1  0.30092000  0.06035000  0.99189000  1.0 -0.3810883094
N  N77  1  0.19908000  0.19097000  0.75943000  1.0 -0.3810883094
N  N78  1  0.93154000  0.43965000  0.74057000  1.0 -0.3810883094
N  N79  1  0.43965000  0.74057000  0.93154000  1.0 -0.3810883094
N  N80  1  0.19097000  0.75943000  0.19908000  1.0 -0.3810883094
N  N81  1  0.06035000  0.99189000  0.30092000  1.0 -0.3810883094
N  N82  1  0.75943000  0.19908000  0.19097000  1.0 -0.3810883094
N  N83  1  0.74057000  0.93154000  0.43965000  1.0 -0.3810883094
N  N84  1  0.99189000  0.30092000  0.06035000  1.0 -0.3810883094
N  N85  1  0.56846000  0.30903000  0.50811000  1.0 -0.3810883094
N  N86  1  0.30903000  0.50811000  0.56846000  1.0 -0.3810883094
N  N87  1  0.50811000  0.56846000  0.30903000  1.0 -0.3810883094
N  N88  1  0.43965000  0.19908000  0.50811000  1.0 -0.3810883094
N  N89  1  0.06035000  0.56846000  0.75943000  1.0 -0.3810883094
N  N90  1  0.30903000  0.30092000  0.74057000  1.0 -0.3810883094
N  N91  1  0.50811000  0.43965000  0.19908000  1.0 -0.3810883094
N  N92  1  0.75943000  0.06035000  0.56846000  1.0 -0.3810883094
N  N93  1  0.74057000  0.30903000  0.30092000  1.0 -0.3810883094
N  N94  1  0.19908000  0.50811000  0.43965000  1.0 -0.3810883094
N  N95  1  0.56846000  0.75943000  0.06035000  1.0 -0.3810883094
N  N96  1  0.30092000  0.74057000  0.30903000  1.0 -0.3810883094
