# DDEC6 charges by PACMAN v1.1 (https://github.com/mtap-research/PACMAN-charge/)
data_MECWOH_ASR_pacman
_symmetry_space_group_name_H-M   'P 1'
_cell_length_a   25.33830000
_cell_length_b   25.33830000
_cell_length_c   25.33830000
_cell_angle_alpha   109.47100000
_cell_angle_beta   109.47100000
_cell_angle_gamma   109.47100000
_symmetry_Int_Tables_number   1
_chemical_formula_structural   ZnH14(C5N2)2
_chemical_formula_sum   'Zn24 H336 C240 N96'
_cell_volume   12523.16429427
_cell_formula_units_Z   24
loop_
 _symmetry_equiv_pos_site_id
 _symmetry_equiv_pos_as_xyz
  1  'x, y, z'
loop_
 _atom_site_type_symbol
 _atom_site_label
 _atom_site_symmetry_multiplicity
 _atom_site_fract_x
 _atom_site_fract_y
 _atom_site_fract_z
 _atom_site_occupancy
 _atom_site_charge
Zn  Zn1  1  0.35372000  0.64628000  0.50000000  1.0 0.676428103
Zn  Zn2  1  0.64628000  0.35372000  0.50000000  1.0 0.6737243125
Zn  Zn3  1  0.64626000  0.14626000  0.29254000  1.0 0.676428103
Zn  Zn4  1  0.35374000  0.85374000  0.70746000  1.0 0.6737243125
Zn  Zn5  1  0.85374000  0.35374000  0.70746000  1.0 0.676428103
Zn  Zn6  1  0.14626000  0.64626000  0.29254000  1.0 0.6737243125
Zn  Zn7  1  0.14627000  0.85373000  0.50000000  1.0 0.6737243125
Zn  Zn8  1  0.85373000  0.14627000  0.50000000  1.0 0.676428103
Zn  Zn9  1  0.64628000  0.50000000  0.35372000  1.0 0.676428103
Zn  Zn10  1  0.35372000  0.50000000  0.64628000  1.0 0.676428103
Zn  Zn11  1  0.14626000  0.29254000  0.64626000  1.0 0.676428103
Zn  Zn12  1  0.85374000  0.70746000  0.35374000  1.0 0.676428103
Zn  Zn13  1  0.35374000  0.70746000  0.85374000  1.0 0.676428103
Zn  Zn14  1  0.64626000  0.29254000  0.14626000  1.0 0.676428103
Zn  Zn15  1  0.85373000  0.50000000  0.14627000  1.0 0.676428103
Zn  Zn16  1  0.14627000  0.50000000  0.85373000  1.0 0.676428103
Zn  Zn17  1  0.50000000  0.35372000  0.64628000  1.0 0.6737243125
Zn  Zn18  1  0.50000000  0.64628000  0.35372000  1.0 0.6737243125
Zn  Zn19  1  0.29254000  0.64626000  0.14626000  1.0 0.676428103
Zn  Zn20  1  0.70746000  0.35374000  0.85374000  1.0 0.676428103
Zn  Zn21  1  0.70746000  0.85374000  0.35374000  1.0 0.676428103
Zn  Zn22  1  0.29254000  0.14626000  0.64626000  1.0 0.676428103
Zn  Zn23  1  0.50000000  0.14627000  0.85373000  1.0 0.676428103
Zn  Zn24  1  0.50000000  0.85373000  0.14627000  1.0 0.6737243125
H  H1  1  0.49316000  0.77448000  0.62164000  1.0 -0.0170156472
H  H2  1  0.50684000  0.22552000  0.37836000  1.0 -0.0170156472
H  H3  1  0.50684000  0.12848000  0.28132000  1.0 -0.0170156472
H  H4  1  0.49316000  0.87152000  0.71868000  1.0 -0.0170156472
H  H5  1  0.84716000  0.22552000  0.71869000  1.0 -0.0170156472
H  H6  1  0.15284000  0.77448000  0.28131000  1.0 -0.014403875
H  H7  1  0.15284000  0.87153000  0.37836000  1.0 -0.014403875
H  H8  1  0.84716000  0.12847000  0.62164000  1.0 -0.0170156472
H  H9  1  0.77448000  0.62164000  0.49316000  1.0 -0.014403875
H  H10  1  0.22552000  0.37836000  0.50684000  1.0 -0.0170156472
H  H11  1  0.12848000  0.28132000  0.50684000  1.0 -0.0170156472
H  H12  1  0.87152000  0.71868000  0.49316000  1.0 -0.014403875
H  H13  1  0.22552000  0.71869000  0.84716000  1.0 -0.0170156472
H  H14  1  0.77448000  0.28131000  0.15284000  1.0 -0.014403875
H  H15  1  0.87153000  0.37836000  0.15284000  1.0 -0.014403875
H  H16  1  0.12847000  0.62164000  0.84716000  1.0 -0.0170156472
H  H17  1  0.62164000  0.49316000  0.77448000  1.0 -0.0170156472
H  H18  1  0.37836000  0.50684000  0.22552000  1.0 -0.0170156472
H  H19  1  0.28132000  0.50684000  0.12848000  1.0 -0.014403875
H  H20  1  0.71868000  0.49316000  0.87152000  1.0 -0.0170156472
H  H21  1  0.71869000  0.84716000  0.22552000  1.0 -0.0170156472
H  H22  1  0.28131000  0.15284000  0.77448000  1.0 -0.0170156472
H  H23  1  0.37836000  0.15284000  0.87153000  1.0 -0.0170156472
H  H24  1  0.62164000  0.84716000  0.12847000  1.0 -0.0170156472
H  H25  1  0.49316000  0.71868000  0.87152000  1.0 -0.0170156472
H  H26  1  0.50684000  0.28132000  0.12848000  1.0 -0.0170156472
H  H27  1  0.50684000  0.37836000  0.22552000  1.0 -0.0170156472
H  H28  1  0.49316000  0.62164000  0.77448000  1.0 -0.0170156472
H  H29  1  0.84716000  0.62164000  0.12847000  1.0 -0.0170156472
H  H30  1  0.15284000  0.37836000  0.87153000  1.0 -0.0170156472
H  H31  1  0.15284000  0.28131000  0.77448000  1.0 -0.0170156472
H  H32  1  0.84716000  0.71869000  0.22552000  1.0 -0.0170156472
H  H33  1  0.77448000  0.15284000  0.28131000  1.0 -0.0170156472
H  H34  1  0.22552000  0.84716000  0.71869000  1.0 -0.0170156472
H  H35  1  0.12847000  0.84716000  0.62164000  1.0 -0.0170156472
H  H36  1  0.87153000  0.15284000  0.37836000  1.0 -0.0170156472
H  H37  1  0.22552000  0.50684000  0.37836000  1.0 -0.0170156472
H  H38  1  0.77448000  0.49316000  0.62164000  1.0 -0.014403875
H  H39  1  0.87152000  0.49316000  0.71868000  1.0 -0.014403875
H  H40  1  0.12848000  0.50684000  0.28132000  1.0 -0.0170156472
H  H41  1  0.62164000  0.12847000  0.84716000  1.0 -0.0170156472
H  H42  1  0.37836000  0.87153000  0.15284000  1.0 -0.0170156472
H  H43  1  0.28131000  0.77448000  0.15284000  1.0 -0.014403875
H  H44  1  0.71869000  0.22552000  0.84716000  1.0 -0.0170156472
H  H45  1  0.71868000  0.87152000  0.49316000  1.0 -0.014403875
H  H46  1  0.28132000  0.12848000  0.50684000  1.0 -0.0170156472
H  H47  1  0.37836000  0.22552000  0.50684000  1.0 -0.0170156472
H  H48  1  0.62164000  0.77448000  0.49316000  1.0 -0.014403875
H  H49  1  0.25122000  0.68142000  0.49935000  1.0 0.1680266233
H  H50  1  0.74878000  0.31858000  0.50065000  1.0 0.1680266233
H  H51  1  0.74878000  0.24813000  0.43020000  1.0 0.1680266233
H  H52  1  0.25122000  0.75187000  0.56980000  1.0 0.1680266233
H  H53  1  0.81793000  0.31858000  0.56980000  1.0 0.1680266233
H  H54  1  0.18207000  0.68142000  0.43020000  1.0 0.1680266233
H  H55  1  0.18207000  0.75187000  0.50065000  1.0 0.1680266233
H  H56  1  0.81793000  0.24813000  0.49935000  1.0 0.1680266233
H  H57  1  0.68142000  0.49935000  0.25122000  1.0 0.1680266233
H  H58  1  0.31858000  0.50065000  0.74878000  1.0 0.1680266233
H  H59  1  0.24813000  0.43020000  0.74878000  1.0 0.1680266233
H  H60  1  0.75187000  0.56980000  0.25122000  1.0 0.1680266233
H  H61  1  0.31858000  0.56980000  0.81793000  1.0 0.1680266233
H  H62  1  0.68142000  0.43020000  0.18207000  1.0 0.1680266233
H  H63  1  0.75187000  0.50065000  0.18207000  1.0 0.1680266233
H  H64  1  0.24813000  0.49935000  0.81793000  1.0 0.1680266233
H  H65  1  0.49935000  0.25122000  0.68142000  1.0 0.1680266233
H  H66  1  0.50065000  0.74878000  0.31858000  1.0 0.1680266233
H  H67  1  0.43020000  0.74878000  0.24813000  1.0 0.1680266233
H  H68  1  0.56980000  0.25122000  0.75187000  1.0 0.1680266233
H  H69  1  0.56980000  0.81793000  0.31858000  1.0 0.1680266233
H  H70  1  0.43020000  0.18207000  0.68142000  1.0 0.1680266233
H  H71  1  0.50065000  0.18207000  0.75187000  1.0 0.1680266233
H  H72  1  0.49935000  0.81793000  0.24813000  1.0 0.1680266233
H  H73  1  0.25122000  0.56980000  0.75187000  1.0 0.1680266233
H  H74  1  0.74878000  0.43020000  0.24813000  1.0 0.1680266233
H  H75  1  0.74878000  0.50065000  0.31858000  1.0 0.1680266233
H  H76  1  0.25122000  0.49935000  0.68142000  1.0 0.1680266233
H  H77  1  0.81793000  0.49935000  0.24813000  1.0 0.1680266233
H  H78  1  0.18207000  0.50065000  0.75187000  1.0 0.1680266233
H  H79  1  0.18207000  0.43020000  0.68142000  1.0 0.1680266233
H  H80  1  0.81793000  0.56980000  0.31858000  1.0 0.1680266233
H  H81  1  0.68142000  0.18207000  0.43020000  1.0 0.1680266233
H  H82  1  0.31858000  0.81793000  0.56980000  1.0 0.1680266233
H  H83  1  0.24813000  0.81793000  0.49935000  1.0 0.1680266233
H  H84  1  0.75187000  0.18207000  0.50065000  1.0 0.1680266233
H  H85  1  0.31858000  0.74878000  0.50065000  1.0 0.1680266233
H  H86  1  0.68142000  0.25122000  0.49935000  1.0 0.1680266233
H  H87  1  0.75187000  0.25122000  0.56980000  1.0 0.1680266233
H  H88  1  0.24813000  0.74878000  0.43020000  1.0 0.1680266233
H  H89  1  0.49935000  0.24813000  0.81793000  1.0 0.1680266233
H  H90  1  0.50065000  0.75187000  0.18207000  1.0 0.1680266233
H  H91  1  0.43020000  0.68142000  0.18207000  1.0 0.1680266233
H  H92  1  0.56980000  0.31858000  0.81793000  1.0 0.1680266233
H  H93  1  0.56980000  0.75187000  0.25122000  1.0 0.1680266233
H  H94  1  0.43020000  0.24813000  0.74878000  1.0 0.1680266233
H  H95  1  0.50065000  0.31858000  0.74878000  1.0 0.1680266233
H  H96  1  0.49935000  0.68142000  0.25122000  1.0 0.1680266233
H  H97  1  0.18529000  0.63466000  0.55062000  1.0 0.096186713
H  H98  1  0.81471000  0.36534000  0.44938000  1.0 0.096186713
H  H99  1  0.91596000  0.36534000  0.55062000  1.0 0.096186713
H  H100  1  0.08404000  0.63466000  0.44938000  1.0 0.096186713
H  H101  1  0.63466000  0.55062000  0.18529000  1.0 0.096186713
H  H102  1  0.36534000  0.44938000  0.81471000  1.0 0.096186713
H  H103  1  0.36534000  0.55062000  0.91596000  1.0 0.096186713
H  H104  1  0.63466000  0.44938000  0.08404000  1.0 0.096186713
H  H105  1  0.55062000  0.18529000  0.63466000  1.0 0.096186713
H  H106  1  0.44938000  0.81471000  0.36534000  1.0 0.096186713
H  H107  1  0.55062000  0.91596000  0.36534000  1.0 0.096186713
H  H108  1  0.44938000  0.08404000  0.63466000  1.0 0.096186713
H  H109  1  0.18529000  0.55062000  0.63466000  1.0 0.096186713
H  H110  1  0.81471000  0.44938000  0.36534000  1.0 0.096186713
H  H111  1  0.91596000  0.55062000  0.36534000  1.0 0.096186713
H  H112  1  0.08404000  0.44938000  0.63466000  1.0 0.096186713
H  H113  1  0.63466000  0.08404000  0.44938000  1.0 0.096186713
H  H114  1  0.36534000  0.91596000  0.55062000  1.0 0.096186713
H  H115  1  0.36534000  0.81471000  0.44938000  1.0 0.096186713
H  H116  1  0.63466000  0.18529000  0.55062000  1.0 0.096186713
H  H117  1  0.55062000  0.36534000  0.91596000  1.0 0.096186713
H  H118  1  0.44938000  0.63466000  0.08404000  1.0 0.096186713
H  H119  1  0.55062000  0.63466000  0.18529000  1.0 0.096186713
H  H120  1  0.44938000  0.36534000  0.81471000  1.0 0.096186713
H  H121  1  0.26705000  0.62487000  0.57129000  1.0 0.0487295642
H  H122  1  0.73295000  0.37513000  0.42871000  1.0 0.0487295642
H  H123  1  0.73295000  0.30423000  0.35782000  1.0 0.0487295642
H  H124  1  0.26705000  0.69577000  0.64218000  1.0 0.0487295642
H  H125  1  0.94642000  0.37513000  0.64218000  1.0 0.0487295642
H  H126  1  0.05358000  0.62487000  0.35782000  1.0 0.0487295642
H  H127  1  0.05358000  0.69577000  0.42872000  1.0 0.0487295642
H  H128  1  0.94642000  0.30423000  0.57128000  1.0 0.0487295642
H  H129  1  0.62487000  0.57129000  0.26705000  1.0 0.0487295642
H  H130  1  0.37513000  0.42871000  0.73295000  1.0 0.0487295642
H  H131  1  0.30423000  0.35782000  0.73295000  1.0 0.0487295642
H  H132  1  0.69577000  0.64218000  0.26705000  1.0 0.0487295642
H  H133  1  0.37513000  0.64218000  0.94642000  1.0 0.0487295642
H  H134  1  0.62487000  0.35782000  0.05358000  1.0 0.0487295642
H  H135  1  0.69577000  0.42872000  0.05358000  1.0 0.0487295642
H  H136  1  0.30423000  0.57128000  0.94642000  1.0 0.0487295642
H  H137  1  0.57129000  0.26705000  0.62487000  1.0 0.0487295642
H  H138  1  0.42871000  0.73295000  0.37513000  1.0 0.0487295642
H  H139  1  0.35782000  0.73295000  0.30423000  1.0 0.0487295642
H  H140  1  0.64218000  0.26705000  0.69577000  1.0 0.0487295642
H  H141  1  0.64218000  0.94642000  0.37513000  1.0 0.0487295642
H  H142  1  0.35782000  0.05358000  0.62487000  1.0 0.0487295642
H  H143  1  0.42872000  0.05358000  0.69577000  1.0 0.0487295642
H  H144  1  0.57128000  0.94642000  0.30423000  1.0 0.0487295642
H  H145  1  0.26705000  0.64218000  0.69577000  1.0 0.0487295642
H  H146  1  0.73295000  0.35782000  0.30423000  1.0 0.0487295642
H  H147  1  0.73295000  0.42871000  0.37513000  1.0 0.0487295642
H  H148  1  0.26705000  0.57129000  0.62487000  1.0 0.0487295642
H  H149  1  0.94642000  0.57128000  0.30423000  1.0 0.0487295642
H  H150  1  0.05358000  0.42872000  0.69577000  1.0 0.0487295642
H  H151  1  0.05358000  0.35782000  0.62487000  1.0 0.0487295642
H  H152  1  0.94642000  0.64218000  0.37513000  1.0 0.0487295642
H  H153  1  0.62487000  0.05358000  0.35782000  1.0 0.0487295642
H  H154  1  0.37513000  0.94642000  0.64218000  1.0 0.0487295642
H  H155  1  0.30423000  0.94642000  0.57128000  1.0 0.0487295642
H  H156  1  0.69577000  0.05358000  0.42872000  1.0 0.0487295642
H  H157  1  0.37513000  0.73295000  0.42871000  1.0 0.0487295642
H  H158  1  0.62487000  0.26705000  0.57129000  1.0 0.0487295642
H  H159  1  0.69577000  0.26705000  0.64218000  1.0 0.0487295642
H  H160  1  0.30423000  0.73295000  0.35782000  1.0 0.0487295642
H  H161  1  0.57128000  0.30423000  0.94642000  1.0 0.0487295642
H  H162  1  0.42872000  0.69577000  0.05358000  1.0 0.0487295642
H  H163  1  0.35782000  0.62487000  0.05358000  1.0 0.0487295642
H  H164  1  0.64218000  0.37513000  0.94642000  1.0 0.0487295642
H  H165  1  0.64218000  0.69577000  0.26705000  1.0 0.0487295642
H  H166  1  0.35782000  0.30423000  0.73295000  1.0 0.0487295642
H  H167  1  0.42871000  0.37513000  0.73295000  1.0 0.0487295642
H  H168  1  0.57129000  0.62487000  0.26705000  1.0 0.0487295642
H  H169  1  0.46120000  0.78210000  0.53136000  1.0 -0.038213815
H  H170  1  0.53880000  0.21790000  0.46864000  1.0 -0.038213815
H  H171  1  0.53881000  0.07016000  0.32091000  1.0 -0.038213815
H  H172  1  0.46119000  0.92984000  0.67909000  1.0 -0.038213815
H  H173  1  0.74926000  0.21790000  0.67910000  1.0 -0.038213815
H  H174  1  0.25074000  0.78210000  0.32090000  1.0 -0.038213815
H  H175  1  0.25074000  0.92984000  0.46864000  1.0 -0.038213815
H  H176  1  0.74926000  0.07016000  0.53136000  1.0 -0.038213815
H  H177  1  0.78210000  0.53136000  0.46120000  1.0 -0.038213815
H  H178  1  0.21790000  0.46864000  0.53880000  1.0 -0.038213815
H  H179  1  0.07016000  0.32091000  0.53881000  1.0 -0.038213815
H  H180  1  0.92984000  0.67909000  0.46119000  1.0 -0.038213815
H  H181  1  0.21790000  0.67910000  0.74926000  1.0 -0.038213815
H  H182  1  0.78210000  0.32090000  0.25074000  1.0 -0.038213815
H  H183  1  0.92984000  0.46864000  0.25074000  1.0 -0.038213815
H  H184  1  0.07016000  0.53136000  0.74926000  1.0 -0.038213815
H  H185  1  0.53136000  0.46120000  0.78210000  1.0 -0.038213815
H  H186  1  0.46864000  0.53880000  0.21790000  1.0 -0.038213815
H  H187  1  0.32091000  0.53881000  0.07016000  1.0 -0.038213815
H  H188  1  0.67909000  0.46119000  0.92984000  1.0 -0.038213815
H  H189  1  0.67910000  0.74926000  0.21790000  1.0 -0.038213815
H  H190  1  0.32090000  0.25074000  0.78210000  1.0 -0.038213815
H  H191  1  0.46864000  0.25074000  0.92984000  1.0 -0.038213815
H  H192  1  0.53136000  0.74926000  0.07016000  1.0 -0.038213815
H  H193  1  0.46119000  0.67909000  0.92984000  1.0 -0.038213815
H  H194  1  0.53881000  0.32091000  0.07016000  1.0 -0.038213815
H  H195  1  0.53880000  0.46864000  0.21790000  1.0 -0.038213815
H  H196  1  0.46120000  0.53136000  0.78210000  1.0 -0.038213815
H  H197  1  0.74926000  0.53136000  0.07016000  1.0 -0.038213815
H  H198  1  0.25074000  0.46864000  0.92984000  1.0 -0.038213815
H  H199  1  0.25074000  0.32090000  0.78210000  1.0 -0.038213815
H  H200  1  0.74926000  0.67910000  0.21790000  1.0 -0.038213815
H  H201  1  0.78210000  0.25074000  0.32090000  1.0 -0.038213815
H  H202  1  0.21790000  0.74926000  0.67910000  1.0 -0.038213815
H  H203  1  0.07016000  0.74926000  0.53136000  1.0 -0.038213815
H  H204  1  0.92984000  0.25074000  0.46864000  1.0 -0.038213815
H  H205  1  0.21790000  0.53880000  0.46864000  1.0 -0.038213815
H  H206  1  0.78210000  0.46120000  0.53136000  1.0 -0.038213815
H  H207  1  0.92984000  0.46119000  0.67909000  1.0 -0.038213815
H  H208  1  0.07016000  0.53881000  0.32091000  1.0 -0.038213815
H  H209  1  0.53136000  0.07016000  0.74926000  1.0 -0.038213815
H  H210  1  0.46864000  0.92984000  0.25074000  1.0 -0.038213815
H  H211  1  0.32090000  0.78210000  0.25074000  1.0 -0.038213815
H  H212  1  0.67910000  0.21790000  0.74926000  1.0 -0.038213815
H  H213  1  0.67909000  0.92984000  0.46119000  1.0 -0.038213815
H  H214  1  0.32091000  0.07016000  0.53881000  1.0 -0.038213815
H  H215  1  0.46864000  0.21790000  0.53880000  1.0 -0.038213815
H  H216  1  0.53136000  0.78210000  0.46120000  1.0 -0.038213815
H  H217  1  0.40222000  0.54104000  0.35254000  1.0 0.0606079369
H  H218  1  0.59778000  0.45896000  0.64746000  1.0 0.0606079369
H  H219  1  0.59778000  0.95031000  0.13881000  1.0 0.0606079369
H  H220  1  0.40222000  0.04969000  0.86119000  1.0 0.0606079369
H  H221  1  0.81150000  0.45896000  0.86119000  1.0 0.0606079369
H  H222  1  0.18850000  0.54104000  0.13881000  1.0 0.0606079369
H  H223  1  0.18850000  0.04968000  0.64746000  1.0 0.0606079369
H  H224  1  0.81150000  0.95032000  0.35254000  1.0 0.0606079369
H  H225  1  0.54104000  0.35254000  0.40222000  1.0 0.0606079369
H  H226  1  0.45896000  0.64746000  0.59778000  1.0 0.0606079369
H  H227  1  0.95031000  0.13881000  0.59778000  1.0 0.0606079369
H  H228  1  0.04969000  0.86119000  0.40222000  1.0 0.0606079369
H  H229  1  0.45896000  0.86119000  0.81150000  1.0 0.0606079369
H  H230  1  0.54104000  0.13881000  0.18850000  1.0 0.0606079369
H  H231  1  0.04968000  0.64746000  0.18850000  1.0 0.0606079369
H  H232  1  0.95032000  0.35254000  0.81150000  1.0 0.0606079369
H  H233  1  0.35254000  0.40222000  0.54104000  1.0 0.0606079369
H  H234  1  0.64746000  0.59778000  0.45896000  1.0 0.0606079369
H  H235  1  0.13881000  0.59778000  0.95031000  1.0 0.0606079369
H  H236  1  0.86119000  0.40222000  0.04969000  1.0 0.0606079369
H  H237  1  0.86119000  0.81150000  0.45896000  1.0 0.0606079369
H  H238  1  0.13881000  0.18850000  0.54104000  1.0 0.0606079369
H  H239  1  0.64746000  0.18850000  0.04968000  1.0 0.0606079369
H  H240  1  0.35254000  0.81150000  0.95032000  1.0 0.0606079369
H  H241  1  0.40222000  0.86119000  0.04969000  1.0 0.0606079369
H  H242  1  0.59778000  0.13881000  0.95031000  1.0 0.0606079369
H  H243  1  0.59778000  0.64746000  0.45896000  1.0 0.0606079369
H  H244  1  0.40222000  0.35254000  0.54104000  1.0 0.0606079369
H  H245  1  0.81150000  0.35254000  0.95032000  1.0 0.0606079369
H  H246  1  0.18850000  0.64746000  0.04968000  1.0 0.0606079369
H  H247  1  0.18850000  0.13881000  0.54104000  1.0 0.0606079369
H  H248  1  0.81150000  0.86119000  0.45896000  1.0 0.0606079369
H  H249  1  0.54104000  0.18850000  0.13881000  1.0 0.0606079369
H  H250  1  0.45896000  0.81150000  0.86119000  1.0 0.0606079369
H  H251  1  0.95032000  0.81150000  0.35254000  1.0 0.0606079369
H  H252  1  0.04968000  0.18850000  0.64746000  1.0 0.0606079369
H  H253  1  0.45896000  0.59778000  0.64746000  1.0 0.0606079369
H  H254  1  0.54104000  0.40222000  0.35254000  1.0 0.0606079369
H  H255  1  0.04969000  0.40222000  0.86119000  1.0 0.0606079369
H  H256  1  0.95031000  0.59778000  0.13881000  1.0 0.0606079369
H  H257  1  0.35254000  0.95032000  0.81150000  1.0 0.0606079369
H  H258  1  0.64746000  0.04968000  0.18850000  1.0 0.0606079369
H  H259  1  0.13881000  0.54104000  0.18850000  1.0 0.0606079369
H  H260  1  0.86119000  0.45896000  0.81150000  1.0 0.0606079369
H  H261  1  0.86119000  0.04969000  0.40222000  1.0 0.0606079369
H  H262  1  0.13881000  0.95031000  0.59778000  1.0 0.0606079369
H  H263  1  0.64746000  0.45896000  0.59778000  1.0 0.0606079369
H  H264  1  0.35254000  0.54104000  0.40222000  1.0 0.0606079369
H  H265  1  0.42235000  0.48434000  0.42235000  1.0 0.0487295642
H  H266  1  0.57765000  0.51566000  0.57765000  1.0 0.0487295642
H  H267  1  0.57765000  0.00000000  0.06199000  1.0 0.0487295642
H  H268  1  0.42235000  0.00000000  0.93801000  1.0 0.0487295642
H  H269  1  0.93800000  0.51566000  0.93800000  1.0 0.0487295642
H  H270  1  0.06200000  0.48434000  0.06200000  1.0 0.0487295642
H  H271  1  0.06199000  0.00000000  0.57765000  1.0 0.0487295642
H  H272  1  0.93801000  0.00000000  0.42235000  1.0 0.0487295642
H  H273  1  0.48434000  0.42235000  0.42235000  1.0 0.0487295642
H  H274  1  0.51566000  0.57765000  0.57765000  1.0 0.0487295642
H  H275  1  0.00000000  0.06199000  0.57765000  1.0 0.0487295642
H  H276  1  0.00000000  0.93801000  0.42235000  1.0 0.0487295642
H  H277  1  0.51566000  0.93800000  0.93800000  1.0 0.0487295642
H  H278  1  0.48434000  0.06200000  0.06200000  1.0 0.0487295642
H  H279  1  0.00000000  0.57765000  0.06199000  1.0 0.0487295642
H  H280  1  0.00000000  0.42235000  0.93801000  1.0 0.0487295642
H  H281  1  0.42235000  0.42235000  0.48434000  1.0 0.0487295642
H  H282  1  0.57765000  0.57765000  0.51566000  1.0 0.0487295642
H  H283  1  0.06199000  0.57765000  0.00000000  1.0 0.0487295642
H  H284  1  0.93801000  0.42235000  0.00000000  1.0 0.0487295642
H  H285  1  0.93800000  0.93800000  0.51566000  1.0 0.0487295642
H  H286  1  0.06200000  0.06200000  0.48434000  1.0 0.0487295642
H  H287  1  0.57765000  0.06199000  0.00000000  1.0 0.0487295642
H  H288  1  0.42235000  0.93801000  0.00000000  1.0 0.0487295642
H  H289  1  0.49458000  0.57294000  0.45936000  1.0 0.0218176806
H  H290  1  0.50542000  0.42706000  0.54064000  1.0 0.0218176806
H  H291  1  0.50543000  0.96478000  0.07836000  1.0 0.0218176806
H  H292  1  0.49457000  0.03522000  0.92164000  1.0 0.0218176806
H  H293  1  0.88641000  0.42706000  0.92164000  1.0 0.0218176806
H  H294  1  0.11359000  0.57294000  0.07836000  1.0 0.0218176806
H  H295  1  0.11359000  0.03522000  0.54065000  1.0 0.0218176806
H  H296  1  0.88641000  0.96478000  0.45935000  1.0 0.0218176806
H  H297  1  0.57294000  0.45936000  0.49458000  1.0 0.0218176806
H  H298  1  0.42706000  0.54064000  0.50542000  1.0 0.0218176806
H  H299  1  0.96478000  0.07836000  0.50543000  1.0 0.0218176806
H  H300  1  0.03522000  0.92164000  0.49457000  1.0 0.0218176806
H  H301  1  0.42706000  0.92164000  0.88641000  1.0 0.0218176806
H  H302  1  0.57294000  0.07836000  0.11359000  1.0 0.0218176806
H  H303  1  0.03522000  0.54065000  0.11359000  1.0 0.0218176806
H  H304  1  0.96478000  0.45935000  0.88641000  1.0 0.0218176806
H  H305  1  0.45936000  0.49458000  0.57294000  1.0 0.0218176806
H  H306  1  0.54064000  0.50542000  0.42706000  1.0 0.0218176806
H  H307  1  0.07836000  0.50543000  0.96478000  1.0 0.0218176806
H  H308  1  0.92164000  0.49457000  0.03522000  1.0 0.0218176806
H  H309  1  0.92164000  0.88641000  0.42706000  1.0 0.0218176806
H  H310  1  0.07836000  0.11359000  0.57294000  1.0 0.0218176806
H  H311  1  0.54065000  0.11359000  0.03522000  1.0 0.0218176806
H  H312  1  0.45935000  0.88641000  0.96478000  1.0 0.0218176806
H  H313  1  0.49457000  0.92164000  0.03522000  1.0 0.0218176806
H  H314  1  0.50543000  0.07836000  0.96478000  1.0 0.0218176806
H  H315  1  0.50542000  0.54064000  0.42706000  1.0 0.0218176806
H  H316  1  0.49458000  0.45936000  0.57294000  1.0 0.0218176806
H  H317  1  0.88641000  0.45935000  0.96478000  1.0 0.0218176806
H  H318  1  0.11359000  0.54065000  0.03522000  1.0 0.0218176806
H  H319  1  0.11359000  0.07836000  0.57294000  1.0 0.0218176806
H  H320  1  0.88641000  0.92164000  0.42706000  1.0 0.0218176806
H  H321  1  0.57294000  0.11359000  0.07836000  1.0 0.0218176806
H  H322  1  0.42706000  0.88641000  0.92164000  1.0 0.0218176806
H  H323  1  0.96478000  0.88641000  0.45935000  1.0 0.0218176806
H  H324  1  0.03522000  0.11359000  0.54065000  1.0 0.0218176806
H  H325  1  0.42706000  0.50542000  0.54064000  1.0 0.0218176806
H  H326  1  0.57294000  0.49458000  0.45936000  1.0 0.0218176806
H  H327  1  0.03522000  0.49457000  0.92164000  1.0 0.0218176806
H  H328  1  0.96478000  0.50543000  0.07836000  1.0 0.0218176806
H  H329  1  0.45935000  0.96478000  0.88641000  1.0 0.0218176806
H  H330  1  0.54065000  0.03522000  0.11359000  1.0 0.0218176806
H  H331  1  0.07836000  0.57294000  0.11359000  1.0 0.0218176806
H  H332  1  0.92164000  0.42706000  0.88641000  1.0 0.0218176806
H  H333  1  0.92164000  0.03522000  0.49457000  1.0 0.0218176806
H  H334  1  0.07836000  0.96478000  0.50543000  1.0 0.0218176806
H  H335  1  0.54064000  0.42706000  0.50542000  1.0 0.0218176806
H  H336  1  0.45936000  0.57294000  0.49458000  1.0 0.0218176806
C  C1  1  0.43886000  0.77821000  0.62415000  1.0 0.0669727313
C  C2  1  0.56114000  0.22179000  0.37585000  1.0 0.0669727313
C  C3  1  0.56111000  0.18527000  0.33932000  1.0 0.0669727313
C  C4  1  0.43889000  0.81473000  0.66068000  1.0 0.0669727313
C  C5  1  0.84595000  0.22178000  0.66065000  1.0 0.0669727313
C  C6  1  0.15405000  0.77822000  0.33935000  1.0 0.0669727313
C  C7  1  0.15405000  0.81471000  0.37584000  1.0 0.0669727313
C  C8  1  0.84595000  0.18529000  0.62416000  1.0 0.0669727313
C  C9  1  0.77821000  0.62415000  0.43886000  1.0 0.0669727313
C  C10  1  0.22179000  0.37585000  0.56114000  1.0 0.0669727313
C  C11  1  0.18527000  0.33932000  0.56111000  1.0 0.0669727313
C  C12  1  0.81473000  0.66068000  0.43889000  1.0 0.0669727313
C  C13  1  0.22178000  0.66065000  0.84595000  1.0 0.0669727313
C  C14  1  0.77822000  0.33935000  0.15405000  1.0 0.0669727313
C  C15  1  0.81471000  0.37584000  0.15405000  1.0 0.0669727313
C  C16  1  0.18529000  0.62416000  0.84595000  1.0 0.0669727313
C  C17  1  0.62415000  0.43886000  0.77821000  1.0 0.0669727313
C  C18  1  0.37585000  0.56114000  0.22179000  1.0 0.0669727313
C  C19  1  0.33932000  0.56111000  0.18527000  1.0 0.0669727313
C  C20  1  0.66068000  0.43889000  0.81473000  1.0 0.0669727313
C  C21  1  0.66065000  0.84595000  0.22178000  1.0 0.0669727313
C  C22  1  0.33935000  0.15405000  0.77822000  1.0 0.0669727313
C  C23  1  0.37584000  0.15405000  0.81471000  1.0 0.0669727313
C  C24  1  0.62416000  0.84595000  0.18529000  1.0 0.0669727313
C  C25  1  0.43889000  0.66068000  0.81473000  1.0 0.0669727313
C  C26  1  0.56111000  0.33932000  0.18527000  1.0 0.0669727313
C  C27  1  0.56114000  0.37585000  0.22179000  1.0 0.0669727313
C  C28  1  0.43886000  0.62415000  0.77821000  1.0 0.0669727313
C  C29  1  0.84595000  0.62416000  0.18529000  1.0 0.0669727313
C  C30  1  0.15405000  0.37584000  0.81471000  1.0 0.0669727313
C  C31  1  0.15405000  0.33935000  0.77822000  1.0 0.0669727313
C  C32  1  0.84595000  0.66065000  0.22178000  1.0 0.0669727313
C  C33  1  0.77822000  0.15405000  0.33935000  1.0 0.0669727313
C  C34  1  0.22178000  0.84595000  0.66065000  1.0 0.0669727313
C  C35  1  0.18529000  0.84595000  0.62416000  1.0 0.0669727313
C  C36  1  0.81471000  0.15405000  0.37584000  1.0 0.0669727313
C  C37  1  0.22179000  0.56114000  0.37585000  1.0 0.0669727313
C  C38  1  0.77821000  0.43886000  0.62415000  1.0 0.0669727313
C  C39  1  0.81473000  0.43889000  0.66068000  1.0 0.0669727313
C  C40  1  0.18527000  0.56111000  0.33932000  1.0 0.0669727313
C  C41  1  0.62416000  0.18529000  0.84595000  1.0 0.0669727313
C  C42  1  0.37584000  0.81471000  0.15405000  1.0 0.0669727313
C  C43  1  0.33935000  0.77822000  0.15405000  1.0 0.0669727313
C  C44  1  0.66065000  0.22178000  0.84595000  1.0 0.0669727313
C  C45  1  0.66068000  0.81473000  0.43889000  1.0 0.0669727313
C  C46  1  0.33932000  0.18527000  0.56111000  1.0 0.0669727313
C  C47  1  0.37585000  0.22179000  0.56114000  1.0 0.0669727313
C  C48  1  0.62415000  0.77821000  0.43886000  1.0 0.0669727313
C  C49  1  0.34269000  0.74900000  0.59369000  1.0 0.2233980668
C  C50  1  0.65731000  0.25100000  0.40631000  1.0 0.2233980668
C  C51  1  0.84468000  0.25099000  0.59367000  1.0 0.2233980668
C  C52  1  0.15532000  0.74901000  0.40633000  1.0 0.2233980668
C  C53  1  0.74900000  0.59369000  0.34269000  1.0 0.2233980668
C  C54  1  0.25100000  0.40631000  0.65731000  1.0 0.2233980668
C  C55  1  0.25099000  0.59367000  0.84468000  1.0 0.2233980668
C  C56  1  0.74901000  0.40633000  0.15532000  1.0 0.2233980668
C  C57  1  0.59369000  0.34269000  0.74900000  1.0 0.2233980668
C  C58  1  0.40631000  0.65731000  0.25100000  1.0 0.2233980668
C  C59  1  0.59367000  0.84468000  0.25099000  1.0 0.2233980668
C  C60  1  0.40633000  0.15532000  0.74901000  1.0 0.2233980668
C  C61  1  0.34269000  0.59369000  0.74900000  1.0 0.2233980668
C  C62  1  0.65731000  0.40631000  0.25100000  1.0 0.2233980668
C  C63  1  0.84468000  0.59367000  0.25099000  1.0 0.2233980668
C  C64  1  0.15532000  0.40633000  0.74901000  1.0 0.2233980668
C  C65  1  0.74901000  0.15532000  0.40633000  1.0 0.2233980668
C  C66  1  0.25099000  0.84468000  0.59367000  1.0 0.2233980668
C  C67  1  0.25100000  0.65731000  0.40631000  1.0 0.2233980668
C  C68  1  0.74900000  0.34269000  0.59369000  1.0 0.2233980668
C  C69  1  0.59367000  0.25099000  0.84468000  1.0 0.2233980668
C  C70  1  0.40633000  0.74901000  0.15532000  1.0 0.2233980668
C  C71  1  0.59369000  0.74900000  0.34269000  1.0 0.2233980668
C  C72  1  0.40631000  0.25100000  0.65731000  1.0 0.2233980668
C  C73  1  0.28395000  0.71151000  0.57243000  1.0 -0.1321165317
C  C74  1  0.71605000  0.28849000  0.42757000  1.0 -0.1321165317
C  C75  1  0.86092000  0.28848000  0.57244000  1.0 -0.1321165317
C  C76  1  0.13908000  0.71152000  0.42756000  1.0 -0.1321165317
C  C77  1  0.71151000  0.57243000  0.28395000  1.0 -0.1321165317
C  C78  1  0.28849000  0.42757000  0.71605000  1.0 -0.1321165317
C  C79  1  0.28848000  0.57244000  0.86092000  1.0 -0.1321165317
C  C80  1  0.71152000  0.42756000  0.13908000  1.0 -0.1321165317
C  C81  1  0.57243000  0.28395000  0.71151000  1.0 -0.1321165317
C  C82  1  0.42757000  0.71605000  0.28849000  1.0 -0.1321165317
C  C83  1  0.57244000  0.86092000  0.28848000  1.0 -0.1321165317
C  C84  1  0.42756000  0.13908000  0.71152000  1.0 -0.1321165317
C  C85  1  0.28395000  0.57243000  0.71151000  1.0 -0.1321165317
C  C86  1  0.71605000  0.42757000  0.28849000  1.0 -0.1321165317
C  C87  1  0.86092000  0.57244000  0.28848000  1.0 -0.1321165317
C  C88  1  0.13908000  0.42756000  0.71152000  1.0 -0.1321165317
C  C89  1  0.71152000  0.13908000  0.42756000  1.0 -0.1321165317
C  C90  1  0.28848000  0.86092000  0.57244000  1.0 -0.1321165317
C  C91  1  0.28849000  0.71605000  0.42757000  1.0 -0.1321165317
C  C92  1  0.71151000  0.28395000  0.57243000  1.0 -0.1321165317
C  C93  1  0.57244000  0.28848000  0.86092000  1.0 -0.1321165317
C  C94  1  0.42756000  0.71152000  0.13908000  1.0 -0.1321165317
C  C95  1  0.57243000  0.71151000  0.28395000  1.0 -0.1321165317
C  C96  1  0.42757000  0.28849000  0.71605000  1.0 -0.1321165317
C  C97  1  0.25217000  0.67437000  0.57781000  1.0 -0.2438119167
C  C98  1  0.74783000  0.32563000  0.42219000  1.0 -0.2438119167
C  C99  1  0.90345000  0.32564000  0.57781000  1.0 -0.2438119167
C  C100  1  0.09655000  0.67436000  0.42219000  1.0 -0.2438119167
C  C101  1  0.67437000  0.57781000  0.25217000  1.0 -0.2438119167
C  C102  1  0.32563000  0.42219000  0.74783000  1.0 -0.2438119167
C  C103  1  0.32564000  0.57781000  0.90345000  1.0 -0.2438119167
C  C104  1  0.67436000  0.42219000  0.09655000  1.0 -0.2438119167
C  C105  1  0.57781000  0.25217000  0.67437000  1.0 -0.2438119167
C  C106  1  0.42219000  0.74783000  0.32563000  1.0 -0.2438119167
C  C107  1  0.57781000  0.90345000  0.32564000  1.0 -0.2455523166
C  C108  1  0.42219000  0.09655000  0.67436000  1.0 -0.2438119167
C  C109  1  0.25217000  0.57781000  0.67437000  1.0 -0.2438119167
C  C110  1  0.74783000  0.42219000  0.32563000  1.0 -0.2438119167
C  C111  1  0.90345000  0.57781000  0.32564000  1.0 -0.2438119167
C  C112  1  0.09655000  0.42219000  0.67436000  1.0 -0.2438119167
C  C113  1  0.67436000  0.09655000  0.42219000  1.0 -0.2438119167
C  C114  1  0.32564000  0.90345000  0.57781000  1.0 -0.2438119167
C  C115  1  0.32563000  0.74783000  0.42219000  1.0 -0.2438119167
C  C116  1  0.67437000  0.25217000  0.57781000  1.0 -0.2438119167
C  C117  1  0.57781000  0.32564000  0.90345000  1.0 -0.2438119167
C  C118  1  0.42219000  0.67436000  0.09655000  1.0 -0.2438119167
C  C119  1  0.57781000  0.67437000  0.25217000  1.0 -0.2438119167
C  C120  1  0.42219000  0.32563000  0.74783000  1.0 -0.2438119167
C  C121  1  0.45995000  0.71927000  0.48423000  1.0 0.1528641597
C  C122  1  0.54005000  0.28073000  0.51577000  1.0 0.1528641597
C  C123  1  0.54005000  0.02428000  0.25933000  1.0 0.1528641597
C  C124  1  0.45995000  0.97572000  0.74067000  1.0 0.1528641597
C  C125  1  0.76494000  0.28072000  0.74067000  1.0 0.1528641597
C  C126  1  0.23506000  0.71928000  0.25933000  1.0 0.1528641597
C  C127  1  0.23505000  0.97572000  0.51577000  1.0 0.1528641597
C  C128  1  0.76495000  0.02428000  0.48423000  1.0 0.1528641597
C  C129  1  0.71927000  0.48423000  0.45995000  1.0 0.1528641597
C  C130  1  0.28073000  0.51577000  0.54005000  1.0 0.1528641597
C  C131  1  0.02428000  0.25933000  0.54005000  1.0 0.1528641597
C  C132  1  0.97572000  0.74067000  0.45995000  1.0 0.1528641597
C  C133  1  0.28072000  0.74067000  0.76494000  1.0 0.1528641597
C  C134  1  0.71928000  0.25933000  0.23506000  1.0 0.1528641597
C  C135  1  0.97572000  0.51577000  0.23505000  1.0 0.1528641597
C  C136  1  0.02428000  0.48423000  0.76495000  1.0 0.1528641597
C  C137  1  0.48423000  0.45995000  0.71927000  1.0 0.1528641597
C  C138  1  0.51577000  0.54005000  0.28073000  1.0 0.1528641597
C  C139  1  0.25933000  0.54005000  0.02428000  1.0 0.1528641597
C  C140  1  0.74067000  0.45995000  0.97572000  1.0 0.1528641597
C  C141  1  0.74067000  0.76494000  0.28072000  1.0 0.1528641597
C  C142  1  0.25933000  0.23506000  0.71928000  1.0 0.1528641597
C  C143  1  0.51577000  0.23505000  0.97572000  1.0 0.1528641597
C  C144  1  0.48423000  0.76495000  0.02428000  1.0 0.1528641597
C  C145  1  0.45995000  0.74067000  0.97572000  1.0 0.1528641597
C  C146  1  0.54005000  0.25933000  0.02428000  1.0 0.1528641597
C  C147  1  0.54005000  0.51577000  0.28073000  1.0 0.1528641597
C  C148  1  0.45995000  0.48423000  0.71927000  1.0 0.1528641597
C  C149  1  0.76495000  0.48423000  0.02428000  1.0 0.1528641597
C  C150  1  0.23505000  0.51577000  0.97572000  1.0 0.1528641597
C  C151  1  0.23506000  0.25933000  0.71928000  1.0 0.1528641597
C  C152  1  0.76494000  0.74067000  0.28072000  1.0 0.1528641597
C  C153  1  0.71928000  0.23506000  0.25933000  1.0 0.1528641597
C  C154  1  0.28072000  0.76494000  0.74067000  1.0 0.1528641597
C  C155  1  0.02428000  0.76495000  0.48423000  1.0 0.1528641597
C  C156  1  0.97572000  0.23505000  0.51577000  1.0 0.1528641597
C  C157  1  0.28073000  0.54005000  0.51577000  1.0 0.1528641597
C  C158  1  0.71927000  0.45995000  0.48423000  1.0 0.1528641597
C  C159  1  0.97572000  0.45995000  0.74067000  1.0 0.1528641597
C  C160  1  0.02428000  0.54005000  0.25933000  1.0 0.1528641597
C  C161  1  0.48423000  0.02428000  0.76495000  1.0 0.1528641597
C  C162  1  0.51577000  0.97572000  0.23505000  1.0 0.1528641597
C  C163  1  0.25933000  0.71928000  0.23506000  1.0 0.1528641597
C  C164  1  0.74067000  0.28072000  0.76494000  1.0 0.1528641597
C  C165  1  0.74067000  0.97572000  0.45995000  1.0 0.1528641597
C  C166  1  0.25933000  0.02428000  0.54005000  1.0 0.1528641597
C  C167  1  0.51577000  0.28073000  0.54005000  1.0 0.1528641597
C  C168  1  0.48423000  0.71927000  0.45995000  1.0 0.1528641597
C  C169  1  0.43166000  0.62002000  0.43166000  1.0 0.0218176806
C  C170  1  0.56834000  0.37998000  0.56834000  1.0 0.0218176806
C  C171  1  0.56833000  0.00000000  0.18836000  1.0 0.0218176806
C  C172  1  0.43167000  0.00000000  0.81164000  1.0 0.0218176806
C  C173  1  0.81164000  0.37996000  0.81164000  1.0 0.0218176806
C  C174  1  0.18836000  0.62004000  0.18836000  1.0 0.0218176806
C  C175  1  0.18836000  0.00000000  0.56833000  1.0 0.0218176806
C  C176  1  0.81164000  0.00000000  0.43167000  1.0 0.0218176806
C  C177  1  0.62002000  0.43166000  0.43166000  1.0 0.0218176806
C  C178  1  0.37998000  0.56834000  0.56834000  1.0 0.0218176806
C  C179  1  0.00000000  0.18836000  0.56833000  1.0 0.0218176806
C  C180  1  0.00000000  0.81164000  0.43167000  1.0 0.0218176806
C  C181  1  0.37996000  0.81164000  0.81164000  1.0 0.0218176806
C  C182  1  0.62004000  0.18836000  0.18836000  1.0 0.0218176806
C  C183  1  0.00000000  0.56833000  0.18836000  1.0 0.0218176806
C  C184  1  0.00000000  0.43167000  0.81164000  1.0 0.0218176806
C  C185  1  0.43166000  0.43166000  0.62002000  1.0 0.0218176806
C  C186  1  0.56834000  0.56834000  0.37998000  1.0 0.0218176806
C  C187  1  0.18836000  0.56833000  0.00000000  1.0 0.0218176806
C  C188  1  0.81164000  0.43167000  0.00000000  1.0 0.0218176806
C  C189  1  0.81164000  0.81164000  0.37996000  1.0 0.0218176806
C  C190  1  0.18836000  0.18836000  0.62004000  1.0 0.0218176806
C  C191  1  0.56833000  0.18836000  0.00000000  1.0 0.0218176806
C  C192  1  0.43167000  0.81164000  0.00000000  1.0 0.0218176806
C  C193  1  0.42114000  0.57464000  0.42114000  1.0 -0.0992827341
C  C194  1  0.57886000  0.42536000  0.57886000  1.0 -0.0992827341
C  C195  1  0.57886000  0.00000000  0.15351000  1.0 -0.0992827341
C  C196  1  0.42114000  0.00000000  0.84649000  1.0 -0.0992827341
C  C197  1  0.84650000  0.42536000  0.84650000  1.0 -0.0992827341
C  C198  1  0.15350000  0.57464000  0.15350000  1.0 -0.0992827341
C  C199  1  0.15351000  0.00000000  0.57886000  1.0 -0.0992827341
C  C200  1  0.84649000  0.00000000  0.42114000  1.0 -0.0992827341
C  C201  1  0.57464000  0.42114000  0.42114000  1.0 -0.0992827341
C  C202  1  0.42536000  0.57886000  0.57886000  1.0 -0.0992827341
C  C203  1  0.00000000  0.15351000  0.57886000  1.0 -0.0992827341
C  C204  1  0.00000000  0.84649000  0.42114000  1.0 -0.0992827341
C  C205  1  0.42536000  0.84650000  0.84650000  1.0 -0.0992827341
C  C206  1  0.57464000  0.15350000  0.15350000  1.0 -0.0992827341
C  C207  1  0.00000000  0.57886000  0.15351000  1.0 -0.0992827341
C  C208  1  0.00000000  0.42114000  0.84649000  1.0 -0.0992827341
C  C209  1  0.42114000  0.42114000  0.57464000  1.0 -0.0992827341
C  C210  1  0.57886000  0.57886000  0.42536000  1.0 -0.0992827341
C  C211  1  0.15351000  0.57886000  0.00000000  1.0 -0.0992827341
C  C212  1  0.84649000  0.42114000  0.00000000  1.0 -0.0992827341
C  C213  1  0.84650000  0.84650000  0.42536000  1.0 -0.0992827341
C  C214  1  0.15350000  0.15350000  0.57464000  1.0 -0.0992827341
C  C215  1  0.57886000  0.15351000  0.00000000  1.0 -0.0992827341
C  C216  1  0.42114000  0.84649000  0.00000000  1.0 -0.0992827341
C  C217  1  0.43685000  0.55123000  0.43685000  1.0 -0.1629423304
C  C218  1  0.56315000  0.44877000  0.56315000  1.0 -0.1629423304
C  C219  1  0.56315000  0.00000000  0.11439000  1.0 -0.1629423304
C  C220  1  0.43685000  0.00000000  0.88561000  1.0 -0.1629423304
C  C221  1  0.88563000  0.44877000  0.88563000  1.0 -0.1629423304
C  C222  1  0.11437000  0.55123000  0.11437000  1.0 -0.1629423304
C  C223  1  0.11439000  0.00000000  0.56315000  1.0 -0.1629423304
C  C224  1  0.88561000  0.00000000  0.43685000  1.0 -0.1629423304
C  C225  1  0.55123000  0.43685000  0.43685000  1.0 -0.1629423304
C  C226  1  0.44877000  0.56315000  0.56315000  1.0 -0.1629423304
C  C227  1  0.00000000  0.11439000  0.56315000  1.0 -0.1629423304
C  C228  1  0.00000000  0.88561000  0.43685000  1.0 -0.1629423304
C  C229  1  0.44877000  0.88563000  0.88563000  1.0 -0.1629423304
C  C230  1  0.55123000  0.11437000  0.11437000  1.0 -0.1629423304
C  C231  1  0.00000000  0.56315000  0.11439000  1.0 -0.1629423304
C  C232  1  0.00000000  0.43685000  0.88561000  1.0 -0.1629423304
C  C233  1  0.43685000  0.43685000  0.55123000  1.0 -0.1629423304
C  C234  1  0.56315000  0.56315000  0.44877000  1.0 -0.1629423304
C  C235  1  0.11439000  0.56315000  0.00000000  1.0 -0.1629423304
C  C236  1  0.88561000  0.43685000  0.00000000  1.0 -0.1629423304
C  C237  1  0.88563000  0.88563000  0.44877000  1.0 -0.1629423304
C  C238  1  0.11437000  0.11437000  0.55123000  1.0 -0.1629423304
C  C239  1  0.56315000  0.11439000  0.00000000  1.0 -0.1629423304
C  C240  1  0.43685000  0.88561000  0.00000000  1.0 -0.1629423304
N  N1  1  0.37731000  0.72607000  0.57126000  1.0 -0.4089355422
N  N2  1  0.62269000  0.27393000  0.42874000  1.0 -0.4089355422
N  N3  1  0.62271000  0.19397000  0.34877000  1.0 -0.4089355422
N  N4  1  0.37729000  0.80603000  0.65123000  1.0 -0.4089355422
N  N5  1  0.84519000  0.27394000  0.65124000  1.0 -0.4089355422
N  N6  1  0.15481000  0.72606000  0.34876000  1.0 -0.4089355422
N  N7  1  0.15481000  0.80605000  0.42876000  1.0 -0.4089355422
N  N8  1  0.84519000  0.19395000  0.57124000  1.0 -0.4089355422
N  N9  1  0.72607000  0.57126000  0.37731000  1.0 -0.4089355422
N  N10  1  0.27393000  0.42874000  0.62269000  1.0 -0.4089355422
N  N11  1  0.19397000  0.34877000  0.62271000  1.0 -0.4089355422
N  N12  1  0.80603000  0.65123000  0.37729000  1.0 -0.4089355422
N  N13  1  0.27394000  0.65124000  0.84519000  1.0 -0.4089355422
N  N14  1  0.72606000  0.34876000  0.15481000  1.0 -0.4089355422
N  N15  1  0.80605000  0.42876000  0.15481000  1.0 -0.4089355422
N  N16  1  0.19395000  0.57124000  0.84519000  1.0 -0.4089355422
N  N17  1  0.57126000  0.37731000  0.72607000  1.0 -0.4089355422
N  N18  1  0.42874000  0.62269000  0.27393000  1.0 -0.4089355422
N  N19  1  0.34877000  0.62271000  0.19397000  1.0 -0.4089355422
N  N20  1  0.65123000  0.37729000  0.80603000  1.0 -0.4089355422
N  N21  1  0.65124000  0.84519000  0.27394000  1.0 -0.4089355422
N  N22  1  0.34876000  0.15481000  0.72606000  1.0 -0.4089355422
N  N23  1  0.42876000  0.15481000  0.80605000  1.0 -0.4089355422
N  N24  1  0.57124000  0.84519000  0.19395000  1.0 -0.4089355422
N  N25  1  0.37729000  0.65123000  0.80603000  1.0 -0.4089355422
N  N26  1  0.62271000  0.34877000  0.19397000  1.0 -0.4089355422
N  N27  1  0.62269000  0.42874000  0.27393000  1.0 -0.4089355422
N  N28  1  0.37731000  0.57126000  0.72607000  1.0 -0.4089355422
N  N29  1  0.84519000  0.57124000  0.19395000  1.0 -0.4089355422
N  N30  1  0.15481000  0.42876000  0.80605000  1.0 -0.4089355422
N  N31  1  0.15481000  0.34876000  0.72606000  1.0 -0.4089355422
N  N32  1  0.84519000  0.65124000  0.27394000  1.0 -0.4089355422
N  N33  1  0.72606000  0.15481000  0.34876000  1.0 -0.4089355422
N  N34  1  0.27394000  0.84519000  0.65124000  1.0 -0.4089355422
N  N35  1  0.19395000  0.84519000  0.57124000  1.0 -0.4089355422
N  N36  1  0.80605000  0.15481000  0.42876000  1.0 -0.4089355422
N  N37  1  0.27393000  0.62269000  0.42874000  1.0 -0.4089355422
N  N38  1  0.72607000  0.37731000  0.57126000  1.0 -0.4089355422
N  N39  1  0.80603000  0.37729000  0.65123000  1.0 -0.4089355422
N  N40  1  0.19397000  0.62271000  0.34877000  1.0 -0.4089355422
N  N41  1  0.57124000  0.19395000  0.84519000  1.0 -0.4089355422
N  N42  1  0.42876000  0.80605000  0.15481000  1.0 -0.4089355422
N  N43  1  0.34876000  0.72606000  0.15481000  1.0 -0.4089355422
N  N44  1  0.65124000  0.27394000  0.84519000  1.0 -0.4089355422
N  N45  1  0.65123000  0.80603000  0.37729000  1.0 -0.4089355422
N  N46  1  0.34877000  0.19397000  0.62271000  1.0 -0.4089355422
N  N47  1  0.42874000  0.27393000  0.62269000  1.0 -0.4089355422
N  N48  1  0.57126000  0.72607000  0.37731000  1.0 -0.4089355422
N  N49  1  0.42570000  0.67946000  0.48698000  1.0 -0.269279381
N  N50  1  0.57430000  0.32054000  0.51302000  1.0 -0.269279381
N  N51  1  0.57432000  0.06129000  0.25377000  1.0 -0.269279381
N  N52  1  0.42568000  0.93871000  0.74623000  1.0 -0.269279381
N  N53  1  0.80753000  0.32055000  0.74624000  1.0 -0.269279381
N  N54  1  0.19247000  0.67945000  0.25376000  1.0 -0.269279381
N  N55  1  0.19247000  0.93870000  0.51302000  1.0 -0.269279381
N  N56  1  0.80753000  0.06130000  0.48698000  1.0 -0.269279381
N  N57  1  0.67946000  0.48698000  0.42570000  1.0 -0.269279381
N  N58  1  0.32054000  0.51302000  0.57430000  1.0 -0.269279381
N  N59  1  0.06129000  0.25377000  0.57432000  1.0 -0.269279381
N  N60  1  0.93871000  0.74623000  0.42568000  1.0 -0.269279381
N  N61  1  0.32055000  0.74624000  0.80753000  1.0 -0.269279381
N  N62  1  0.67945000  0.25376000  0.19247000  1.0 -0.269279381
N  N63  1  0.93870000  0.51302000  0.19247000  1.0 -0.269279381
N  N64  1  0.06130000  0.48698000  0.80753000  1.0 -0.269279381
N  N65  1  0.48698000  0.42570000  0.67946000  1.0 -0.269279381
N  N66  1  0.51302000  0.57430000  0.32054000  1.0 -0.269279381
N  N67  1  0.25377000  0.57432000  0.06129000  1.0 -0.269279381
N  N68  1  0.74623000  0.42568000  0.93871000  1.0 -0.269279381
N  N69  1  0.74624000  0.80753000  0.32055000  1.0 -0.269279381
N  N70  1  0.25376000  0.19247000  0.67945000  1.0 -0.269279381
N  N71  1  0.51302000  0.19247000  0.93870000  1.0 -0.269279381
N  N72  1  0.48698000  0.80753000  0.06130000  1.0 -0.269279381
N  N73  1  0.42568000  0.74623000  0.93871000  1.0 -0.269279381
N  N74  1  0.57432000  0.25377000  0.06129000  1.0 -0.269279381
N  N75  1  0.57430000  0.51302000  0.32054000  1.0 -0.269279381
N  N76  1  0.42570000  0.48698000  0.67946000  1.0 -0.269279381
N  N77  1  0.80753000  0.48698000  0.06130000  1.0 -0.269279381
N  N78  1  0.19247000  0.51302000  0.93870000  1.0 -0.269279381
N  N79  1  0.19247000  0.25376000  0.67945000  1.0 -0.269279381
N  N80  1  0.80753000  0.74624000  0.32055000  1.0 -0.269279381
N  N81  1  0.67945000  0.19247000  0.25376000  1.0 -0.269279381
N  N82  1  0.32055000  0.80753000  0.74624000  1.0 -0.269279381
N  N83  1  0.06130000  0.80753000  0.48698000  1.0 -0.269279381
N  N84  1  0.93870000  0.19247000  0.51302000  1.0 -0.269279381
N  N85  1  0.32054000  0.57430000  0.51302000  1.0 -0.269279381
N  N86  1  0.67946000  0.42570000  0.48698000  1.0 -0.269279381
N  N87  1  0.93871000  0.42568000  0.74623000  1.0 -0.269279381
N  N88  1  0.06129000  0.57432000  0.25377000  1.0 -0.269279381
N  N89  1  0.48698000  0.06130000  0.80753000  1.0 -0.269279381
N  N90  1  0.51302000  0.93870000  0.19247000  1.0 -0.269279381
N  N91  1  0.25376000  0.67945000  0.19247000  1.0 -0.269279381
N  N92  1  0.74624000  0.32055000  0.80753000  1.0 -0.269279381
N  N93  1  0.74623000  0.93871000  0.42568000  1.0 -0.269279381
N  N94  1  0.25377000  0.06129000  0.57432000  1.0 -0.269279381
N  N95  1  0.51302000  0.32054000  0.57430000  1.0 -0.269279381
N  N96  1  0.48698000  0.67946000  0.42570000  1.0 -0.269279381
