# DDEC6 charges by PACMAN v1.1 (https://github.com/mtap-research/PACMAN-charge/)
data_MEFHUC_ASR_pacman
_symmetry_space_group_name_H-M   'P 1'
_cell_length_a   22.32350000
_cell_length_b   22.32350000
_cell_length_c   22.32350000
_cell_angle_alpha   107.74200000
_cell_angle_beta   107.74200000
_cell_angle_gamma   107.74200000
_symmetry_Int_Tables_number   1
_chemical_formula_structural   Zn2H19(C18O7)2
_chemical_formula_sum   'Zn12 H114 C216 O84'
_cell_volume   9070.66741688
_cell_formula_units_Z   6
loop_
 _symmetry_equiv_pos_site_id
 _symmetry_equiv_pos_as_xyz
  1  'x, y, z'
loop_
 _atom_site_type_symbol
 _atom_site_label
 _atom_site_symmetry_multiplicity
 _atom_site_fract_x
 _atom_site_fract_y
 _atom_site_fract_z
 _atom_site_occupancy
 _atom_site_charge
Zn  Zn1  1  0.03249000  0.96793000  0.45638000  1.0 0.9896099858
Zn  Zn2  1  0.96793000  0.45638000  0.03249000  1.0 0.9896099858
Zn  Zn3  1  0.45638000  0.03249000  0.96793000  1.0 0.9896099858
Zn  Zn4  1  0.96751000  0.03207000  0.54362000  1.0 0.9896099858
Zn  Zn5  1  0.03207000  0.54362000  0.96751000  1.0 0.9896099858
Zn  Zn6  1  0.54362000  0.96751000  0.03207000  1.0 0.9896099858
Zn  Zn7  1  0.37915000  0.87076000  0.97046000  1.0 0.9699586721
Zn  Zn8  1  0.87076000  0.97046000  0.37915000  1.0 0.9699586721
Zn  Zn9  1  0.97046000  0.37915000  0.87076000  1.0 0.9699586721
Zn  Zn10  1  0.62085000  0.12924000  0.02954000  1.0 0.9699586721
Zn  Zn11  1  0.12924000  0.02954000  0.62085000  1.0 0.9699586721
Zn  Zn12  1  0.02954000  0.62085000  0.12924000  1.0 0.9699586721
H  H1  1  0.28120000  0.02810000  0.62510000  1.0 0.3512185639
H  H2  1  0.02810000  0.62510000  0.28120000  1.0 0.3512185639
H  H3  1  0.62510000  0.28120000  0.02810000  1.0 0.3512185639
H  H4  1  0.71880000  0.97190000  0.37490000  1.0 0.3512185639
H  H5  1  0.97190000  0.37490000  0.71880000  1.0 0.3512185639
H  H6  1  0.37490000  0.71880000  0.97190000  1.0 0.3512185639
H  H7  1  0.84690000  0.24830000  0.70830000  1.0 0.3512185639
H  H8  1  0.24830000  0.70830000  0.84690000  1.0 0.3512185639
H  H9  1  0.70830000  0.84690000  0.24830000  1.0 0.3512185639
H  H10  1  0.15310000  0.75170000  0.29170000  1.0 0.3512185639
H  H11  1  0.75170000  0.29170000  0.15310000  1.0 0.3512185639
H  H12  1  0.29170000  0.15310000  0.75170000  1.0 0.3512185639
H  H13  1  0.37390000  0.95950000  0.12190000  1.0 0.3512185639
H  H14  1  0.95950000  0.12190000  0.37390000  1.0 0.3512185639
H  H15  1  0.12190000  0.37390000  0.95950000  1.0 0.3512185639
H  H16  1  0.62610000  0.04050000  0.87810000  1.0 0.3512185639
H  H17  1  0.04050000  0.87810000  0.62610000  1.0 0.3512185639
H  H18  1  0.87810000  0.62610000  0.04050000  1.0 0.3512185639
H  H19  1  0.93180000  0.02160000  0.13050000  1.0 0.1463283417
H  H20  1  0.02160000  0.13050000  0.93180000  1.0 0.1463283417
H  H21  1  0.13050000  0.93180000  0.02160000  1.0 0.1463283417
H  H22  1  0.06820000  0.97840000  0.86950000  1.0 0.1463283417
H  H23  1  0.97840000  0.86950000  0.06820000  1.0 0.1463283417
H  H24  1  0.86950000  0.06820000  0.97840000  1.0 0.1463283417
H  H25  1  0.40040000  0.99320000  0.37970000  1.0 0.1222027994
H  H26  1  0.99320000  0.37970000  0.40040000  1.0 0.1222027994
H  H27  1  0.37970000  0.40040000  0.99320000  1.0 0.1222027994
H  H28  1  0.59960000  0.00680000  0.62030000  1.0 0.1222027994
H  H29  1  0.00680000  0.62030000  0.59960000  1.0 0.1222027994
H  H30  1  0.62030000  0.59960000  0.00680000  1.0 0.1222027994
H  H31  1  0.21080000  0.99140000  0.40310000  1.0 0.1222027994
H  H32  1  0.99140000  0.40310000  0.21080000  1.0 0.1222027994
H  H33  1  0.40310000  0.21080000  0.99140000  1.0 0.1222027994
H  H34  1  0.78920000  0.00860000  0.59690000  1.0 0.1222027994
H  H35  1  0.00860000  0.59690000  0.78920000  1.0 0.1222027994
H  H36  1  0.59690000  0.78920000  0.00860000  1.0 0.1222027994
H  H37  1  0.12260000  0.03430000  0.22700000  1.0 0.1463283417
H  H38  1  0.03430000  0.22700000  0.12260000  1.0 0.1463283417
H  H39  1  0.22700000  0.12260000  0.03430000  1.0 0.1463283417
H  H40  1  0.87740000  0.96570000  0.77300000  1.0 0.1463283417
H  H41  1  0.96570000  0.77300000  0.87740000  1.0 0.1463283417
H  H42  1  0.77300000  0.87740000  0.96570000  1.0 0.1463283417
H  H43  1  0.31410000  0.02040000  0.39350000  1.0 0.1222027994
H  H44  1  0.02040000  0.39350000  0.31410000  1.0 0.1222027994
H  H45  1  0.39350000  0.31410000  0.02040000  1.0 0.1222027994
H  H46  1  0.68590000  0.97960000  0.60650000  1.0 0.1222027994
H  H47  1  0.97960000  0.60650000  0.68590000  1.0 0.1222027994
H  H48  1  0.60650000  0.68590000  0.97960000  1.0 0.1222027994
H  H49  1  0.39870000  0.01000000  0.28390000  1.0 0.1383663996
H  H50  1  0.01000000  0.28390000  0.39870000  1.0 0.1383663996
H  H51  1  0.28390000  0.39870000  0.01000000  1.0 0.1383663996
H  H52  1  0.60130000  0.99000000  0.71610000  1.0 0.1383663996
H  H53  1  0.99000000  0.71610000  0.60130000  1.0 0.1383663996
H  H54  1  0.71610000  0.60130000  0.99000000  1.0 0.1383663996
H  H55  1  0.41410000  0.05290000  0.58830000  1.0 0.1383663996
H  H56  1  0.05290000  0.58830000  0.41410000  1.0 0.1383663996
H  H57  1  0.58830000  0.41410000  0.05290000  1.0 0.1383663996
H  H58  1  0.58590000  0.94710000  0.41170000  1.0 0.1383663996
H  H59  1  0.94710000  0.41170000  0.58590000  1.0 0.1383663996
H  H60  1  0.41170000  0.58590000  0.94710000  1.0 0.1383663996
H  H61  1  0.60710000  0.11130000  0.46200000  1.0 0.1222027994
H  H62  1  0.11130000  0.46200000  0.60710000  1.0 0.1222027994
H  H63  1  0.46200000  0.60710000  0.11130000  1.0 0.1222027994
H  H64  1  0.39290000  0.88870000  0.53800000  1.0 0.1222027994
H  H65  1  0.88870000  0.53800000  0.39290000  1.0 0.1222027994
H  H66  1  0.53800000  0.39290000  0.88870000  1.0 0.1222027994
H  H67  1  0.60070000  0.04180000  0.36240000  1.0 0.1222027994
H  H68  1  0.04180000  0.36240000  0.60070000  1.0 0.1222027994
H  H69  1  0.36240000  0.60070000  0.04180000  1.0 0.1222027994
H  H70  1  0.39930000  0.95820000  0.63760000  1.0 0.1222027994
H  H71  1  0.95820000  0.63760000  0.39930000  1.0 0.1222027994
H  H72  1  0.63760000  0.39930000  0.95820000  1.0 0.1222027994
H  H73  1  0.50420000  0.11960000  0.58270000  1.0 0.1222027994
H  H74  1  0.11960000  0.58270000  0.50420000  1.0 0.1222027994
H  H75  1  0.58270000  0.50420000  0.11960000  1.0 0.1222027994
H  H76  1  0.49580000  0.88040000  0.41730000  1.0 0.1222027994
H  H77  1  0.88040000  0.41730000  0.49580000  1.0 0.1222027994
H  H78  1  0.41730000  0.49580000  0.88040000  1.0 0.1222027994
H  H79  1  0.59000000  0.00440000  0.25030000  1.0 0.1318812524
H  H80  1  0.00440000  0.25030000  0.59000000  1.0 0.1318812524
H  H81  1  0.25030000  0.59000000  0.00440000  1.0 0.1318812524
H  H82  1  0.41000000  0.99560000  0.74970000  1.0 0.1318812524
H  H83  1  0.99560000  0.74970000  0.41000000  1.0 0.1318812524
H  H84  1  0.74970000  0.41000000  0.99560000  1.0 0.1318812524
H  H85  1  0.59390000  0.24040000  0.63620000  1.0 0.1222027994
H  H86  1  0.24040000  0.63620000  0.59390000  1.0 0.1222027994
H  H87  1  0.63620000  0.59390000  0.24040000  1.0 0.1222027994
H  H88  1  0.40610000  0.75960000  0.36380000  1.0 0.1222027994
H  H89  1  0.75960000  0.36380000  0.40610000  1.0 0.1222027994
H  H90  1  0.36380000  0.40610000  0.75960000  1.0 0.1222027994
H  H91  1  0.69730000  0.32800000  0.74460000  1.0 0.1222027994
H  H92  1  0.32800000  0.74460000  0.69730000  1.0 0.1222027994
H  H93  1  0.74460000  0.69730000  0.32800000  1.0 0.1222027994
H  H94  1  0.30270000  0.67200000  0.25540000  1.0 0.1222027994
H  H95  1  0.67200000  0.25540000  0.30270000  1.0 0.1222027994
H  H96  1  0.25540000  0.30270000  0.67200000  1.0 0.1222027994
H  H97  1  0.69530000  0.13790000  0.57430000  1.0 0.1318812524
H  H98  1  0.13790000  0.57430000  0.69530000  1.0 0.1318812524
H  H99  1  0.57430000  0.69530000  0.13790000  1.0 0.1318812524
H  H100  1  0.30470000  0.86210000  0.42570000  1.0 0.1318812524
H  H101  1  0.86210000  0.42570000  0.30470000  1.0 0.1318812524
H  H102  1  0.42570000  0.30470000  0.86210000  1.0 0.1318812524
H  H103  1  0.09230000  0.99280000  0.34800000  1.0 0.3591789347
H  H104  1  0.99280000  0.34800000  0.09230000  1.0 0.3591789347
H  H105  1  0.34800000  0.09230000  0.99280000  1.0 0.3591789347
H  H106  1  0.90770000  0.00720000  0.65200000  1.0 0.3591789347
H  H107  1  0.00720000  0.65200000  0.90770000  1.0 0.3591789347
H  H108  1  0.65200000  0.90770000  0.00720000  1.0 0.3591789347
H  H109  1  0.12600000  0.02540000  0.76680000  1.0 0.3591789347
H  H110  1  0.02540000  0.76680000  0.12600000  1.0 0.3591789347
H  H111  1  0.76680000  0.12600000  0.02540000  1.0 0.3591789347
H  H112  1  0.87400000  0.97460000  0.23320000  1.0 0.3591789347
H  H113  1  0.97460000  0.23320000  0.87400000  1.0 0.3591789347
H  H114  1  0.23320000  0.87400000  0.97460000  1.0 0.3591789347
C  C1  1  0.96430000  0.01820000  0.16560000  1.0 -0.2737107583
C  C2  1  0.01820000  0.16560000  0.96430000  1.0 -0.2737107583
C  C3  1  0.16560000  0.96430000  0.01820000  1.0 -0.2737107583
C  C4  1  0.03570000  0.98180000  0.83440000  1.0 -0.2737107583
C  C5  1  0.98180000  0.83440000  0.03570000  1.0 -0.2737107583
C  C6  1  0.83440000  0.03570000  0.98180000  1.0 -0.2737107583
C  C7  1  0.99290000  0.99510000  0.26660000  1.0 -0.2856026498
C  C8  1  0.99510000  0.26660000  0.99290000  1.0 -0.2856026498
C  C9  1  0.26660000  0.99290000  0.99510000  1.0 -0.2856026498
C  C10  1  0.00710000  0.00490000  0.73340000  1.0 -0.2856026498
C  C11  1  0.00490000  0.73340000  0.00710000  1.0 -0.2856026498
C  C12  1  0.73340000  0.00710000  0.00490000  1.0 -0.2856026498
C  C13  1  0.05930000  0.00770000  0.27040000  1.0 0.2804647875
C  C14  1  0.00770000  0.27040000  0.05930000  1.0 0.2804647875
C  C15  1  0.27040000  0.05930000  0.00770000  1.0 0.2804647875
C  C16  1  0.94070000  0.99230000  0.72960000  1.0 0.2804647875
C  C17  1  0.99230000  0.72960000  0.94070000  1.0 0.2804647875
C  C18  1  0.72960000  0.94070000  0.99230000  1.0 0.2804647875
C  C19  1  0.44190000  0.02870000  0.41730000  1.0 -0.1875510994
C  C20  1  0.02870000  0.41730000  0.44190000  1.0 -0.1875510994
C  C21  1  0.41730000  0.44190000  0.02870000  1.0 -0.1875510994
C  C22  1  0.55810000  0.97130000  0.58270000  1.0 -0.1875510994
C  C23  1  0.97130000  0.58270000  0.55810000  1.0 -0.1875510994
C  C24  1  0.58270000  0.55810000  0.97130000  1.0 -0.1875510994
C  C25  1  0.25120000  0.01130000  0.50600000  1.0 -0.1808599192
C  C26  1  0.01130000  0.50600000  0.25120000  1.0 -0.1808599192
C  C27  1  0.50600000  0.25120000  0.01130000  1.0 -0.1808599192
C  C28  1  0.74880000  0.98870000  0.49400000  1.0 -0.1808599192
C  C29  1  0.98870000  0.49400000  0.74880000  1.0 -0.1808599192
C  C30  1  0.49400000  0.74880000  0.98870000  1.0 -0.1808599192
C  C31  1  0.97340000  0.97800000  0.31910000  1.0 0.6624261332
C  C32  1  0.97800000  0.31910000  0.97340000  1.0 0.6624261332
C  C33  1  0.31910000  0.97340000  0.97800000  1.0 0.6624261332
C  C34  1  0.02660000  0.02200000  0.68090000  1.0 0.6624261332
C  C35  1  0.02200000  0.68090000  0.02660000  1.0 0.6624261332
C  C36  1  0.68090000  0.02660000  0.02200000  1.0 0.6624261332
C  C37  1  0.94580000  0.00030000  0.21370000  1.0 0.3149916423
C  C38  1  0.00030000  0.21370000  0.94580000  1.0 0.3149916423
C  C39  1  0.21370000  0.94580000  0.00030000  1.0 0.3149916423
C  C40  1  0.05420000  0.99970000  0.78630000  1.0 0.3149916423
C  C41  1  0.99970000  0.78630000  0.05420000  1.0 0.3149916423
C  C42  1  0.78630000  0.05420000  0.99970000  1.0 0.3149916423
C  C43  1  0.25220000  0.00570000  0.44160000  1.0 -0.0535879913
C  C44  1  0.00570000  0.44160000  0.25220000  1.0 -0.0535879913
C  C45  1  0.44160000  0.25220000  0.00570000  1.0 -0.0535879913
C  C46  1  0.74780000  0.99430000  0.55840000  1.0 -0.0535879913
C  C47  1  0.99430000  0.55840000  0.74780000  1.0 -0.0535879913
C  C48  1  0.55840000  0.74780000  0.99430000  1.0 -0.0535879913
C  C49  1  0.43450000  0.98800000  0.21310000  1.0 0.2620480599
C  C50  1  0.98800000  0.21310000  0.43450000  1.0 0.2620480599
C  C51  1  0.21310000  0.43450000  0.98800000  1.0 0.2620480599
C  C52  1  0.56550000  0.01200000  0.78690000  1.0 0.2620480599
C  C53  1  0.01200000  0.78690000  0.56550000  1.0 0.2620480599
C  C54  1  0.78690000  0.56550000  0.01200000  1.0 0.2620480599
C  C55  1  0.05270000  0.05350000  0.12080000  1.0 -0.0062987804
C  C56  1  0.05350000  0.12080000  0.05270000  1.0 -0.0062987804
C  C57  1  0.12080000  0.05270000  0.05350000  1.0 -0.0062987804
C  C58  1  0.94730000  0.94650000  0.87920000  1.0 -0.0034979
C  C59  1  0.94650000  0.87920000  0.94730000  1.0 -0.0034979
C  C60  1  0.87920000  0.94730000  0.94650000  1.0 -0.0034979
C  C61  1  0.03050000  0.03110000  0.16900000  1.0 0.1383663996
C  C62  1  0.03110000  0.16900000  0.03050000  1.0 0.1383663996
C  C63  1  0.16900000  0.03050000  0.03110000  1.0 0.1383663996
C  C64  1  0.96950000  0.96890000  0.83100000  1.0 0.1383663996
C  C65  1  0.96890000  0.83100000  0.96950000  1.0 0.1383663996
C  C66  1  0.83100000  0.96950000  0.96890000  1.0 0.1383663996
C  C67  1  0.07780000  0.02560000  0.22320000  1.0 -0.2645458289
C  C68  1  0.02560000  0.22320000  0.07780000  1.0 -0.2645458289
C  C69  1  0.22320000  0.07780000  0.02560000  1.0 -0.2645458289
C  C70  1  0.92220000  0.97440000  0.77680000  1.0 -0.2645458289
C  C71  1  0.97440000  0.77680000  0.92220000  1.0 -0.2645458289
C  C72  1  0.77680000  0.92220000  0.97440000  1.0 -0.2645458289
C  C73  1  0.48740000  0.96790000  0.12930000  1.0 0.6145241451
C  C74  1  0.96790000  0.12930000  0.48740000  1.0 0.6145241451
C  C75  1  0.12930000  0.48740000  0.96790000  1.0 0.6145241451
C  C76  1  0.51260000  0.03210000  0.87070000  1.0 0.6145241451
C  C77  1  0.03210000  0.87070000  0.51260000  1.0 0.6145241451
C  C78  1  0.87070000  0.51260000  0.03210000  1.0 0.6145241451
C  C79  1  0.03020000  0.09700000  0.09740000  1.0 -0.036842003
C  C80  1  0.09700000  0.09740000  0.03020000  1.0 -0.036842003
C  C81  1  0.09740000  0.03020000  0.09700000  1.0 -0.036842003
C  C82  1  0.96980000  0.90300000  0.90260000  1.0 -0.036842003
C  C83  1  0.90300000  0.90260000  0.96980000  1.0 -0.036842003
C  C84  1  0.90260000  0.96980000  0.90300000  1.0 -0.036842003
C  C85  1  0.18750000  0.00280000  0.51520000  1.0 0.6222315919
C  C86  1  0.00280000  0.51520000  0.18750000  1.0 0.6222315919
C  C87  1  0.51520000  0.18750000  0.00280000  1.0 0.6222315919
C  C88  1  0.81250000  0.99720000  0.48480000  1.0 0.6222315919
C  C89  1  0.99720000  0.48480000  0.81250000  1.0 0.6222315919
C  C90  1  0.48480000  0.81250000  0.99720000  1.0 0.6222315919
C  C91  1  0.31400000  0.02130000  0.43530000  1.0 -0.1611474324
C  C92  1  0.02130000  0.43530000  0.31400000  1.0 -0.1611474324
C  C93  1  0.43530000  0.31400000  0.02130000  1.0 -0.1611474324
C  C94  1  0.68600000  0.97870000  0.56470000  1.0 -0.1611474324
C  C95  1  0.97870000  0.56470000  0.68600000  1.0 -0.1611474324
C  C96  1  0.56470000  0.68600000  0.97870000  1.0 -0.1611474324
C  C97  1  0.49310000  0.98870000  0.20210000  1.0 -0.1307138014
C  C98  1  0.98870000  0.20210000  0.49310000  1.0 -0.1307138014
C  C99  1  0.20210000  0.49310000  0.98870000  1.0 -0.1307138014
C  C100  1  0.50690000  0.01130000  0.79790000  1.0 -0.1307138014
C  C101  1  0.01130000  0.79790000  0.50690000  1.0 -0.1307138014
C  C102  1  0.79790000  0.50690000  0.01130000  1.0 -0.1307138014
C  C103  1  0.31350000  0.02800000  0.55930000  1.0 0.2724778893
C  C104  1  0.02800000  0.55930000  0.31350000  1.0 0.2724778893
C  C105  1  0.55930000  0.31350000  0.02800000  1.0 0.2724778893
C  C106  1  0.68650000  0.97200000  0.44070000  1.0 0.2724778893
C  C107  1  0.97200000  0.44070000  0.68650000  1.0 0.2724778893
C  C108  1  0.44070000  0.68650000  0.97200000  1.0 0.2724778893
C  C109  1  0.56750000  0.12580000  0.53360000  1.0 0.1053205845
C  C110  1  0.12580000  0.53360000  0.56750000  1.0 0.1053205845
C  C111  1  0.53360000  0.56750000  0.12580000  1.0 0.1053205845
C  C112  1  0.43250000  0.87420000  0.46640000  1.0 0.1053205845
C  C113  1  0.87420000  0.46640000  0.43250000  1.0 0.1053205845
C  C114  1  0.46640000  0.43250000  0.87420000  1.0 0.1053205845
C  C115  1  0.43810000  0.00950000  0.27830000  1.0 -0.2389808205
C  C116  1  0.00950000  0.27830000  0.43810000  1.0 -0.2389808205
C  C117  1  0.27830000  0.43810000  0.00950000  1.0 -0.2389808205
C  C118  1  0.56190000  0.99050000  0.72170000  1.0 -0.2389808205
C  C119  1  0.99050000  0.72170000  0.56190000  1.0 -0.2389808205
C  C120  1  0.72170000  0.56190000  0.99050000  1.0 -0.2389808205
C  C121  1  0.49880000  0.03080000  0.33670000  1.0 0.0890189314
C  C122  1  0.03080000  0.33670000  0.49880000  1.0 0.0890189314
C  C123  1  0.33670000  0.49880000  0.03080000  1.0 0.0890189314
C  C124  1  0.50120000  0.96920000  0.66330000  1.0 0.0890189314
C  C125  1  0.96920000  0.66330000  0.50120000  1.0 0.0890189314
C  C126  1  0.66330000  0.50120000  0.96920000  1.0 0.0890189314
C  C127  1  0.37480000  0.03800000  0.48920000  1.0 0.1023335201
C  C128  1  0.03800000  0.48920000  0.37480000  1.0 0.1023335201
C  C129  1  0.48920000  0.37480000  0.03800000  1.0 0.1023335201
C  C130  1  0.62520000  0.96200000  0.51080000  1.0 0.1023335201
C  C131  1  0.96200000  0.51080000  0.62520000  1.0 0.1023335201
C  C132  1  0.51080000  0.62520000  0.96200000  1.0 0.1023335201
C  C133  1  0.50330000  0.05260000  0.40730000  1.0 0.0782501541
C  C134  1  0.05260000  0.40730000  0.50330000  1.0 0.0782501541
C  C135  1  0.40730000  0.50330000  0.05260000  1.0 0.0782501541
C  C136  1  0.49670000  0.94740000  0.59270000  1.0 0.0782501541
C  C137  1  0.94740000  0.59270000  0.49670000  1.0 0.0782501541
C  C138  1  0.59270000  0.49670000  0.94740000  1.0 0.0782501541
C  C139  1  0.44320000  0.05800000  0.48300000  1.0 0.0890189314
C  C140  1  0.05800000  0.48300000  0.44320000  1.0 0.0890189314
C  C141  1  0.48300000  0.44320000  0.05800000  1.0 0.0890189314
C  C142  1  0.55680000  0.94200000  0.51700000  1.0 0.0890189314
C  C143  1  0.94200000  0.51700000  0.55680000  1.0 0.0890189314
C  C144  1  0.51700000  0.55680000  0.94200000  1.0 0.0890189314
C  C145  1  0.37300000  0.04120000  0.55080000  1.0 -0.2537952471
C  C146  1  0.04120000  0.55080000  0.37300000  1.0 -0.2537952471
C  C147  1  0.55080000  0.37300000  0.04120000  1.0 -0.2537952471
C  C148  1  0.62700000  0.95880000  0.44920000  1.0 -0.2537952471
C  C149  1  0.95880000  0.44920000  0.62700000  1.0 -0.2537952471
C  C150  1  0.44920000  0.62700000  0.95880000  1.0 -0.2537952471
C  C151  1  0.56550000  0.09840000  0.46640000  1.0 -0.1950585949
C  C152  1  0.09840000  0.46640000  0.56550000  1.0 -0.1950585949
C  C153  1  0.46640000  0.56550000  0.09840000  1.0 -0.1950585949
C  C154  1  0.43450000  0.90160000  0.53360000  1.0 -0.1950585949
C  C155  1  0.90160000  0.53360000  0.43450000  1.0 -0.1950585949
C  C156  1  0.53360000  0.43450000  0.90160000  1.0 -0.1950585949
C  C157  1  0.55870000  0.02870000  0.32510000  1.0 -0.1611474324
C  C158  1  0.02870000  0.32510000  0.55870000  1.0 -0.1611474324
C  C159  1  0.32510000  0.55870000  0.02870000  1.0 -0.1611474324
C  C160  1  0.44130000  0.97130000  0.67490000  1.0 -0.1611474324
C  C161  1  0.97130000  0.67490000  0.44130000  1.0 -0.1611474324
C  C162  1  0.67490000  0.44130000  0.97130000  1.0 -0.1611474324
C  C163  1  0.50380000  0.10290000  0.53890000  1.0 -0.1875510994
C  C164  1  0.10290000  0.53890000  0.50380000  1.0 -0.1875510994
C  C165  1  0.53890000  0.50380000  0.10290000  1.0 -0.1875510994
C  C166  1  0.49620000  0.89710000  0.46110000  1.0 -0.1875510994
C  C167  1  0.89710000  0.46110000  0.49620000  1.0 -0.1875510994
C  C168  1  0.46110000  0.49620000  0.89710000  1.0 -0.1875510994
C  C169  1  0.82340000  0.33690000  0.78120000  1.0 0.59743603
C  C170  1  0.33690000  0.78120000  0.82340000  1.0 0.59743603
C  C171  1  0.78120000  0.82340000  0.33690000  1.0 0.59743603
C  C172  1  0.17660000  0.66310000  0.21880000  1.0 0.59743603
C  C173  1  0.66310000  0.21880000  0.17660000  1.0 0.59743603
C  C174  1  0.21880000  0.17660000  0.66310000  1.0 0.59743603
C  C175  1  0.55190000  0.00680000  0.25780000  1.0 -0.0710109654
C  C176  1  0.00680000  0.25780000  0.55190000  1.0 -0.0710109654
C  C177  1  0.25780000  0.55190000  0.00680000  1.0 -0.0710109654
C  C178  1  0.44810000  0.99320000  0.74220000  1.0 -0.0710109654
C  C179  1  0.99320000  0.74220000  0.44810000  1.0 -0.0710109654
C  C180  1  0.74220000  0.44810000  0.99320000  1.0 -0.0710109654
C  C181  1  0.75810000  0.22830000  0.67040000  1.0 0.3154824567
C  C182  1  0.22830000  0.67040000  0.75810000  1.0 0.3154824567
C  C183  1  0.67040000  0.75810000  0.22830000  1.0 0.3149916423
C  C184  1  0.24190000  0.77170000  0.32960000  1.0 0.3154824567
C  C185  1  0.77170000  0.32960000  0.24190000  1.0 0.3154824567
C  C186  1  0.32960000  0.24190000  0.77170000  1.0 0.3154824567
C  C187  1  0.75480000  0.28200000  0.71510000  1.0 -0.1611474324
C  C188  1  0.28200000  0.71510000  0.75480000  1.0 -0.1650520372
C  C189  1  0.71510000  0.75480000  0.28200000  1.0 -0.1611474324
C  C190  1  0.24520000  0.71800000  0.28490000  1.0 -0.1650520372
C  C191  1  0.71800000  0.28490000  0.24520000  1.0 -0.1611474324
C  C192  1  0.28490000  0.24520000  0.71800000  1.0 -0.1611474324
C  C193  1  0.63590000  0.23690000  0.64450000  1.0 -0.1611474324
C  C194  1  0.23690000  0.64450000  0.63590000  1.0 -0.1611474324
C  C195  1  0.64450000  0.63590000  0.23690000  1.0 -0.1611474324
C  C196  1  0.36410000  0.76310000  0.35550000  1.0 -0.1611474324
C  C197  1  0.76310000  0.35550000  0.36410000  1.0 -0.1611474324
C  C198  1  0.35550000  0.36410000  0.76310000  1.0 -0.1611474324
C  C199  1  0.69810000  0.29190000  0.71090000  1.0 -0.0322870868
C  C200  1  0.29190000  0.71090000  0.69810000  1.0 -0.0322870868
C  C201  1  0.71090000  0.69810000  0.29190000  1.0 -0.0322870868
C  C202  1  0.30190000  0.70810000  0.28910000  1.0 -0.0322870868
C  C203  1  0.70810000  0.28910000  0.30190000  1.0 -0.0322870868
C  C204  1  0.28910000  0.30190000  0.70810000  1.0 -0.0322870868
C  C205  1  0.69490000  0.17560000  0.60660000  1.0 -0.2778759656
C  C206  1  0.17560000  0.60660000  0.69490000  1.0 -0.2778759656
C  C207  1  0.60660000  0.69490000  0.17560000  1.0 -0.2778759656
C  C208  1  0.30510000  0.82440000  0.39340000  1.0 -0.2778759656
C  C209  1  0.82440000  0.39340000  0.30510000  1.0 -0.2778759656
C  C210  1  0.39340000  0.30510000  0.82440000  1.0 -0.2778759656
C  C211  1  0.63450000  0.18460000  0.59680000  1.0 0.0782501541
C  C212  1  0.18460000  0.59680000  0.63450000  1.0 0.0782501541
C  C213  1  0.59680000  0.63450000  0.18460000  1.0 0.0782501541
C  C214  1  0.36550000  0.81540000  0.40320000  1.0 0.0782501541
C  C215  1  0.81540000  0.40320000  0.36550000  1.0 0.0782501541
C  C216  1  0.40320000  0.36550000  0.81540000  1.0 0.0782501541
O  O1  1  0.43010000  0.94720000  0.07980000  1.0 -0.5368141738
O  O2  1  0.94720000  0.07980000  0.43010000  1.0 -0.5368141738
O  O3  1  0.07980000  0.43010000  0.94720000  1.0 -0.5368141738
O  O4  1  0.56990000  0.05280000  0.92020000  1.0 -0.5368141738
O  O5  1  0.05280000  0.92020000  0.56990000  1.0 -0.5368141738
O  O6  1  0.92020000  0.56990000  0.05280000  1.0 -0.5368141738
O  O7  1  0.01939000  0.97953000  0.36968000  1.0 -0.4978834895
O  O8  1  0.97953000  0.36968000  0.01939000  1.0 -0.4978834895
O  O9  1  0.36968000  0.01939000  0.97953000  1.0 -0.4978834895
O  O10  1  0.98061000  0.02047000  0.63032000  1.0 -0.4978834895
O  O11  1  0.02047000  0.63032000  0.98061000  1.0 -0.4978834895
O  O12  1  0.63032000  0.98061000  0.02047000  1.0 -0.4978834895
O  O13  1  0.13500000  0.99470000  0.46540000  1.0 -0.4978834895
O  O14  1  0.99470000  0.46540000  0.13500000  1.0 -0.4978834895
O  O15  1  0.46540000  0.13500000  0.99470000  1.0 -0.4978834895
O  O16  1  0.86500000  0.00530000  0.53460000  1.0 -0.4978834895
O  O17  1  0.00530000  0.53460000  0.86500000  1.0 -0.4978834895
O  O18  1  0.53460000  0.86500000  0.00530000  1.0 -0.4978834895
O  O19  1  0.06535000  0.04857000  0.54928000  1.0 -0.7236706622
O  O20  1  0.04857000  0.54928000  0.06535000  1.0 -0.7236706622
O  O21  1  0.54928000  0.06535000  0.04857000  1.0 -0.7236706622
O  O22  1  0.93465000  0.95143000  0.45072000  1.0 -0.7236706622
O  O23  1  0.95143000  0.45072000  0.93465000  1.0 -0.7236706622
O  O24  1  0.45072000  0.93465000  0.95143000  1.0 -0.7236706622
O  O25  1  0.18770000  0.00240000  0.57210000  1.0 -0.5665582923
O  O26  1  0.00240000  0.57210000  0.18770000  1.0 -0.5665582923
O  O27  1  0.57210000  0.18770000  0.00240000  1.0 -0.5665582923
O  O28  1  0.81230000  0.99760000  0.42790000  1.0 -0.5665582923
O  O29  1  0.99760000  0.42790000  0.81230000  1.0 -0.5665582923
O  O30  1  0.42790000  0.81230000  0.99760000  1.0 -0.5665582923
O  O31  1  0.91055000  0.96050000  0.30885000  1.0 -0.5474201051
O  O32  1  0.96050000  0.30885000  0.91055000  1.0 -0.5474201051
O  O33  1  0.30885000  0.91055000  0.96050000  1.0 -0.5474201051
O  O34  1  0.08945000  0.03950000  0.69115000  1.0 -0.5474201051
O  O35  1  0.03950000  0.69115000  0.08945000  1.0 -0.5474201051
O  O36  1  0.69115000  0.08945000  0.03950000  1.0 -0.5474201051
O  O37  1  0.54350000  0.97560000  0.12370000  1.0 -0.4836986768
O  O38  1  0.97560000  0.12370000  0.54350000  1.0 -0.4836986768
O  O39  1  0.12370000  0.54350000  0.97560000  1.0 -0.4836986768
O  O40  1  0.45650000  0.02440000  0.87630000  1.0 -0.4836986768
O  O41  1  0.02440000  0.87630000  0.45650000  1.0 -0.4836986768
O  O42  1  0.87630000  0.45650000  0.02440000  1.0 -0.4836986768
O  O43  1  0.87020000  0.32170000  0.79430000  1.0 -0.4607265252
O  O44  1  0.32170000  0.79430000  0.87020000  1.0 -0.4607265252
O  O45  1  0.79430000  0.87020000  0.32170000  1.0 -0.4607265252
O  O46  1  0.12980000  0.67830000  0.20570000  1.0 -0.4607265252
O  O47  1  0.67830000  0.20570000  0.12980000  1.0 -0.4607265252
O  O48  1  0.20570000  0.12980000  0.67830000  1.0 -0.4607265252
O  O49  1  0.82450000  0.39180000  0.82150000  1.0 -0.4487345077
O  O50  1  0.39180000  0.82150000  0.82450000  1.0 -0.4487345077
O  O51  1  0.82150000  0.82450000  0.39180000  1.0 -0.4487345077
O  O52  1  0.17550000  0.60820000  0.17850000  1.0 -0.4487345077
O  O53  1  0.60820000  0.17850000  0.17550000  1.0 -0.4487345077
O  O54  1  0.17850000  0.17550000  0.60820000  1.0 -0.4487345077
O  O55  1  0.31960000  0.03590000  0.62480000  1.0 -0.4376904848
O  O56  1  0.03590000  0.62480000  0.31960000  1.0 -0.4376904848
O  O57  1  0.62480000  0.31960000  0.03590000  1.0 -0.4376904848
O  O58  1  0.68040000  0.96410000  0.37520000  1.0 -0.4376904848
O  O59  1  0.96410000  0.37520000  0.68040000  1.0 -0.4376904848
O  O60  1  0.37520000  0.68040000  0.96410000  1.0 -0.4376904848
O  O61  1  0.81210000  0.21710000  0.67290000  1.0 -0.3732999124
O  O62  1  0.21710000  0.67290000  0.81210000  1.0 -0.3732999124
O  O63  1  0.67290000  0.81210000  0.21710000  1.0 -0.3732999124
O  O64  1  0.18790000  0.78290000  0.32710000  1.0 -0.3732999124
O  O65  1  0.78290000  0.32710000  0.18790000  1.0 -0.3732999124
O  O66  1  0.32710000  0.18790000  0.78290000  1.0 -0.3732999124
O  O67  1  0.37170000  0.97280000  0.15940000  1.0 -0.4376904848
O  O68  1  0.97280000  0.15940000  0.37170000  1.0 -0.4376904848
O  O69  1  0.15940000  0.37170000  0.97280000  1.0 -0.4376904848
O  O70  1  0.62830000  0.02720000  0.84060000  1.0 -0.4376904848
O  O71  1  0.02720000  0.84060000  0.62830000  1.0 -0.4376904848
O  O72  1  0.84060000  0.62830000  0.02720000  1.0 -0.4376904848
O  O73  1  0.10940000  0.00480000  0.32340000  1.0 -0.4487345077
O  O74  1  0.00480000  0.32340000  0.10940000  1.0 -0.4487345077
O  O75  1  0.32340000  0.10940000  0.00480000  1.0 -0.4487345077
O  O76  1  0.89060000  0.99520000  0.67660000  1.0 -0.4487345077
O  O77  1  0.99520000  0.67660000  0.89060000  1.0 -0.4487345077
O  O78  1  0.67660000  0.89060000  0.99520000  1.0 -0.4487345077
O  O79  1  0.11920000  0.01540000  0.79740000  1.0 -0.3833474624
O  O80  1  0.01540000  0.79740000  0.11920000  1.0 -0.3833474624
O  O81  1  0.79740000  0.11920000  0.01540000  1.0 -0.3833474624
O  O82  1  0.88080000  0.98460000  0.20260000  1.0 -0.3833474624
O  O83  1  0.98460000  0.20260000  0.88080000  1.0 -0.3833474624
O  O84  1  0.20260000  0.88080000  0.98460000  1.0 -0.3833474624
