# DDEC6 charges by PACMAN v1.1 (https://github.com/mtap-research/PACMAN-charge/)
data_MEFKAM01_FSR_pacman
_symmetry_space_group_name_H-M   'P 1'
_cell_length_a   8.17210000
_cell_length_b   8.17210000
_cell_length_c   7.62660000
_cell_angle_alpha   90.00000000
_cell_angle_beta   90.00000000
_cell_angle_gamma   120.00000000
_symmetry_Int_Tables_number   1
_chemical_formula_structural   NaAlH6(CO2)6
_chemical_formula_sum   'Na1 Al1 H6 C6 O12'
_cell_volume   441.09176067
_cell_formula_units_Z   1
loop_
 _symmetry_equiv_pos_site_id
 _symmetry_equiv_pos_as_xyz
  1  'x, y, z'
loop_
 _atom_site_type_symbol
 _atom_site_label
 _atom_site_symmetry_multiplicity
 _atom_site_fract_x
 _atom_site_fract_y
 _atom_site_fract_z
 _atom_site_occupancy
 _atom_site_charge
Na  Na1  1  0.00000000  0.00000000  0.00000000  1.0 0.9806267338
Al  Al1  1  0.66666667  0.33333333  0.50000000  1.0 1.4637383538
H  H1  1  0.89240000  0.65610000  0.25800000  1.0 0.1127374711
H  H2  1  0.34390000  0.23630000  0.25800000  1.0 0.1127374711
H  H3  1  0.76370000  0.10760000  0.25800000  1.0 0.1127374711
H  H4  1  0.34390000  0.10760000  0.74200000  1.0 0.1127374711
H  H5  1  0.76370000  0.65610000  0.74200000  1.0 0.1127374711
H  H6  1  0.89240000  0.23630000  0.74200000  1.0 0.1127374711
C  C1  1  0.77440000  0.64680000  0.26540000  1.0 0.5135692574
C  C2  1  0.35320000  0.12760000  0.26540000  1.0 0.5135692574
C  C3  1  0.87240000  0.22560000  0.26540000  1.0 0.5135692574
C  C4  1  0.35320000  0.22560000  0.73460000  1.0 0.5135692574
C  C5  1  0.87240000  0.64680000  0.73460000  1.0 0.5135692574
C  C6  1  0.77440000  0.12760000  0.73460000  1.0 0.5135692574
O  O1  1  0.65630000  0.51880000  0.36010000  1.0 -0.5399260206
O  O2  1  0.75380000  0.76200000  0.18070000  1.0 -0.4937748892
O  O3  1  0.48120000  0.13750000  0.36010000  1.0 -0.5399260206
O  O4  1  0.23800000  0.99180000  0.18070000  1.0 -0.4937748892
O  O5  1  0.86250000  0.34370000  0.36010000  1.0 -0.5399260206
O  O6  1  0.00820000  0.24620000  0.18070000  1.0 -0.4937748892
O  O7  1  0.48120000  0.34370000  0.63990000  1.0 -0.5399260206
O  O8  1  0.23800000  0.24620000  0.81930000  1.0 -0.4937748892
O  O9  1  0.86250000  0.51880000  0.63990000  1.0 -0.5399260206
O  O10  1  0.00820000  0.76200000  0.81930000  1.0 -0.4937748892
O  O11  1  0.65630000  0.13750000  0.63990000  1.0 -0.5399260206
O  O12  1  0.75380000  0.99180000  0.81930000  1.0 -0.4937748892
