# DDEC6 charges by PACMAN v1.1 (https://github.com/mtap-research/PACMAN-charge/)
data_MEFZUU_ASR_pacman
_symmetry_space_group_name_H-M   'P 1'
_cell_length_a   38.14280000
_cell_length_b   38.14280000
_cell_length_c   39.24560000
_cell_angle_alpha   66.47770000
_cell_angle_beta   66.47800000
_cell_angle_gamma   100.29500000
_symmetry_Int_Tables_number   1
_chemical_formula_structural   Mn96H320C832N64Cl49O256
_chemical_formula_sum   'Mn96 H320 C832 N64 Cl49 O256'
_cell_volume   43952.36686024
_cell_formula_units_Z   1
loop_
 _symmetry_equiv_pos_site_id
 _symmetry_equiv_pos_as_xyz
  1  'x, y, z'
loop_
 _atom_site_type_symbol
 _atom_site_label
 _atom_site_symmetry_multiplicity
 _atom_site_fract_x
 _atom_site_fract_y
 _atom_site_fract_z
 _atom_site_occupancy
 _atom_site_charge
Mn  Mn1  1  0.25000000  0.00000000  0.25000000  1.0 0.7695621222
Mn  Mn2  1  0.00000000  0.25000000  0.25000000  1.0 0.7695621222
Mn  Mn3  1  0.25000000  0.25000000  0.25000000  1.0 0.9992531754
Mn  Mn4  1  0.00000000  0.00000000  0.25000000  1.0 0.9992531754
Mn  Mn5  1  0.34170000  0.34170000  0.14617000  1.0 1.0076448582
Mn  Mn6  1  0.01213000  0.01213000  0.14617000  1.0 1.0076448582
Mn  Mn7  1  0.15830000  0.15830000  0.35383000  1.0 1.0076448582
Mn  Mn8  1  0.48787000  0.48787000  0.35383000  1.0 1.0076448582
Mn  Mn9  1  0.01458000  0.29276000  0.00000000  1.0 1.0076448582
Mn  Mn10  1  0.48542000  0.20725000  0.00000000  1.0 1.0076448582
Mn  Mn11  1  0.20725000  0.48542000  0.00000000  1.0 1.0076448582
Mn  Mn12  1  0.29276000  0.01458000  0.00000000  1.0 0.9992531754
Mn  Mn13  1  0.75000000  0.00000000  0.25000000  1.0 0.7767276058
Mn  Mn14  1  0.50000000  0.25000000  0.25000000  1.0 0.7695621222
Mn  Mn15  1  0.75000000  0.25000000  0.25000000  1.0 0.9992531754
Mn  Mn16  1  0.50000000  0.00000000  0.25000000  1.0 0.9992531754
Mn  Mn17  1  0.84170000  0.34170000  0.14617000  1.0 1.0076448582
Mn  Mn18  1  0.51213000  0.01213000  0.14617000  1.0 1.0076448582
Mn  Mn19  1  0.65830000  0.15830000  0.35383000  1.0 1.0076448582
Mn  Mn20  1  0.98787000  0.48787000  0.35383000  1.0 1.0076448582
Mn  Mn21  1  0.51459000  0.29276000  0.00000000  1.0 1.0076448582
Mn  Mn22  1  0.98542000  0.20725000  0.00000000  1.0 1.0076448582
Mn  Mn23  1  0.70725000  0.48542000  0.00000000  1.0 1.0076448582
Mn  Mn24  1  0.79276000  0.01458000  0.00000000  1.0 1.0076448582
Mn  Mn25  1  0.25000000  0.50000000  0.25000000  1.0 0.7695621222
Mn  Mn26  1  0.00000000  0.75000000  0.25000000  1.0 0.7695621222
Mn  Mn27  1  0.25000000  0.75000000  0.25000000  1.0 0.9992531754
Mn  Mn28  1  0.00000000  0.50000000  0.25000000  1.0 0.9992531754
Mn  Mn29  1  0.34170000  0.84170000  0.14617000  1.0 1.0076448582
Mn  Mn30  1  0.01213000  0.51213000  0.14617000  1.0 1.0076448582
Mn  Mn31  1  0.15830000  0.65830000  0.35383000  1.0 1.0076448582
Mn  Mn32  1  0.48787000  0.98787000  0.35383000  1.0 1.0076448582
Mn  Mn33  1  0.01458000  0.79276000  0.00000000  1.0 1.0076448582
Mn  Mn34  1  0.48542000  0.70725000  0.00000000  1.0 1.0076448582
Mn  Mn35  1  0.20725000  0.98542000  0.00000000  1.0 0.9992531754
Mn  Mn36  1  0.29276000  0.51458000  0.00000000  1.0 1.0076448582
Mn  Mn37  1  0.75000000  0.50000000  0.25000000  1.0 0.7695621222
Mn  Mn38  1  0.50000000  0.75000000  0.25000000  1.0 0.7695621222
Mn  Mn39  1  0.75000000  0.75000000  0.25000000  1.0 0.9992531754
Mn  Mn40  1  0.50000000  0.50000000  0.25000000  1.0 0.9992531754
Mn  Mn41  1  0.84170000  0.84170000  0.14617000  1.0 1.0076448582
Mn  Mn42  1  0.51213000  0.51213000  0.14617000  1.0 1.0076448582
Mn  Mn43  1  0.65830000  0.65830000  0.35383000  1.0 1.0076448582
Mn  Mn44  1  0.98787000  0.98787000  0.35383000  1.0 1.0076448582
Mn  Mn45  1  0.51459000  0.79276000  0.00000000  1.0 1.0076448582
Mn  Mn46  1  0.98542000  0.70725000  0.00000000  1.0 1.0076448582
Mn  Mn47  1  0.70725000  0.98542000  0.00000000  1.0 1.0076448582
Mn  Mn48  1  0.79276000  0.51458000  0.00000000  1.0 1.0076448582
Mn  Mn49  1  0.25000000  0.00000000  0.75000000  1.0 0.7695621222
Mn  Mn50  1  0.00000000  0.25000000  0.75000000  1.0 0.7695621222
Mn  Mn51  1  0.25000000  0.25000000  0.75000000  1.0 0.9992531754
Mn  Mn52  1  0.00000000  0.00000000  0.75000000  1.0 0.9992531754
Mn  Mn53  1  0.34170000  0.34170000  0.64617000  1.0 1.0076448582
Mn  Mn54  1  0.01213000  0.01213000  0.64617000  1.0 1.0076448582
Mn  Mn55  1  0.15830000  0.15830000  0.85383000  1.0 0.9992531754
Mn  Mn56  1  0.48787000  0.48787000  0.85383000  1.0 0.9992531754
Mn  Mn57  1  0.01458000  0.29276000  0.50000000  1.0 1.0076448582
Mn  Mn58  1  0.48542000  0.20725000  0.50000000  1.0 1.0076448582
Mn  Mn59  1  0.20725000  0.48542000  0.50000000  1.0 1.0076448582
Mn  Mn60  1  0.29276000  0.01458000  0.50000000  1.0 1.0076448582
Mn  Mn61  1  0.75000000  0.00000000  0.75000000  1.0 0.7695621222
Mn  Mn62  1  0.50000000  0.25000000  0.75000000  1.0 0.7695621222
Mn  Mn63  1  0.75000000  0.25000000  0.75000000  1.0 0.9992531754
Mn  Mn64  1  0.50000000  0.00000000  0.75000000  1.0 0.9992531754
Mn  Mn65  1  0.84170000  0.34170000  0.64617000  1.0 1.0076448582
Mn  Mn66  1  0.51213000  0.01213000  0.64617000  1.0 1.0076448582
Mn  Mn67  1  0.65830000  0.15830000  0.85383000  1.0 1.0076448582
Mn  Mn68  1  0.98787000  0.48787000  0.85383000  1.0 1.0076448582
Mn  Mn69  1  0.51459000  0.29276000  0.50000000  1.0 1.0076448582
Mn  Mn70  1  0.98542000  0.20725000  0.50000000  1.0 1.0076448582
Mn  Mn71  1  0.70725000  0.48542000  0.50000000  1.0 1.0076448582
Mn  Mn72  1  0.79276000  0.01458000  0.50000000  1.0 1.0076448582
Mn  Mn73  1  0.25000000  0.50000000  0.75000000  1.0 0.7695621222
Mn  Mn74  1  0.00000000  0.75000000  0.75000000  1.0 0.7695621222
Mn  Mn75  1  0.25000000  0.75000000  0.75000000  1.0 0.9992531754
Mn  Mn76  1  0.00000000  0.50000000  0.75000000  1.0 0.9992531754
Mn  Mn77  1  0.34170000  0.84170000  0.64617000  1.0 1.0076448582
Mn  Mn78  1  0.01213000  0.51213000  0.64617000  1.0 1.0076448582
Mn  Mn79  1  0.15830000  0.65830000  0.85383000  1.0 0.9992531754
Mn  Mn80  1  0.48787000  0.98787000  0.85383000  1.0 1.0076448582
Mn  Mn81  1  0.01458000  0.79276000  0.50000000  1.0 1.0076448582
Mn  Mn82  1  0.48542000  0.70725000  0.50000000  1.0 1.0076448582
Mn  Mn83  1  0.20725000  0.98542000  0.50000000  1.0 1.0076448582
Mn  Mn84  1  0.29276000  0.51458000  0.50000000  1.0 1.0076448582
Mn  Mn85  1  0.75000000  0.50000000  0.75000000  1.0 0.7695621222
Mn  Mn86  1  0.50000000  0.75000000  0.75000000  1.0 0.7695621222
Mn  Mn87  1  0.75000000  0.75000000  0.75000000  1.0 0.9992531754
Mn  Mn88  1  0.50000000  0.50000000  0.75000000  1.0 0.9992531754
Mn  Mn89  1  0.84170000  0.84170000  0.64617000  1.0 1.0076448582
Mn  Mn90  1  0.51213000  0.51213000  0.64617000  1.0 1.0076448582
Mn  Mn91  1  0.65830000  0.65830000  0.85383000  1.0 0.9992531754
Mn  Mn92  1  0.98787000  0.98787000  0.85383000  1.0 1.0076448582
Mn  Mn93  1  0.51459000  0.79276000  0.50000000  1.0 1.0076448582
Mn  Mn94  1  0.98542000  0.70725000  0.50000000  1.0 1.0076448582
Mn  Mn95  1  0.70725000  0.98542000  0.50000000  1.0 1.0076448582
Mn  Mn96  1  0.79276000  0.51458000  0.50000000  1.0 1.0076448582
H  H1  1  0.35165000  0.12985000  0.22070000  1.0 0.1232886608
H  H2  1  0.27320000  0.14190000  0.13500000  1.0 0.1291576403
H  H3  1  0.28410000  0.16780000  0.20550000  1.0 0.1291576403
H  H4  1  0.38605000  0.26695000  0.10140000  1.0 0.1291576403
H  H5  1  0.36965000  0.15345000  0.11780000  1.0 0.1291576403
H  H6  1  0.42765000  0.14945000  0.22070000  1.0 0.1232886608
H  H7  1  0.09180000  0.22310000  0.13500000  1.0 0.1291576403
H  H8  1  0.01040000  0.12670000  0.20550000  1.0 0.1291576403
H  H9  1  0.01255000  0.13165000  0.10140000  1.0 0.1291576403
H  H10  1  0.01255000  0.22875000  0.11780000  1.0 0.1291576403
H  H11  1  0.37015000  0.14835000  0.27930000  1.0 0.1232886608
H  H12  1  0.35810000  0.22680000  0.36500000  1.0 0.1291576403
H  H13  1  0.33220000  0.21590000  0.29450000  1.0 0.1291576403
H  H14  1  0.23305000  0.11395000  0.39860000  1.0 0.1291576403
H  H15  1  0.34655000  0.13035000  0.38220000  1.0 0.1291576403
H  H16  1  0.35055000  0.07235000  0.27930000  1.0 0.1232886608
H  H17  1  0.27690000  0.40820000  0.36500000  1.0 0.1291576403
H  H18  1  0.37330000  0.48960000  0.29450000  1.0 0.1291576403
H  H19  1  0.36835000  0.48745000  0.39860000  1.0 0.1291576403
H  H20  1  0.27125000  0.48745000  0.38220000  1.0 0.1291576403
H  H21  1  0.14835000  0.37015000  0.27930000  1.0 0.1232886608
H  H22  1  0.22680000  0.35810000  0.36500000  1.0 0.1291576403
H  H23  1  0.21590000  0.33220000  0.29450000  1.0 0.1291576403
H  H24  1  0.11395000  0.23305000  0.39860000  1.0 0.1291576403
H  H25  1  0.13035000  0.34655000  0.38220000  1.0 0.1291576403
H  H26  1  0.07235000  0.35055000  0.27930000  1.0 0.1232886608
H  H27  1  0.40820000  0.27690000  0.36500000  1.0 0.1291576403
H  H28  1  0.48960000  0.37330000  0.29450000  1.0 0.1291576403
H  H29  1  0.48745000  0.36835000  0.39860000  1.0 0.1291576403
H  H30  1  0.48745000  0.27125000  0.38220000  1.0 0.1291576403
H  H31  1  0.12985000  0.35165000  0.22070000  1.0 0.1232886608
H  H32  1  0.14190000  0.27320000  0.13500000  1.0 0.1291576403
H  H33  1  0.16780000  0.28410000  0.20550000  1.0 0.1291576403
H  H34  1  0.26695000  0.38605000  0.10140000  1.0 0.1291576403
H  H35  1  0.15345000  0.36965000  0.11780000  1.0 0.1291576403
H  H36  1  0.14945000  0.42765000  0.22070000  1.0 0.1232886608
H  H37  1  0.22310000  0.09180000  0.13500000  1.0 0.1291576403
H  H38  1  0.12670000  0.01040000  0.20550000  1.0 0.1291576403
H  H39  1  0.13165000  0.01255000  0.10140000  1.0 0.1291576403
H  H40  1  0.22875000  0.01255000  0.11780000  1.0 0.1291576403
H  H41  1  0.85165000  0.12985000  0.22070000  1.0 0.1232886608
H  H42  1  0.77320000  0.14190000  0.13500000  1.0 0.1232886608
H  H43  1  0.78410000  0.16780000  0.20550000  1.0 0.1291576403
H  H44  1  0.88605000  0.26695000  0.10140000  1.0 0.1291576403
H  H45  1  0.86965000  0.15345000  0.11780000  1.0 0.1291576403
H  H46  1  0.92765000  0.14945000  0.22070000  1.0 0.1232886608
H  H47  1  0.59180000  0.22310000  0.13500000  1.0 0.1291576403
H  H48  1  0.51040000  0.12670000  0.20550000  1.0 0.1291576403
H  H49  1  0.51255000  0.13165000  0.10140000  1.0 0.1291576403
H  H50  1  0.51255000  0.22875000  0.11780000  1.0 0.1291576403
H  H51  1  0.87015000  0.14835000  0.27930000  1.0 0.1232886608
H  H52  1  0.85810000  0.22680000  0.36500000  1.0 0.1291576403
H  H53  1  0.83220000  0.21590000  0.29450000  1.0 0.1291576403
H  H54  1  0.73305000  0.11395000  0.39860000  1.0 0.1291576403
H  H55  1  0.84655000  0.13035000  0.38220000  1.0 0.1291576403
H  H56  1  0.85055000  0.07235000  0.27930000  1.0 0.1232886608
H  H57  1  0.77690000  0.40820000  0.36500000  1.0 0.1291576403
H  H58  1  0.87330000  0.48960000  0.29450000  1.0 0.1291576403
H  H59  1  0.86835000  0.48745000  0.39860000  1.0 0.1291576403
H  H60  1  0.77125000  0.48745000  0.38220000  1.0 0.1291576403
H  H61  1  0.64835000  0.37015000  0.27930000  1.0 0.1232886608
H  H62  1  0.72680000  0.35810000  0.36500000  1.0 0.1291576403
H  H63  1  0.71590000  0.33220000  0.29450000  1.0 0.1291576403
H  H64  1  0.61395000  0.23305000  0.39860000  1.0 0.1291576403
H  H65  1  0.63035000  0.34655000  0.38220000  1.0 0.1291576403
H  H66  1  0.57235000  0.35055000  0.27930000  1.0 0.1232886608
H  H67  1  0.90820000  0.27690000  0.36500000  1.0 0.1291576403
H  H68  1  0.98960000  0.37330000  0.29450000  1.0 0.1291576403
H  H69  1  0.98745000  0.36835000  0.39860000  1.0 0.1291576403
H  H70  1  0.98745000  0.27125000  0.38220000  1.0 0.1291576403
H  H71  1  0.62985000  0.35165000  0.22070000  1.0 0.1232886608
H  H72  1  0.64190000  0.27320000  0.13500000  1.0 0.1291576403
H  H73  1  0.66780000  0.28410000  0.20550000  1.0 0.1291576403
H  H74  1  0.76695000  0.38605000  0.10140000  1.0 0.1291576403
H  H75  1  0.65345000  0.36965000  0.11780000  1.0 0.1291576403
H  H76  1  0.64945000  0.42765000  0.22070000  1.0 0.1232886608
H  H77  1  0.72310000  0.09180000  0.13500000  1.0 0.1232886608
H  H78  1  0.62670000  0.01040000  0.20550000  1.0 0.1291576403
H  H79  1  0.63165000  0.01255000  0.10140000  1.0 0.1291576403
H  H80  1  0.72875000  0.01255000  0.11780000  1.0 0.1291576403
H  H81  1  0.35165000  0.62985000  0.22070000  1.0 0.1232886608
H  H82  1  0.27320000  0.64190000  0.13500000  1.0 0.1291576403
H  H83  1  0.28410000  0.66780000  0.20550000  1.0 0.1291576403
H  H84  1  0.38605000  0.76695000  0.10140000  1.0 0.1291576403
H  H85  1  0.36965000  0.65345000  0.11780000  1.0 0.1291576403
H  H86  1  0.42765000  0.64945000  0.22070000  1.0 0.1232886608
H  H87  1  0.09180000  0.72310000  0.13500000  1.0 0.1291576403
H  H88  1  0.01040000  0.62670000  0.20550000  1.0 0.1291576403
H  H89  1  0.01255000  0.63165000  0.10140000  1.0 0.1291576403
H  H90  1  0.01255000  0.72875000  0.11780000  1.0 0.1291576403
H  H91  1  0.37015000  0.64835000  0.27930000  1.0 0.1232886608
H  H92  1  0.35810000  0.72680000  0.36500000  1.0 0.1291576403
H  H93  1  0.33220000  0.71590000  0.29450000  1.0 0.1291576403
H  H94  1  0.23305000  0.61395000  0.39860000  1.0 0.1291576403
H  H95  1  0.34655000  0.63035000  0.38220000  1.0 0.1291576403
H  H96  1  0.35055000  0.57235000  0.27930000  1.0 0.1232886608
H  H97  1  0.27690000  0.90820000  0.36500000  1.0 0.1291576403
H  H98  1  0.37330000  0.98960000  0.29450000  1.0 0.1291576403
H  H99  1  0.36835000  0.98745000  0.39860000  1.0 0.1291576403
H  H100  1  0.27125000  0.98745000  0.38220000  1.0 0.1291576403
H  H101  1  0.14835000  0.87015000  0.27930000  1.0 0.1232886608
H  H102  1  0.22680000  0.85810000  0.36500000  1.0 0.1291576403
H  H103  1  0.21590000  0.83220000  0.29450000  1.0 0.1291576403
H  H104  1  0.11395000  0.73305000  0.39860000  1.0 0.1291576403
H  H105  1  0.13035000  0.84655000  0.38220000  1.0 0.1291576403
H  H106  1  0.07235000  0.85055000  0.27930000  1.0 0.1232886608
H  H107  1  0.40820000  0.77690000  0.36500000  1.0 0.1291576403
H  H108  1  0.48960000  0.87330000  0.29450000  1.0 0.1291576403
H  H109  1  0.48745000  0.86835000  0.39860000  1.0 0.1291576403
H  H110  1  0.48745000  0.77125000  0.38220000  1.0 0.1291576403
H  H111  1  0.12985000  0.85165000  0.22070000  1.0 0.1232886608
H  H112  1  0.14190000  0.77320000  0.13500000  1.0 0.1291576403
H  H113  1  0.16780000  0.78410000  0.20550000  1.0 0.1291576403
H  H114  1  0.26695000  0.88605000  0.10140000  1.0 0.1291576403
H  H115  1  0.15345000  0.86965000  0.11780000  1.0 0.1291576403
H  H116  1  0.14945000  0.92765000  0.22070000  1.0 0.1232886608
H  H117  1  0.22310000  0.59180000  0.13500000  1.0 0.1291576403
H  H118  1  0.12670000  0.51040000  0.20550000  1.0 0.1291576403
H  H119  1  0.13165000  0.51255000  0.10140000  1.0 0.1291576403
H  H120  1  0.22875000  0.51255000  0.11780000  1.0 0.1291576403
H  H121  1  0.85165000  0.62985000  0.22070000  1.0 0.1232886608
H  H122  1  0.77320000  0.64190000  0.13500000  1.0 0.1291576403
H  H123  1  0.78410000  0.66780000  0.20550000  1.0 0.1291576403
H  H124  1  0.88605000  0.76695000  0.10140000  1.0 0.1291576403
H  H125  1  0.86965000  0.65345000  0.11780000  1.0 0.1291576403
H  H126  1  0.92765000  0.64945000  0.22070000  1.0 0.1232886608
H  H127  1  0.59180000  0.72310000  0.13500000  1.0 0.1291576403
H  H128  1  0.51040000  0.62670000  0.20550000  1.0 0.1291576403
H  H129  1  0.51255000  0.63165000  0.10140000  1.0 0.1291576403
H  H130  1  0.51255000  0.72875000  0.11780000  1.0 0.1291576403
H  H131  1  0.87015000  0.64835000  0.27930000  1.0 0.1232886608
H  H132  1  0.85810000  0.72680000  0.36500000  1.0 0.1291576403
H  H133  1  0.83220000  0.71590000  0.29450000  1.0 0.1291576403
H  H134  1  0.73305000  0.61395000  0.39860000  1.0 0.1291576403
H  H135  1  0.84655000  0.63035000  0.38220000  1.0 0.1291576403
H  H136  1  0.85055000  0.57235000  0.27930000  1.0 0.1232886608
H  H137  1  0.77690000  0.90820000  0.36500000  1.0 0.1232886608
H  H138  1  0.87330000  0.98960000  0.29450000  1.0 0.1291576403
H  H139  1  0.86835000  0.98745000  0.39860000  1.0 0.1291576403
H  H140  1  0.77125000  0.98745000  0.38220000  1.0 0.1291576403
H  H141  1  0.64835000  0.87015000  0.27930000  1.0 0.1232886608
H  H142  1  0.72680000  0.85810000  0.36500000  1.0 0.1232886608
H  H143  1  0.71590000  0.83220000  0.29450000  1.0 0.1291576403
H  H144  1  0.61395000  0.73305000  0.39860000  1.0 0.1291576403
H  H145  1  0.63035000  0.84655000  0.38220000  1.0 0.1291576403
H  H146  1  0.57235000  0.85055000  0.27930000  1.0 0.1232886608
H  H147  1  0.90820000  0.77690000  0.36500000  1.0 0.1291576403
H  H148  1  0.98960000  0.87330000  0.29450000  1.0 0.1291576403
H  H149  1  0.98745000  0.86835000  0.39860000  1.0 0.1291576403
H  H150  1  0.98745000  0.77125000  0.38220000  1.0 0.1291576403
H  H151  1  0.62985000  0.85165000  0.22070000  1.0 0.1232886608
H  H152  1  0.64190000  0.77320000  0.13500000  1.0 0.1291576403
H  H153  1  0.66780000  0.78410000  0.20550000  1.0 0.1291576403
H  H154  1  0.76695000  0.88605000  0.10140000  1.0 0.1291576403
H  H155  1  0.65345000  0.86965000  0.11780000  1.0 0.1291576403
H  H156  1  0.64945000  0.92765000  0.22070000  1.0 0.1232886608
H  H157  1  0.72310000  0.59180000  0.13500000  1.0 0.1291576403
H  H158  1  0.62670000  0.51040000  0.20550000  1.0 0.1291576403
H  H159  1  0.63165000  0.51255000  0.10140000  1.0 0.1291576403
H  H160  1  0.72875000  0.51255000  0.11780000  1.0 0.1291576403
H  H161  1  0.35165000  0.12985000  0.72070000  1.0 0.1232886608
H  H162  1  0.27320000  0.14190000  0.63500000  1.0 0.1291576403
H  H163  1  0.28410000  0.16780000  0.70550000  1.0 0.1291576403
H  H164  1  0.38605000  0.26695000  0.60140000  1.0 0.1291576403
H  H165  1  0.36965000  0.15345000  0.61780000  1.0 0.1291576403
H  H166  1  0.42765000  0.14945000  0.72070000  1.0 0.1232886608
H  H167  1  0.09180000  0.22310000  0.63500000  1.0 0.1291576403
H  H168  1  0.01040000  0.12670000  0.70550000  1.0 0.1291576403
H  H169  1  0.01255000  0.13165000  0.60140000  1.0 0.1291576403
H  H170  1  0.01255000  0.22875000  0.61780000  1.0 0.1291576403
H  H171  1  0.37015000  0.14835000  0.77930000  1.0 0.1232886608
H  H172  1  0.35810000  0.22680000  0.86500000  1.0 0.1291576403
H  H173  1  0.33220000  0.21590000  0.79450000  1.0 0.1291576403
H  H174  1  0.23305000  0.11395000  0.89860000  1.0 0.1291576403
H  H175  1  0.34655000  0.13035000  0.88220000  1.0 0.1291576403
H  H176  1  0.35055000  0.07235000  0.77930000  1.0 0.1232886608
H  H177  1  0.27690000  0.40820000  0.86500000  1.0 0.1291576403
H  H178  1  0.37330000  0.48960000  0.79450000  1.0 0.1291576403
H  H179  1  0.36835000  0.48745000  0.89860000  1.0 0.1291576403
H  H180  1  0.27125000  0.48745000  0.88220000  1.0 0.1291576403
H  H181  1  0.14835000  0.37015000  0.77930000  1.0 0.1232886608
H  H182  1  0.22680000  0.35810000  0.86500000  1.0 0.1291576403
H  H183  1  0.21590000  0.33220000  0.79450000  1.0 0.1291576403
H  H184  1  0.11395000  0.23305000  0.89860000  1.0 0.1291576403
H  H185  1  0.13035000  0.34655000  0.88220000  1.0 0.1291576403
H  H186  1  0.07235000  0.35055000  0.77930000  1.0 0.1232886608
H  H187  1  0.40820000  0.27690000  0.86500000  1.0 0.1291576403
H  H188  1  0.48960000  0.37330000  0.79450000  1.0 0.1291576403
H  H189  1  0.48745000  0.36835000  0.89860000  1.0 0.1291576403
H  H190  1  0.48745000  0.27125000  0.88220000  1.0 0.1291576403
H  H191  1  0.12985000  0.35165000  0.72070000  1.0 0.1232886608
H  H192  1  0.14190000  0.27320000  0.63500000  1.0 0.1291576403
H  H193  1  0.16780000  0.28410000  0.70550000  1.0 0.1291576403
H  H194  1  0.26695000  0.38605000  0.60140000  1.0 0.1291576403
H  H195  1  0.15345000  0.36965000  0.61780000  1.0 0.1291576403
H  H196  1  0.14945000  0.42765000  0.72070000  1.0 0.1232886608
H  H197  1  0.22310000  0.09180000  0.63500000  1.0 0.1291576403
H  H198  1  0.12670000  0.01040000  0.70550000  1.0 0.1291576403
H  H199  1  0.13165000  0.01255000  0.60140000  1.0 0.1291576403
H  H200  1  0.22875000  0.01255000  0.61780000  1.0 0.1291576403
H  H201  1  0.85165000  0.12985000  0.72070000  1.0 0.1232886608
H  H202  1  0.77320000  0.14190000  0.63500000  1.0 0.1291576403
H  H203  1  0.78410000  0.16780000  0.70550000  1.0 0.1291576403
H  H204  1  0.88605000  0.26695000  0.60140000  1.0 0.1291576403
H  H205  1  0.86965000  0.15345000  0.61780000  1.0 0.1291576403
H  H206  1  0.92765000  0.14945000  0.72070000  1.0 0.1232886608
H  H207  1  0.59180000  0.22310000  0.63500000  1.0 0.1291576403
H  H208  1  0.51040000  0.12670000  0.70550000  1.0 0.1291576403
H  H209  1  0.51255000  0.13165000  0.60140000  1.0 0.1291576403
H  H210  1  0.51255000  0.22875000  0.61780000  1.0 0.1291576403
H  H211  1  0.87015000  0.14835000  0.77930000  1.0 0.1232886608
H  H212  1  0.85810000  0.22680000  0.86500000  1.0 0.1291576403
H  H213  1  0.83220000  0.21590000  0.79450000  1.0 0.1291576403
H  H214  1  0.73305000  0.11395000  0.89860000  1.0 0.1291576403
H  H215  1  0.84655000  0.13035000  0.88220000  1.0 0.1291576403
H  H216  1  0.85055000  0.07235000  0.77930000  1.0 0.1232886608
H  H217  1  0.77690000  0.40820000  0.86500000  1.0 0.1291576403
H  H218  1  0.87330000  0.48960000  0.79450000  1.0 0.1291576403
H  H219  1  0.86835000  0.48745000  0.89860000  1.0 0.1291576403
H  H220  1  0.77125000  0.48745000  0.88220000  1.0 0.1291576403
H  H221  1  0.64835000  0.37015000  0.77930000  1.0 0.1232886608
H  H222  1  0.72680000  0.35810000  0.86500000  1.0 0.1291576403
H  H223  1  0.71590000  0.33220000  0.79450000  1.0 0.1291576403
H  H224  1  0.61395000  0.23305000  0.89860000  1.0 0.1291576403
H  H225  1  0.63035000  0.34655000  0.88220000  1.0 0.1291576403
H  H226  1  0.57235000  0.35055000  0.77930000  1.0 0.1232886608
H  H227  1  0.90820000  0.27690000  0.86500000  1.0 0.1291576403
H  H228  1  0.98960000  0.37330000  0.79450000  1.0 0.1291576403
H  H229  1  0.98745000  0.36835000  0.89860000  1.0 0.1291576403
H  H230  1  0.98745000  0.27125000  0.88220000  1.0 0.1291576403
H  H231  1  0.62985000  0.35165000  0.72070000  1.0 0.1232886608
H  H232  1  0.64190000  0.27320000  0.63500000  1.0 0.1291576403
H  H233  1  0.66780000  0.28410000  0.70550000  1.0 0.1291576403
H  H234  1  0.76695000  0.38605000  0.60140000  1.0 0.1291576403
H  H235  1  0.65345000  0.36965000  0.61780000  1.0 0.1291576403
H  H236  1  0.64945000  0.42765000  0.72070000  1.0 0.1232886608
H  H237  1  0.72310000  0.09180000  0.63500000  1.0 0.1291576403
H  H238  1  0.62670000  0.01040000  0.70550000  1.0 0.1291576403
H  H239  1  0.63165000  0.01255000  0.60140000  1.0 0.1291576403
H  H240  1  0.72875000  0.01255000  0.61780000  1.0 0.1291576403
H  H241  1  0.35165000  0.62985000  0.72070000  1.0 0.1232886608
H  H242  1  0.27320000  0.64190000  0.63500000  1.0 0.1291576403
H  H243  1  0.28410000  0.66780000  0.70550000  1.0 0.1291576403
H  H244  1  0.38605000  0.76695000  0.60140000  1.0 0.1291576403
H  H245  1  0.36965000  0.65345000  0.61780000  1.0 0.1291576403
H  H246  1  0.42765000  0.64945000  0.72070000  1.0 0.1232886608
H  H247  1  0.09180000  0.72310000  0.63500000  1.0 0.1291576403
H  H248  1  0.01040000  0.62670000  0.70550000  1.0 0.1291576403
H  H249  1  0.01255000  0.63165000  0.60140000  1.0 0.1291576403
H  H250  1  0.01255000  0.72875000  0.61780000  1.0 0.1291576403
H  H251  1  0.37015000  0.64835000  0.77930000  1.0 0.1232886608
H  H252  1  0.35810000  0.72680000  0.86500000  1.0 0.1291576403
H  H253  1  0.33220000  0.71590000  0.79450000  1.0 0.1291576403
H  H254  1  0.23305000  0.61395000  0.89860000  1.0 0.1291576403
H  H255  1  0.34655000  0.63035000  0.88220000  1.0 0.1291576403
H  H256  1  0.35055000  0.57235000  0.77930000  1.0 0.1232886608
H  H257  1  0.27690000  0.90820000  0.86500000  1.0 0.1291576403
H  H258  1  0.37330000  0.98960000  0.79450000  1.0 0.1291576403
H  H259  1  0.36835000  0.98745000  0.89860000  1.0 0.1291576403
H  H260  1  0.27125000  0.98745000  0.88220000  1.0 0.1291576403
H  H261  1  0.14835000  0.87015000  0.77930000  1.0 0.1232886608
H  H262  1  0.22680000  0.85810000  0.86500000  1.0 0.1291576403
H  H263  1  0.21590000  0.83220000  0.79450000  1.0 0.1291576403
H  H264  1  0.11395000  0.73305000  0.89860000  1.0 0.1291576403
H  H265  1  0.13035000  0.84655000  0.88220000  1.0 0.1291576403
H  H266  1  0.07235000  0.85055000  0.77930000  1.0 0.1232886608
H  H267  1  0.40820000  0.77690000  0.86500000  1.0 0.1291576403
H  H268  1  0.48960000  0.87330000  0.79450000  1.0 0.1291576403
H  H269  1  0.48745000  0.86835000  0.89860000  1.0 0.1291576403
H  H270  1  0.48745000  0.77125000  0.88220000  1.0 0.1291576403
H  H271  1  0.12985000  0.85165000  0.72070000  1.0 0.1232886608
H  H272  1  0.14190000  0.77320000  0.63500000  1.0 0.1291576403
H  H273  1  0.16780000  0.78410000  0.70550000  1.0 0.1291576403
H  H274  1  0.26695000  0.88605000  0.60140000  1.0 0.1291576403
H  H275  1  0.15345000  0.86965000  0.61780000  1.0 0.1291576403
H  H276  1  0.14945000  0.92765000  0.72070000  1.0 0.1232886608
H  H277  1  0.22310000  0.59180000  0.63500000  1.0 0.1291576403
H  H278  1  0.12670000  0.51040000  0.70550000  1.0 0.1291576403
H  H279  1  0.13165000  0.51255000  0.60140000  1.0 0.1291576403
H  H280  1  0.22875000  0.51255000  0.61780000  1.0 0.1291576403
H  H281  1  0.85165000  0.62985000  0.72070000  1.0 0.1232886608
H  H282  1  0.77320000  0.64190000  0.63500000  1.0 0.1291576403
H  H283  1  0.78410000  0.66780000  0.70550000  1.0 0.1291576403
H  H284  1  0.88605000  0.76695000  0.60140000  1.0 0.1291576403
H  H285  1  0.86965000  0.65345000  0.61780000  1.0 0.1291576403
H  H286  1  0.92765000  0.64945000  0.72070000  1.0 0.1232886608
H  H287  1  0.59180000  0.72310000  0.63500000  1.0 0.1291576403
H  H288  1  0.51040000  0.62670000  0.70550000  1.0 0.1291576403
H  H289  1  0.51255000  0.63165000  0.60140000  1.0 0.1291576403
H  H290  1  0.51255000  0.72875000  0.61780000  1.0 0.1291576403
H  H291  1  0.87015000  0.64835000  0.77930000  1.0 0.1232886608
H  H292  1  0.85810000  0.72680000  0.86500000  1.0 0.1291576403
H  H293  1  0.83220000  0.71590000  0.79450000  1.0 0.1291576403
H  H294  1  0.73305000  0.61395000  0.89860000  1.0 0.1291576403
H  H295  1  0.84655000  0.63035000  0.88220000  1.0 0.1291576403
H  H296  1  0.85055000  0.57235000  0.77930000  1.0 0.1232886608
H  H297  1  0.77690000  0.90820000  0.86500000  1.0 0.1291576403
H  H298  1  0.87330000  0.98960000  0.79450000  1.0 0.1291576403
H  H299  1  0.86835000  0.98745000  0.89860000  1.0 0.1291576403
H  H300  1  0.77125000  0.98745000  0.88220000  1.0 0.1291576403
H  H301  1  0.64835000  0.87015000  0.77930000  1.0 0.1232886608
H  H302  1  0.72680000  0.85810000  0.86500000  1.0 0.1291576403
H  H303  1  0.71590000  0.83220000  0.79450000  1.0 0.1291576403
H  H304  1  0.61395000  0.73305000  0.89860000  1.0 0.1291576403
H  H305  1  0.63035000  0.84655000  0.88220000  1.0 0.1291576403
H  H306  1  0.57235000  0.85055000  0.77930000  1.0 0.1232886608
H  H307  1  0.90820000  0.77690000  0.86500000  1.0 0.1291576403
H  H308  1  0.98960000  0.87330000  0.79450000  1.0 0.1291576403
H  H309  1  0.98745000  0.86835000  0.89860000  1.0 0.1291576403
H  H310  1  0.98745000  0.77125000  0.88220000  1.0 0.1291576403
H  H311  1  0.62985000  0.85165000  0.72070000  1.0 0.1232886608
H  H312  1  0.64190000  0.77320000  0.63500000  1.0 0.1291576403
H  H313  1  0.66780000  0.78410000  0.70550000  1.0 0.1291576403
H  H314  1  0.76695000  0.88605000  0.60140000  1.0 0.1291576403
H  H315  1  0.65345000  0.86965000  0.61780000  1.0 0.1291576403
H  H316  1  0.64945000  0.92765000  0.72070000  1.0 0.1232886608
H  H317  1  0.72310000  0.59180000  0.63500000  1.0 0.1291576403
H  H318  1  0.62670000  0.51040000  0.70550000  1.0 0.1291576403
H  H319  1  0.63165000  0.51255000  0.60140000  1.0 0.1291576403
H  H320  1  0.72875000  0.51255000  0.61780000  1.0 0.1291576403
C  C1  1  0.33605000  0.10155000  0.23400000  1.0 -0.1763592924
C  C2  1  0.30804000  0.08366000  0.22400000  1.0 0.1854316308
C  C3  1  0.29953000  0.10703000  0.19294000  1.0 -0.0665151857
C  C4  1  0.27158000  0.08924000  0.18438000  1.0 0.1805428006
C  C5  1  0.26225000  0.11295000  0.15240000  1.0 -0.1741457075
C  C6  1  0.32319000  0.15308000  0.16633000  1.0 0.0661927659
C  C7  1  0.30945000  0.17915000  0.17980000  1.0 -0.1384128933
C  C8  1  0.33272000  0.22122000  0.15587000  1.0 -0.0205901475
C  C9  1  0.37015000  0.23825000  0.11770000  1.0 -0.1114260413
C  C10  1  0.38458000  0.21298000  0.10315000  1.0 -0.0086132232
C  C11  1  0.36053000  0.17053000  0.12754000  1.0 -0.1384128933
C  C12  1  0.31750000  0.24920000  0.17080000  1.0 0.609435511
C  C13  1  0.42635000  0.23115000  0.06250000  1.0 0.5808338674
C  C14  1  0.42995000  0.16445000  0.23400000  1.0 -0.1763592924
C  C15  1  0.46796000  0.19234000  0.22400000  1.0 0.1854316308
C  C16  1  0.00753000  0.20003000  0.19294000  1.0 -0.0665151857
C  C17  1  0.04404000  0.22638000  0.18438000  1.0 0.1805428006
C  C18  1  0.08535000  0.23465000  0.15240000  1.0 -0.1741457075
C  C19  1  0.01048000  0.18059000  0.16633000  1.0 0.0661927659
C  C20  1  0.01075000  0.14105000  0.17980000  1.0 -0.1384128933
C  C21  1  0.01141000  0.12292000  0.15587000  1.0 -0.0205901475
C  C22  1  0.01215000  0.14405000  0.11770000  1.0 -0.1114260413
C  C23  1  0.01227000  0.18388000  0.10315000  1.0 -0.0086132232
C  C24  1  0.01193000  0.20193000  0.12754000  1.0 -0.1384128933
C  C25  1  0.01170000  0.08000000  0.17080000  1.0 0.609435511
C  C26  1  0.01115000  0.20635000  0.06250000  1.0 0.5808338674
C  C27  1  0.39845000  0.16395000  0.26600000  1.0 -0.1763592924
C  C28  1  0.41634000  0.19196000  0.27600000  1.0 0.1854316308
C  C29  1  0.39297000  0.20047000  0.30706000  1.0 -0.0665151857
C  C30  1  0.41076000  0.22842000  0.31562000  1.0 0.1805428006
C  C31  1  0.38705000  0.23775000  0.34760000  1.0 -0.1763592924
C  C32  1  0.34692000  0.17681000  0.33367000  1.0 0.0661927659
C  C33  1  0.32085000  0.19055000  0.32020000  1.0 -0.1384128933
C  C34  1  0.27879000  0.16729000  0.34413000  1.0 -0.0205901475
C  C35  1  0.26175000  0.12985000  0.38230000  1.0 -0.1114260413
C  C36  1  0.28703000  0.11543000  0.39685000  1.0 -0.0086132232
C  C37  1  0.32947000  0.13947000  0.37246000  1.0 -0.1384128933
C  C38  1  0.25080000  0.18250000  0.32920000  1.0 0.609435511
C  C39  1  0.26885000  0.07365000  0.43750000  1.0 0.5808338674
C  C40  1  0.33555000  0.07005000  0.26600000  1.0 -0.1763592924
C  C41  1  0.30766000  0.03204000  0.27600000  1.0 0.1854316308
C  C42  1  0.29997000  0.49247000  0.30706000  1.0 -0.0665151857
C  C43  1  0.27362000  0.45596000  0.31562000  1.0 0.1805428006
C  C44  1  0.26535000  0.41465000  0.34760000  1.0 -0.1741457075
C  C45  1  0.31942000  0.48952000  0.33367000  1.0 0.0661927659
C  C46  1  0.35895000  0.48925000  0.32020000  1.0 -0.1384128933
C  C47  1  0.37709000  0.48859000  0.34413000  1.0 -0.0205901475
C  C48  1  0.35595000  0.48785000  0.38230000  1.0 -0.1114260413
C  C49  1  0.31612000  0.48773000  0.39685000  1.0 -0.0086132232
C  C50  1  0.29807000  0.48807000  0.37246000  1.0 -0.1384128933
C  C51  1  0.42000000  0.48830000  0.32920000  1.0 0.609435511
C  C52  1  0.29365000  0.48885000  0.43750000  1.0 0.5808338674
C  C53  1  0.16395000  0.39845000  0.26600000  1.0 -0.1763592924
C  C54  1  0.19196000  0.41634000  0.27600000  1.0 0.1854316308
C  C55  1  0.20047000  0.39297000  0.30706000  1.0 -0.0665151857
C  C56  1  0.22842000  0.41076000  0.31562000  1.0 0.1805428006
C  C57  1  0.23775000  0.38705000  0.34760000  1.0 -0.1741457075
C  C58  1  0.17682000  0.34692000  0.33367000  1.0 0.0661927659
C  C59  1  0.19055000  0.32085000  0.32020000  1.0 -0.1384128933
C  C60  1  0.16729000  0.27879000  0.34413000  1.0 -0.0205901475
C  C61  1  0.12985000  0.26175000  0.38230000  1.0 -0.1114260413
C  C62  1  0.11543000  0.28703000  0.39685000  1.0 -0.0086132232
C  C63  1  0.13947000  0.32947000  0.37246000  1.0 -0.1384128933
C  C64  1  0.18250000  0.25080000  0.32920000  1.0 0.609435511
C  C65  1  0.07365000  0.26885000  0.43750000  1.0 0.5808338674
C  C66  1  0.07005000  0.33555000  0.26600000  1.0 -0.1763592924
C  C67  1  0.03204000  0.30766000  0.27600000  1.0 0.1854316308
C  C68  1  0.49247000  0.29997000  0.30706000  1.0 -0.0665151857
C  C69  1  0.45596000  0.27362000  0.31562000  1.0 0.1805428006
C  C70  1  0.41465000  0.26535000  0.34760000  1.0 -0.1741457075
C  C71  1  0.48952000  0.31942000  0.33367000  1.0 0.0661927659
C  C72  1  0.48925000  0.35895000  0.32020000  1.0 -0.1384128933
C  C73  1  0.48859000  0.37708000  0.34413000  1.0 -0.0205901475
C  C74  1  0.48785000  0.35595000  0.38230000  1.0 -0.1114260413
C  C75  1  0.48773000  0.31613000  0.39685000  1.0 -0.0086132232
C  C76  1  0.48807000  0.29807000  0.37246000  1.0 -0.1384128933
C  C77  1  0.48830000  0.42000000  0.32920000  1.0 0.609435511
C  C78  1  0.48885000  0.29365000  0.43750000  1.0 0.5808338674
C  C79  1  0.10155000  0.33605000  0.23400000  1.0 -0.1763592924
C  C80  1  0.08366000  0.30804000  0.22400000  1.0 0.1854316308
C  C81  1  0.10703000  0.29953000  0.19294000  1.0 -0.0665151857
C  C82  1  0.08924000  0.27158000  0.18438000  1.0 0.1805428006
C  C83  1  0.11295000  0.26225000  0.15240000  1.0 -0.1741457075
C  C84  1  0.15309000  0.32319000  0.16633000  1.0 0.0661927659
C  C85  1  0.17915000  0.30945000  0.17980000  1.0 -0.1384128933
C  C86  1  0.22122000  0.33271000  0.15587000  1.0 -0.0205901475
C  C87  1  0.23825000  0.37015000  0.11770000  1.0 -0.1114260413
C  C88  1  0.21298000  0.38458000  0.10315000  1.0 -0.0086132232
C  C89  1  0.17053000  0.36053000  0.12754000  1.0 -0.1384128933
C  C90  1  0.24920000  0.31750000  0.17080000  1.0 0.609435511
C  C91  1  0.23115000  0.42635000  0.06250000  1.0 0.5808338674
C  C92  1  0.16445000  0.42995000  0.23400000  1.0 -0.1763592924
C  C93  1  0.19234000  0.46796000  0.22400000  1.0 0.1854316308
C  C94  1  0.20003000  0.00753000  0.19294000  1.0 -0.0665151857
C  C95  1  0.22638000  0.04404000  0.18438000  1.0 0.1805428006
C  C96  1  0.23465000  0.08535000  0.15240000  1.0 -0.1741457075
C  C97  1  0.18059000  0.01049000  0.16633000  1.0 0.0661927659
C  C98  1  0.14105000  0.01075000  0.17980000  1.0 -0.1384128933
C  C99  1  0.12292000  0.01141000  0.15587000  1.0 -0.0205901475
C  C100  1  0.14405000  0.01215000  0.11770000  1.0 -0.1114260413
C  C101  1  0.18388000  0.01227000  0.10315000  1.0 -0.0086132232
C  C102  1  0.20193000  0.01193000  0.12754000  1.0 -0.1384128933
C  C103  1  0.08000000  0.01170000  0.17080000  1.0 0.609435511
C  C104  1  0.20635000  0.01115000  0.06250000  1.0 0.5808338674
C  C105  1  0.83605000  0.10155000  0.23400000  1.0 -0.1741457075
C  C106  1  0.80804000  0.08366000  0.22400000  1.0 0.1854316308
C  C107  1  0.79953000  0.10703000  0.19294000  1.0 -0.0665151857
C  C108  1  0.77158000  0.08924000  0.18438000  1.0 0.1805428006
C  C109  1  0.76225000  0.11295000  0.15240000  1.0 -0.1617784759
C  C110  1  0.82319000  0.15308000  0.16633000  1.0 0.0661927659
C  C111  1  0.80945000  0.17915000  0.17980000  1.0 -0.1384128933
C  C112  1  0.83272000  0.22122000  0.15587000  1.0 -0.0205901475
C  C113  1  0.87015000  0.23825000  0.11770000  1.0 -0.1114260413
C  C114  1  0.88458000  0.21298000  0.10315000  1.0 -0.0086132232
C  C115  1  0.86053000  0.17053000  0.12754000  1.0 -0.1384128933
C  C116  1  0.81750000  0.24920000  0.17080000  1.0 0.609435511
C  C117  1  0.92635000  0.23115000  0.06250000  1.0 0.5808338674
C  C118  1  0.92995000  0.16445000  0.23400000  1.0 -0.1741457075
C  C119  1  0.96796000  0.19234000  0.22400000  1.0 0.1805428006
C  C120  1  0.50753000  0.20003000  0.19294000  1.0 -0.0665151857
C  C121  1  0.54404000  0.22638000  0.18438000  1.0 0.1805428006
C  C122  1  0.58535000  0.23465000  0.15240000  1.0 -0.1741457075
C  C123  1  0.51049000  0.18058000  0.16633000  1.0 0.0661927659
C  C124  1  0.51075000  0.14105000  0.17980000  1.0 -0.1384128933
C  C125  1  0.51142000  0.12292000  0.15587000  1.0 -0.0205901475
C  C126  1  0.51215000  0.14405000  0.11770000  1.0 -0.1114260413
C  C127  1  0.51228000  0.18388000  0.10315000  1.0 -0.0086132232
C  C128  1  0.51193000  0.20193000  0.12754000  1.0 -0.1384128933
C  C129  1  0.51170000  0.08000000  0.17080000  1.0 0.609435511
C  C130  1  0.51115000  0.20635000  0.06250000  1.0 0.5808338674
C  C131  1  0.89845000  0.16395000  0.26600000  1.0 -0.1741457075
C  C132  1  0.91634000  0.19196000  0.27600000  1.0 0.1805428006
C  C133  1  0.89297000  0.20047000  0.30706000  1.0 -0.0665151857
C  C134  1  0.91076000  0.22842000  0.31562000  1.0 0.1805428006
C  C135  1  0.88705000  0.23775000  0.34760000  1.0 -0.1741457075
C  C136  1  0.84692000  0.17681000  0.33367000  1.0 0.0661927659
C  C137  1  0.82085000  0.19055000  0.32020000  1.0 -0.1384128933
C  C138  1  0.77879000  0.16729000  0.34413000  1.0 -0.0205901475
C  C139  1  0.76175000  0.12985000  0.38230000  1.0 -0.1114260413
C  C140  1  0.78703000  0.11543000  0.39685000  1.0 -0.0086132232
C  C141  1  0.82947000  0.13947000  0.37246000  1.0 -0.1384128933
C  C142  1  0.75080000  0.18250000  0.32920000  1.0 0.609435511
C  C143  1  0.76885000  0.07365000  0.43750000  1.0 0.5808338674
C  C144  1  0.83555000  0.07005000  0.26600000  1.0 -0.1741457075
C  C145  1  0.80766000  0.03204000  0.27600000  1.0 0.1854316308
C  C146  1  0.79997000  0.49247000  0.30706000  1.0 -0.0665151857
C  C147  1  0.77362000  0.45596000  0.31562000  1.0 0.1805428006
C  C148  1  0.76535000  0.41465000  0.34760000  1.0 -0.1741457075
C  C149  1  0.81942000  0.48952000  0.33367000  1.0 0.0661927659
C  C150  1  0.85895000  0.48925000  0.32020000  1.0 -0.1384128933
C  C151  1  0.87709000  0.48859000  0.34413000  1.0 -0.0205901475
C  C152  1  0.85595000  0.48785000  0.38230000  1.0 -0.1114260413
C  C153  1  0.81613000  0.48773000  0.39685000  1.0 -0.0086132232
C  C154  1  0.79807000  0.48807000  0.37246000  1.0 -0.1384128933
C  C155  1  0.92000000  0.48830000  0.32920000  1.0 0.609435511
C  C156  1  0.79365000  0.48885000  0.43750000  1.0 0.5808338674
C  C157  1  0.66395000  0.39845000  0.26600000  1.0 -0.1763592924
C  C158  1  0.69196000  0.41634000  0.27600000  1.0 0.1854316308
C  C159  1  0.70047000  0.39297000  0.30706000  1.0 -0.0665151857
C  C160  1  0.72842000  0.41076000  0.31562000  1.0 0.1805428006
C  C161  1  0.73775000  0.38705000  0.34760000  1.0 -0.1763592924
C  C162  1  0.67682000  0.34692000  0.33367000  1.0 0.0661927659
C  C163  1  0.69055000  0.32085000  0.32020000  1.0 -0.1384128933
C  C164  1  0.66729000  0.27879000  0.34413000  1.0 -0.0205901475
C  C165  1  0.62985000  0.26175000  0.38230000  1.0 -0.1114260413
C  C166  1  0.61543000  0.28703000  0.39685000  1.0 -0.0086132232
C  C167  1  0.63947000  0.32947000  0.37246000  1.0 -0.1384128933
C  C168  1  0.68250000  0.25080000  0.32920000  1.0 0.609435511
C  C169  1  0.57365000  0.26885000  0.43750000  1.0 0.5808338674
C  C170  1  0.57005000  0.33555000  0.26600000  1.0 -0.1763592924
C  C171  1  0.53204000  0.30766000  0.27600000  1.0 0.1854316308
C  C172  1  0.99247000  0.29997000  0.30706000  1.0 -0.0665151857
C  C173  1  0.95596000  0.27362000  0.31562000  1.0 0.1805428006
C  C174  1  0.91465000  0.26535000  0.34760000  1.0 -0.1741457075
C  C175  1  0.98952000  0.31942000  0.33367000  1.0 0.0661927659
C  C176  1  0.98925000  0.35895000  0.32020000  1.0 -0.1384128933
C  C177  1  0.98859000  0.37708000  0.34413000  1.0 -0.0205901475
C  C178  1  0.98785000  0.35595000  0.38230000  1.0 -0.1114260413
C  C179  1  0.98773000  0.31613000  0.39685000  1.0 -0.0086132232
C  C180  1  0.98807000  0.29807000  0.37246000  1.0 -0.1384128933
C  C181  1  0.98830000  0.42000000  0.32920000  1.0 0.609435511
C  C182  1  0.98885000  0.29365000  0.43750000  1.0 0.5808338674
C  C183  1  0.60155000  0.33605000  0.23400000  1.0 -0.1763592924
C  C184  1  0.58366000  0.30804000  0.22400000  1.0 0.1854316308
C  C185  1  0.60703000  0.29953000  0.19294000  1.0 -0.0665151857
C  C186  1  0.58924000  0.27158000  0.18438000  1.0 0.1805428006
C  C187  1  0.61295000  0.26225000  0.15240000  1.0 -0.1741457075
C  C188  1  0.65309000  0.32319000  0.16633000  1.0 0.0661927659
C  C189  1  0.67915000  0.30945000  0.17980000  1.0 -0.1384128933
C  C190  1  0.72122000  0.33271000  0.15587000  1.0 -0.0205901475
C  C191  1  0.73825000  0.37015000  0.11770000  1.0 -0.1114260413
C  C192  1  0.71298000  0.38458000  0.10315000  1.0 -0.0086132232
C  C193  1  0.67053000  0.36053000  0.12754000  1.0 -0.1384128933
C  C194  1  0.74920000  0.31750000  0.17080000  1.0 0.609435511
C  C195  1  0.73115000  0.42635000  0.06250000  1.0 0.5808338674
C  C196  1  0.66445000  0.42995000  0.23400000  1.0 -0.1763592924
C  C197  1  0.69234000  0.46796000  0.22400000  1.0 0.1854316308
C  C198  1  0.70003000  0.00753000  0.19294000  1.0 -0.0665151857
C  C199  1  0.72638000  0.04404000  0.18438000  1.0 0.1805428006
C  C200  1  0.73465000  0.08535000  0.15240000  1.0 -0.1617784759
C  C201  1  0.68059000  0.01049000  0.16633000  1.0 0.0661927659
C  C202  1  0.64105000  0.01075000  0.17980000  1.0 -0.1384128933
C  C203  1  0.62292000  0.01141000  0.15587000  1.0 -0.0205901475
C  C204  1  0.64405000  0.01215000  0.11770000  1.0 -0.1114260413
C  C205  1  0.68388000  0.01227000  0.10315000  1.0 -0.0086132232
C  C206  1  0.70193000  0.01193000  0.12754000  1.0 -0.1384128933
C  C207  1  0.58000000  0.01170000  0.17080000  1.0 0.609435511
C  C208  1  0.70635000  0.01115000  0.06250000  1.0 0.5808338674
C  C209  1  0.33605000  0.60155000  0.23400000  1.0 -0.1763592924
C  C210  1  0.30804000  0.58366000  0.22400000  1.0 0.1854316308
C  C211  1  0.29953000  0.60703000  0.19294000  1.0 -0.0665151857
C  C212  1  0.27158000  0.58924000  0.18438000  1.0 0.1805428006
C  C213  1  0.26225000  0.61295000  0.15240000  1.0 -0.1741457075
C  C214  1  0.32319000  0.65309000  0.16633000  1.0 0.0661927659
C  C215  1  0.30945000  0.67915000  0.17980000  1.0 -0.1384128933
C  C216  1  0.33272000  0.72122000  0.15587000  1.0 -0.0205901475
C  C217  1  0.37015000  0.73825000  0.11770000  1.0 -0.1114260413
C  C218  1  0.38458000  0.71298000  0.10315000  1.0 -0.0086132232
C  C219  1  0.36053000  0.67053000  0.12754000  1.0 -0.1384128933
C  C220  1  0.31750000  0.74920000  0.17080000  1.0 0.609435511
C  C221  1  0.42635000  0.73115000  0.06250000  1.0 0.5808338674
C  C222  1  0.42995000  0.66445000  0.23400000  1.0 -0.1763592924
C  C223  1  0.46796000  0.69234000  0.22400000  1.0 0.1854316308
C  C224  1  0.00753000  0.70003000  0.19294000  1.0 -0.0665151857
C  C225  1  0.04404000  0.72638000  0.18438000  1.0 0.1805428006
C  C226  1  0.08535000  0.73465000  0.15240000  1.0 -0.1741457075
C  C227  1  0.01048000  0.68059000  0.16633000  1.0 0.0661927659
C  C228  1  0.01075000  0.64105000  0.17980000  1.0 -0.1384128933
C  C229  1  0.01141000  0.62292000  0.15587000  1.0 -0.0205901475
C  C230  1  0.01215000  0.64405000  0.11770000  1.0 -0.1114260413
C  C231  1  0.01227000  0.68388000  0.10315000  1.0 -0.0086132232
C  C232  1  0.01193000  0.70193000  0.12754000  1.0 -0.1384128933
C  C233  1  0.01170000  0.58000000  0.17080000  1.0 0.609435511
C  C234  1  0.01115000  0.70635000  0.06250000  1.0 0.5808338674
C  C235  1  0.39845000  0.66395000  0.26600000  1.0 -0.1763592924
C  C236  1  0.41634000  0.69196000  0.27600000  1.0 0.1854316308
C  C237  1  0.39297000  0.70047000  0.30706000  1.0 -0.0665151857
C  C238  1  0.41076000  0.72842000  0.31562000  1.0 0.1805428006
C  C239  1  0.38705000  0.73775000  0.34760000  1.0 -0.1741457075
C  C240  1  0.34692000  0.67681000  0.33367000  1.0 0.0661927659
C  C241  1  0.32085000  0.69055000  0.32020000  1.0 -0.1384128933
C  C242  1  0.27879000  0.66729000  0.34413000  1.0 -0.0205901475
C  C243  1  0.26175000  0.62985000  0.38230000  1.0 -0.1114260413
C  C244  1  0.28703000  0.61543000  0.39685000  1.0 -0.0086132232
C  C245  1  0.32947000  0.63947000  0.37246000  1.0 -0.1384128933
C  C246  1  0.25080000  0.68250000  0.32920000  1.0 0.609435511
C  C247  1  0.26885000  0.57365000  0.43750000  1.0 0.5808338674
C  C248  1  0.33555000  0.57005000  0.26600000  1.0 -0.1763592924
C  C249  1  0.30766000  0.53204000  0.27600000  1.0 0.1854316308
C  C250  1  0.29997000  0.99247000  0.30706000  1.0 -0.0665151857
C  C251  1  0.27362000  0.95596000  0.31562000  1.0 0.1805428006
C  C252  1  0.26535000  0.91465000  0.34760000  1.0 -0.1741457075
C  C253  1  0.31942000  0.98952000  0.33367000  1.0 0.0661927659
C  C254  1  0.35895000  0.98925000  0.32020000  1.0 -0.1384128933
C  C255  1  0.37709000  0.98859000  0.34413000  1.0 -0.0205901475
C  C256  1  0.35595000  0.98785000  0.38230000  1.0 -0.1114260413
C  C257  1  0.31612000  0.98773000  0.39685000  1.0 -0.0086132232
C  C258  1  0.29807000  0.98807000  0.37246000  1.0 -0.1384128933
C  C259  1  0.42000000  0.98830000  0.32920000  1.0 0.609435511
C  C260  1  0.29365000  0.98885000  0.43750000  1.0 0.5808338674
C  C261  1  0.16395000  0.89845000  0.26600000  1.0 -0.1763592924
C  C262  1  0.19196000  0.91634000  0.27600000  1.0 0.1854316308
C  C263  1  0.20047000  0.89297000  0.30706000  1.0 -0.0665151857
C  C264  1  0.22842000  0.91076000  0.31562000  1.0 0.1805428006
C  C265  1  0.23775000  0.88705000  0.34760000  1.0 -0.1763592924
C  C266  1  0.17682000  0.84692000  0.33367000  1.0 0.0661927659
C  C267  1  0.19055000  0.82085000  0.32020000  1.0 -0.1384128933
C  C268  1  0.16729000  0.77879000  0.34413000  1.0 -0.0205901475
C  C269  1  0.12985000  0.76175000  0.38230000  1.0 -0.1114260413
C  C270  1  0.11543000  0.78703000  0.39685000  1.0 -0.0086132232
C  C271  1  0.13947000  0.82947000  0.37246000  1.0 -0.1384128933
C  C272  1  0.18250000  0.75080000  0.32920000  1.0 0.609435511
C  C273  1  0.07365000  0.76885000  0.43750000  1.0 0.5808338674
C  C274  1  0.07005000  0.83555000  0.26600000  1.0 -0.1763592924
C  C275  1  0.03204000  0.80766000  0.27600000  1.0 0.1854316308
C  C276  1  0.49247000  0.79997000  0.30706000  1.0 -0.0665151857
C  C277  1  0.45596000  0.77362000  0.31562000  1.0 0.1805428006
C  C278  1  0.41465000  0.76535000  0.34760000  1.0 -0.1763592924
C  C279  1  0.48952000  0.81942000  0.33367000  1.0 0.0661927659
C  C280  1  0.48925000  0.85895000  0.32020000  1.0 -0.1384128933
C  C281  1  0.48859000  0.87708000  0.34413000  1.0 -0.0205901475
C  C282  1  0.48785000  0.85595000  0.38230000  1.0 -0.1114260413
C  C283  1  0.48773000  0.81613000  0.39685000  1.0 -0.0086132232
C  C284  1  0.48807000  0.79807000  0.37246000  1.0 -0.1384128933
C  C285  1  0.48830000  0.92000000  0.32920000  1.0 0.609435511
C  C286  1  0.48885000  0.79365000  0.43750000  1.0 0.5808338674
C  C287  1  0.10155000  0.83605000  0.23400000  1.0 -0.1763592924
C  C288  1  0.08366000  0.80804000  0.22400000  1.0 0.1854316308
C  C289  1  0.10703000  0.79953000  0.19294000  1.0 -0.0665151857
C  C290  1  0.08924000  0.77158000  0.18438000  1.0 0.1805428006
C  C291  1  0.11295000  0.76225000  0.15240000  1.0 -0.1741457075
C  C292  1  0.15309000  0.82319000  0.16633000  1.0 0.0661927659
C  C293  1  0.17915000  0.80945000  0.17980000  1.0 -0.1384128933
C  C294  1  0.22122000  0.83272000  0.15587000  1.0 -0.0205901475
C  C295  1  0.23825000  0.87015000  0.11770000  1.0 -0.1114260413
C  C296  1  0.21298000  0.88458000  0.10315000  1.0 -0.0086132232
C  C297  1  0.17053000  0.86053000  0.12754000  1.0 -0.1384128933
C  C298  1  0.24920000  0.81750000  0.17080000  1.0 0.609435511
C  C299  1  0.23115000  0.92635000  0.06250000  1.0 0.5808338674
C  C300  1  0.16445000  0.92995000  0.23400000  1.0 -0.1763592924
C  C301  1  0.19234000  0.96796000  0.22400000  1.0 0.1854316308
C  C302  1  0.20003000  0.50753000  0.19294000  1.0 -0.0665151857
C  C303  1  0.22638000  0.54404000  0.18438000  1.0 0.1805428006
C  C304  1  0.23465000  0.58535000  0.15240000  1.0 -0.1763592924
C  C305  1  0.18059000  0.51049000  0.16633000  1.0 0.0661927659
C  C306  1  0.14105000  0.51075000  0.17980000  1.0 -0.1384128933
C  C307  1  0.12292000  0.51141000  0.15587000  1.0 -0.0205901475
C  C308  1  0.14405000  0.51215000  0.11770000  1.0 -0.1114260413
C  C309  1  0.18388000  0.51227000  0.10315000  1.0 -0.0086132232
C  C310  1  0.20193000  0.51193000  0.12754000  1.0 -0.1384128933
C  C311  1  0.08000000  0.51170000  0.17080000  1.0 0.609435511
C  C312  1  0.20635000  0.51115000  0.06250000  1.0 0.5808338674
C  C313  1  0.83605000  0.60155000  0.23400000  1.0 -0.1763592924
C  C314  1  0.80804000  0.58366000  0.22400000  1.0 0.1854316308
C  C315  1  0.79953000  0.60703000  0.19294000  1.0 -0.0665151857
C  C316  1  0.77158000  0.58924000  0.18438000  1.0 0.1805428006
C  C317  1  0.76225000  0.61295000  0.15240000  1.0 -0.1741457075
C  C318  1  0.82319000  0.65308000  0.16633000  1.0 0.0661927659
C  C319  1  0.80945000  0.67915000  0.17980000  1.0 -0.1384128933
C  C320  1  0.83272000  0.72122000  0.15587000  1.0 -0.0205901475
C  C321  1  0.87015000  0.73825000  0.11770000  1.0 -0.1114260413
C  C322  1  0.88458000  0.71298000  0.10315000  1.0 -0.0086132232
C  C323  1  0.86053000  0.67053000  0.12754000  1.0 -0.1384128933
C  C324  1  0.81750000  0.74920000  0.17080000  1.0 0.609435511
C  C325  1  0.92635000  0.73115000  0.06250000  1.0 0.5808338674
C  C326  1  0.92995000  0.66445000  0.23400000  1.0 -0.1763592924
C  C327  1  0.96796000  0.69234000  0.22400000  1.0 0.1805428006
C  C328  1  0.50753000  0.70003000  0.19294000  1.0 -0.0665151857
C  C329  1  0.54404000  0.72638000  0.18438000  1.0 0.1805428006
C  C330  1  0.58535000  0.73465000  0.15240000  1.0 -0.1741457075
C  C331  1  0.51049000  0.68059000  0.16633000  1.0 0.0661927659
C  C332  1  0.51075000  0.64105000  0.17980000  1.0 -0.1384128933
C  C333  1  0.51142000  0.62292000  0.15587000  1.0 -0.0205901475
C  C334  1  0.51215000  0.64405000  0.11770000  1.0 -0.1114260413
C  C335  1  0.51228000  0.68388000  0.10315000  1.0 -0.0086132232
C  C336  1  0.51193000  0.70193000  0.12754000  1.0 -0.1384128933
C  C337  1  0.51170000  0.58000000  0.17080000  1.0 0.609435511
C  C338  1  0.51115000  0.70635000  0.06250000  1.0 0.5808338674
C  C339  1  0.89845000  0.66395000  0.26600000  1.0 -0.1763592924
C  C340  1  0.91634000  0.69196000  0.27600000  1.0 0.1805428006
C  C341  1  0.89297000  0.70047000  0.30706000  1.0 -0.0665151857
C  C342  1  0.91076000  0.72842000  0.31562000  1.0 0.1805428006
C  C343  1  0.88705000  0.73775000  0.34760000  1.0 -0.1763592924
C  C344  1  0.84692000  0.67681000  0.33367000  1.0 0.0661927659
C  C345  1  0.82085000  0.69055000  0.32020000  1.0 -0.1384128933
C  C346  1  0.77879000  0.66729000  0.34413000  1.0 -0.0205901475
C  C347  1  0.76175000  0.62985000  0.38230000  1.0 -0.1114260413
C  C348  1  0.78703000  0.61543000  0.39685000  1.0 -0.0086132232
C  C349  1  0.82947000  0.63947000  0.37246000  1.0 -0.1384128933
C  C350  1  0.75080000  0.68250000  0.32920000  1.0 0.609435511
C  C351  1  0.76885000  0.57365000  0.43750000  1.0 0.5808338674
C  C352  1  0.83555000  0.57005000  0.26600000  1.0 -0.1763592924
C  C353  1  0.80766000  0.53204000  0.27600000  1.0 0.1805428006
C  C354  1  0.79997000  0.99247000  0.30706000  1.0 -0.0665151857
C  C355  1  0.77362000  0.95596000  0.31562000  1.0 0.1805428006
C  C356  1  0.76535000  0.91465000  0.34760000  1.0 -0.1617784759
C  C357  1  0.81942000  0.98952000  0.33367000  1.0 0.0661927659
C  C358  1  0.85895000  0.98925000  0.32020000  1.0 -0.1384128933
C  C359  1  0.87709000  0.98859000  0.34413000  1.0 -0.0205901475
C  C360  1  0.85595000  0.98785000  0.38230000  1.0 -0.1114260413
C  C361  1  0.81613000  0.98773000  0.39685000  1.0 -0.0086132232
C  C362  1  0.79807000  0.98807000  0.37246000  1.0 -0.1384128933
C  C363  1  0.92000000  0.98830000  0.32920000  1.0 0.609435511
C  C364  1  0.79365000  0.98885000  0.43750000  1.0 0.5808338674
C  C365  1  0.66395000  0.89845000  0.26600000  1.0 -0.1741457075
C  C366  1  0.69196000  0.91634000  0.27600000  1.0 0.1854316308
C  C367  1  0.70047000  0.89297000  0.30706000  1.0 -0.0665151857
C  C368  1  0.72842000  0.91076000  0.31562000  1.0 0.1805428006
C  C369  1  0.73775000  0.88705000  0.34760000  1.0 -0.1617784759
C  C370  1  0.67682000  0.84692000  0.33367000  1.0 0.0661927659
C  C371  1  0.69055000  0.82085000  0.32020000  1.0 -0.1384128933
C  C372  1  0.66729000  0.77879000  0.34413000  1.0 -0.0205901475
C  C373  1  0.62985000  0.76175000  0.38230000  1.0 -0.1114260413
C  C374  1  0.61543000  0.78703000  0.39685000  1.0 -0.0086132232
C  C375  1  0.63947000  0.82947000  0.37246000  1.0 -0.1384128933
C  C376  1  0.68250000  0.75080000  0.32920000  1.0 0.609435511
C  C377  1  0.57365000  0.76885000  0.43750000  1.0 0.5808338674
C  C378  1  0.57005000  0.83555000  0.26600000  1.0 -0.1741457075
C  C379  1  0.53204000  0.80766000  0.27600000  1.0 0.1805428006
C  C380  1  0.99247000  0.79997000  0.30706000  1.0 -0.0665151857
C  C381  1  0.95596000  0.77362000  0.31562000  1.0 0.1805428006
C  C382  1  0.91465000  0.76535000  0.34760000  1.0 -0.1763592924
C  C383  1  0.98952000  0.81942000  0.33367000  1.0 0.0661927659
C  C384  1  0.98925000  0.85895000  0.32020000  1.0 -0.1384128933
C  C385  1  0.98859000  0.87708000  0.34413000  1.0 -0.0205901475
C  C386  1  0.98785000  0.85595000  0.38230000  1.0 -0.1114260413
C  C387  1  0.98773000  0.81613000  0.39685000  1.0 -0.0086132232
C  C388  1  0.98807000  0.79807000  0.37246000  1.0 -0.1384128933
C  C389  1  0.98830000  0.92000000  0.32920000  1.0 0.609435511
C  C390  1  0.98885000  0.79365000  0.43750000  1.0 0.5808338674
C  C391  1  0.60155000  0.83605000  0.23400000  1.0 -0.1741457075
C  C392  1  0.58366000  0.80804000  0.22400000  1.0 0.1854316308
C  C393  1  0.60703000  0.79953000  0.19294000  1.0 -0.0665151857
C  C394  1  0.58924000  0.77158000  0.18438000  1.0 0.1805428006
C  C395  1  0.61295000  0.76225000  0.15240000  1.0 -0.1741457075
C  C396  1  0.65309000  0.82319000  0.16633000  1.0 0.0661927659
C  C397  1  0.67915000  0.80945000  0.17980000  1.0 -0.1384128933
C  C398  1  0.72122000  0.83272000  0.15587000  1.0 -0.0205901475
C  C399  1  0.73825000  0.87015000  0.11770000  1.0 -0.1114260413
C  C400  1  0.71298000  0.88458000  0.10315000  1.0 -0.0086132232
C  C401  1  0.67053000  0.86053000  0.12754000  1.0 -0.1384128933
C  C402  1  0.74920000  0.81750000  0.17080000  1.0 0.609435511
C  C403  1  0.73115000  0.92635000  0.06250000  1.0 0.5808338674
C  C404  1  0.66445000  0.92995000  0.23400000  1.0 -0.1741457075
C  C405  1  0.69234000  0.96796000  0.22400000  1.0 0.1854316308
C  C406  1  0.70003000  0.50753000  0.19294000  1.0 -0.0665151857
C  C407  1  0.72638000  0.54404000  0.18438000  1.0 0.1805428006
C  C408  1  0.73465000  0.58535000  0.15240000  1.0 -0.1741457075
C  C409  1  0.68059000  0.51049000  0.16633000  1.0 0.0661927659
C  C410  1  0.64105000  0.51075000  0.17980000  1.0 -0.1384128933
C  C411  1  0.62292000  0.51141000  0.15587000  1.0 -0.0205901475
C  C412  1  0.64405000  0.51215000  0.11770000  1.0 -0.1114260413
C  C413  1  0.68388000  0.51227000  0.10315000  1.0 -0.0086132232
C  C414  1  0.70193000  0.51193000  0.12754000  1.0 -0.1384128933
C  C415  1  0.58000000  0.51170000  0.17080000  1.0 0.609435511
C  C416  1  0.70635000  0.51115000  0.06250000  1.0 0.5808338674
C  C417  1  0.33605000  0.10155000  0.73400000  1.0 -0.1763592924
C  C418  1  0.30804000  0.08366000  0.72400000  1.0 0.1854316308
C  C419  1  0.29953000  0.10703000  0.69294000  1.0 -0.0665151857
C  C420  1  0.27158000  0.08924000  0.68438000  1.0 0.1805428006
C  C421  1  0.26225000  0.11295000  0.65240000  1.0 -0.1741457075
C  C422  1  0.32319000  0.15308000  0.66633000  1.0 0.0661927659
C  C423  1  0.30945000  0.17915000  0.67980000  1.0 -0.1384128933
C  C424  1  0.33272000  0.22122000  0.65587000  1.0 -0.0205901475
C  C425  1  0.37015000  0.23825000  0.61770000  1.0 -0.1114260413
C  C426  1  0.38458000  0.21298000  0.60315000  1.0 -0.0086132232
C  C427  1  0.36053000  0.17053000  0.62754000  1.0 -0.1384128933
C  C428  1  0.31750000  0.24920000  0.67080000  1.0 0.609435511
C  C429  1  0.42635000  0.23115000  0.56250000  1.0 0.5808338674
C  C430  1  0.42995000  0.16445000  0.73400000  1.0 -0.1763592924
C  C431  1  0.46796000  0.19234000  0.72400000  1.0 0.1805428006
C  C432  1  0.00753000  0.20003000  0.69294000  1.0 -0.0665151857
C  C433  1  0.04404000  0.22638000  0.68438000  1.0 0.1805428006
C  C434  1  0.08535000  0.23465000  0.65240000  1.0 -0.1741457075
C  C435  1  0.01048000  0.18059000  0.66633000  1.0 0.0661927659
C  C436  1  0.01075000  0.14105000  0.67980000  1.0 -0.1384128933
C  C437  1  0.01141000  0.12292000  0.65587000  1.0 -0.0205901475
C  C438  1  0.01215000  0.14405000  0.61770000  1.0 -0.1114260413
C  C439  1  0.01227000  0.18388000  0.60315000  1.0 -0.0086132232
C  C440  1  0.01193000  0.20193000  0.62754000  1.0 -0.1384128933
C  C441  1  0.01170000  0.08000000  0.67080000  1.0 0.609435511
C  C442  1  0.01115000  0.20635000  0.56250000  1.0 0.5808338674
C  C443  1  0.39845000  0.16395000  0.76600000  1.0 -0.1763592924
C  C444  1  0.41634000  0.19196000  0.77600000  1.0 0.1854316308
C  C445  1  0.39297000  0.20047000  0.80706000  1.0 -0.0665151857
C  C446  1  0.41076000  0.22842000  0.81562000  1.0 0.1805428006
C  C447  1  0.38705000  0.23775000  0.84760000  1.0 -0.1741457075
C  C448  1  0.34692000  0.17681000  0.83367000  1.0 0.0661927659
C  C449  1  0.32085000  0.19055000  0.82020000  1.0 -0.1384128933
C  C450  1  0.27879000  0.16729000  0.84413000  1.0 -0.0205901475
C  C451  1  0.26175000  0.12985000  0.88230000  1.0 -0.1114260413
C  C452  1  0.28703000  0.11543000  0.89685000  1.0 -0.0086132232
C  C453  1  0.32947000  0.13947000  0.87246000  1.0 -0.1384128933
C  C454  1  0.25080000  0.18250000  0.82920000  1.0 0.609435511
C  C455  1  0.26885000  0.07365000  0.93750000  1.0 0.5808338674
C  C456  1  0.33555000  0.07005000  0.76600000  1.0 -0.1763592924
C  C457  1  0.30766000  0.03204000  0.77600000  1.0 0.1805428006
C  C458  1  0.29997000  0.49247000  0.80706000  1.0 -0.0665151857
C  C459  1  0.27362000  0.45596000  0.81562000  1.0 0.1805428006
C  C460  1  0.26535000  0.41465000  0.84760000  1.0 -0.1741457075
C  C461  1  0.31942000  0.48952000  0.83367000  1.0 0.0661927659
C  C462  1  0.35895000  0.48925000  0.82020000  1.0 -0.1384128933
C  C463  1  0.37709000  0.48859000  0.84413000  1.0 -0.0205901475
C  C464  1  0.35595000  0.48785000  0.88230000  1.0 -0.1114260413
C  C465  1  0.31612000  0.48773000  0.89685000  1.0 -0.0086132232
C  C466  1  0.29807000  0.48807000  0.87246000  1.0 -0.1384128933
C  C467  1  0.42000000  0.48830000  0.82920000  1.0 0.609435511
C  C468  1  0.29365000  0.48885000  0.93750000  1.0 0.5808338674
C  C469  1  0.16395000  0.39845000  0.76600000  1.0 -0.1763592924
C  C470  1  0.19196000  0.41634000  0.77600000  1.0 0.1854316308
C  C471  1  0.20047000  0.39297000  0.80706000  1.0 -0.0665151857
C  C472  1  0.22842000  0.41076000  0.81562000  1.0 0.1805428006
C  C473  1  0.23775000  0.38705000  0.84760000  1.0 -0.1741457075
C  C474  1  0.17682000  0.34692000  0.83367000  1.0 0.0661927659
C  C475  1  0.19055000  0.32085000  0.82020000  1.0 -0.1384128933
C  C476  1  0.16729000  0.27879000  0.84413000  1.0 -0.0205901475
C  C477  1  0.12985000  0.26175000  0.88230000  1.0 -0.1114260413
C  C478  1  0.11543000  0.28703000  0.89685000  1.0 -0.0086132232
C  C479  1  0.13947000  0.32947000  0.87246000  1.0 -0.1384128933
C  C480  1  0.18250000  0.25080000  0.82920000  1.0 0.609435511
C  C481  1  0.07365000  0.26885000  0.93750000  1.0 0.5808338674
C  C482  1  0.07005000  0.33555000  0.76600000  1.0 -0.1763592924
C  C483  1  0.03204000  0.30766000  0.77600000  1.0 0.1854316308
C  C484  1  0.49247000  0.29997000  0.80706000  1.0 -0.0665151857
C  C485  1  0.45596000  0.27362000  0.81562000  1.0 0.1805428006
C  C486  1  0.41465000  0.26535000  0.84760000  1.0 -0.1741457075
C  C487  1  0.48952000  0.31942000  0.83367000  1.0 0.0661927659
C  C488  1  0.48925000  0.35895000  0.82020000  1.0 -0.1384128933
C  C489  1  0.48859000  0.37708000  0.84413000  1.0 -0.0205901475
C  C490  1  0.48785000  0.35595000  0.88230000  1.0 -0.1114260413
C  C491  1  0.48773000  0.31613000  0.89685000  1.0 -0.0086132232
C  C492  1  0.48807000  0.29807000  0.87246000  1.0 -0.1384128933
C  C493  1  0.48830000  0.42000000  0.82920000  1.0 0.609435511
C  C494  1  0.48885000  0.29365000  0.93750000  1.0 0.5808338674
C  C495  1  0.10155000  0.33605000  0.73400000  1.0 -0.1763592924
C  C496  1  0.08366000  0.30804000  0.72400000  1.0 0.1854316308
C  C497  1  0.10703000  0.29953000  0.69294000  1.0 -0.0665151857
C  C498  1  0.08924000  0.27158000  0.68438000  1.0 0.1805428006
C  C499  1  0.11295000  0.26225000  0.65240000  1.0 -0.1741457075
C  C500  1  0.15309000  0.32319000  0.66633000  1.0 0.0661927659
C  C501  1  0.17915000  0.30945000  0.67980000  1.0 -0.1384128933
C  C502  1  0.22122000  0.33271000  0.65587000  1.0 -0.0205901475
C  C503  1  0.23825000  0.37015000  0.61770000  1.0 -0.1114260413
C  C504  1  0.21298000  0.38458000  0.60315000  1.0 -0.0086132232
C  C505  1  0.17053000  0.36053000  0.62754000  1.0 -0.1384128933
C  C506  1  0.24920000  0.31750000  0.67080000  1.0 0.609435511
C  C507  1  0.23115000  0.42635000  0.56250000  1.0 0.5808338674
C  C508  1  0.16445000  0.42995000  0.73400000  1.0 -0.1763592924
C  C509  1  0.19234000  0.46796000  0.72400000  1.0 0.1854316308
C  C510  1  0.20003000  0.00753000  0.69294000  1.0 -0.0665151857
C  C511  1  0.22638000  0.04404000  0.68438000  1.0 0.1805428006
C  C512  1  0.23465000  0.08535000  0.65240000  1.0 -0.1741457075
C  C513  1  0.18059000  0.01049000  0.66633000  1.0 0.0661927659
C  C514  1  0.14105000  0.01075000  0.67980000  1.0 -0.1384128933
C  C515  1  0.12292000  0.01141000  0.65587000  1.0 -0.0205901475
C  C516  1  0.14405000  0.01215000  0.61770000  1.0 -0.1114260413
C  C517  1  0.18388000  0.01227000  0.60315000  1.0 -0.0086132232
C  C518  1  0.20193000  0.01193000  0.62754000  1.0 -0.1384128933
C  C519  1  0.08000000  0.01170000  0.67080000  1.0 0.609435511
C  C520  1  0.20635000  0.01115000  0.56250000  1.0 0.5808338674
C  C521  1  0.83605000  0.10155000  0.73400000  1.0 -0.1763592924
C  C522  1  0.80804000  0.08366000  0.72400000  1.0 0.1854316308
C  C523  1  0.79953000  0.10703000  0.69294000  1.0 -0.0665151857
C  C524  1  0.77158000  0.08924000  0.68438000  1.0 0.1805428006
C  C525  1  0.76225000  0.11295000  0.65240000  1.0 -0.1741457075
C  C526  1  0.82319000  0.15308000  0.66633000  1.0 0.0661927659
C  C527  1  0.80945000  0.17915000  0.67980000  1.0 -0.1384128933
C  C528  1  0.83272000  0.22122000  0.65587000  1.0 -0.0205901475
C  C529  1  0.87015000  0.23825000  0.61770000  1.0 -0.1114260413
C  C530  1  0.88458000  0.21298000  0.60315000  1.0 -0.0086132232
C  C531  1  0.86053000  0.17053000  0.62754000  1.0 -0.1384128933
C  C532  1  0.81750000  0.24920000  0.67080000  1.0 0.609435511
C  C533  1  0.92635000  0.23115000  0.56250000  1.0 0.5808338674
C  C534  1  0.92995000  0.16445000  0.73400000  1.0 -0.1763592924
C  C535  1  0.96796000  0.19234000  0.72400000  1.0 0.1854316308
C  C536  1  0.50753000  0.20003000  0.69294000  1.0 -0.0665151857
C  C537  1  0.54404000  0.22638000  0.68438000  1.0 0.1805428006
C  C538  1  0.58535000  0.23465000  0.65240000  1.0 -0.1741457075
C  C539  1  0.51049000  0.18058000  0.66633000  1.0 0.0661927659
C  C540  1  0.51075000  0.14105000  0.67980000  1.0 -0.1384128933
C  C541  1  0.51142000  0.12292000  0.65587000  1.0 -0.0205901475
C  C542  1  0.51215000  0.14405000  0.61770000  1.0 -0.1114260413
C  C543  1  0.51228000  0.18388000  0.60315000  1.0 -0.0086132232
C  C544  1  0.51193000  0.20193000  0.62754000  1.0 -0.1384128933
C  C545  1  0.51170000  0.08000000  0.67080000  1.0 0.609435511
C  C546  1  0.51115000  0.20635000  0.56250000  1.0 0.5808338674
C  C547  1  0.89845000  0.16395000  0.76600000  1.0 -0.1763592924
C  C548  1  0.91634000  0.19196000  0.77600000  1.0 0.1854316308
C  C549  1  0.89297000  0.20047000  0.80706000  1.0 -0.0665151857
C  C550  1  0.91076000  0.22842000  0.81562000  1.0 0.1805428006
C  C551  1  0.88705000  0.23775000  0.84760000  1.0 -0.1741457075
C  C552  1  0.84692000  0.17681000  0.83367000  1.0 0.0661927659
C  C553  1  0.82085000  0.19055000  0.82020000  1.0 -0.1384128933
C  C554  1  0.77879000  0.16729000  0.84413000  1.0 -0.0205901475
C  C555  1  0.76175000  0.12985000  0.88230000  1.0 -0.1114260413
C  C556  1  0.78703000  0.11543000  0.89685000  1.0 -0.0086132232
C  C557  1  0.82947000  0.13947000  0.87246000  1.0 -0.1384128933
C  C558  1  0.75080000  0.18250000  0.82920000  1.0 0.609435511
C  C559  1  0.76885000  0.07365000  0.93750000  1.0 0.5808338674
C  C560  1  0.83555000  0.07005000  0.76600000  1.0 -0.1763592924
C  C561  1  0.80766000  0.03204000  0.77600000  1.0 0.1805428006
C  C562  1  0.79997000  0.49247000  0.80706000  1.0 -0.0665151857
C  C563  1  0.77362000  0.45596000  0.81562000  1.0 0.1805428006
C  C564  1  0.76535000  0.41465000  0.84760000  1.0 -0.1741457075
C  C565  1  0.81942000  0.48952000  0.83367000  1.0 0.0661927659
C  C566  1  0.85895000  0.48925000  0.82020000  1.0 -0.1384128933
C  C567  1  0.87709000  0.48859000  0.84413000  1.0 -0.0205901475
C  C568  1  0.85595000  0.48785000  0.88230000  1.0 -0.1114260413
C  C569  1  0.81613000  0.48773000  0.89685000  1.0 -0.0086132232
C  C570  1  0.79807000  0.48807000  0.87246000  1.0 -0.1384128933
C  C571  1  0.92000000  0.48830000  0.82920000  1.0 0.609435511
C  C572  1  0.79365000  0.48885000  0.93750000  1.0 0.5808338674
C  C573  1  0.66395000  0.39845000  0.76600000  1.0 -0.1763592924
C  C574  1  0.69196000  0.41634000  0.77600000  1.0 0.1805428006
C  C575  1  0.70047000  0.39297000  0.80706000  1.0 -0.0665151857
C  C576  1  0.72842000  0.41076000  0.81562000  1.0 0.1805428006
C  C577  1  0.73775000  0.38705000  0.84760000  1.0 -0.1741457075
C  C578  1  0.67682000  0.34692000  0.83367000  1.0 0.0661927659
C  C579  1  0.69055000  0.32085000  0.82020000  1.0 -0.1384128933
C  C580  1  0.66729000  0.27879000  0.84413000  1.0 -0.0205901475
C  C581  1  0.62985000  0.26175000  0.88230000  1.0 -0.1114260413
C  C582  1  0.61543000  0.28703000  0.89685000  1.0 -0.0086132232
C  C583  1  0.63947000  0.32947000  0.87246000  1.0 -0.1384128933
C  C584  1  0.68250000  0.25080000  0.82920000  1.0 0.609435511
C  C585  1  0.57365000  0.26885000  0.93750000  1.0 0.5808338674
C  C586  1  0.57005000  0.33555000  0.76600000  1.0 -0.1763592924
C  C587  1  0.53204000  0.30766000  0.77600000  1.0 0.1854316308
C  C588  1  0.99247000  0.29997000  0.80706000  1.0 -0.0665151857
C  C589  1  0.95596000  0.27362000  0.81562000  1.0 0.1805428006
C  C590  1  0.91465000  0.26535000  0.84760000  1.0 -0.1741457075
C  C591  1  0.98952000  0.31942000  0.83367000  1.0 0.0661927659
C  C592  1  0.98925000  0.35895000  0.82020000  1.0 -0.1384128933
C  C593  1  0.98859000  0.37708000  0.84413000  1.0 -0.0205901475
C  C594  1  0.98785000  0.35595000  0.88230000  1.0 -0.1114260413
C  C595  1  0.98773000  0.31613000  0.89685000  1.0 -0.0086132232
C  C596  1  0.98807000  0.29807000  0.87246000  1.0 -0.1384128933
C  C597  1  0.98830000  0.42000000  0.82920000  1.0 0.609435511
C  C598  1  0.98885000  0.29365000  0.93750000  1.0 0.5808338674
C  C599  1  0.60155000  0.33605000  0.73400000  1.0 -0.1763592924
C  C600  1  0.58366000  0.30804000  0.72400000  1.0 0.1854316308
C  C601  1  0.60703000  0.29953000  0.69294000  1.0 -0.0665151857
C  C602  1  0.58924000  0.27158000  0.68438000  1.0 0.1805428006
C  C603  1  0.61295000  0.26225000  0.65240000  1.0 -0.1741457075
C  C604  1  0.65309000  0.32319000  0.66633000  1.0 0.0661927659
C  C605  1  0.67915000  0.30945000  0.67980000  1.0 -0.1384128933
C  C606  1  0.72122000  0.33271000  0.65587000  1.0 -0.0205901475
C  C607  1  0.73825000  0.37015000  0.61770000  1.0 -0.1114260413
C  C608  1  0.71298000  0.38458000  0.60315000  1.0 -0.0086132232
C  C609  1  0.67053000  0.36053000  0.62754000  1.0 -0.1384128933
C  C610  1  0.74920000  0.31750000  0.67080000  1.0 0.609435511
C  C611  1  0.73115000  0.42635000  0.56250000  1.0 0.5808338674
C  C612  1  0.66445000  0.42995000  0.73400000  1.0 -0.1763592924
C  C613  1  0.69234000  0.46796000  0.72400000  1.0 0.1805428006
C  C614  1  0.70003000  0.00753000  0.69294000  1.0 -0.0665151857
C  C615  1  0.72638000  0.04404000  0.68438000  1.0 0.1805428006
C  C616  1  0.73465000  0.08535000  0.65240000  1.0 -0.1741457075
C  C617  1  0.68059000  0.01049000  0.66633000  1.0 0.0661927659
C  C618  1  0.64105000  0.01075000  0.67980000  1.0 -0.1384128933
C  C619  1  0.62292000  0.01141000  0.65587000  1.0 -0.0205901475
C  C620  1  0.64405000  0.01215000  0.61770000  1.0 -0.1114260413
C  C621  1  0.68388000  0.01227000  0.60315000  1.0 -0.0086132232
C  C622  1  0.70193000  0.01193000  0.62754000  1.0 -0.1384128933
C  C623  1  0.58000000  0.01170000  0.67080000  1.0 0.609435511
C  C624  1  0.70635000  0.01115000  0.56250000  1.0 0.5808338674
C  C625  1  0.33605000  0.60155000  0.73400000  1.0 -0.1763592924
C  C626  1  0.30804000  0.58366000  0.72400000  1.0 0.1805428006
C  C627  1  0.29953000  0.60703000  0.69294000  1.0 -0.0665151857
C  C628  1  0.27158000  0.58924000  0.68438000  1.0 0.1805428006
C  C629  1  0.26225000  0.61295000  0.65240000  1.0 -0.1741457075
C  C630  1  0.32319000  0.65309000  0.66633000  1.0 0.0661927659
C  C631  1  0.30945000  0.67915000  0.67980000  1.0 -0.1384128933
C  C632  1  0.33272000  0.72122000  0.65587000  1.0 -0.0205901475
C  C633  1  0.37015000  0.73825000  0.61770000  1.0 -0.1114260413
C  C634  1  0.38458000  0.71298000  0.60315000  1.0 -0.0086132232
C  C635  1  0.36053000  0.67053000  0.62754000  1.0 -0.1384128933
C  C636  1  0.31750000  0.74920000  0.67080000  1.0 0.609435511
C  C637  1  0.42635000  0.73115000  0.56250000  1.0 0.5808338674
C  C638  1  0.42995000  0.66445000  0.73400000  1.0 -0.1763592924
C  C639  1  0.46796000  0.69234000  0.72400000  1.0 0.1854316308
C  C640  1  0.00753000  0.70003000  0.69294000  1.0 -0.0665151857
C  C641  1  0.04404000  0.72638000  0.68438000  1.0 0.1805428006
C  C642  1  0.08535000  0.73465000  0.65240000  1.0 -0.1741457075
C  C643  1  0.01048000  0.68059000  0.66633000  1.0 0.0661927659
C  C644  1  0.01075000  0.64105000  0.67980000  1.0 -0.1384128933
C  C645  1  0.01141000  0.62292000  0.65587000  1.0 -0.0205901475
C  C646  1  0.01215000  0.64405000  0.61770000  1.0 -0.1114260413
C  C647  1  0.01227000  0.68388000  0.60315000  1.0 -0.0086132232
C  C648  1  0.01193000  0.70193000  0.62754000  1.0 -0.1384128933
C  C649  1  0.01170000  0.58000000  0.67080000  1.0 0.609435511
C  C650  1  0.01115000  0.70635000  0.56250000  1.0 0.5808338674
C  C651  1  0.39845000  0.66395000  0.76600000  1.0 -0.1763592924
C  C652  1  0.41634000  0.69196000  0.77600000  1.0 0.1854316308
C  C653  1  0.39297000  0.70047000  0.80706000  1.0 -0.0665151857
C  C654  1  0.41076000  0.72842000  0.81562000  1.0 0.1805428006
C  C655  1  0.38705000  0.73775000  0.84760000  1.0 -0.1741457075
C  C656  1  0.34692000  0.67681000  0.83367000  1.0 0.0661927659
C  C657  1  0.32085000  0.69055000  0.82020000  1.0 -0.1384128933
C  C658  1  0.27879000  0.66729000  0.84413000  1.0 -0.0205901475
C  C659  1  0.26175000  0.62985000  0.88230000  1.0 -0.1114260413
C  C660  1  0.28703000  0.61543000  0.89685000  1.0 -0.0086132232
C  C661  1  0.32947000  0.63947000  0.87246000  1.0 -0.1384128933
C  C662  1  0.25080000  0.68250000  0.82920000  1.0 0.609435511
C  C663  1  0.26885000  0.57365000  0.93750000  1.0 0.5808338674
C  C664  1  0.33555000  0.57005000  0.76600000  1.0 -0.1763592924
C  C665  1  0.30766000  0.53204000  0.77600000  1.0 0.1854316308
C  C666  1  0.29997000  0.99247000  0.80706000  1.0 -0.0665151857
C  C667  1  0.27362000  0.95596000  0.81562000  1.0 0.1805428006
C  C668  1  0.26535000  0.91465000  0.84760000  1.0 -0.1763592924
C  C669  1  0.31942000  0.98952000  0.83367000  1.0 0.0661927659
C  C670  1  0.35895000  0.98925000  0.82020000  1.0 -0.1384128933
C  C671  1  0.37709000  0.98859000  0.84413000  1.0 -0.0205901475
C  C672  1  0.35595000  0.98785000  0.88230000  1.0 -0.1114260413
C  C673  1  0.31612000  0.98773000  0.89685000  1.0 -0.0086132232
C  C674  1  0.29807000  0.98807000  0.87246000  1.0 -0.1384128933
C  C675  1  0.42000000  0.98830000  0.82920000  1.0 0.609435511
C  C676  1  0.29365000  0.98885000  0.93750000  1.0 0.5808338674
C  C677  1  0.16395000  0.89845000  0.76600000  1.0 -0.1763592924
C  C678  1  0.19196000  0.91634000  0.77600000  1.0 0.1854316308
C  C679  1  0.20047000  0.89297000  0.80706000  1.0 -0.0665151857
C  C680  1  0.22842000  0.91076000  0.81562000  1.0 0.1805428006
C  C681  1  0.23775000  0.88705000  0.84760000  1.0 -0.1763592924
C  C682  1  0.17682000  0.84692000  0.83367000  1.0 0.0661927659
C  C683  1  0.19055000  0.82085000  0.82020000  1.0 -0.1384128933
C  C684  1  0.16729000  0.77879000  0.84413000  1.0 -0.0205901475
C  C685  1  0.12985000  0.76175000  0.88230000  1.0 -0.1114260413
C  C686  1  0.11543000  0.78703000  0.89685000  1.0 -0.0086132232
C  C687  1  0.13947000  0.82947000  0.87246000  1.0 -0.1384128933
C  C688  1  0.18250000  0.75080000  0.82920000  1.0 0.609435511
C  C689  1  0.07365000  0.76885000  0.93750000  1.0 0.5808338674
C  C690  1  0.07005000  0.83555000  0.76600000  1.0 -0.1763592924
C  C691  1  0.03204000  0.80766000  0.77600000  1.0 0.1805428006
C  C692  1  0.49247000  0.79997000  0.80706000  1.0 -0.0665151857
C  C693  1  0.45596000  0.77362000  0.81562000  1.0 0.1805428006
C  C694  1  0.41465000  0.76535000  0.84760000  1.0 -0.1741457075
C  C695  1  0.48952000  0.81942000  0.83367000  1.0 0.0661927659
C  C696  1  0.48925000  0.85895000  0.82020000  1.0 -0.1384128933
C  C697  1  0.48859000  0.87708000  0.84413000  1.0 -0.0205901475
C  C698  1  0.48785000  0.85595000  0.88230000  1.0 -0.1114260413
C  C699  1  0.48773000  0.81613000  0.89685000  1.0 -0.0086132232
C  C700  1  0.48807000  0.79807000  0.87246000  1.0 -0.1384128933
C  C701  1  0.48830000  0.92000000  0.82920000  1.0 0.609435511
C  C702  1  0.48885000  0.79365000  0.93750000  1.0 0.5808338674
C  C703  1  0.10155000  0.83605000  0.73400000  1.0 -0.1763592924
C  C704  1  0.08366000  0.80804000  0.72400000  1.0 0.1854316308
C  C705  1  0.10703000  0.79953000  0.69294000  1.0 -0.0665151857
C  C706  1  0.08924000  0.77158000  0.68438000  1.0 0.1805428006
C  C707  1  0.11295000  0.76225000  0.65240000  1.0 -0.1741457075
C  C708  1  0.15309000  0.82319000  0.66633000  1.0 0.0661927659
C  C709  1  0.17915000  0.80945000  0.67980000  1.0 -0.1384128933
C  C710  1  0.22122000  0.83272000  0.65587000  1.0 -0.0205901475
C  C711  1  0.23825000  0.87015000  0.61770000  1.0 -0.1114260413
C  C712  1  0.21298000  0.88458000  0.60315000  1.0 -0.0086132232
C  C713  1  0.17053000  0.86053000  0.62754000  1.0 -0.1384128933
C  C714  1  0.24920000  0.81750000  0.67080000  1.0 0.609435511
C  C715  1  0.23115000  0.92635000  0.56250000  1.0 0.5808338674
C  C716  1  0.16445000  0.92995000  0.73400000  1.0 -0.1763592924
C  C717  1  0.19234000  0.96796000  0.72400000  1.0 0.1854316308
C  C718  1  0.20003000  0.50753000  0.69294000  1.0 -0.0665151857
C  C719  1  0.22638000  0.54404000  0.68438000  1.0 0.1805428006
C  C720  1  0.23465000  0.58535000  0.65240000  1.0 -0.1741457075
C  C721  1  0.18059000  0.51049000  0.66633000  1.0 0.0661927659
C  C722  1  0.14105000  0.51075000  0.67980000  1.0 -0.1384128933
C  C723  1  0.12292000  0.51141000  0.65587000  1.0 -0.0205901475
C  C724  1  0.14405000  0.51215000  0.61770000  1.0 -0.1114260413
C  C725  1  0.18388000  0.51227000  0.60315000  1.0 -0.0086132232
C  C726  1  0.20193000  0.51193000  0.62754000  1.0 -0.1384128933
C  C727  1  0.08000000  0.51170000  0.67080000  1.0 0.609435511
C  C728  1  0.20635000  0.51115000  0.56250000  1.0 0.5808338674
C  C729  1  0.83605000  0.60155000  0.73400000  1.0 -0.1763592924
C  C730  1  0.80804000  0.58366000  0.72400000  1.0 0.1854316308
C  C731  1  0.79953000  0.60703000  0.69294000  1.0 -0.0665151857
C  C732  1  0.77158000  0.58924000  0.68438000  1.0 0.1805428006
C  C733  1  0.76225000  0.61295000  0.65240000  1.0 -0.1763592924
C  C734  1  0.82319000  0.65308000  0.66633000  1.0 0.0661927659
C  C735  1  0.80945000  0.67915000  0.67980000  1.0 -0.1384128933
C  C736  1  0.83272000  0.72122000  0.65587000  1.0 -0.0205901475
C  C737  1  0.87015000  0.73825000  0.61770000  1.0 -0.1114260413
C  C738  1  0.88458000  0.71298000  0.60315000  1.0 -0.0086132232
C  C739  1  0.86053000  0.67053000  0.62754000  1.0 -0.1384128933
C  C740  1  0.81750000  0.74920000  0.67080000  1.0 0.609435511
C  C741  1  0.92635000  0.73115000  0.56250000  1.0 0.5808338674
C  C742  1  0.92995000  0.66445000  0.73400000  1.0 -0.1763592924
C  C743  1  0.96796000  0.69234000  0.72400000  1.0 0.1854316308
C  C744  1  0.50753000  0.70003000  0.69294000  1.0 -0.0665151857
C  C745  1  0.54404000  0.72638000  0.68438000  1.0 0.1805428006
C  C746  1  0.58535000  0.73465000  0.65240000  1.0 -0.1741457075
C  C747  1  0.51049000  0.68059000  0.66633000  1.0 0.0661927659
C  C748  1  0.51075000  0.64105000  0.67980000  1.0 -0.1384128933
C  C749  1  0.51142000  0.62292000  0.65587000  1.0 -0.0205901475
C  C750  1  0.51215000  0.64405000  0.61770000  1.0 -0.1114260413
C  C751  1  0.51228000  0.68388000  0.60315000  1.0 -0.0086132232
C  C752  1  0.51193000  0.70193000  0.62754000  1.0 -0.1384128933
C  C753  1  0.51170000  0.58000000  0.67080000  1.0 0.609435511
C  C754  1  0.51115000  0.70635000  0.56250000  1.0 0.5808338674
C  C755  1  0.89845000  0.66395000  0.76600000  1.0 -0.1763592924
C  C756  1  0.91634000  0.69196000  0.77600000  1.0 0.1805428006
C  C757  1  0.89297000  0.70047000  0.80706000  1.0 -0.0665151857
C  C758  1  0.91076000  0.72842000  0.81562000  1.0 0.1805428006
C  C759  1  0.88705000  0.73775000  0.84760000  1.0 -0.1741457075
C  C760  1  0.84692000  0.67681000  0.83367000  1.0 0.0661927659
C  C761  1  0.82085000  0.69055000  0.82020000  1.0 -0.1384128933
C  C762  1  0.77879000  0.66729000  0.84413000  1.0 -0.0205901475
C  C763  1  0.76175000  0.62985000  0.88230000  1.0 -0.1114260413
C  C764  1  0.78703000  0.61543000  0.89685000  1.0 -0.0086132232
C  C765  1  0.82947000  0.63947000  0.87246000  1.0 -0.1384128933
C  C766  1  0.75080000  0.68250000  0.82920000  1.0 0.609435511
C  C767  1  0.76885000  0.57365000  0.93750000  1.0 0.5808338674
C  C768  1  0.83555000  0.57005000  0.76600000  1.0 -0.1763592924
C  C769  1  0.80766000  0.53204000  0.77600000  1.0 0.1805428006
C  C770  1  0.79997000  0.99247000  0.80706000  1.0 -0.0665151857
C  C771  1  0.77362000  0.95596000  0.81562000  1.0 0.1805428006
C  C772  1  0.76535000  0.91465000  0.84760000  1.0 -0.1741457075
C  C773  1  0.81942000  0.98952000  0.83367000  1.0 0.0661927659
C  C774  1  0.85895000  0.98925000  0.82020000  1.0 -0.1384128933
C  C775  1  0.87709000  0.98859000  0.84413000  1.0 -0.0205901475
C  C776  1  0.85595000  0.98785000  0.88230000  1.0 -0.1114260413
C  C777  1  0.81613000  0.98773000  0.89685000  1.0 -0.0086132232
C  C778  1  0.79807000  0.98807000  0.87246000  1.0 -0.1384128933
C  C779  1  0.92000000  0.98830000  0.82920000  1.0 0.609435511
C  C780  1  0.79365000  0.98885000  0.93750000  1.0 0.5808338674
C  C781  1  0.66395000  0.89845000  0.76600000  1.0 -0.1763592924
C  C782  1  0.69196000  0.91634000  0.77600000  1.0 0.1805428006
C  C783  1  0.70047000  0.89297000  0.80706000  1.0 -0.0665151857
C  C784  1  0.72842000  0.91076000  0.81562000  1.0 0.1805428006
C  C785  1  0.73775000  0.88705000  0.84760000  1.0 -0.1741457075
C  C786  1  0.67682000  0.84692000  0.83367000  1.0 0.0661927659
C  C787  1  0.69055000  0.82085000  0.82020000  1.0 -0.1384128933
C  C788  1  0.66729000  0.77879000  0.84413000  1.0 -0.0205901475
C  C789  1  0.62985000  0.76175000  0.88230000  1.0 -0.1114260413
C  C790  1  0.61543000  0.78703000  0.89685000  1.0 -0.0086132232
C  C791  1  0.63947000  0.82947000  0.87246000  1.0 -0.1384128933
C  C792  1  0.68250000  0.75080000  0.82920000  1.0 0.609435511
C  C793  1  0.57365000  0.76885000  0.93750000  1.0 0.5808338674
C  C794  1  0.57005000  0.83555000  0.76600000  1.0 -0.1763592924
C  C795  1  0.53204000  0.80766000  0.77600000  1.0 0.1854316308
C  C796  1  0.99247000  0.79997000  0.80706000  1.0 -0.0665151857
C  C797  1  0.95596000  0.77362000  0.81562000  1.0 0.1805428006
C  C798  1  0.91465000  0.76535000  0.84760000  1.0 -0.1741457075
C  C799  1  0.98952000  0.81942000  0.83367000  1.0 0.0661927659
C  C800  1  0.98925000  0.85895000  0.82020000  1.0 -0.1384128933
C  C801  1  0.98859000  0.87708000  0.84413000  1.0 -0.0205901475
C  C802  1  0.98785000  0.85595000  0.88230000  1.0 -0.1114260413
C  C803  1  0.98773000  0.81613000  0.89685000  1.0 -0.0086132232
C  C804  1  0.98807000  0.79807000  0.87246000  1.0 -0.1384128933
C  C805  1  0.98830000  0.92000000  0.82920000  1.0 0.609435511
C  C806  1  0.98885000  0.79365000  0.93750000  1.0 0.5808338674
C  C807  1  0.60155000  0.83605000  0.73400000  1.0 -0.1763592924
C  C808  1  0.58366000  0.80804000  0.72400000  1.0 0.1805428006
C  C809  1  0.60703000  0.79953000  0.69294000  1.0 -0.0665151857
C  C810  1  0.58924000  0.77158000  0.68438000  1.0 0.1805428006
C  C811  1  0.61295000  0.76225000  0.65240000  1.0 -0.1741457075
C  C812  1  0.65309000  0.82319000  0.66633000  1.0 0.0661927659
C  C813  1  0.67915000  0.80945000  0.67980000  1.0 -0.1384128933
C  C814  1  0.72122000  0.83272000  0.65587000  1.0 -0.0205901475
C  C815  1  0.73825000  0.87015000  0.61770000  1.0 -0.1114260413
C  C816  1  0.71298000  0.88458000  0.60315000  1.0 -0.0086132232
C  C817  1  0.67053000  0.86053000  0.62754000  1.0 -0.1384128933
C  C818  1  0.74920000  0.81750000  0.67080000  1.0 0.609435511
C  C819  1  0.73115000  0.92635000  0.56250000  1.0 0.5808338674
C  C820  1  0.66445000  0.92995000  0.73400000  1.0 -0.1763592924
C  C821  1  0.69234000  0.96796000  0.72400000  1.0 0.1854316308
C  C822  1  0.70003000  0.50753000  0.69294000  1.0 -0.0665151857
C  C823  1  0.72638000  0.54404000  0.68438000  1.0 0.1805428006
C  C824  1  0.73465000  0.58535000  0.65240000  1.0 -0.1741457075
C  C825  1  0.68059000  0.51049000  0.66633000  1.0 0.0661927659
C  C826  1  0.64105000  0.51075000  0.67980000  1.0 -0.1384128933
C  C827  1  0.62292000  0.51141000  0.65587000  1.0 -0.0205901475
C  C828  1  0.64405000  0.51215000  0.61770000  1.0 -0.1114260413
C  C829  1  0.68388000  0.51227000  0.60315000  1.0 -0.0086132232
C  C830  1  0.70193000  0.51193000  0.62754000  1.0 -0.1384128933
C  C831  1  0.58000000  0.51170000  0.67080000  1.0 0.609435511
C  C832  1  0.70635000  0.51115000  0.56250000  1.0 0.5808338674
N  N1  1  0.24918000  0.04738000  0.20344000  1.0 -0.3427839697
N  N2  1  0.04738000  0.24918000  0.20344000  1.0 -0.3427839697
N  N3  1  0.45262000  0.25082000  0.29656000  1.0 -0.3427839697
N  N4  1  0.25082000  0.45262000  0.29656000  1.0 -0.3427839697
N  N5  1  0.29120000  0.04120000  0.25000000  1.0 -0.3427839697
N  N6  1  0.45880000  0.20880000  0.25000000  1.0 -0.3427839697
N  N7  1  0.20880000  0.45880000  0.25000000  1.0 -0.3427839697
N  N8  1  0.04120000  0.29120000  0.25000000  1.0 -0.3427839697
N  N9  1  0.74918000  0.04738000  0.20344000  1.0 -0.3017639925
N  N10  1  0.54738000  0.24918000  0.20344000  1.0 -0.3427839697
N  N11  1  0.95262000  0.25082000  0.29656000  1.0 -0.3427839697
N  N12  1  0.75082000  0.45262000  0.29656000  1.0 -0.3427839697
N  N13  1  0.79120000  0.04120000  0.25000000  1.0 -0.3017639925
N  N14  1  0.95880000  0.20880000  0.25000000  1.0 -0.3427839697
N  N15  1  0.70880000  0.45880000  0.25000000  1.0 -0.3427839697
N  N16  1  0.54120000  0.29120000  0.25000000  1.0 -0.3427839697
N  N17  1  0.24918000  0.54738000  0.20344000  1.0 -0.3427839697
N  N18  1  0.04738000  0.74918000  0.20344000  1.0 -0.3427839697
N  N19  1  0.45262000  0.75082000  0.29656000  1.0 -0.3427839697
N  N20  1  0.25082000  0.95262000  0.29656000  1.0 -0.3427839697
N  N21  1  0.29120000  0.54120000  0.25000000  1.0 -0.3427839697
N  N22  1  0.45880000  0.70880000  0.25000000  1.0 -0.3427839697
N  N23  1  0.20880000  0.95880000  0.25000000  1.0 -0.3427839697
N  N24  1  0.04120000  0.79120000  0.25000000  1.0 -0.3427839697
N  N25  1  0.74918000  0.54738000  0.20344000  1.0 -0.3427839697
N  N26  1  0.54738000  0.74918000  0.20344000  1.0 -0.3427839697
N  N27  1  0.95262000  0.75082000  0.29656000  1.0 -0.3427839697
N  N28  1  0.75082000  0.95262000  0.29656000  1.0 -0.3017639925
N  N29  1  0.79120000  0.54120000  0.25000000  1.0 -0.3427839697
N  N30  1  0.95880000  0.70880000  0.25000000  1.0 -0.3427839697
N  N31  1  0.70880000  0.95880000  0.25000000  1.0 -0.3017639925
N  N32  1  0.54120000  0.79120000  0.25000000  1.0 -0.3427839697
N  N33  1  0.24918000  0.04738000  0.70344000  1.0 -0.3427839697
N  N34  1  0.04738000  0.24918000  0.70344000  1.0 -0.3427839697
N  N35  1  0.45262000  0.25082000  0.79656000  1.0 -0.3427839697
N  N36  1  0.25082000  0.45262000  0.79656000  1.0 -0.3427839697
N  N37  1  0.29120000  0.04120000  0.75000000  1.0 -0.3427839697
N  N38  1  0.45880000  0.20880000  0.75000000  1.0 -0.3427839697
N  N39  1  0.20880000  0.45880000  0.75000000  1.0 -0.3427839697
N  N40  1  0.04120000  0.29120000  0.75000000  1.0 -0.3427839697
N  N41  1  0.74918000  0.04738000  0.70344000  1.0 -0.3427839697
N  N42  1  0.54738000  0.24918000  0.70344000  1.0 -0.3427839697
N  N43  1  0.95262000  0.25082000  0.79656000  1.0 -0.3427839697
N  N44  1  0.75082000  0.45262000  0.79656000  1.0 -0.3427839697
N  N45  1  0.79120000  0.04120000  0.75000000  1.0 -0.3427839697
N  N46  1  0.95880000  0.20880000  0.75000000  1.0 -0.3427839697
N  N47  1  0.70880000  0.45880000  0.75000000  1.0 -0.3427839697
N  N48  1  0.54120000  0.29120000  0.75000000  1.0 -0.3427839697
N  N49  1  0.24918000  0.54738000  0.70344000  1.0 -0.3427839697
N  N50  1  0.04738000  0.74918000  0.70344000  1.0 -0.3427839697
N  N51  1  0.45262000  0.75082000  0.79656000  1.0 -0.3427839697
N  N52  1  0.25082000  0.95262000  0.79656000  1.0 -0.3427839697
N  N53  1  0.29120000  0.54120000  0.75000000  1.0 -0.3427839697
N  N54  1  0.45880000  0.70880000  0.75000000  1.0 -0.3427839697
N  N55  1  0.20880000  0.95880000  0.75000000  1.0 -0.3427839697
N  N56  1  0.04120000  0.79120000  0.75000000  1.0 -0.3427839697
N  N57  1  0.74918000  0.54738000  0.70344000  1.0 -0.3427839697
N  N58  1  0.54738000  0.74918000  0.70344000  1.0 -0.3427839697
N  N59  1  0.95262000  0.75082000  0.79656000  1.0 -0.3427839697
N  N60  1  0.75082000  0.95262000  0.79656000  1.0 -0.3427839697
N  N61  1  0.79120000  0.54120000  0.75000000  1.0 -0.3427839697
N  N62  1  0.95880000  0.70880000  0.75000000  1.0 -0.3427839697
N  N63  1  0.70880000  0.95880000  0.75000000  1.0 -0.3427839697
N  N64  1  0.54120000  0.79120000  0.75000000  1.0 -0.3427839697
Cl  Cl1  1  0.04150000  0.35295000  0.00000000  1.0 -0.4925921294
Cl  Cl2  1  0.45850000  0.14705000  0.00000000  1.0 -0.4925921294
Cl  Cl3  1  0.14705000  0.45850000  0.00000000  1.0 -0.4925921294
Cl  Cl4  1  0.35295000  0.04150000  0.00000000  1.0 -0.4925921294
Cl  Cl5  1  0.19219000  0.00158000  0.30623000  1.0 -0.4656593015
Cl  Cl6  1  0.00158000  0.19219000  0.30623000  1.0 -0.4635060028
Cl  Cl7  1  0.49842000  0.30782000  0.19377000  1.0 -0.4635060028
Cl  Cl8  1  0.30782000  0.49842000  0.19377000  1.0 -0.4635060028
Cl  Cl9  1  0.54150000  0.35295000  0.00000000  1.0 -0.4925921294
Cl  Cl10  1  0.95850000  0.14705000  0.00000000  1.0 -0.4925921294
Cl  Cl11  1  0.64705000  0.45850000  0.00000000  1.0 -0.4925921294
Cl  Cl12  1  0.85295000  0.04150000  0.00000000  1.0 -0.4925921294
Cl  Cl13  1  0.69219000  0.00158000  0.30623000  1.0 -0.4410274138
Cl  Cl14  1  0.80782000  0.49842000  0.19377000  1.0 -0.4635060028
Cl  Cl15  1  0.04150000  0.85295000  0.00000000  1.0 -0.4925921294
Cl  Cl16  1  0.45850000  0.64705000  0.00000000  1.0 -0.4925921294
Cl  Cl17  1  0.14705000  0.95850000  0.00000000  1.0 -0.4925921294
Cl  Cl18  1  0.35295000  0.54150000  0.00000000  1.0 -0.4925921294
Cl  Cl19  1  0.00158000  0.69219000  0.30623000  1.0 -0.4635060028
Cl  Cl20  1  0.49842000  0.80782000  0.19377000  1.0 -0.4635060028
Cl  Cl21  1  0.54150000  0.85295000  0.00000000  1.0 -0.4925921294
Cl  Cl22  1  0.95850000  0.64705000  0.00000000  1.0 -0.4925921294
Cl  Cl23  1  0.64705000  0.95850000  0.00000000  1.0 -0.4925921294
Cl  Cl24  1  0.85295000  0.54150000  0.00000000  1.0 -0.4925921294
Cl  Cl25  1  0.80782000  0.99842000  0.19377000  1.0 -0.4410274138
Cl  Cl26  1  0.04150000  0.35295000  0.50000000  1.0 -0.4925921294
Cl  Cl27  1  0.45850000  0.14705000  0.50000000  1.0 -0.4925921294
Cl  Cl28  1  0.14705000  0.45850000  0.50000000  1.0 -0.4925921294
Cl  Cl29  1  0.35295000  0.04150000  0.50000000  1.0 -0.4925921294
Cl  Cl30  1  0.54150000  0.35295000  0.50000000  1.0 -0.4956127217
Cl  Cl31  1  0.95850000  0.14705000  0.50000000  1.0 -0.4925921294
Cl  Cl32  1  0.64705000  0.45850000  0.50000000  1.0 -0.4925921294
Cl  Cl33  1  0.85295000  0.04150000  0.50000000  1.0 -0.4925921294
Cl  Cl34  1  0.50158000  0.19219000  0.80623000  1.0 -0.4635060028
Cl  Cl35  1  0.99842000  0.30782000  0.69377000  1.0 -0.4635060028
Cl  Cl36  1  0.80782000  0.49842000  0.69377000  1.0 -0.4635060028
Cl  Cl37  1  0.04150000  0.85295000  0.50000000  1.0 -0.4925921294
Cl  Cl38  1  0.45850000  0.64705000  0.50000000  1.0 -0.4925921294
Cl  Cl39  1  0.14705000  0.95850000  0.50000000  1.0 -0.4925921294
Cl  Cl40  1  0.35295000  0.54150000  0.50000000  1.0 -0.4925921294
Cl  Cl41  1  0.19219000  0.50158000  0.80623000  1.0 -0.4635060028
Cl  Cl42  1  0.30782000  0.99842000  0.69377000  1.0 -0.4635060028
Cl  Cl43  1  0.54150000  0.85295000  0.50000000  1.0 -0.4925921294
Cl  Cl44  1  0.95850000  0.64705000  0.50000000  1.0 -0.4925921294
Cl  Cl45  1  0.64705000  0.95850000  0.50000000  1.0 -0.4925921294
Cl  Cl46  1  0.85295000  0.54150000  0.50000000  1.0 -0.4925921294
Cl  Cl47  1  0.50158000  0.69219000  0.80623000  1.0 -0.4635060028
Cl  Cl48  1  0.99842000  0.80782000  0.69377000  1.0 -0.4635060028
Cl  Cl49  1  0.80782000  0.99842000  0.69377000  1.0 -0.4635060028
O  O1  1  0.28492000  0.23250000  0.20629000  1.0 -0.5462664433
O  O2  1  0.33965000  0.28705000  0.14700000  1.0 -0.5686534781
O  O3  1  0.45033000  0.26733000  0.04715000  1.0 -0.5100980976
O  O4  1  0.43381000  0.20780000  0.04809000  1.0 -0.5431369854
O  O5  1  0.00879000  0.06122000  0.20629000  1.0 -0.5431369854
O  O6  1  0.01335000  0.06595000  0.14700000  1.0 -0.5686534781
O  O7  1  0.00252000  0.18553000  0.04715000  1.0 -0.5100980976
O  O8  1  0.01810000  0.24411000  0.04809000  1.0 -0.5431369854
O  O9  1  0.26751000  0.21509000  0.29371000  1.0 -0.5462664433
O  O10  1  0.21295000  0.16035000  0.35300000  1.0 -0.5686534781
O  O11  1  0.23268000  0.04967000  0.45285000  1.0 -0.5100980976
O  O12  1  0.29220000  0.06619000  0.45191000  1.0 -0.5431369854
O  O13  1  0.43879000  0.49121000  0.29371000  1.0 -0.5431369854
O  O14  1  0.43405000  0.48665000  0.35300000  1.0 -0.5686534781
O  O15  1  0.31448000  0.49748000  0.45285000  1.0 -0.5100980976
O  O16  1  0.25589000  0.48190000  0.45191000  1.0 -0.5431369854
O  O17  1  0.21509000  0.26751000  0.29371000  1.0 -0.5462664433
O  O18  1  0.16035000  0.21295000  0.35300000  1.0 -0.5686534781
O  O19  1  0.04968000  0.23267000  0.45285000  1.0 -0.5100980976
O  O20  1  0.06619000  0.29220000  0.45191000  1.0 -0.5431369854
O  O21  1  0.49121000  0.43879000  0.29371000  1.0 -0.5462664433
O  O22  1  0.48665000  0.43405000  0.35300000  1.0 -0.5686534781
O  O23  1  0.49748000  0.31448000  0.45285000  1.0 -0.5100980976
O  O24  1  0.48190000  0.25589000  0.45191000  1.0 -0.5431369854
O  O25  1  0.23250000  0.28492000  0.20629000  1.0 -0.5431369854
O  O26  1  0.28705000  0.33965000  0.14700000  1.0 -0.5686534781
O  O27  1  0.26733000  0.45033000  0.04715000  1.0 -0.5100980976
O  O28  1  0.20780000  0.43381000  0.04809000  1.0 -0.5431369854
O  O29  1  0.06122000  0.00880000  0.20629000  1.0 -0.5462664433
O  O30  1  0.06595000  0.01335000  0.14700000  1.0 -0.5686534781
O  O31  1  0.18553000  0.00252000  0.04715000  1.0 -0.5100980976
O  O32  1  0.24411000  0.01810000  0.04809000  1.0 -0.5431369854
O  O33  1  0.78492000  0.23250000  0.20629000  1.0 -0.5462664433
O  O34  1  0.83965000  0.28705000  0.14700000  1.0 -0.5686534781
O  O35  1  0.95033000  0.26733000  0.04715000  1.0 -0.5100980976
O  O36  1  0.93381000  0.20780000  0.04809000  1.0 -0.5431369854
O  O37  1  0.50879000  0.06121000  0.20629000  1.0 -0.5462664433
O  O38  1  0.51335000  0.06595000  0.14700000  1.0 -0.5686534781
O  O39  1  0.50253000  0.18553000  0.04715000  1.0 -0.5100980976
O  O40  1  0.51810000  0.24411000  0.04809000  1.0 -0.5431369854
O  O41  1  0.76751000  0.21509000  0.29371000  1.0 -0.5462664433
O  O42  1  0.71295000  0.16035000  0.35300000  1.0 -0.5686534781
O  O43  1  0.73268000  0.04967000  0.45285000  1.0 -0.5100980976
O  O44  1  0.79220000  0.06619000  0.45191000  1.0 -0.5431369854
O  O45  1  0.93879000  0.49121000  0.29371000  1.0 -0.5462664433
O  O46  1  0.93405000  0.48665000  0.35300000  1.0 -0.5686534781
O  O47  1  0.81448000  0.49748000  0.45285000  1.0 -0.5100980976
O  O48  1  0.75589000  0.48190000  0.45191000  1.0 -0.5431369854
O  O49  1  0.71509000  0.26751000  0.29371000  1.0 -0.5462664433
O  O50  1  0.66035000  0.21295000  0.35300000  1.0 -0.5686534781
O  O51  1  0.54968000  0.23267000  0.45285000  1.0 -0.5100980976
O  O52  1  0.56619000  0.29220000  0.45191000  1.0 -0.5431369854
O  O53  1  0.99121000  0.43879000  0.29371000  1.0 -0.5462664433
O  O54  1  0.98665000  0.43405000  0.35300000  1.0 -0.5686534781
O  O55  1  0.99748000  0.31447000  0.45285000  1.0 -0.5100980976
O  O56  1  0.98190000  0.25589000  0.45191000  1.0 -0.5431369854
O  O57  1  0.73250000  0.28492000  0.20629000  1.0 -0.5462664433
O  O58  1  0.78705000  0.33965000  0.14700000  1.0 -0.5686534781
O  O59  1  0.76733000  0.45033000  0.04715000  1.0 -0.5100980976
O  O60  1  0.70780000  0.43381000  0.04809000  1.0 -0.5431369854
O  O61  1  0.56122000  0.00880000  0.20629000  1.0 -0.5462664433
O  O62  1  0.56595000  0.01335000  0.14700000  1.0 -0.5686534781
O  O63  1  0.68553000  0.00252000  0.04715000  1.0 -0.5100980976
O  O64  1  0.74411000  0.01810000  0.04809000  1.0 -0.5431369854
O  O65  1  0.28492000  0.73250000  0.20629000  1.0 -0.5462664433
O  O66  1  0.33965000  0.78705000  0.14700000  1.0 -0.5686534781
O  O67  1  0.45033000  0.76733000  0.04715000  1.0 -0.5100980976
O  O68  1  0.43381000  0.70780000  0.04809000  1.0 -0.5431369854
O  O69  1  0.00879000  0.56122000  0.20629000  1.0 -0.5431369854
O  O70  1  0.01335000  0.56595000  0.14700000  1.0 -0.5686534781
O  O71  1  0.00252000  0.68553000  0.04715000  1.0 -0.5100980976
O  O72  1  0.01810000  0.74411000  0.04809000  1.0 -0.5431369854
O  O73  1  0.26751000  0.71509000  0.29371000  1.0 -0.5462664433
O  O74  1  0.21295000  0.66035000  0.35300000  1.0 -0.5686534781
O  O75  1  0.23268000  0.54967000  0.45285000  1.0 -0.5100980976
O  O76  1  0.29220000  0.56619000  0.45191000  1.0 -0.5431369854
O  O77  1  0.43879000  0.99121000  0.29371000  1.0 -0.5462664433
O  O78  1  0.43405000  0.98665000  0.35300000  1.0 -0.5686534781
O  O79  1  0.31448000  0.99748000  0.45285000  1.0 -0.5100980976
O  O80  1  0.25589000  0.98190000  0.45191000  1.0 -0.5431369854
O  O81  1  0.21509000  0.76751000  0.29371000  1.0 -0.5462664433
O  O82  1  0.16035000  0.71295000  0.35300000  1.0 -0.5686534781
O  O83  1  0.04968000  0.73267000  0.45285000  1.0 -0.5100980976
O  O84  1  0.06619000  0.79220000  0.45191000  1.0 -0.5431369854
O  O85  1  0.49121000  0.93879000  0.29371000  1.0 -0.5462664433
O  O86  1  0.48665000  0.93405000  0.35300000  1.0 -0.5686534781
O  O87  1  0.49748000  0.81448000  0.45285000  1.0 -0.5100980976
O  O88  1  0.48190000  0.75589000  0.45191000  1.0 -0.5431369854
O  O89  1  0.23250000  0.78492000  0.20629000  1.0 -0.5462664433
O  O90  1  0.28705000  0.83965000  0.14700000  1.0 -0.5686534781
O  O91  1  0.26733000  0.95033000  0.04715000  1.0 -0.5100980976
O  O92  1  0.20780000  0.93381000  0.04809000  1.0 -0.5431369854
O  O93  1  0.06122000  0.50880000  0.20629000  1.0 -0.5431369854
O  O94  1  0.06595000  0.51335000  0.14700000  1.0 -0.5686534781
O  O95  1  0.18553000  0.50253000  0.04715000  1.0 -0.5100980976
O  O96  1  0.24411000  0.51810000  0.04809000  1.0 -0.5431369854
O  O97  1  0.78492000  0.73250000  0.20629000  1.0 -0.5431369854
O  O98  1  0.83965000  0.78705000  0.14700000  1.0 -0.5686534781
O  O99  1  0.95033000  0.76733000  0.04715000  1.0 -0.5100980976
O  O100  1  0.93381000  0.70780000  0.04809000  1.0 -0.5431369854
O  O101  1  0.50879000  0.56122000  0.20629000  1.0 -0.5462664433
O  O102  1  0.51335000  0.56595000  0.14700000  1.0 -0.5686534781
O  O103  1  0.50253000  0.68553000  0.04715000  1.0 -0.5100980976
O  O104  1  0.51810000  0.74411000  0.04809000  1.0 -0.5431369854
O  O105  1  0.76751000  0.71509000  0.29371000  1.0 -0.5462664433
O  O106  1  0.71295000  0.66035000  0.35300000  1.0 -0.5686534781
O  O107  1  0.73268000  0.54967000  0.45285000  1.0 -0.5100980976
O  O108  1  0.79220000  0.56619000  0.45191000  1.0 -0.5431369854
O  O109  1  0.93879000  0.99121000  0.29371000  1.0 -0.5462664433
O  O110  1  0.93405000  0.98665000  0.35300000  1.0 -0.5686534781
O  O111  1  0.81448000  0.99748000  0.45285000  1.0 -0.5100980976
O  O112  1  0.75589000  0.98190000  0.45191000  1.0 -0.5431369854
O  O113  1  0.71509000  0.76751000  0.29371000  1.0 -0.5431369854
O  O114  1  0.66035000  0.71295000  0.35300000  1.0 -0.5686534781
O  O115  1  0.54968000  0.73268000  0.45285000  1.0 -0.5100980976
O  O116  1  0.56619000  0.79220000  0.45191000  1.0 -0.5431369854
O  O117  1  0.99121000  0.93879000  0.29371000  1.0 -0.5431369854
O  O118  1  0.98665000  0.93405000  0.35300000  1.0 -0.5686534781
O  O119  1  0.99748000  0.81448000  0.45285000  1.0 -0.5100980976
O  O120  1  0.98190000  0.75589000  0.45191000  1.0 -0.5431369854
O  O121  1  0.73250000  0.78492000  0.20629000  1.0 -0.5462664433
O  O122  1  0.78705000  0.83965000  0.14700000  1.0 -0.5686534781
O  O123  1  0.76733000  0.95033000  0.04715000  1.0 -0.5100980976
O  O124  1  0.70780000  0.93381000  0.04809000  1.0 -0.5431369854
O  O125  1  0.56122000  0.50880000  0.20629000  1.0 -0.5462664433
O  O126  1  0.56595000  0.51335000  0.14700000  1.0 -0.5686534781
O  O127  1  0.68553000  0.50253000  0.04715000  1.0 -0.5100980976
O  O128  1  0.74411000  0.51810000  0.04809000  1.0 -0.5431369854
O  O129  1  0.28492000  0.23250000  0.70629000  1.0 -0.5431369854
O  O130  1  0.33965000  0.28705000  0.64700000  1.0 -0.5686534781
O  O131  1  0.45033000  0.26733000  0.54715000  1.0 -0.5100980976
O  O132  1  0.43381000  0.20780000  0.54809000  1.0 -0.5431369854
O  O133  1  0.00879000  0.06122000  0.70629000  1.0 -0.5462664433
O  O134  1  0.01335000  0.06595000  0.64700000  1.0 -0.5686534781
O  O135  1  0.00252000  0.18553000  0.54715000  1.0 -0.5100980976
O  O136  1  0.01810000  0.24411000  0.54809000  1.0 -0.5431369854
O  O137  1  0.26751000  0.21509000  0.79371000  1.0 -0.5462664433
O  O138  1  0.21295000  0.16035000  0.85300000  1.0 -0.5686534781
O  O139  1  0.23268000  0.04967000  0.95285000  1.0 -0.5100980976
O  O140  1  0.29220000  0.06619000  0.95191000  1.0 -0.5431369854
O  O141  1  0.43879000  0.49121000  0.79371000  1.0 -0.5431369854
O  O142  1  0.43405000  0.48665000  0.85300000  1.0 -0.5686534781
O  O143  1  0.31448000  0.49748000  0.95285000  1.0 -0.5100980976
O  O144  1  0.25589000  0.48190000  0.95191000  1.0 -0.5431369854
O  O145  1  0.21509000  0.26751000  0.79371000  1.0 -0.5462664433
O  O146  1  0.16035000  0.21295000  0.85300000  1.0 -0.5686534781
O  O147  1  0.04968000  0.23267000  0.95285000  1.0 -0.5100980976
O  O148  1  0.06619000  0.29220000  0.95191000  1.0 -0.5431369854
O  O149  1  0.49121000  0.43879000  0.79371000  1.0 -0.5431369854
O  O150  1  0.48665000  0.43405000  0.85300000  1.0 -0.5686534781
O  O151  1  0.49748000  0.31448000  0.95285000  1.0 -0.5100980976
O  O152  1  0.48190000  0.25589000  0.95191000  1.0 -0.5431369854
O  O153  1  0.23250000  0.28492000  0.70629000  1.0 -0.5431369854
O  O154  1  0.28705000  0.33965000  0.64700000  1.0 -0.5686534781
O  O155  1  0.26733000  0.45033000  0.54715000  1.0 -0.5100980976
O  O156  1  0.20780000  0.43381000  0.54809000  1.0 -0.5431369854
O  O157  1  0.06122000  0.00880000  0.70629000  1.0 -0.5462664433
O  O158  1  0.06595000  0.01335000  0.64700000  1.0 -0.5686534781
O  O159  1  0.18553000  0.00252000  0.54715000  1.0 -0.5100980976
O  O160  1  0.24411000  0.01810000  0.54809000  1.0 -0.5431369854
O  O161  1  0.78492000  0.23250000  0.70629000  1.0 -0.5462664433
O  O162  1  0.83965000  0.28705000  0.64700000  1.0 -0.5686534781
O  O163  1  0.95033000  0.26733000  0.54715000  1.0 -0.5100980976
O  O164  1  0.93381000  0.20780000  0.54809000  1.0 -0.5431369854
O  O165  1  0.50879000  0.06121000  0.70629000  1.0 -0.5431369854
O  O166  1  0.51335000  0.06595000  0.64700000  1.0 -0.5686534781
O  O167  1  0.50253000  0.18553000  0.54715000  1.0 -0.5100980976
O  O168  1  0.51810000  0.24411000  0.54809000  1.0 -0.5431369854
O  O169  1  0.76751000  0.21509000  0.79371000  1.0 -0.5462664433
O  O170  1  0.71295000  0.16035000  0.85300000  1.0 -0.5686534781
O  O171  1  0.73268000  0.04967000  0.95285000  1.0 -0.5100980976
O  O172  1  0.79220000  0.06619000  0.95191000  1.0 -0.5431369854
O  O173  1  0.93879000  0.49121000  0.79371000  1.0 -0.5462664433
O  O174  1  0.93405000  0.48665000  0.85300000  1.0 -0.5686534781
O  O175  1  0.81448000  0.49748000  0.95285000  1.0 -0.5100980976
O  O176  1  0.75589000  0.48190000  0.95191000  1.0 -0.5431369854
O  O177  1  0.71509000  0.26751000  0.79371000  1.0 -0.5462664433
O  O178  1  0.66035000  0.21295000  0.85300000  1.0 -0.5686534781
O  O179  1  0.54968000  0.23267000  0.95285000  1.0 -0.5100980976
O  O180  1  0.56619000  0.29220000  0.95191000  1.0 -0.5431369854
O  O181  1  0.99121000  0.43879000  0.79371000  1.0 -0.5462664433
O  O182  1  0.98665000  0.43405000  0.85300000  1.0 -0.5686534781
O  O183  1  0.99748000  0.31447000  0.95285000  1.0 -0.5100980976
O  O184  1  0.98190000  0.25589000  0.95191000  1.0 -0.5431369854
O  O185  1  0.73250000  0.28492000  0.70629000  1.0 -0.5462664433
O  O186  1  0.78705000  0.33965000  0.64700000  1.0 -0.5686534781
O  O187  1  0.76733000  0.45033000  0.54715000  1.0 -0.5100980976
O  O188  1  0.70780000  0.43381000  0.54809000  1.0 -0.5431369854
O  O189  1  0.56122000  0.00880000  0.70629000  1.0 -0.5462664433
O  O190  1  0.56595000  0.01335000  0.64700000  1.0 -0.5686534781
O  O191  1  0.68553000  0.00252000  0.54715000  1.0 -0.5100980976
O  O192  1  0.74411000  0.01810000  0.54809000  1.0 -0.5431369854
O  O193  1  0.28492000  0.73250000  0.70629000  1.0 -0.5462664433
O  O194  1  0.33965000  0.78705000  0.64700000  1.0 -0.5686534781
O  O195  1  0.45033000  0.76733000  0.54715000  1.0 -0.5100980976
O  O196  1  0.43381000  0.70780000  0.54809000  1.0 -0.5431369854
O  O197  1  0.00879000  0.56122000  0.70629000  1.0 -0.5462664433
O  O198  1  0.01335000  0.56595000  0.64700000  1.0 -0.5686534781
O  O199  1  0.00252000  0.68553000  0.54715000  1.0 -0.5100980976
O  O200  1  0.01810000  0.74411000  0.54809000  1.0 -0.5431369854
O  O201  1  0.26751000  0.71509000  0.79371000  1.0 -0.5431369854
O  O202  1  0.21295000  0.66035000  0.85300000  1.0 -0.5686534781
O  O203  1  0.23268000  0.54967000  0.95285000  1.0 -0.5100980976
O  O204  1  0.29220000  0.56619000  0.95191000  1.0 -0.5431369854
O  O205  1  0.43879000  0.99121000  0.79371000  1.0 -0.5431369854
O  O206  1  0.43405000  0.98665000  0.85300000  1.0 -0.5686534781
O  O207  1  0.31448000  0.99748000  0.95285000  1.0 -0.5100980976
O  O208  1  0.25589000  0.98190000  0.95191000  1.0 -0.5431369854
O  O209  1  0.21509000  0.76751000  0.79371000  1.0 -0.5431369854
O  O210  1  0.16035000  0.71295000  0.85300000  1.0 -0.5686534781
O  O211  1  0.04968000  0.73267000  0.95285000  1.0 -0.5100980976
O  O212  1  0.06619000  0.79220000  0.95191000  1.0 -0.5431369854
O  O213  1  0.49121000  0.93879000  0.79371000  1.0 -0.5431369854
O  O214  1  0.48665000  0.93405000  0.85300000  1.0 -0.5686534781
O  O215  1  0.49748000  0.81448000  0.95285000  1.0 -0.5100980976
O  O216  1  0.48190000  0.75589000  0.95191000  1.0 -0.5431369854
O  O217  1  0.23250000  0.78492000  0.70629000  1.0 -0.5462664433
O  O218  1  0.28705000  0.83965000  0.64700000  1.0 -0.5686534781
O  O219  1  0.26733000  0.95033000  0.54715000  1.0 -0.5100980976
O  O220  1  0.20780000  0.93381000  0.54809000  1.0 -0.5431369854
O  O221  1  0.06122000  0.50880000  0.70629000  1.0 -0.5431369854
O  O222  1  0.06595000  0.51335000  0.64700000  1.0 -0.5686534781
O  O223  1  0.18553000  0.50253000  0.54715000  1.0 -0.5100980976
O  O224  1  0.24411000  0.51810000  0.54809000  1.0 -0.5431369854
O  O225  1  0.78492000  0.73250000  0.70629000  1.0 -0.5462664433
O  O226  1  0.83965000  0.78705000  0.64700000  1.0 -0.5686534781
O  O227  1  0.95033000  0.76733000  0.54715000  1.0 -0.5100980976
O  O228  1  0.93381000  0.70780000  0.54809000  1.0 -0.5431369854
O  O229  1  0.50879000  0.56122000  0.70629000  1.0 -0.5462664433
O  O230  1  0.51335000  0.56595000  0.64700000  1.0 -0.5686534781
O  O231  1  0.50253000  0.68553000  0.54715000  1.0 -0.5100980976
O  O232  1  0.51810000  0.74411000  0.54809000  1.0 -0.5431369854
O  O233  1  0.76751000  0.71509000  0.79371000  1.0 -0.5431369854
O  O234  1  0.71295000  0.66035000  0.85300000  1.0 -0.5686534781
O  O235  1  0.73268000  0.54967000  0.95285000  1.0 -0.5100980976
O  O236  1  0.79220000  0.56619000  0.95191000  1.0 -0.5431369854
O  O237  1  0.93879000  0.99121000  0.79371000  1.0 -0.5462664433
O  O238  1  0.93405000  0.98665000  0.85300000  1.0 -0.5686534781
O  O239  1  0.81448000  0.99748000  0.95285000  1.0 -0.5100980976
O  O240  1  0.75589000  0.98190000  0.95191000  1.0 -0.5431369854
O  O241  1  0.71509000  0.76751000  0.79371000  1.0 -0.5431369854
O  O242  1  0.66035000  0.71295000  0.85300000  1.0 -0.5686534781
O  O243  1  0.54968000  0.73268000  0.95285000  1.0 -0.5100980976
O  O244  1  0.56619000  0.79220000  0.95191000  1.0 -0.5431369854
O  O245  1  0.99121000  0.93879000  0.79371000  1.0 -0.5462664433
O  O246  1  0.98665000  0.93405000  0.85300000  1.0 -0.5686534781
O  O247  1  0.99748000  0.81448000  0.95285000  1.0 -0.5100980976
O  O248  1  0.98190000  0.75589000  0.95191000  1.0 -0.5431369854
O  O249  1  0.73250000  0.78492000  0.70629000  1.0 -0.5431369854
O  O250  1  0.78705000  0.83965000  0.64700000  1.0 -0.5686534781
O  O251  1  0.76733000  0.95033000  0.54715000  1.0 -0.5100980976
O  O252  1  0.70780000  0.93381000  0.54809000  1.0 -0.5431369854
O  O253  1  0.56122000  0.50880000  0.70629000  1.0 -0.5431369854
O  O254  1  0.56595000  0.51335000  0.64700000  1.0 -0.5686534781
O  O255  1  0.68553000  0.50253000  0.54715000  1.0 -0.5100980976
O  O256  1  0.74411000  0.51810000  0.54809000  1.0 -0.5431369854
