# DDEC6 charges by PACMAN v1.1 (https://github.com/mtap-research/PACMAN-charge/)
data_MEGHIT_ASR_pacman
_symmetry_space_group_name_H-M   'P 1'
_cell_length_a   5.10640000
_cell_length_b   10.78000000
_cell_length_c   14.73110000
_cell_angle_alpha   95.82100000
_cell_angle_beta   99.67300000
_cell_angle_gamma   90.53200000
_symmetry_Int_Tables_number   1
_chemical_formula_structural   ErC12N2Cl2(O3F)2
_chemical_formula_sum   'Er2 C24 N4 Cl4 O12 F4'
_cell_volume   794.96546537
_cell_formula_units_Z   2
loop_
 _symmetry_equiv_pos_site_id
 _symmetry_equiv_pos_as_xyz
  1  'x, y, z'
loop_
 _atom_site_type_symbol
 _atom_site_label
 _atom_site_symmetry_multiplicity
 _atom_site_fract_x
 _atom_site_fract_y
 _atom_site_fract_z
 _atom_site_occupancy
 _atom_site_charge
Er  Er1  1  0.42650000  0.24581000  0.24827000  1.0 1.9599072106
Er  Er2  1  0.57350000  0.75419000  0.75173000  1.0 1.9599072106
C  C1  1  0.57200000  0.47100000  0.40880000  1.0 0.1901177235
C  C2  1  0.36300000  0.39200000  0.44670000  1.0 0.1986819573
C  C3  1  0.69400000  0.57400000  0.46530000  1.0 -0.2023051016
C  C4  1  0.35200000  0.09000000  0.04980000  1.0 0.1901177235
C  C5  1  0.59600000  0.03200000  0.10080000  1.0 0.2097797461
C  C6  1  0.27700000  0.05300000  0.94780000  1.0 -0.1941891991
C  C7  1  0.86700000  0.37000000  0.15130000  1.0 0.6660634644
C  C8  1  0.93900000  0.43900000  0.07500000  1.0 -0.277228751
C  C9  1  0.14100000  0.52500000  0.09090000  1.0 0.1486842401
C  C10  1  0.79600000  0.40900000  0.98360000  1.0 0.1439794071
C  C11  1  0.91000000  0.62500000  0.43400000  1.0 0.1665388786
C  C12  1  0.08600000  0.12500000  0.90100000  1.0 0.2216454663
C  C13  1  0.42800000  0.52900000  0.59120000  1.0 0.1901177235
C  C14  1  0.63700000  0.60800000  0.55330000  1.0 0.1986819573
C  C15  1  0.30600000  0.42600000  0.53470000  1.0 -0.2023051016
C  C16  1  0.64800000  0.91000000  0.95020000  1.0 0.1901177235
C  C17  1  0.40400000  0.96800000  0.89920000  1.0 0.2097797461
C  C18  1  0.72300000  0.94700000  0.05220000  1.0 -0.1941891991
C  C19  1  0.13300000  0.63000000  0.84870000  1.0 0.6660634644
C  C20  1  0.06100000  0.56100000  0.92500000  1.0 -0.277228751
C  C21  1  0.85900000  0.47500000  0.90910000  1.0 0.1486842401
C  C22  1  0.20400000  0.59100000  0.01640000  1.0 0.1439794071
C  C23  1  0.09000000  0.37500000  0.56600000  1.0 0.1665388786
C  C24  1  0.91400000  0.87500000  0.09900000  1.0 0.2216454663
N  N1  1  0.00900000  0.69200000  0.39800000  1.0 -0.1149569981
N  N2  1  0.89500000  0.16200000  0.87000000  1.0 -0.1498554543
N  N3  1  0.99100000  0.30800000  0.60200000  1.0 -0.1161575325
N  N4  1  0.10500000  0.83800000  0.13000000  1.0 -0.1498554543
Cl  Cl1  1  0.01000000  0.13490000  0.89340000  1.0 0.2899036773
Cl  Cl2  1  0.92300000  0.65530000  0.42430000  1.0 0.2899036773
Cl  Cl3  1  0.99000000  0.86510000  0.10660000  1.0 0.2899036773
Cl  Cl4  1  0.07700000  0.34470000  0.57570000  1.0 0.2899036773
O  O1  1  0.60600000  0.43630000  0.32990000  1.0 -0.5087816201
O  O2  1  0.25400000  0.30230000  0.39260000  1.0 -0.5393663205
O  O3  1  0.66600000  0.07300000  0.18200000  1.0 -0.5393663205
O  O4  1  0.23300000  0.16470000  0.09570000  1.0 -0.5217604719
O  O5  1  0.03800000  0.34180000  0.21140000  1.0 -0.6437971525
O  O6  1  0.61800000  0.34600000  0.14670000  1.0 -0.6980584495
O  O7  1  0.39400000  0.56370000  0.67010000  1.0 -0.5087816201
O  O8  1  0.74600000  0.69770000  0.60740000  1.0 -0.5393663205
O  O9  1  0.33400000  0.92700000  0.81800000  1.0 -0.5393663205
O  O10  1  0.76700000  0.83530000  0.90430000  1.0 -0.5217604719
O  O11  1  0.96200000  0.65820000  0.78860000  1.0 -0.6437971525
O  O12  1  0.38200000  0.65400000  0.85330000  1.0 -0.6980584495
F  F1  1  0.26800000  0.55750000  0.17410000  1.0 -0.1352016114
F  F2  1  0.59100000  0.32920000  0.96460000  1.0 -0.1498554543
F  F3  1  0.73200000  0.44250000  0.82590000  1.0 -0.1352016114
F  F4  1  0.40900000  0.67080000  0.03540000  1.0 -0.1498554543
