# DDEC6 charges by PACMAN v1.1 (https://github.com/mtap-research/PACMAN-charge/)
data_MEGYAC_FSR_pacman
_chemical_formula_sum              "O928 C1056 H480 N192 V96 Cu192 P8"
_cell_length_a       44.4067
_cell_length_b       44.4067
_cell_length_c       44.4067
_cell_angle_alpha    90
_cell_angle_beta     90
_cell_angle_gamma    90

_symmetry_space_group_name_H-M    "P 1"
_symmetry_Int_Tables_number       1

loop_
  _symmetry_equiv_pos_as_xyz
  'x, y, z'

loop_
  _atom_site_type_symbol
  _atom_site_label
  _atom_site_symmetry_multiplicity
  _atom_site_fract_x
  _atom_site_fract_y
  _atom_site_fract_z
  _atom_site_occupancy
 _atom_site_charge
O   O1        1.0  0.53101  0.68723  0.64370  1.0000 -0.4995068494
O   O2        1.0  0.53100  0.65132  0.60804  1.0000 -0.4995068494
C   C1        1.0  0.56616  0.69031  0.60455  1.0000 -0.009554516
C   C2        1.0  0.54065  0.67521  0.61986  1.0000 0.5784922245
C   C3        1.0  0.57784  0.71710  0.61580  1.0000 -0.1095745209
H   H1        1.0  0.56830  0.72660  0.63240  1.0000 0.1409926186
C   C4        1.0  0.60500  0.77120  0.63960  1.0000 -0.0031827994
H   H2        1.0  0.58790  0.76570  0.65130  1.0000 0.1409926186
N   N1        1.0  0.62350  0.79420  0.64410  1.0000 -0.0544270277
O   O3        1.0  0.53101  0.18723  0.14370  1.0000 -0.4995068494
O   O4        1.0  0.53100  0.15132  0.10804  1.0000 -0.4995068494
C   C5        1.0  0.56616  0.19031  0.10455  1.0000 -0.009554516
C   C6        1.0  0.54065  0.17521  0.11986  1.0000 0.5784922245
C   C7        1.0  0.57784  0.21710  0.11580  1.0000 -0.1095745209
H   H3        1.0  0.56830  0.22660  0.13240  1.0000 0.1409926186
C   C8        1.0  0.60500  0.27120  0.13960  1.0000 -0.0031827994
H   H4        1.0  0.58790  0.26570  0.15130  1.0000 0.1409926186
N   N2        1.0  0.62350  0.29420  0.14410  1.0000 -0.0544270277
O   O5        1.0  0.03101  0.68723  0.14370  1.0000 -0.4995068494
O   O6        1.0  0.03100  0.65132  0.10804  1.0000 -0.4995068494
C   C9        1.0  0.06616  0.69031  0.10455  1.0000 -0.009554516
C   C10       1.0  0.04065  0.67521  0.11986  1.0000 0.5784922245
C   C11       1.0  0.07784  0.71710  0.11580  1.0000 -0.1095745209
H   H5        1.0  0.06830  0.72660  0.13240  1.0000 0.1409926186
C   C12       1.0  0.10500  0.77120  0.13960  1.0000 -0.0031827994
H   H6        1.0  0.08790  0.76570  0.15130  1.0000 0.1409926186
N   N3        1.0  0.12350  0.79420  0.14410  1.0000 -0.0544270277
O   O7        1.0  0.03101  0.18723  0.64370  1.0000 -0.4995068494
O   O8        1.0  0.03100  0.15132  0.60804  1.0000 -0.4995068494
C   C13       1.0  0.06616  0.19031  0.60455  1.0000 -0.009554516
C   C14       1.0  0.04065  0.17521  0.61986  1.0000 0.5784922245
C   C15       1.0  0.07784  0.21710  0.61580  1.0000 -0.1095745209
H   H7        1.0  0.06830  0.22660  0.63240  1.0000 0.1409926186
C   C16       1.0  0.10500  0.27120  0.63960  1.0000 -0.0031827994
H   H8        1.0  0.08790  0.26570  0.65130  1.0000 0.1409926186
N   N4        1.0  0.12350  0.29420  0.64410  1.0000 -0.0544270277
O   O9        1.0  0.46899  0.31277  0.64370  1.0000 -0.4995068494
O   O10       1.0  0.46900  0.34868  0.60804  1.0000 -0.4995068494
C   C17       1.0  0.43384  0.30969  0.60455  1.0000 -0.009554516
C   C18       1.0  0.45935  0.32479  0.61986  1.0000 0.5784922245
C   C19       1.0  0.42216  0.28290  0.61580  1.0000 -0.1095745209
H   H9        1.0  0.43170  0.27340  0.63240  1.0000 0.1409926186
C   C20       1.0  0.39500  0.22880  0.63960  1.0000 -0.0031827994
H   H10       1.0  0.41210  0.23430  0.65130  1.0000 0.1409926186
N   N5        1.0  0.37650  0.20580  0.64410  1.0000 -0.0544270277
O   O11       1.0  0.46899  0.81277  0.14370  1.0000 -0.4995068494
O   O12       1.0  0.46900  0.84868  0.10804  1.0000 -0.4995068494
C   C21       1.0  0.43384  0.80969  0.10455  1.0000 -0.009554516
C   C22       1.0  0.45935  0.82479  0.11986  1.0000 0.5784922245
C   C23       1.0  0.42216  0.78290  0.11580  1.0000 -0.1095745209
H   H11       1.0  0.43170  0.77340  0.13240  1.0000 0.1409926186
C   C24       1.0  0.39500  0.72880  0.13960  1.0000 -0.0031827994
H   H12       1.0  0.41210  0.73430  0.15130  1.0000 0.1409926186
N   N6        1.0  0.37650  0.70580  0.14410  1.0000 -0.0544270277
O   O13       1.0  0.96899  0.31277  0.14370  1.0000 -0.4995068494
O   O14       1.0  0.96900  0.34868  0.10804  1.0000 -0.4995068494
C   C25       1.0  0.93384  0.30969  0.10455  1.0000 -0.009554516
C   C26       1.0  0.95935  0.32479  0.11986  1.0000 0.5784922245
C   C27       1.0  0.92216  0.28290  0.11580  1.0000 -0.1095745209
H   H13       1.0  0.93170  0.27340  0.13240  1.0000 0.1409926186
C   C28       1.0  0.89500  0.22880  0.13960  1.0000 -0.0031827994
H   H14       1.0  0.91210  0.23430  0.15130  1.0000 0.1409926186
N   N7        1.0  0.87650  0.20580  0.14410  1.0000 -0.0544270277
O   O15       1.0  0.96899  0.81277  0.64370  1.0000 -0.4995068494
O   O16       1.0  0.96900  0.84868  0.60804  1.0000 -0.4995068494
C   C29       1.0  0.93384  0.80969  0.60455  1.0000 -0.009554516
C   C30       1.0  0.95935  0.82479  0.61986  1.0000 0.5784922245
C   C31       1.0  0.92216  0.78290  0.61580  1.0000 -0.1095745209
H   H15       1.0  0.93170  0.77340  0.63240  1.0000 0.1409926186
C   C32       1.0  0.89500  0.72880  0.63960  1.0000 -0.0031827994
H   H16       1.0  0.91210  0.73430  0.65130  1.0000 0.1409926186
N   N8        1.0  0.87650  0.70580  0.64410  1.0000 -0.0544270277
O   O17       1.0  0.46899  0.68723  0.35630  1.0000 -0.4995068494
O   O18       1.0  0.46900  0.65132  0.39196  1.0000 -0.4995068494
C   C33       1.0  0.43384  0.69031  0.39545  1.0000 -0.009554516
C   C34       1.0  0.45935  0.67521  0.38014  1.0000 0.5784922245
C   C35       1.0  0.42216  0.71710  0.38420  1.0000 -0.1095745209
H   H17       1.0  0.43170  0.72660  0.36760  1.0000 0.1409926186
C   C36       1.0  0.39500  0.77120  0.36040  1.0000 -0.0031827994
H   H18       1.0  0.41210  0.76570  0.34870  1.0000 0.1409926186
N   N9        1.0  0.37650  0.79420  0.35590  1.0000 -0.0544270277
O   O19       1.0  0.46899  0.18723  0.85630  1.0000 -0.4995068494
O   O20       1.0  0.46900  0.15132  0.89196  1.0000 -0.4995068494
C   C37       1.0  0.43384  0.19031  0.89545  1.0000 -0.009554516
C   C38       1.0  0.45935  0.17521  0.88014  1.0000 0.5784922245
C   C39       1.0  0.42216  0.21710  0.88420  1.0000 -0.1095745209
H   H19       1.0  0.43170  0.22660  0.86760  1.0000 0.1409926186
C   C40       1.0  0.39500  0.27120  0.86040  1.0000 -0.0031827994
H   H20       1.0  0.41210  0.26570  0.84870  1.0000 0.1409926186
N   N10       1.0  0.37650  0.29420  0.85590  1.0000 -0.0544270277
O   O21       1.0  0.96899  0.68723  0.85630  1.0000 -0.4995068494
O   O22       1.0  0.96900  0.65132  0.89196  1.0000 -0.4995068494
C   C41       1.0  0.93384  0.69031  0.89545  1.0000 -0.009554516
C   C42       1.0  0.95935  0.67521  0.88014  1.0000 0.5784922245
C   C43       1.0  0.92216  0.71710  0.88420  1.0000 -0.1095745209
H   H21       1.0  0.93170  0.72660  0.86760  1.0000 0.1409926186
C   C44       1.0  0.89500  0.77120  0.86040  1.0000 -0.0031827994
H   H22       1.0  0.91210  0.76570  0.84870  1.0000 0.1409926186
N   N11       1.0  0.87650  0.79420  0.85590  1.0000 -0.0544270277
O   O23       1.0  0.96899  0.18723  0.35630  1.0000 -0.4995068494
O   O24       1.0  0.96900  0.15132  0.39196  1.0000 -0.4995068494
C   C45       1.0  0.93384  0.19031  0.39545  1.0000 -0.009554516
C   C46       1.0  0.95935  0.17521  0.38014  1.0000 0.5784922245
C   C47       1.0  0.92216  0.21710  0.38420  1.0000 -0.1095745209
H   H23       1.0  0.93170  0.22660  0.36760  1.0000 0.1409926186
C   C48       1.0  0.89500  0.27120  0.36040  1.0000 -0.0031827994
H   H24       1.0  0.91210  0.26570  0.34870  1.0000 0.1409926186
N   N12       1.0  0.87650  0.29420  0.35590  1.0000 -0.0544270277
O   O25       1.0  0.53101  0.31277  0.35630  1.0000 -0.4995068494
O   O26       1.0  0.53100  0.34868  0.39196  1.0000 -0.4995068494
C   C49       1.0  0.56616  0.30969  0.39545  1.0000 -0.009554516
C   C50       1.0  0.54065  0.32479  0.38014  1.0000 0.5784922245
C   C51       1.0  0.57784  0.28290  0.38420  1.0000 -0.1095745209
H   H25       1.0  0.56830  0.27340  0.36760  1.0000 0.1409926186
C   C52       1.0  0.60500  0.22880  0.36040  1.0000 -0.0031827994
H   H26       1.0  0.58790  0.23430  0.34870  1.0000 0.1409926186
N   N13       1.0  0.62350  0.20580  0.35590  1.0000 -0.0544270277
O   O27       1.0  0.53101  0.81277  0.85630  1.0000 -0.4995068494
O   O28       1.0  0.53100  0.84868  0.89196  1.0000 -0.4995068494
C   C53       1.0  0.56616  0.80969  0.89545  1.0000 -0.009554516
C   C54       1.0  0.54065  0.82479  0.88014  1.0000 0.5784922245
C   C55       1.0  0.57784  0.78290  0.88420  1.0000 -0.1095745209
H   H27       1.0  0.56830  0.77340  0.86760  1.0000 0.1409926186
C   C56       1.0  0.60500  0.72880  0.86040  1.0000 -0.0031827994
H   H28       1.0  0.58790  0.73430  0.84870  1.0000 0.1409926186
N   N14       1.0  0.62350  0.70580  0.85590  1.0000 -0.0544270277
O   O29       1.0  0.03101  0.31277  0.85630  1.0000 -0.4995068494
O   O30       1.0  0.03100  0.34868  0.89196  1.0000 -0.4995068494
C   C57       1.0  0.06616  0.30969  0.89545  1.0000 -0.009554516
C   C58       1.0  0.04065  0.32479  0.88014  1.0000 0.5784922245
C   C59       1.0  0.07784  0.28290  0.88420  1.0000 -0.1095745209
H   H29       1.0  0.06830  0.27340  0.86760  1.0000 0.1409926186
C   C60       1.0  0.10500  0.22880  0.86040  1.0000 -0.0031827994
H   H30       1.0  0.08790  0.23430  0.84870  1.0000 0.1409926186
N   N15       1.0  0.12350  0.20580  0.85590  1.0000 -0.0544270277
O   O31       1.0  0.03101  0.81277  0.35630  1.0000 -0.4995068494
O   O32       1.0  0.03100  0.84868  0.39196  1.0000 -0.4995068494
C   C61       1.0  0.06616  0.80969  0.39545  1.0000 -0.009554516
C   C62       1.0  0.04065  0.82479  0.38014  1.0000 0.5784922245
C   C63       1.0  0.07784  0.78290  0.38420  1.0000 -0.1095745209
H   H31       1.0  0.06830  0.77340  0.36760  1.0000 0.1409926186
C   C64       1.0  0.10500  0.72880  0.36040  1.0000 -0.0031827994
H   H32       1.0  0.08790  0.73430  0.34870  1.0000 0.1409926186
N   N16       1.0  0.12350  0.70580  0.35590  1.0000 -0.0544270277
O   O33       1.0  0.64370  0.53101  0.68723  1.0000 -0.4995068494
O   O34       1.0  0.60804  0.53100  0.65132  1.0000 -0.4995068494
C   C65       1.0  0.60455  0.56616  0.69031  1.0000 -0.009554516
C   C66       1.0  0.61986  0.54065  0.67521  1.0000 0.5784922245
C   C67       1.0  0.61580  0.57784  0.71710  1.0000 -0.1095745209
H   H33       1.0  0.63240  0.56830  0.72660  1.0000 0.1409926186
C   C68       1.0  0.63960  0.60500  0.77120  1.0000 -0.0031827994
H   H34       1.0  0.65130  0.58790  0.76570  1.0000 0.1409926186
N   N17       1.0  0.64410  0.62350  0.79420  1.0000 -0.0544270277
O   O35       1.0  0.64370  0.03101  0.18723  1.0000 -0.4995068494
O   O36       1.0  0.60804  0.03100  0.15132  1.0000 -0.4995068494
C   C69       1.0  0.60455  0.06616  0.19031  1.0000 -0.009554516
C   C70       1.0  0.61986  0.04065  0.17521  1.0000 0.5784922245
C   C71       1.0  0.61580  0.07784  0.21710  1.0000 -0.1095745209
H   H35       1.0  0.63240  0.06830  0.22660  1.0000 0.1409926186
C   C72       1.0  0.63960  0.10500  0.27120  1.0000 -0.0031827994
H   H36       1.0  0.65130  0.08790  0.26570  1.0000 0.1409926186
N   N18       1.0  0.64410  0.12350  0.29420  1.0000 -0.0544270277
O   O37       1.0  0.14370  0.53101  0.18723  1.0000 -0.4995068494
O   O38       1.0  0.10804  0.53100  0.15132  1.0000 -0.4995068494
C   C73       1.0  0.10455  0.56616  0.19031  1.0000 -0.009554516
C   C74       1.0  0.11986  0.54065  0.17521  1.0000 0.5784922245
C   C75       1.0  0.11580  0.57784  0.21710  1.0000 -0.1095745209
H   H37       1.0  0.13240  0.56830  0.22660  1.0000 0.1409926186
C   C76       1.0  0.13960  0.60500  0.27120  1.0000 -0.0031827994
H   H38       1.0  0.15130  0.58790  0.26570  1.0000 0.1409926186
N   N19       1.0  0.14410  0.62350  0.29420  1.0000 -0.0544270277
O   O39       1.0  0.14370  0.03101  0.68723  1.0000 -0.4995068494
O   O40       1.0  0.10804  0.03100  0.65132  1.0000 -0.4995068494
C   C77       1.0  0.10455  0.06616  0.69031  1.0000 -0.009554516
C   C78       1.0  0.11986  0.04065  0.67521  1.0000 0.5784922245
C   C79       1.0  0.11580  0.07784  0.71710  1.0000 -0.1095745209
H   H39       1.0  0.13240  0.06830  0.72660  1.0000 0.1409926186
C   C80       1.0  0.13960  0.10500  0.77120  1.0000 -0.0031827994
H   H40       1.0  0.15130  0.08790  0.76570  1.0000 0.1409926186
N   N20       1.0  0.14410  0.12350  0.79420  1.0000 -0.0544270277
O   O41       1.0  0.64370  0.46899  0.31277  1.0000 -0.4995068494
O   O42       1.0  0.60804  0.46900  0.34868  1.0000 -0.4995068494
C   C81       1.0  0.60455  0.43384  0.30969  1.0000 -0.009554516
C   C82       1.0  0.61986  0.45935  0.32479  1.0000 0.5784922245
C   C83       1.0  0.61580  0.42216  0.28290  1.0000 -0.1095745209
H   H41       1.0  0.63240  0.43170  0.27340  1.0000 0.1409926186
C   C84       1.0  0.63960  0.39500  0.22880  1.0000 -0.0031827994
H   H42       1.0  0.65130  0.41210  0.23430  1.0000 0.1409926186
N   N21       1.0  0.64410  0.37650  0.20580  1.0000 -0.0544270277
O   O43       1.0  0.64370  0.96899  0.81277  1.0000 -0.4995068494
O   O44       1.0  0.60804  0.96900  0.84868  1.0000 -0.4995068494
C   C85       1.0  0.60455  0.93384  0.80969  1.0000 -0.009554516
C   C86       1.0  0.61986  0.95935  0.82479  1.0000 0.5784922245
C   C87       1.0  0.61580  0.92216  0.78290  1.0000 -0.1095745209
H   H43       1.0  0.63240  0.93170  0.77340  1.0000 0.1409926186
C   C88       1.0  0.63960  0.89500  0.72880  1.0000 -0.0031827994
H   H44       1.0  0.65130  0.91210  0.73430  1.0000 0.1409926186
N   N22       1.0  0.64410  0.87650  0.70580  1.0000 -0.0544270277
O   O45       1.0  0.14370  0.46899  0.81277  1.0000 -0.4995068494
O   O46       1.0  0.10804  0.46900  0.84868  1.0000 -0.4995068494
C   C89       1.0  0.10455  0.43384  0.80969  1.0000 -0.009554516
C   C90       1.0  0.11986  0.45935  0.82479  1.0000 0.5784922245
C   C91       1.0  0.11580  0.42216  0.78290  1.0000 -0.1095745209
H   H45       1.0  0.13240  0.43170  0.77340  1.0000 0.1409926186
C   C92       1.0  0.13960  0.39500  0.72880  1.0000 -0.0031827994
H   H46       1.0  0.15130  0.41210  0.73430  1.0000 0.1409926186
N   N23       1.0  0.14410  0.37650  0.70580  1.0000 -0.0544270277
O   O47       1.0  0.14370  0.96899  0.31277  1.0000 -0.4995068494
O   O48       1.0  0.10804  0.96900  0.34868  1.0000 -0.4995068494
C   C93       1.0  0.10455  0.93384  0.30969  1.0000 -0.009554516
C   C94       1.0  0.11986  0.95935  0.32479  1.0000 0.5784922245
C   C95       1.0  0.11580  0.92216  0.28290  1.0000 -0.1095745209
H   H47       1.0  0.13240  0.93170  0.27340  1.0000 0.1409926186
C   C96       1.0  0.13960  0.89500  0.22880  1.0000 -0.0031827994
H   H48       1.0  0.15130  0.91210  0.23430  1.0000 0.1409926186
N   N24       1.0  0.14410  0.87650  0.20580  1.0000 -0.0544270277
O   O49       1.0  0.35630  0.46899  0.68723  1.0000 -0.4995068494
O   O50       1.0  0.39196  0.46900  0.65132  1.0000 -0.4995068494
C   C97       1.0  0.39545  0.43384  0.69031  1.0000 -0.009554516
C   C98       1.0  0.38014  0.45935  0.67521  1.0000 0.5784922245
C   C99       1.0  0.38420  0.42216  0.71710  1.0000 -0.1095745209
H   H49       1.0  0.36760  0.43170  0.72660  1.0000 0.1409926186
C   C100      1.0  0.36040  0.39500  0.77120  1.0000 -0.0031827994
H   H50       1.0  0.34870  0.41210  0.76570  1.0000 0.1409926186
N   N25       1.0  0.35590  0.37650  0.79420  1.0000 -0.0544270277
O   O51       1.0  0.35630  0.96899  0.18723  1.0000 -0.4995068494
O   O52       1.0  0.39196  0.96900  0.15132  1.0000 -0.4995068494
C   C101      1.0  0.39545  0.93384  0.19031  1.0000 -0.009554516
C   C102      1.0  0.38014  0.95935  0.17521  1.0000 0.5784922245
C   C103      1.0  0.38420  0.92216  0.21710  1.0000 -0.1095745209
H   H51       1.0  0.36760  0.93170  0.22660  1.0000 0.1409926186
C   C104      1.0  0.36040  0.89500  0.27120  1.0000 -0.0031827994
H   H52       1.0  0.34870  0.91210  0.26570  1.0000 0.1409926186
N   N26       1.0  0.35590  0.87650  0.29420  1.0000 -0.0544270277
O   O53       1.0  0.85630  0.46899  0.18723  1.0000 -0.4995068494
O   O54       1.0  0.89196  0.46900  0.15132  1.0000 -0.4995068494
C   C105      1.0  0.89545  0.43384  0.19031  1.0000 -0.009554516
C   C106      1.0  0.88014  0.45935  0.17521  1.0000 0.5784922245
C   C107      1.0  0.88420  0.42216  0.21710  1.0000 -0.1095745209
H   H53       1.0  0.86760  0.43170  0.22660  1.0000 0.1409926186
C   C108      1.0  0.86040  0.39500  0.27120  1.0000 -0.0031827994
H   H54       1.0  0.84870  0.41210  0.26570  1.0000 0.1409926186
N   N27       1.0  0.85590  0.37650  0.29420  1.0000 -0.0544270277
O   O55       1.0  0.85630  0.96899  0.68723  1.0000 -0.4995068494
O   O56       1.0  0.89196  0.96900  0.65132  1.0000 -0.4995068494
C   C109      1.0  0.89545  0.93384  0.69031  1.0000 -0.009554516
C   C110      1.0  0.88014  0.95935  0.67521  1.0000 0.5784922245
C   C111      1.0  0.88420  0.92216  0.71710  1.0000 -0.1095745209
H   H55       1.0  0.86760  0.93170  0.72660  1.0000 0.1409926186
C   C112      1.0  0.86040  0.89500  0.77120  1.0000 -0.0031827994
H   H56       1.0  0.84870  0.91210  0.76570  1.0000 0.1409926186
N   N28       1.0  0.85590  0.87650  0.79420  1.0000 -0.0544270277
O   O57       1.0  0.35630  0.53101  0.31277  1.0000 -0.4995068494
O   O58       1.0  0.39196  0.53100  0.34868  1.0000 -0.4995068494
C   C113      1.0  0.39545  0.56616  0.30969  1.0000 -0.009554516
C   C114      1.0  0.38014  0.54065  0.32479  1.0000 0.5784922245
C   C115      1.0  0.38420  0.57784  0.28290  1.0000 -0.1095745209
H   H57       1.0  0.36760  0.56830  0.27340  1.0000 0.1409926186
C   C116      1.0  0.36040  0.60500  0.22880  1.0000 -0.0031827994
H   H58       1.0  0.34870  0.58790  0.23430  1.0000 0.1409926186
N   N29       1.0  0.35590  0.62350  0.20580  1.0000 -0.0544270277
O   O59       1.0  0.35630  0.03101  0.81277  1.0000 -0.4995068494
O   O60       1.0  0.39196  0.03100  0.84868  1.0000 -0.4995068494
C   C117      1.0  0.39545  0.06616  0.80969  1.0000 -0.009554516
C   C118      1.0  0.38014  0.04065  0.82479  1.0000 0.5784922245
C   C119      1.0  0.38420  0.07784  0.78290  1.0000 -0.1095745209
H   H59       1.0  0.36760  0.06830  0.77340  1.0000 0.1409926186
C   C120      1.0  0.36040  0.10500  0.72880  1.0000 -0.0031827994
H   H60       1.0  0.34870  0.08790  0.73430  1.0000 0.1409926186
N   N30       1.0  0.35590  0.12350  0.70580  1.0000 -0.0544270277
O   O61       1.0  0.85630  0.53101  0.81277  1.0000 -0.4995068494
O   O62       1.0  0.89196  0.53100  0.84868  1.0000 -0.4995068494
C   C121      1.0  0.89545  0.56616  0.80969  1.0000 -0.009554516
C   C122      1.0  0.88014  0.54065  0.82479  1.0000 0.5784922245
C   C123      1.0  0.88420  0.57784  0.78290  1.0000 -0.1095745209
H   H61       1.0  0.86760  0.56830  0.77340  1.0000 0.1409926186
C   C124      1.0  0.86040  0.60500  0.72880  1.0000 -0.0031827994
H   H62       1.0  0.84870  0.58790  0.73430  1.0000 0.1409926186
N   N31       1.0  0.85590  0.62350  0.70580  1.0000 -0.0544270277
O   O63       1.0  0.85630  0.03101  0.31277  1.0000 -0.4995068494
O   O64       1.0  0.89196  0.03100  0.34868  1.0000 -0.4995068494
C   C125      1.0  0.89545  0.06616  0.30969  1.0000 -0.009554516
C   C126      1.0  0.88014  0.04065  0.32479  1.0000 0.5784922245
C   C127      1.0  0.88420  0.07784  0.28290  1.0000 -0.1095745209
H   H63       1.0  0.86760  0.06830  0.27340  1.0000 0.1409926186
C   C128      1.0  0.86040  0.10500  0.22880  1.0000 -0.0031827994
H   H64       1.0  0.84870  0.08790  0.23430  1.0000 0.1409926186
N   N32       1.0  0.85590  0.12350  0.20580  1.0000 -0.0544270277
O   O65       1.0  0.68723  0.64370  0.53101  1.0000 -0.4995068494
O   O66       1.0  0.65132  0.60804  0.53100  1.0000 -0.4995068494
C   C129      1.0  0.69031  0.60455  0.56616  1.0000 -0.009554516
C   C130      1.0  0.67521  0.61986  0.54065  1.0000 0.5784922245
C   C131      1.0  0.71710  0.61580  0.57784  1.0000 -0.1095745209
H   H65       1.0  0.72660  0.63240  0.56830  1.0000 0.1409926186
C   C132      1.0  0.77120  0.63960  0.60500  1.0000 -0.0031827994
H   H66       1.0  0.76570  0.65130  0.58790  1.0000 0.1409926186
N   N33       1.0  0.79420  0.64410  0.62350  1.0000 -0.0544270277
O   O67       1.0  0.68723  0.14370  0.03101  1.0000 -0.4995068494
O   O68       1.0  0.65132  0.10804  0.03100  1.0000 -0.4995068494
C   C133      1.0  0.69031  0.10455  0.06616  1.0000 -0.009554516
C   C134      1.0  0.67521  0.11986  0.04065  1.0000 0.5784922245
C   C135      1.0  0.71710  0.11580  0.07784  1.0000 -0.1095745209
H   H67       1.0  0.72660  0.13240  0.06830  1.0000 0.1409926186
C   C136      1.0  0.77120  0.13960  0.10500  1.0000 -0.0031827994
H   H68       1.0  0.76570  0.15130  0.08790  1.0000 0.1409926186
N   N34       1.0  0.79420  0.14410  0.12350  1.0000 -0.0544270277
O   O69       1.0  0.18723  0.64370  0.03101  1.0000 -0.4995068494
O   O70       1.0  0.15132  0.60804  0.03100  1.0000 -0.4995068494
C   C137      1.0  0.19031  0.60455  0.06616  1.0000 -0.009554516
C   C138      1.0  0.17521  0.61986  0.04065  1.0000 0.5784922245
C   C139      1.0  0.21710  0.61580  0.07784  1.0000 -0.1095745209
H   H69       1.0  0.22660  0.63240  0.06830  1.0000 0.1409926186
C   C140      1.0  0.27120  0.63960  0.10500  1.0000 -0.0031827994
H   H70       1.0  0.26570  0.65130  0.08790  1.0000 0.1409926186
N   N35       1.0  0.29420  0.64410  0.12350  1.0000 -0.0544270277
O   O71       1.0  0.18723  0.14370  0.53101  1.0000 -0.4995068494
O   O72       1.0  0.15132  0.10804  0.53100  1.0000 -0.4995068494
C   C141      1.0  0.19031  0.10455  0.56616  1.0000 -0.009554516
C   C142      1.0  0.17521  0.11986  0.54065  1.0000 0.5784922245
C   C143      1.0  0.21710  0.11580  0.57784  1.0000 -0.1095745209
H   H71       1.0  0.22660  0.13240  0.56830  1.0000 0.1409926186
C   C144      1.0  0.27120  0.13960  0.60500  1.0000 -0.0031827994
H   H72       1.0  0.26570  0.15130  0.58790  1.0000 0.1409926186
N   N36       1.0  0.29420  0.14410  0.62350  1.0000 -0.0544270277
O   O73       1.0  0.31277  0.64370  0.46899  1.0000 -0.4995068494
O   O74       1.0  0.34868  0.60804  0.46900  1.0000 -0.4995068494
C   C145      1.0  0.30969  0.60455  0.43384  1.0000 -0.009554516
C   C146      1.0  0.32479  0.61986  0.45935  1.0000 0.5784922245
C   C147      1.0  0.28290  0.61580  0.42216  1.0000 -0.1095745209
H   H73       1.0  0.27340  0.63240  0.43170  1.0000 0.1409926186
C   C148      1.0  0.22880  0.63960  0.39500  1.0000 -0.0031827994
H   H74       1.0  0.23430  0.65130  0.41210  1.0000 0.1409926186
N   N37       1.0  0.20580  0.64410  0.37650  1.0000 -0.0544270277
O   O75       1.0  0.31277  0.14370  0.96899  1.0000 -0.4995068494
O   O76       1.0  0.34868  0.10804  0.96900  1.0000 -0.4995068494
C   C149      1.0  0.30969  0.10455  0.93384  1.0000 -0.009554516
C   C150      1.0  0.32479  0.11986  0.95935  1.0000 0.5784922245
C   C151      1.0  0.28290  0.11580  0.92216  1.0000 -0.1095745209
H   H75       1.0  0.27340  0.13240  0.93170  1.0000 0.1409926186
C   C152      1.0  0.22880  0.13960  0.89500  1.0000 -0.0031827994
H   H76       1.0  0.23430  0.15130  0.91210  1.0000 0.1409926186
N   N38       1.0  0.20580  0.14410  0.87650  1.0000 -0.0544270277
O   O77       1.0  0.81277  0.64370  0.96899  1.0000 -0.4995068494
O   O78       1.0  0.84868  0.60804  0.96900  1.0000 -0.4995068494
C   C153      1.0  0.80969  0.60455  0.93384  1.0000 -0.009554516
C   C154      1.0  0.82479  0.61986  0.95935  1.0000 0.5784922245
C   C155      1.0  0.78290  0.61580  0.92216  1.0000 -0.1095745209
H   H77       1.0  0.77340  0.63240  0.93170  1.0000 0.1409926186
C   C156      1.0  0.72880  0.63960  0.89500  1.0000 -0.0031827994
H   H78       1.0  0.73430  0.65130  0.91210  1.0000 0.1409926186
N   N39       1.0  0.70580  0.64410  0.87650  1.0000 -0.0544270277
O   O79       1.0  0.81277  0.14370  0.46899  1.0000 -0.4995068494
O   O80       1.0  0.84868  0.10804  0.46900  1.0000 -0.4995068494
C   C157      1.0  0.80969  0.10455  0.43384  1.0000 -0.009554516
C   C158      1.0  0.82479  0.11986  0.45935  1.0000 0.5784922245
C   C159      1.0  0.78290  0.11580  0.42216  1.0000 -0.1095745209
H   H79       1.0  0.77340  0.13240  0.43170  1.0000 0.1409926186
C   C160      1.0  0.72880  0.13960  0.39500  1.0000 -0.0031827994
H   H80       1.0  0.73430  0.15130  0.41210  1.0000 0.1409926186
N   N40       1.0  0.70580  0.14410  0.37650  1.0000 -0.0544270277
O   O81       1.0  0.68723  0.35630  0.46899  1.0000 -0.4995068494
O   O82       1.0  0.65132  0.39196  0.46900  1.0000 -0.4995068494
C   C161      1.0  0.69031  0.39545  0.43384  1.0000 -0.009554516
C   C162      1.0  0.67521  0.38014  0.45935  1.0000 0.5784922245
C   C163      1.0  0.71710  0.38420  0.42216  1.0000 -0.1095745209
H   H81       1.0  0.72660  0.36760  0.43170  1.0000 0.1409926186
C   C164      1.0  0.77120  0.36040  0.39500  1.0000 -0.0031827994
H   H82       1.0  0.76570  0.34870  0.41210  1.0000 0.1409926186
N   N41       1.0  0.79420  0.35590  0.37650  1.0000 -0.0544270277
O   O83       1.0  0.68723  0.85630  0.96899  1.0000 -0.4995068494
O   O84       1.0  0.65132  0.89196  0.96900  1.0000 -0.4995068494
C   C165      1.0  0.69031  0.89545  0.93384  1.0000 -0.009554516
C   C166      1.0  0.67521  0.88014  0.95935  1.0000 0.5784922245
C   C167      1.0  0.71710  0.88420  0.92216  1.0000 -0.1095745209
H   H83       1.0  0.72660  0.86760  0.93170  1.0000 0.1409926186
C   C168      1.0  0.77120  0.86040  0.89500  1.0000 -0.0031827994
H   H84       1.0  0.76570  0.84870  0.91210  1.0000 0.1409926186
N   N42       1.0  0.79420  0.85590  0.87650  1.0000 -0.0544270277
O   O85       1.0  0.18723  0.35630  0.96899  1.0000 -0.4995068494
O   O86       1.0  0.15132  0.39196  0.96900  1.0000 -0.4995068494
C   C169      1.0  0.19031  0.39545  0.93384  1.0000 -0.009554516
C   C170      1.0  0.17521  0.38014  0.95935  1.0000 0.5784922245
C   C171      1.0  0.21710  0.38420  0.92216  1.0000 -0.1095745209
H   H85       1.0  0.22660  0.36760  0.93170  1.0000 0.1409926186
C   C172      1.0  0.27120  0.36040  0.89500  1.0000 -0.0031827994
H   H86       1.0  0.26570  0.34870  0.91210  1.0000 0.1409926186
N   N43       1.0  0.29420  0.35590  0.87650  1.0000 -0.0544270277
O   O87       1.0  0.18723  0.85630  0.46899  1.0000 -0.4995068494
O   O88       1.0  0.15132  0.89196  0.46900  1.0000 -0.4995068494
C   C173      1.0  0.19031  0.89545  0.43384  1.0000 -0.009554516
C   C174      1.0  0.17521  0.88014  0.45935  1.0000 0.5784922245
C   C175      1.0  0.21710  0.88420  0.42216  1.0000 -0.1095745209
H   H87       1.0  0.22660  0.86760  0.43170  1.0000 0.1409926186
C   C176      1.0  0.27120  0.86040  0.39500  1.0000 -0.0031827994
H   H88       1.0  0.26570  0.84870  0.41210  1.0000 0.1409926186
N   N44       1.0  0.29420  0.85590  0.37650  1.0000 -0.0544270277
O   O89       1.0  0.31277  0.35630  0.53101  1.0000 -0.4995068494
O   O90       1.0  0.34868  0.39196  0.53100  1.0000 -0.4995068494
C   C177      1.0  0.30969  0.39545  0.56616  1.0000 -0.009554516
C   C178      1.0  0.32479  0.38014  0.54065  1.0000 0.5784922245
C   C179      1.0  0.28290  0.38420  0.57784  1.0000 -0.1095745209
H   H89       1.0  0.27340  0.36760  0.56830  1.0000 0.1409926186
C   C180      1.0  0.22880  0.36040  0.60500  1.0000 -0.0031827994
H   H90       1.0  0.23430  0.34870  0.58790  1.0000 0.1409926186
N   N45       1.0  0.20580  0.35590  0.62350  1.0000 -0.0544270277
O   O91       1.0  0.31277  0.85630  0.03101  1.0000 -0.4995068494
O   O92       1.0  0.34868  0.89196  0.03100  1.0000 -0.4995068494
C   C181      1.0  0.30969  0.89545  0.06616  1.0000 -0.009554516
C   C182      1.0  0.32479  0.88014  0.04065  1.0000 0.5784922245
C   C183      1.0  0.28290  0.88420  0.07784  1.0000 -0.1095745209
H   H91       1.0  0.27340  0.86760  0.06830  1.0000 0.1409926186
C   C184      1.0  0.22880  0.86040  0.10500  1.0000 -0.0031827994
H   H92       1.0  0.23430  0.84870  0.08790  1.0000 0.1409926186
N   N46       1.0  0.20580  0.85590  0.12350  1.0000 -0.0544270277
O   O93       1.0  0.81277  0.35630  0.03101  1.0000 -0.4995068494
O   O94       1.0  0.84868  0.39196  0.03100  1.0000 -0.4995068494
C   C185      1.0  0.80969  0.39545  0.06616  1.0000 -0.009554516
C   C186      1.0  0.82479  0.38014  0.04065  1.0000 0.5784922245
C   C187      1.0  0.78290  0.38420  0.07784  1.0000 -0.1095745209
H   H93       1.0  0.77340  0.36760  0.06830  1.0000 0.1409926186
C   C188      1.0  0.72880  0.36040  0.10500  1.0000 -0.0031827994
H   H94       1.0  0.73430  0.34870  0.08790  1.0000 0.1409926186
N   N47       1.0  0.70580  0.35590  0.12350  1.0000 -0.0544270277
O   O95       1.0  0.81277  0.85630  0.53101  1.0000 -0.4995068494
O   O96       1.0  0.84868  0.89196  0.53100  1.0000 -0.4995068494
C   C189      1.0  0.80969  0.89545  0.56616  1.0000 -0.009554516
C   C190      1.0  0.82479  0.88014  0.54065  1.0000 0.5784922245
C   C191      1.0  0.78290  0.88420  0.57784  1.0000 -0.1095745209
H   H95       1.0  0.77340  0.86760  0.56830  1.0000 0.1409926186
C   C192      1.0  0.72880  0.86040  0.60500  1.0000 -0.0031827994
H   H96       1.0  0.73430  0.84870  0.58790  1.0000 0.1409926186
N   N48       1.0  0.70580  0.85590  0.62350  1.0000 -0.0544270277
O   O97       1.0  0.68723  0.53101  0.35630  1.0000 -0.4995068494
O   O98       1.0  0.65132  0.53100  0.39196  1.0000 -0.4995068494
C   C193      1.0  0.69031  0.56616  0.39545  1.0000 -0.009554516
C   C194      1.0  0.67521  0.54065  0.38014  1.0000 0.5784922245
C   C195      1.0  0.71710  0.57784  0.38420  1.0000 -0.1095745209
H   H97       1.0  0.72660  0.56830  0.36760  1.0000 0.1409926186
C   C196      1.0  0.77120  0.60500  0.36040  1.0000 -0.0031827994
H   H98       1.0  0.76570  0.58790  0.34870  1.0000 0.1409926186
N   N49       1.0  0.79420  0.62350  0.35590  1.0000 -0.0544270277
O   O99       1.0  0.68723  0.03101  0.85630  1.0000 -0.4995068494
O   O100      1.0  0.65132  0.03100  0.89196  1.0000 -0.4995068494
C   C197      1.0  0.69031  0.06616  0.89545  1.0000 -0.009554516
C   C198      1.0  0.67521  0.04065  0.88014  1.0000 0.5784922245
C   C199      1.0  0.71710  0.07784  0.88420  1.0000 -0.1095745209
H   H99       1.0  0.72660  0.06830  0.86760  1.0000 0.1409926186
C   C200      1.0  0.77120  0.10500  0.86040  1.0000 -0.0031827994
H   H100      1.0  0.76570  0.08790  0.84870  1.0000 0.1409926186
N   N50       1.0  0.79420  0.12350  0.85590  1.0000 -0.0544270277
O   O101      1.0  0.18723  0.53101  0.85630  1.0000 -0.4995068494
O   O102      1.0  0.15132  0.53100  0.89196  1.0000 -0.4995068494
C   C201      1.0  0.19031  0.56616  0.89545  1.0000 -0.009554516
C   C202      1.0  0.17521  0.54065  0.88014  1.0000 0.5784922245
C   C203      1.0  0.21710  0.57784  0.88420  1.0000 -0.1095745209
H   H101      1.0  0.22660  0.56830  0.86760  1.0000 0.1409926186
C   C204      1.0  0.27120  0.60500  0.86040  1.0000 -0.0031827994
H   H102      1.0  0.26570  0.58790  0.84870  1.0000 0.1409926186
N   N51       1.0  0.29420  0.62350  0.85590  1.0000 -0.0544270277
O   O103      1.0  0.18723  0.03101  0.35630  1.0000 -0.4995068494
O   O104      1.0  0.15132  0.03100  0.39196  1.0000 -0.4995068494
C   C205      1.0  0.19031  0.06616  0.39545  1.0000 -0.009554516
C   C206      1.0  0.17521  0.04065  0.38014  1.0000 0.5784922245
C   C207      1.0  0.21710  0.07784  0.38420  1.0000 -0.1095745209
H   H103      1.0  0.22660  0.06830  0.36760  1.0000 0.1409926186
C   C208      1.0  0.27120  0.10500  0.36040  1.0000 -0.0031827994
H   H104      1.0  0.26570  0.08790  0.34870  1.0000 0.1409926186
N   N52       1.0  0.29420  0.12350  0.35590  1.0000 -0.0544270277
O   O105      1.0  0.31277  0.46899  0.35630  1.0000 -0.4995068494
O   O106      1.0  0.34868  0.46900  0.39196  1.0000 -0.4995068494
C   C209      1.0  0.30969  0.43384  0.39545  1.0000 -0.009554516
C   C210      1.0  0.32479  0.45935  0.38014  1.0000 0.5784922245
C   C211      1.0  0.28290  0.42216  0.38420  1.0000 -0.1095745209
H   H105      1.0  0.27340  0.43170  0.36760  1.0000 0.1409926186
C   C212      1.0  0.22880  0.39500  0.36040  1.0000 -0.0031827994
H   H106      1.0  0.23430  0.41210  0.34870  1.0000 0.1409926186
N   N53       1.0  0.20580  0.37650  0.35590  1.0000 -0.0544270277
O   O107      1.0  0.31277  0.96899  0.85630  1.0000 -0.4995068494
O   O108      1.0  0.34868  0.96900  0.89196  1.0000 -0.4995068494
C   C213      1.0  0.30969  0.93384  0.89545  1.0000 -0.009554516
C   C214      1.0  0.32479  0.95935  0.88014  1.0000 0.5784922245
C   C215      1.0  0.28290  0.92216  0.88420  1.0000 -0.1095745209
H   H107      1.0  0.27340  0.93170  0.86760  1.0000 0.1409926186
C   C216      1.0  0.22880  0.89500  0.86040  1.0000 -0.0031827994
H   H108      1.0  0.23430  0.91210  0.84870  1.0000 0.1409926186
N   N54       1.0  0.20580  0.87650  0.85590  1.0000 -0.0544270277
O   O109      1.0  0.81277  0.46899  0.85630  1.0000 -0.4995068494
O   O110      1.0  0.84868  0.46900  0.89196  1.0000 -0.4995068494
C   C217      1.0  0.80969  0.43384  0.89545  1.0000 -0.009554516
C   C218      1.0  0.82479  0.45935  0.88014  1.0000 0.5784922245
C   C219      1.0  0.78290  0.42216  0.88420  1.0000 -0.1095745209
H   H109      1.0  0.77340  0.43170  0.86760  1.0000 0.1409926186
C   C220      1.0  0.72880  0.39500  0.86040  1.0000 -0.0031827994
H   H110      1.0  0.73430  0.41210  0.84870  1.0000 0.1409926186
N   N55       1.0  0.70580  0.37650  0.85590  1.0000 -0.0544270277
O   O111      1.0  0.81277  0.96899  0.35630  1.0000 -0.4995068494
O   O112      1.0  0.84868  0.96900  0.39196  1.0000 -0.4995068494
C   C221      1.0  0.80969  0.93384  0.39545  1.0000 -0.009554516
C   C222      1.0  0.82479  0.95935  0.38014  1.0000 0.5784922245
C   C223      1.0  0.78290  0.92216  0.38420  1.0000 -0.1095745209
H   H111      1.0  0.77340  0.93170  0.36760  1.0000 0.1409926186
C   C224      1.0  0.72880  0.89500  0.36040  1.0000 -0.0031827994
H   H112      1.0  0.73430  0.91210  0.34870  1.0000 0.1409926186
N   N56       1.0  0.70580  0.87650  0.35590  1.0000 -0.0544270277
O   O113      1.0  0.68723  0.46899  0.64370  1.0000 -0.4995068494
O   O114      1.0  0.65132  0.46900  0.60804  1.0000 -0.4995068494
C   C225      1.0  0.69031  0.43384  0.60455  1.0000 -0.009554516
C   C226      1.0  0.67521  0.45935  0.61986  1.0000 0.5784922245
C   C227      1.0  0.71710  0.42216  0.61580  1.0000 -0.1095745209
H   H113      1.0  0.72660  0.43170  0.63240  1.0000 0.1409926186
C   C228      1.0  0.77120  0.39500  0.63960  1.0000 -0.0031827994
H   H114      1.0  0.76570  0.41210  0.65130  1.0000 0.1409926186
N   N57       1.0  0.79420  0.37650  0.64410  1.0000 -0.0544270277
O   O115      1.0  0.68723  0.96899  0.14370  1.0000 -0.4995068494
O   O116      1.0  0.65132  0.96900  0.10804  1.0000 -0.4995068494
C   C229      1.0  0.69031  0.93384  0.10455  1.0000 -0.009554516
C   C230      1.0  0.67521  0.95935  0.11986  1.0000 0.5784922245
C   C231      1.0  0.71710  0.92216  0.11580  1.0000 -0.1095745209
H   H115      1.0  0.72660  0.93170  0.13240  1.0000 0.1409926186
C   C232      1.0  0.77120  0.89500  0.13960  1.0000 -0.0031827994
H   H116      1.0  0.76570  0.91210  0.15130  1.0000 0.1409926186
N   N58       1.0  0.79420  0.87650  0.14410  1.0000 -0.0544270277
O   O117      1.0  0.18723  0.46899  0.14370  1.0000 -0.4995068494
O   O118      1.0  0.15132  0.46900  0.10804  1.0000 -0.4995068494
C   C233      1.0  0.19031  0.43384  0.10455  1.0000 -0.009554516
C   C234      1.0  0.17521  0.45935  0.11986  1.0000 0.5784922245
C   C235      1.0  0.21710  0.42216  0.11580  1.0000 -0.1095745209
H   H117      1.0  0.22660  0.43170  0.13240  1.0000 0.1409926186
C   C236      1.0  0.27120  0.39500  0.13960  1.0000 -0.0031827994
H   H118      1.0  0.26570  0.41210  0.15130  1.0000 0.1409926186
N   N59       1.0  0.29420  0.37650  0.14410  1.0000 -0.0544270277
O   O119      1.0  0.18723  0.96899  0.64370  1.0000 -0.4995068494
O   O120      1.0  0.15132  0.96900  0.60804  1.0000 -0.4995068494
C   C237      1.0  0.19031  0.93384  0.60455  1.0000 -0.009554516
C   C238      1.0  0.17521  0.95935  0.61986  1.0000 0.5784922245
C   C239      1.0  0.21710  0.92216  0.61580  1.0000 -0.1095745209
H   H119      1.0  0.22660  0.93170  0.63240  1.0000 0.1409926186
C   C240      1.0  0.27120  0.89500  0.63960  1.0000 -0.0031827994
H   H120      1.0  0.26570  0.91210  0.65130  1.0000 0.1409926186
N   N60       1.0  0.29420  0.87650  0.64410  1.0000 -0.0544270277
O   O121      1.0  0.31277  0.53101  0.64370  1.0000 -0.4995068494
O   O122      1.0  0.34868  0.53100  0.60804  1.0000 -0.4995068494
C   C241      1.0  0.30969  0.56616  0.60455  1.0000 -0.009554516
C   C242      1.0  0.32479  0.54065  0.61986  1.0000 0.5784922245
C   C243      1.0  0.28290  0.57784  0.61580  1.0000 -0.1095745209
H   H121      1.0  0.27340  0.56830  0.63240  1.0000 0.1409926186
C   C244      1.0  0.22880  0.60500  0.63960  1.0000 -0.0031827994
H   H122      1.0  0.23430  0.58790  0.65130  1.0000 0.1409926186
N   N61       1.0  0.20580  0.62350  0.64410  1.0000 -0.0544270277
O   O123      1.0  0.31277  0.03101  0.14370  1.0000 -0.4995068494
O   O124      1.0  0.34868  0.03100  0.10804  1.0000 -0.4995068494
C   C245      1.0  0.30969  0.06616  0.10455  1.0000 -0.009554516
C   C246      1.0  0.32479  0.04065  0.11986  1.0000 0.5784922245
C   C247      1.0  0.28290  0.07784  0.11580  1.0000 -0.1095745209
H   H123      1.0  0.27340  0.06830  0.13240  1.0000 0.1409926186
C   C248      1.0  0.22880  0.10500  0.13960  1.0000 -0.0031827994
H   H124      1.0  0.23430  0.08790  0.15130  1.0000 0.1409926186
N   N62       1.0  0.20580  0.12350  0.14410  1.0000 -0.0544270277
O   O125      1.0  0.81277  0.53101  0.14370  1.0000 -0.4995068494
O   O126      1.0  0.84868  0.53100  0.10804  1.0000 -0.4995068494
C   C249      1.0  0.80969  0.56616  0.10455  1.0000 -0.009554516
C   C250      1.0  0.82479  0.54065  0.11986  1.0000 0.5784922245
C   C251      1.0  0.78290  0.57784  0.11580  1.0000 -0.1095745209
H   H125      1.0  0.77340  0.56830  0.13240  1.0000 0.1409926186
C   C252      1.0  0.72880  0.60500  0.13960  1.0000 -0.0031827994
H   H126      1.0  0.73430  0.58790  0.15130  1.0000 0.1409926186
N   N63       1.0  0.70580  0.62350  0.14410  1.0000 -0.0544270277
O   O127      1.0  0.81277  0.03101  0.64370  1.0000 -0.4995068494
O   O128      1.0  0.84868  0.03100  0.60804  1.0000 -0.4995068494
C   C253      1.0  0.80969  0.06616  0.60455  1.0000 -0.009554516
C   C254      1.0  0.82479  0.04065  0.61986  1.0000 0.5784922245
C   C255      1.0  0.78290  0.07784  0.61580  1.0000 -0.1095745209
H   H127      1.0  0.77340  0.06830  0.63240  1.0000 0.1409926186
C   C256      1.0  0.72880  0.10500  0.63960  1.0000 -0.0031827994
H   H128      1.0  0.73430  0.08790  0.65130  1.0000 0.1409926186
N   N64       1.0  0.70580  0.12350  0.64410  1.0000 -0.0544270277
O   O129      1.0  0.53101  0.64370  0.31277  1.0000 -0.4995068494
O   O130      1.0  0.53100  0.60804  0.34868  1.0000 -0.4995068494
C   C257      1.0  0.56616  0.60455  0.30969  1.0000 -0.009554516
C   C258      1.0  0.54065  0.61986  0.32479  1.0000 0.5784922245
C   C259      1.0  0.57784  0.61580  0.28290  1.0000 -0.1095745209
H   H129      1.0  0.56830  0.63240  0.27340  1.0000 0.1409926186
C   C260      1.0  0.60500  0.63960  0.22880  1.0000 -0.0031827994
H   H130      1.0  0.58790  0.65130  0.23430  1.0000 0.1409926186
N   N65       1.0  0.62350  0.64410  0.20580  1.0000 -0.0544270277
O   O131      1.0  0.53101  0.14370  0.81277  1.0000 -0.4995068494
O   O132      1.0  0.53100  0.10804  0.84868  1.0000 -0.4995068494
C   C261      1.0  0.56616  0.10455  0.80969  1.0000 -0.009554516
C   C262      1.0  0.54065  0.11986  0.82479  1.0000 0.5784922245
C   C263      1.0  0.57784  0.11580  0.78290  1.0000 -0.1095745209
H   H131      1.0  0.56830  0.13240  0.77340  1.0000 0.1409926186
C   C264      1.0  0.60500  0.13960  0.72880  1.0000 -0.0031827994
H   H132      1.0  0.58790  0.15130  0.73430  1.0000 0.1409926186
N   N66       1.0  0.62350  0.14410  0.70580  1.0000 -0.0544270277
O   O133      1.0  0.03101  0.64370  0.81277  1.0000 -0.4995068494
O   O134      1.0  0.03100  0.60804  0.84868  1.0000 -0.4995068494
C   C265      1.0  0.06616  0.60455  0.80969  1.0000 -0.009554516
C   C266      1.0  0.04065  0.61986  0.82479  1.0000 0.5784922245
C   C267      1.0  0.07784  0.61580  0.78290  1.0000 -0.1095745209
H   H133      1.0  0.06830  0.63240  0.77340  1.0000 0.1409926186
C   C268      1.0  0.10500  0.63960  0.72880  1.0000 -0.0031827994
H   H134      1.0  0.08790  0.65130  0.73430  1.0000 0.1409926186
N   N67       1.0  0.12350  0.64410  0.70580  1.0000 -0.0544270277
O   O135      1.0  0.03101  0.14370  0.31277  1.0000 -0.4995068494
O   O136      1.0  0.03100  0.10804  0.34868  1.0000 -0.4995068494
C   C269      1.0  0.06616  0.10455  0.30969  1.0000 -0.009554516
C   C270      1.0  0.04065  0.11986  0.32479  1.0000 0.5784922245
C   C271      1.0  0.07784  0.11580  0.28290  1.0000 -0.1095745209
H   H135      1.0  0.06830  0.13240  0.27340  1.0000 0.1409926186
C   C272      1.0  0.10500  0.13960  0.22880  1.0000 -0.0031827994
H   H136      1.0  0.08790  0.15130  0.23430  1.0000 0.1409926186
N   N68       1.0  0.12350  0.14410  0.20580  1.0000 -0.0544270277
O   O137      1.0  0.46899  0.64370  0.68723  1.0000 -0.4995068494
O   O138      1.0  0.46900  0.60804  0.65132  1.0000 -0.4995068494
C   C273      1.0  0.43384  0.60455  0.69031  1.0000 -0.009554516
C   C274      1.0  0.45935  0.61986  0.67521  1.0000 0.5784922245
C   C275      1.0  0.42216  0.61580  0.71710  1.0000 -0.1095745209
H   H137      1.0  0.43170  0.63240  0.72660  1.0000 0.1409926186
C   C276      1.0  0.39500  0.63960  0.77120  1.0000 -0.0031827994
H   H138      1.0  0.41210  0.65130  0.76570  1.0000 0.1409926186
N   N69       1.0  0.37650  0.64410  0.79420  1.0000 -0.0544270277
O   O139      1.0  0.46899  0.14370  0.18723  1.0000 -0.4995068494
O   O140      1.0  0.46900  0.10804  0.15132  1.0000 -0.4995068494
C   C277      1.0  0.43384  0.10455  0.19031  1.0000 -0.009554516
C   C278      1.0  0.45935  0.11986  0.17521  1.0000 0.5784922245
C   C279      1.0  0.42216  0.11580  0.21710  1.0000 -0.1095745209
H   H139      1.0  0.43170  0.13240  0.22660  1.0000 0.1409926186
C   C280      1.0  0.39500  0.13960  0.27120  1.0000 -0.0031827994
H   H140      1.0  0.41210  0.15130  0.26570  1.0000 0.1409926186
N   N70       1.0  0.37650  0.14410  0.29420  1.0000 -0.0544270277
O   O141      1.0  0.96899  0.64370  0.18723  1.0000 -0.4995068494
O   O142      1.0  0.96900  0.60804  0.15132  1.0000 -0.4995068494
C   C281      1.0  0.93384  0.60455  0.19031  1.0000 -0.009554516
C   C282      1.0  0.95935  0.61986  0.17521  1.0000 0.5784922245
C   C283      1.0  0.92216  0.61580  0.21710  1.0000 -0.1095745209
H   H141      1.0  0.93170  0.63240  0.22660  1.0000 0.1409926186
C   C284      1.0  0.89500  0.63960  0.27120  1.0000 -0.0031827994
H   H142      1.0  0.91210  0.65130  0.26570  1.0000 0.1409926186
N   N71       1.0  0.87650  0.64410  0.29420  1.0000 -0.0544270277
O   O143      1.0  0.96899  0.14370  0.68723  1.0000 -0.4995068494
O   O144      1.0  0.96900  0.10804  0.65132  1.0000 -0.4995068494
C   C285      1.0  0.93384  0.10455  0.69031  1.0000 -0.009554516
C   C286      1.0  0.95935  0.11986  0.67521  1.0000 0.5784922245
C   C287      1.0  0.92216  0.11580  0.71710  1.0000 -0.1095745209
H   H143      1.0  0.93170  0.13240  0.72660  1.0000 0.1409926186
C   C288      1.0  0.89500  0.13960  0.77120  1.0000 -0.0031827994
H   H144      1.0  0.91210  0.15130  0.76570  1.0000 0.1409926186
N   N72       1.0  0.87650  0.14410  0.79420  1.0000 -0.0544270277
O   O145      1.0  0.46899  0.35630  0.31277  1.0000 -0.4995068494
O   O146      1.0  0.46900  0.39196  0.34868  1.0000 -0.4995068494
C   C289      1.0  0.43384  0.39545  0.30969  1.0000 -0.009554516
C   C290      1.0  0.45935  0.38014  0.32479  1.0000 0.5784922245
C   C291      1.0  0.42216  0.38420  0.28290  1.0000 -0.1095745209
H   H145      1.0  0.43170  0.36760  0.27340  1.0000 0.1409926186
C   C292      1.0  0.39500  0.36040  0.22880  1.0000 -0.0031827994
H   H146      1.0  0.41210  0.34870  0.23430  1.0000 0.1409926186
N   N73       1.0  0.37650  0.35590  0.20580  1.0000 -0.0544270277
O   O147      1.0  0.46899  0.85630  0.81277  1.0000 -0.4995068494
O   O148      1.0  0.46900  0.89196  0.84868  1.0000 -0.4995068494
C   C293      1.0  0.43384  0.89545  0.80969  1.0000 -0.009554516
C   C294      1.0  0.45935  0.88014  0.82479  1.0000 0.5784922245
C   C295      1.0  0.42216  0.88420  0.78290  1.0000 -0.1095745209
H   H147      1.0  0.43170  0.86760  0.77340  1.0000 0.1409926186
C   C296      1.0  0.39500  0.86040  0.72880  1.0000 -0.0031827994
H   H148      1.0  0.41210  0.84870  0.73430  1.0000 0.1409926186
N   N74       1.0  0.37650  0.85590  0.70580  1.0000 -0.0544270277
O   O149      1.0  0.96899  0.35630  0.81277  1.0000 -0.4995068494
O   O150      1.0  0.96900  0.39196  0.84868  1.0000 -0.4995068494
C   C297      1.0  0.93384  0.39545  0.80969  1.0000 -0.009554516
C   C298      1.0  0.95935  0.38014  0.82479  1.0000 0.5784922245
C   C299      1.0  0.92216  0.38420  0.78290  1.0000 -0.1095745209
H   H149      1.0  0.93170  0.36760  0.77340  1.0000 0.1409926186
C   C300      1.0  0.89500  0.36040  0.72880  1.0000 -0.0031827994
H   H150      1.0  0.91210  0.34870  0.73430  1.0000 0.1409926186
N   N75       1.0  0.87650  0.35590  0.70580  1.0000 -0.0544270277
O   O151      1.0  0.96899  0.85630  0.31277  1.0000 -0.4995068494
O   O152      1.0  0.96900  0.89196  0.34868  1.0000 -0.4995068494
C   C301      1.0  0.93384  0.89545  0.30969  1.0000 -0.009554516
C   C302      1.0  0.95935  0.88014  0.32479  1.0000 0.5784922245
C   C303      1.0  0.92216  0.88420  0.28290  1.0000 -0.1095745209
H   H151      1.0  0.93170  0.86760  0.27340  1.0000 0.1409926186
C   C304      1.0  0.89500  0.86040  0.22880  1.0000 -0.0031827994
H   H152      1.0  0.91210  0.84870  0.23430  1.0000 0.1409926186
N   N76       1.0  0.87650  0.85590  0.20580  1.0000 -0.0544270277
O   O153      1.0  0.53101  0.35630  0.68723  1.0000 -0.4995068494
O   O154      1.0  0.53100  0.39196  0.65132  1.0000 -0.4995068494
C   C305      1.0  0.56616  0.39545  0.69031  1.0000 -0.009554516
C   C306      1.0  0.54065  0.38014  0.67521  1.0000 0.5784922245
C   C307      1.0  0.57784  0.38420  0.71710  1.0000 -0.1095745209
H   H153      1.0  0.56830  0.36760  0.72660  1.0000 0.1409926186
C   C308      1.0  0.60500  0.36040  0.77120  1.0000 -0.0031827994
H   H154      1.0  0.58790  0.34870  0.76570  1.0000 0.1409926186
N   N77       1.0  0.62350  0.35590  0.79420  1.0000 -0.0544270277
O   O155      1.0  0.53101  0.85630  0.18723  1.0000 -0.4995068494
O   O156      1.0  0.53100  0.89196  0.15132  1.0000 -0.4995068494
C   C309      1.0  0.56616  0.89545  0.19031  1.0000 -0.009554516
C   C310      1.0  0.54065  0.88014  0.17521  1.0000 0.5784922245
C   C311      1.0  0.57784  0.88420  0.21710  1.0000 -0.1095745209
H   H155      1.0  0.56830  0.86760  0.22660  1.0000 0.1409926186
C   C312      1.0  0.60500  0.86040  0.27120  1.0000 -0.0031827994
H   H156      1.0  0.58790  0.84870  0.26570  1.0000 0.1409926186
N   N78       1.0  0.62350  0.85590  0.29420  1.0000 -0.0544270277
O   O157      1.0  0.03101  0.35630  0.18723  1.0000 -0.4995068494
O   O158      1.0  0.03100  0.39196  0.15132  1.0000 -0.4995068494
C   C313      1.0  0.06616  0.39545  0.19031  1.0000 -0.009554516
C   C314      1.0  0.04065  0.38014  0.17521  1.0000 0.5784922245
C   C315      1.0  0.07784  0.38420  0.21710  1.0000 -0.1095745209
H   H157      1.0  0.06830  0.36760  0.22660  1.0000 0.1409926186
C   C316      1.0  0.10500  0.36040  0.27120  1.0000 -0.0031827994
H   H158      1.0  0.08790  0.34870  0.26570  1.0000 0.1409926186
N   N79       1.0  0.12350  0.35590  0.29420  1.0000 -0.0544270277
O   O159      1.0  0.03101  0.85630  0.68723  1.0000 -0.4995068494
O   O160      1.0  0.03100  0.89196  0.65132  1.0000 -0.4995068494
C   C317      1.0  0.06616  0.89545  0.69031  1.0000 -0.009554516
C   C318      1.0  0.04065  0.88014  0.67521  1.0000 0.5784922245
C   C319      1.0  0.07784  0.88420  0.71710  1.0000 -0.1095745209
H   H159      1.0  0.06830  0.86760  0.72660  1.0000 0.1409926186
C   C320      1.0  0.10500  0.86040  0.77120  1.0000 -0.0031827994
H   H160      1.0  0.08790  0.84870  0.76570  1.0000 0.1409926186
N   N80       1.0  0.12350  0.85590  0.79420  1.0000 -0.0544270277
O   O161      1.0  0.64370  0.68723  0.46899  1.0000 -0.4995068494
O   O162      1.0  0.60804  0.65132  0.46900  1.0000 -0.4995068494
C   C321      1.0  0.60455  0.69031  0.43384  1.0000 -0.009554516
C   C322      1.0  0.61986  0.67521  0.45935  1.0000 0.5784922245
C   C323      1.0  0.61580  0.71710  0.42216  1.0000 -0.1095745209
H   H161      1.0  0.63240  0.72660  0.43170  1.0000 0.1409926186
C   C324      1.0  0.63960  0.77120  0.39500  1.0000 -0.0031827994
H   H162      1.0  0.65130  0.76570  0.41210  1.0000 0.1409926186
N   N81       1.0  0.64410  0.79420  0.37650  1.0000 -0.0544270277
O   O163      1.0  0.64370  0.18723  0.96899  1.0000 -0.4995068494
O   O164      1.0  0.60804  0.15132  0.96900  1.0000 -0.4995068494
C   C325      1.0  0.60455  0.19031  0.93384  1.0000 -0.009554516
C   C326      1.0  0.61986  0.17521  0.95935  1.0000 0.5784922245
C   C327      1.0  0.61580  0.21710  0.92216  1.0000 -0.1095745209
H   H163      1.0  0.63240  0.22660  0.93170  1.0000 0.1409926186
C   C328      1.0  0.63960  0.27120  0.89500  1.0000 -0.0031827994
H   H164      1.0  0.65130  0.26570  0.91210  1.0000 0.1409926186
N   N82       1.0  0.64410  0.29420  0.87650  1.0000 -0.0544270277
O   O165      1.0  0.14370  0.68723  0.96899  1.0000 -0.4995068494
O   O166      1.0  0.10804  0.65132  0.96900  1.0000 -0.4995068494
C   C329      1.0  0.10455  0.69031  0.93384  1.0000 -0.009554516
C   C330      1.0  0.11986  0.67521  0.95935  1.0000 0.5784922245
C   C331      1.0  0.11580  0.71710  0.92216  1.0000 -0.1095745209
H   H165      1.0  0.13240  0.72660  0.93170  1.0000 0.1409926186
C   C332      1.0  0.13960  0.77120  0.89500  1.0000 -0.0031827994
H   H166      1.0  0.15130  0.76570  0.91210  1.0000 0.1409926186
N   N83       1.0  0.14410  0.79420  0.87650  1.0000 -0.0544270277
O   O167      1.0  0.14370  0.18723  0.46899  1.0000 -0.4995068494
O   O168      1.0  0.10804  0.15132  0.46900  1.0000 -0.4995068494
C   C333      1.0  0.10455  0.19031  0.43384  1.0000 -0.009554516
C   C334      1.0  0.11986  0.17521  0.45935  1.0000 0.5784922245
C   C335      1.0  0.11580  0.21710  0.42216  1.0000 -0.1095745209
H   H167      1.0  0.13240  0.22660  0.43170  1.0000 0.1409926186
C   C336      1.0  0.13960  0.27120  0.39500  1.0000 -0.0031827994
H   H168      1.0  0.15130  0.26570  0.41210  1.0000 0.1409926186
N   N84       1.0  0.14410  0.29420  0.37650  1.0000 -0.0544270277
O   O169      1.0  0.64370  0.31277  0.53101  1.0000 -0.4995068494
O   O170      1.0  0.60804  0.34868  0.53100  1.0000 -0.4995068494
C   C337      1.0  0.60455  0.30969  0.56616  1.0000 -0.009554516
C   C338      1.0  0.61986  0.32479  0.54065  1.0000 0.5784922245
C   C339      1.0  0.61580  0.28290  0.57784  1.0000 -0.1095745209
H   H169      1.0  0.63240  0.27340  0.56830  1.0000 0.1409926186
C   C340      1.0  0.63960  0.22880  0.60500  1.0000 -0.0031827994
H   H170      1.0  0.65130  0.23430  0.58790  1.0000 0.1409926186
N   N85       1.0  0.64410  0.20580  0.62350  1.0000 -0.0544270277
O   O171      1.0  0.64370  0.81277  0.03101  1.0000 -0.4995068494
O   O172      1.0  0.60804  0.84868  0.03100  1.0000 -0.4995068494
C   C341      1.0  0.60455  0.80969  0.06616  1.0000 -0.009554516
C   C342      1.0  0.61986  0.82479  0.04065  1.0000 0.5784922245
C   C343      1.0  0.61580  0.78290  0.07784  1.0000 -0.1095745209
H   H171      1.0  0.63240  0.77340  0.06830  1.0000 0.1409926186
C   C344      1.0  0.63960  0.72880  0.10500  1.0000 -0.0031827994
H   H172      1.0  0.65130  0.73430  0.08790  1.0000 0.1409926186
N   N86       1.0  0.64410  0.70580  0.12350  1.0000 -0.0544270277
O   O173      1.0  0.14370  0.31277  0.03101  1.0000 -0.4995068494
O   O174      1.0  0.10804  0.34868  0.03100  1.0000 -0.4995068494
C   C345      1.0  0.10455  0.30969  0.06616  1.0000 -0.009554516
C   C346      1.0  0.11986  0.32479  0.04065  1.0000 0.5784922245
C   C347      1.0  0.11580  0.28290  0.07784  1.0000 -0.1095745209
H   H173      1.0  0.13240  0.27340  0.06830  1.0000 0.1409926186
C   C348      1.0  0.13960  0.22880  0.10500  1.0000 -0.0031827994
H   H174      1.0  0.15130  0.23430  0.08790  1.0000 0.1409926186
N   N87       1.0  0.14410  0.20580  0.12350  1.0000 -0.0544270277
O   O175      1.0  0.14370  0.81277  0.53101  1.0000 -0.4995068494
O   O176      1.0  0.10804  0.84868  0.53100  1.0000 -0.4995068494
C   C349      1.0  0.10455  0.80969  0.56616  1.0000 -0.009554516
C   C350      1.0  0.11986  0.82479  0.54065  1.0000 0.5784922245
C   C351      1.0  0.11580  0.78290  0.57784  1.0000 -0.1095745209
H   H175      1.0  0.13240  0.77340  0.56830  1.0000 0.1409926186
C   C352      1.0  0.13960  0.72880  0.60500  1.0000 -0.0031827994
H   H176      1.0  0.15130  0.73430  0.58790  1.0000 0.1409926186
N   N88       1.0  0.14410  0.70580  0.62350  1.0000 -0.0544270277
O   O177      1.0  0.35630  0.68723  0.53101  1.0000 -0.4995068494
O   O178      1.0  0.39196  0.65132  0.53100  1.0000 -0.4995068494
C   C353      1.0  0.39545  0.69031  0.56616  1.0000 -0.009554516
C   C354      1.0  0.38014  0.67521  0.54065  1.0000 0.5784922245
C   C355      1.0  0.38420  0.71710  0.57784  1.0000 -0.1095745209
H   H177      1.0  0.36760  0.72660  0.56830  1.0000 0.1409926186
C   C356      1.0  0.36040  0.77120  0.60500  1.0000 -0.0031827994
H   H178      1.0  0.34870  0.76570  0.58790  1.0000 0.1409926186
N   N89       1.0  0.35590  0.79420  0.62350  1.0000 -0.0544270277
O   O179      1.0  0.35630  0.18723  0.03101  1.0000 -0.4995068494
O   O180      1.0  0.39196  0.15132  0.03100  1.0000 -0.4995068494
C   C357      1.0  0.39545  0.19031  0.06616  1.0000 -0.009554516
C   C358      1.0  0.38014  0.17521  0.04065  1.0000 0.5784922245
C   C359      1.0  0.38420  0.21710  0.07784  1.0000 -0.1095745209
H   H179      1.0  0.36760  0.22660  0.06830  1.0000 0.1409926186
C   C360      1.0  0.36040  0.27120  0.10500  1.0000 -0.0031827994
H   H180      1.0  0.34870  0.26570  0.08790  1.0000 0.1409926186
N   N90       1.0  0.35590  0.29420  0.12350  1.0000 -0.0544270277
O   O181      1.0  0.85630  0.68723  0.03101  1.0000 -0.4995068494
O   O182      1.0  0.89196  0.65132  0.03100  1.0000 -0.4995068494
C   C361      1.0  0.89545  0.69031  0.06616  1.0000 -0.009554516
C   C362      1.0  0.88014  0.67521  0.04065  1.0000 0.5784922245
C   C363      1.0  0.88420  0.71710  0.07784  1.0000 -0.1095745209
H   H181      1.0  0.86760  0.72660  0.06830  1.0000 0.1409926186
C   C364      1.0  0.86040  0.77120  0.10500  1.0000 -0.0031827994
H   H182      1.0  0.84870  0.76570  0.08790  1.0000 0.1409926186
N   N91       1.0  0.85590  0.79420  0.12350  1.0000 -0.0544270277
O   O183      1.0  0.85630  0.18723  0.53101  1.0000 -0.4995068494
O   O184      1.0  0.89196  0.15132  0.53100  1.0000 -0.4995068494
C   C365      1.0  0.89545  0.19031  0.56616  1.0000 -0.009554516
C   C366      1.0  0.88014  0.17521  0.54065  1.0000 0.5784922245
C   C367      1.0  0.88420  0.21710  0.57784  1.0000 -0.1095745209
H   H183      1.0  0.86760  0.22660  0.56830  1.0000 0.1409926186
C   C368      1.0  0.86040  0.27120  0.60500  1.0000 -0.0031827994
H   H184      1.0  0.84870  0.26570  0.58790  1.0000 0.1409926186
N   N92       1.0  0.85590  0.29420  0.62350  1.0000 -0.0544270277
O   O185      1.0  0.35630  0.31277  0.46899  1.0000 -0.4995068494
O   O186      1.0  0.39196  0.34868  0.46900  1.0000 -0.4995068494
C   C369      1.0  0.39545  0.30969  0.43384  1.0000 -0.009554516
C   C370      1.0  0.38014  0.32479  0.45935  1.0000 0.5784922245
C   C371      1.0  0.38420  0.28290  0.42216  1.0000 -0.1095745209
H   H185      1.0  0.36760  0.27340  0.43170  1.0000 0.1409926186
C   C372      1.0  0.36040  0.22880  0.39500  1.0000 -0.0031827994
H   H186      1.0  0.34870  0.23430  0.41210  1.0000 0.1409926186
N   N93       1.0  0.35590  0.20580  0.37650  1.0000 -0.0544270277
O   O187      1.0  0.35630  0.81277  0.96899  1.0000 -0.4995068494
O   O188      1.0  0.39196  0.84868  0.96900  1.0000 -0.4995068494
C   C373      1.0  0.39545  0.80969  0.93384  1.0000 -0.009554516
C   C374      1.0  0.38014  0.82479  0.95935  1.0000 0.5784922245
C   C375      1.0  0.38420  0.78290  0.92216  1.0000 -0.1095745209
H   H187      1.0  0.36760  0.77340  0.93170  1.0000 0.1409926186
C   C376      1.0  0.36040  0.72880  0.89500  1.0000 -0.0031827994
H   H188      1.0  0.34870  0.73430  0.91210  1.0000 0.1409926186
N   N94       1.0  0.35590  0.70580  0.87650  1.0000 -0.0544270277
O   O189      1.0  0.85630  0.31277  0.96899  1.0000 -0.4995068494
O   O190      1.0  0.89196  0.34868  0.96900  1.0000 -0.4995068494
C   C377      1.0  0.89545  0.30969  0.93384  1.0000 -0.009554516
C   C378      1.0  0.88014  0.32479  0.95935  1.0000 0.5784922245
C   C379      1.0  0.88420  0.28290  0.92216  1.0000 -0.1095745209
H   H189      1.0  0.86760  0.27340  0.93170  1.0000 0.1409926186
C   C380      1.0  0.86040  0.22880  0.89500  1.0000 -0.0031827994
H   H190      1.0  0.84870  0.23430  0.91210  1.0000 0.1409926186
N   N95       1.0  0.85590  0.20580  0.87650  1.0000 -0.0544270277
O   O191      1.0  0.85630  0.81277  0.46899  1.0000 -0.4995068494
O   O192      1.0  0.89196  0.84868  0.46900  1.0000 -0.4995068494
C   C381      1.0  0.89545  0.80969  0.43384  1.0000 -0.009554516
C   C382      1.0  0.88014  0.82479  0.45935  1.0000 0.5784922245
C   C383      1.0  0.88420  0.78290  0.42216  1.0000 -0.1095745209
H   H191      1.0  0.86760  0.77340  0.43170  1.0000 0.1409926186
C   C384      1.0  0.86040  0.72880  0.39500  1.0000 -0.0031827994
H   H192      1.0  0.84870  0.73430  0.41210  1.0000 0.1409926186
N   N96       1.0  0.85590  0.70580  0.37650  1.0000 -0.0544270277
O   O193      1.0  0.46899  0.31277  0.35630  1.0000 -0.4995068494
O   O194      1.0  0.46900  0.34868  0.39196  1.0000 -0.4995068494
C   C385      1.0  0.43384  0.30969  0.39545  1.0000 -0.009554516
C   C386      1.0  0.45935  0.32479  0.38014  1.0000 0.5784922245
C   C387      1.0  0.42216  0.28290  0.38420  1.0000 -0.1095745209
H   H193      1.0  0.43170  0.27340  0.36760  1.0000 0.1409926186
C   C388      1.0  0.39500  0.22880  0.36040  1.0000 -0.0031827994
H   H194      1.0  0.41210  0.23430  0.34870  1.0000 0.1409926186
N   N97       1.0  0.37650  0.20580  0.35590  1.0000 -0.0544270277
O   O195      1.0  0.46899  0.81277  0.85630  1.0000 -0.4995068494
O   O196      1.0  0.46900  0.84868  0.89196  1.0000 -0.4995068494
C   C389      1.0  0.43384  0.80969  0.89545  1.0000 -0.009554516
C   C390      1.0  0.45935  0.82479  0.88014  1.0000 0.5784922245
C   C391      1.0  0.42216  0.78290  0.88420  1.0000 -0.1095745209
H   H195      1.0  0.43170  0.77340  0.86760  1.0000 0.1409926186
C   C392      1.0  0.39500  0.72880  0.86040  1.0000 -0.0031827994
H   H196      1.0  0.41210  0.73430  0.84870  1.0000 0.1409926186
N   N98       1.0  0.37650  0.70580  0.85590  1.0000 -0.0544270277
O   O197      1.0  0.96899  0.31277  0.85630  1.0000 -0.4995068494
O   O198      1.0  0.96900  0.34868  0.89196  1.0000 -0.4995068494
C   C393      1.0  0.93384  0.30969  0.89545  1.0000 -0.009554516
C   C394      1.0  0.95935  0.32479  0.88014  1.0000 0.5784922245
C   C395      1.0  0.92216  0.28290  0.88420  1.0000 -0.1095745209
H   H197      1.0  0.93170  0.27340  0.86760  1.0000 0.1409926186
C   C396      1.0  0.89500  0.22880  0.86040  1.0000 -0.0031827994
H   H198      1.0  0.91210  0.23430  0.84870  1.0000 0.1409926186
N   N99       1.0  0.87650  0.20580  0.85590  1.0000 -0.0544270277
O   O199      1.0  0.96899  0.81277  0.35630  1.0000 -0.4995068494
O   O200      1.0  0.96900  0.84868  0.39196  1.0000 -0.4995068494
C   C397      1.0  0.93384  0.80969  0.39545  1.0000 -0.009554516
C   C398      1.0  0.95935  0.82479  0.38014  1.0000 0.5784922245
C   C399      1.0  0.92216  0.78290  0.38420  1.0000 -0.1095745209
H   H199      1.0  0.93170  0.77340  0.36760  1.0000 0.1409926186
C   C400      1.0  0.89500  0.72880  0.36040  1.0000 -0.0031827994
H   H200      1.0  0.91210  0.73430  0.34870  1.0000 0.1409926186
N   N100      1.0  0.87650  0.70580  0.35590  1.0000 -0.0544270277
O   O201      1.0  0.53101  0.68723  0.35630  1.0000 -0.4995068494
O   O202      1.0  0.53100  0.65132  0.39196  1.0000 -0.4995068494
C   C401      1.0  0.56616  0.69031  0.39545  1.0000 -0.009554516
C   C402      1.0  0.54065  0.67521  0.38014  1.0000 0.5784922245
C   C403      1.0  0.57784  0.71710  0.38420  1.0000 -0.1095745209
H   H201      1.0  0.56830  0.72660  0.36760  1.0000 0.1409926186
C   C404      1.0  0.60500  0.77120  0.36040  1.0000 -0.0031827994
H   H202      1.0  0.58790  0.76570  0.34870  1.0000 0.1409926186
N   N101      1.0  0.62350  0.79420  0.35590  1.0000 -0.0544270277
O   O203      1.0  0.53101  0.18723  0.85630  1.0000 -0.4995068494
O   O204      1.0  0.53100  0.15132  0.89196  1.0000 -0.4995068494
C   C405      1.0  0.56616  0.19031  0.89545  1.0000 -0.009554516
C   C406      1.0  0.54065  0.17521  0.88014  1.0000 0.5784922245
C   C407      1.0  0.57784  0.21710  0.88420  1.0000 -0.1095745209
H   H203      1.0  0.56830  0.22660  0.86760  1.0000 0.1409926186
C   C408      1.0  0.60500  0.27120  0.86040  1.0000 -0.0031827994
H   H204      1.0  0.58790  0.26570  0.84870  1.0000 0.1409926186
N   N102      1.0  0.62350  0.29420  0.85590  1.0000 -0.0544270277
O   O205      1.0  0.03101  0.68723  0.85630  1.0000 -0.4995068494
O   O206      1.0  0.03100  0.65132  0.89196  1.0000 -0.4995068494
C   C409      1.0  0.06616  0.69031  0.89545  1.0000 -0.009554516
C   C410      1.0  0.04065  0.67521  0.88014  1.0000 0.5784922245
C   C411      1.0  0.07784  0.71710  0.88420  1.0000 -0.1095745209
H   H205      1.0  0.06830  0.72660  0.86760  1.0000 0.1409926186
C   C412      1.0  0.10500  0.77120  0.86040  1.0000 -0.0031827994
H   H206      1.0  0.08790  0.76570  0.84870  1.0000 0.1409926186
N   N103      1.0  0.12350  0.79420  0.85590  1.0000 -0.0544270277
O   O207      1.0  0.03101  0.18723  0.35630  1.0000 -0.4995068494
O   O208      1.0  0.03100  0.15132  0.39196  1.0000 -0.4995068494
C   C413      1.0  0.06616  0.19031  0.39545  1.0000 -0.009554516
C   C414      1.0  0.04065  0.17521  0.38014  1.0000 0.5784922245
C   C415      1.0  0.07784  0.21710  0.38420  1.0000 -0.1095745209
H   H207      1.0  0.06830  0.22660  0.36760  1.0000 0.1409926186
C   C416      1.0  0.10500  0.27120  0.36040  1.0000 -0.0031827994
H   H208      1.0  0.08790  0.26570  0.34870  1.0000 0.1409926186
N   N104      1.0  0.12350  0.29420  0.35590  1.0000 -0.0544270277
O   O209      1.0  0.53101  0.31277  0.64370  1.0000 -0.4995068494
O   O210      1.0  0.53100  0.34868  0.60804  1.0000 -0.4995068494
C   C417      1.0  0.56616  0.30969  0.60455  1.0000 -0.009554516
C   C418      1.0  0.54065  0.32479  0.61986  1.0000 0.5784922245
C   C419      1.0  0.57784  0.28290  0.61580  1.0000 -0.1095745209
H   H209      1.0  0.56830  0.27340  0.63240  1.0000 0.1409926186
C   C420      1.0  0.60500  0.22880  0.63960  1.0000 -0.0031827994
H   H210      1.0  0.58790  0.23430  0.65130  1.0000 0.1409926186
N   N105      1.0  0.62350  0.20580  0.64410  1.0000 -0.0544270277
O   O211      1.0  0.53101  0.81277  0.14370  1.0000 -0.4995068494
O   O212      1.0  0.53100  0.84868  0.10804  1.0000 -0.4995068494
C   C421      1.0  0.56616  0.80969  0.10455  1.0000 -0.009554516
C   C422      1.0  0.54065  0.82479  0.11986  1.0000 0.5784922245
C   C423      1.0  0.57784  0.78290  0.11580  1.0000 -0.1095745209
H   H211      1.0  0.56830  0.77340  0.13240  1.0000 0.1409926186
C   C424      1.0  0.60500  0.72880  0.13960  1.0000 -0.0031827994
H   H212      1.0  0.58790  0.73430  0.15130  1.0000 0.1409926186
N   N106      1.0  0.62350  0.70580  0.14410  1.0000 -0.0544270277
O   O213      1.0  0.03101  0.31277  0.14370  1.0000 -0.4995068494
O   O214      1.0  0.03100  0.34868  0.10804  1.0000 -0.4995068494
C   C425      1.0  0.06616  0.30969  0.10455  1.0000 -0.009554516
C   C426      1.0  0.04065  0.32479  0.11986  1.0000 0.5784922245
C   C427      1.0  0.07784  0.28290  0.11580  1.0000 -0.1095745209
H   H213      1.0  0.06830  0.27340  0.13240  1.0000 0.1409926186
C   C428      1.0  0.10500  0.22880  0.13960  1.0000 -0.0031827994
H   H214      1.0  0.08790  0.23430  0.15130  1.0000 0.1409926186
N   N107      1.0  0.12350  0.20580  0.14410  1.0000 -0.0544270277
O   O215      1.0  0.03101  0.81277  0.64370  1.0000 -0.4995068494
O   O216      1.0  0.03100  0.84868  0.60804  1.0000 -0.4995068494
C   C429      1.0  0.06616  0.80969  0.60455  1.0000 -0.009554516
C   C430      1.0  0.04065  0.82479  0.61986  1.0000 0.5784922245
C   C431      1.0  0.07784  0.78290  0.61580  1.0000 -0.1095745209
H   H215      1.0  0.06830  0.77340  0.63240  1.0000 0.1409926186
C   C432      1.0  0.10500  0.72880  0.63960  1.0000 -0.0031827994
H   H216      1.0  0.08790  0.73430  0.65130  1.0000 0.1409926186
N   N108      1.0  0.12350  0.70580  0.64410  1.0000 -0.0544270277
O   O217      1.0  0.46899  0.68723  0.64370  1.0000 -0.4995068494
O   O218      1.0  0.46900  0.65132  0.60804  1.0000 -0.4995068494
C   C433      1.0  0.43384  0.69031  0.60455  1.0000 -0.009554516
C   C434      1.0  0.45935  0.67521  0.61986  1.0000 0.5784922245
C   C435      1.0  0.42216  0.71710  0.61580  1.0000 -0.1095745209
H   H217      1.0  0.43170  0.72660  0.63240  1.0000 0.1409926186
C   C436      1.0  0.39500  0.77120  0.63960  1.0000 -0.0031827994
H   H218      1.0  0.41210  0.76570  0.65130  1.0000 0.1409926186
N   N109      1.0  0.37650  0.79420  0.64410  1.0000 -0.0544270277
O   O219      1.0  0.46899  0.18723  0.14370  1.0000 -0.4995068494
O   O220      1.0  0.46900  0.15132  0.10804  1.0000 -0.4995068494
C   C437      1.0  0.43384  0.19031  0.10455  1.0000 -0.009554516
C   C438      1.0  0.45935  0.17521  0.11986  1.0000 0.5784922245
C   C439      1.0  0.42216  0.21710  0.11580  1.0000 -0.1095745209
H   H219      1.0  0.43170  0.22660  0.13240  1.0000 0.1409926186
C   C440      1.0  0.39500  0.27120  0.13960  1.0000 -0.0031827994
H   H220      1.0  0.41210  0.26570  0.15130  1.0000 0.1409926186
N   N110      1.0  0.37650  0.29420  0.14410  1.0000 -0.0544270277
O   O221      1.0  0.96899  0.68723  0.14370  1.0000 -0.4995068494
O   O222      1.0  0.96900  0.65132  0.10804  1.0000 -0.4995068494
C   C441      1.0  0.93384  0.69031  0.10455  1.0000 -0.009554516
C   C442      1.0  0.95935  0.67521  0.11986  1.0000 0.5784922245
C   C443      1.0  0.92216  0.71710  0.11580  1.0000 -0.1095745209
H   H221      1.0  0.93170  0.72660  0.13240  1.0000 0.1409926186
C   C444      1.0  0.89500  0.77120  0.13960  1.0000 -0.0031827994
H   H222      1.0  0.91210  0.76570  0.15130  1.0000 0.1409926186
N   N111      1.0  0.87650  0.79420  0.14410  1.0000 -0.0544270277
O   O223      1.0  0.96899  0.18723  0.64370  1.0000 -0.4995068494
O   O224      1.0  0.96900  0.15132  0.60804  1.0000 -0.4995068494
C   C445      1.0  0.93384  0.19031  0.60455  1.0000 -0.009554516
C   C446      1.0  0.95935  0.17521  0.61986  1.0000 0.5784922245
C   C447      1.0  0.92216  0.21710  0.61580  1.0000 -0.1095745209
H   H223      1.0  0.93170  0.22660  0.63240  1.0000 0.1409926186
C   C448      1.0  0.89500  0.27120  0.63960  1.0000 -0.0031827994
H   H224      1.0  0.91210  0.26570  0.65130  1.0000 0.1409926186
N   N112      1.0  0.87650  0.29420  0.64410  1.0000 -0.0544270277
O   O225      1.0  0.35630  0.46899  0.31277  1.0000 -0.4995068494
O   O226      1.0  0.39196  0.46900  0.34868  1.0000 -0.4995068494
C   C449      1.0  0.39545  0.43384  0.30969  1.0000 -0.009554516
C   C450      1.0  0.38014  0.45935  0.32479  1.0000 0.5784922245
C   C451      1.0  0.38420  0.42216  0.28290  1.0000 -0.1095745209
H   H225      1.0  0.36760  0.43170  0.27340  1.0000 0.1409926186
C   C452      1.0  0.36040  0.39500  0.22880  1.0000 -0.0031827994
H   H226      1.0  0.34870  0.41210  0.23430  1.0000 0.1409926186
N   N113      1.0  0.35590  0.37650  0.20580  1.0000 -0.0544270277
O   O227      1.0  0.35630  0.96899  0.81277  1.0000 -0.4995068494
O   O228      1.0  0.39196  0.96900  0.84868  1.0000 -0.4995068494
C   C453      1.0  0.39545  0.93384  0.80969  1.0000 -0.009554516
C   C454      1.0  0.38014  0.95935  0.82479  1.0000 0.5784922245
C   C455      1.0  0.38420  0.92216  0.78290  1.0000 -0.1095745209
H   H227      1.0  0.36760  0.93170  0.77340  1.0000 0.1409926186
C   C456      1.0  0.36040  0.89500  0.72880  1.0000 -0.0031827994
H   H228      1.0  0.34870  0.91210  0.73430  1.0000 0.1409926186
N   N114      1.0  0.35590  0.87650  0.70580  1.0000 -0.0544270277
O   O229      1.0  0.85630  0.46899  0.81277  1.0000 -0.4995068494
O   O230      1.0  0.89196  0.46900  0.84868  1.0000 -0.4995068494
C   C457      1.0  0.89545  0.43384  0.80969  1.0000 -0.009554516
C   C458      1.0  0.88014  0.45935  0.82479  1.0000 0.5784922245
C   C459      1.0  0.88420  0.42216  0.78290  1.0000 -0.1095745209
H   H229      1.0  0.86760  0.43170  0.77340  1.0000 0.1409926186
C   C460      1.0  0.86040  0.39500  0.72880  1.0000 -0.0031827994
H   H230      1.0  0.84870  0.41210  0.73430  1.0000 0.1409926186
N   N115      1.0  0.85590  0.37650  0.70580  1.0000 -0.0544270277
O   O231      1.0  0.85630  0.96899  0.31277  1.0000 -0.4995068494
O   O232      1.0  0.89196  0.96900  0.34868  1.0000 -0.4995068494
C   C461      1.0  0.89545  0.93384  0.30969  1.0000 -0.009554516
C   C462      1.0  0.88014  0.95935  0.32479  1.0000 0.5784922245
C   C463      1.0  0.88420  0.92216  0.28290  1.0000 -0.1095745209
H   H231      1.0  0.86760  0.93170  0.27340  1.0000 0.1409926186
C   C464      1.0  0.86040  0.89500  0.22880  1.0000 -0.0031827994
H   H232      1.0  0.84870  0.91210  0.23430  1.0000 0.1409926186
N   N116      1.0  0.85590  0.87650  0.20580  1.0000 -0.0544270277
O   O233      1.0  0.35630  0.53101  0.68723  1.0000 -0.4995068494
O   O234      1.0  0.39196  0.53100  0.65132  1.0000 -0.4995068494
C   C465      1.0  0.39545  0.56616  0.69031  1.0000 -0.009554516
C   C466      1.0  0.38014  0.54065  0.67521  1.0000 0.5784922245
C   C467      1.0  0.38420  0.57784  0.71710  1.0000 -0.1095745209
H   H233      1.0  0.36760  0.56830  0.72660  1.0000 0.1409926186
C   C468      1.0  0.36040  0.60500  0.77120  1.0000 -0.0031827994
H   H234      1.0  0.34870  0.58790  0.76570  1.0000 0.1409926186
N   N117      1.0  0.35590  0.62350  0.79420  1.0000 -0.0544270277
O   O235      1.0  0.35630  0.03101  0.18723  1.0000 -0.4995068494
O   O236      1.0  0.39196  0.03100  0.15132  1.0000 -0.4995068494
C   C469      1.0  0.39545  0.06616  0.19031  1.0000 -0.009554516
C   C470      1.0  0.38014  0.04065  0.17521  1.0000 0.5784922245
C   C471      1.0  0.38420  0.07784  0.21710  1.0000 -0.1095745209
H   H235      1.0  0.36760  0.06830  0.22660  1.0000 0.1409926186
C   C472      1.0  0.36040  0.10500  0.27120  1.0000 -0.0031827994
H   H236      1.0  0.34870  0.08790  0.26570  1.0000 0.1409926186
N   N118      1.0  0.35590  0.12350  0.29420  1.0000 -0.0544270277
O   O237      1.0  0.85630  0.53101  0.18723  1.0000 -0.4995068494
O   O238      1.0  0.89196  0.53100  0.15132  1.0000 -0.4995068494
C   C473      1.0  0.89545  0.56616  0.19031  1.0000 -0.009554516
C   C474      1.0  0.88014  0.54065  0.17521  1.0000 0.5784922245
C   C475      1.0  0.88420  0.57784  0.21710  1.0000 -0.1095745209
H   H237      1.0  0.86760  0.56830  0.22660  1.0000 0.1409926186
C   C476      1.0  0.86040  0.60500  0.27120  1.0000 -0.0031827994
H   H238      1.0  0.84870  0.58790  0.26570  1.0000 0.1409926186
N   N119      1.0  0.85590  0.62350  0.29420  1.0000 -0.0544270277
O   O239      1.0  0.85630  0.03101  0.68723  1.0000 -0.4995068494
O   O240      1.0  0.89196  0.03100  0.65132  1.0000 -0.4995068494
C   C477      1.0  0.89545  0.06616  0.69031  1.0000 -0.009554516
C   C478      1.0  0.88014  0.04065  0.67521  1.0000 0.5784922245
C   C479      1.0  0.88420  0.07784  0.71710  1.0000 -0.1095745209
H   H239      1.0  0.86760  0.06830  0.72660  1.0000 0.1409926186
C   C480      1.0  0.86040  0.10500  0.77120  1.0000 -0.0031827994
H   H240      1.0  0.84870  0.08790  0.76570  1.0000 0.1409926186
N   N120      1.0  0.85590  0.12350  0.79420  1.0000 -0.0544270277
O   O241      1.0  0.64370  0.53101  0.31277  1.0000 -0.4995068494
O   O242      1.0  0.60804  0.53100  0.34868  1.0000 -0.4995068494
C   C481      1.0  0.60455  0.56616  0.30969  1.0000 -0.009554516
C   C482      1.0  0.61986  0.54065  0.32479  1.0000 0.5784922245
C   C483      1.0  0.61580  0.57784  0.28290  1.0000 -0.1095745209
H   H241      1.0  0.63240  0.56830  0.27340  1.0000 0.1409926186
C   C484      1.0  0.63960  0.60500  0.22880  1.0000 -0.0031827994
H   H242      1.0  0.65130  0.58790  0.23430  1.0000 0.1409926186
N   N121      1.0  0.64410  0.62350  0.20580  1.0000 -0.0544270277
O   O243      1.0  0.64370  0.03101  0.81277  1.0000 -0.4995068494
O   O244      1.0  0.60804  0.03100  0.84868  1.0000 -0.4995068494
C   C485      1.0  0.60455  0.06616  0.80969  1.0000 -0.009554516
C   C486      1.0  0.61986  0.04065  0.82479  1.0000 0.5784922245
C   C487      1.0  0.61580  0.07784  0.78290  1.0000 -0.1095745209
H   H243      1.0  0.63240  0.06830  0.77340  1.0000 0.1409926186
C   C488      1.0  0.63960  0.10500  0.72880  1.0000 -0.0031827994
H   H244      1.0  0.65130  0.08790  0.73430  1.0000 0.1409926186
N   N122      1.0  0.64410  0.12350  0.70580  1.0000 -0.0544270277
O   O245      1.0  0.14370  0.53101  0.81277  1.0000 -0.4995068494
O   O246      1.0  0.10804  0.53100  0.84868  1.0000 -0.4995068494
C   C489      1.0  0.10455  0.56616  0.80969  1.0000 -0.009554516
C   C490      1.0  0.11986  0.54065  0.82479  1.0000 0.5784922245
C   C491      1.0  0.11580  0.57784  0.78290  1.0000 -0.1095745209
H   H245      1.0  0.13240  0.56830  0.77340  1.0000 0.1409926186
C   C492      1.0  0.13960  0.60500  0.72880  1.0000 -0.0031827994
H   H246      1.0  0.15130  0.58790  0.73430  1.0000 0.1409926186
N   N123      1.0  0.14410  0.62350  0.70580  1.0000 -0.0544270277
O   O247      1.0  0.14370  0.03101  0.31277  1.0000 -0.4995068494
O   O248      1.0  0.10804  0.03100  0.34868  1.0000 -0.4995068494
C   C493      1.0  0.10455  0.06616  0.30969  1.0000 -0.009554516
C   C494      1.0  0.11986  0.04065  0.32479  1.0000 0.5784922245
C   C495      1.0  0.11580  0.07784  0.28290  1.0000 -0.1095745209
H   H247      1.0  0.13240  0.06830  0.27340  1.0000 0.1409926186
C   C496      1.0  0.13960  0.10500  0.22880  1.0000 -0.0031827994
H   H248      1.0  0.15130  0.08790  0.23430  1.0000 0.1409926186
N   N124      1.0  0.14410  0.12350  0.20580  1.0000 -0.0544270277
O   O249      1.0  0.64370  0.46899  0.68723  1.0000 -0.4995068494
O   O250      1.0  0.60804  0.46900  0.65132  1.0000 -0.4995068494
C   C497      1.0  0.60455  0.43384  0.69031  1.0000 -0.009554516
C   C498      1.0  0.61986  0.45935  0.67521  1.0000 0.5784922245
C   C499      1.0  0.61580  0.42216  0.71710  1.0000 -0.1095745209
H   H249      1.0  0.63240  0.43170  0.72660  1.0000 0.1409926186
C   C500      1.0  0.63960  0.39500  0.77120  1.0000 -0.0031827994
H   H250      1.0  0.65130  0.41210  0.76570  1.0000 0.1409926186
N   N125      1.0  0.64410  0.37650  0.79420  1.0000 -0.0544270277
O   O251      1.0  0.64370  0.96899  0.18723  1.0000 -0.4995068494
O   O252      1.0  0.60804  0.96900  0.15132  1.0000 -0.4995068494
C   C501      1.0  0.60455  0.93384  0.19031  1.0000 -0.009554516
C   C502      1.0  0.61986  0.95935  0.17521  1.0000 0.5784922245
C   C503      1.0  0.61580  0.92216  0.21710  1.0000 -0.1095745209
H   H251      1.0  0.63240  0.93170  0.22660  1.0000 0.1409926186
C   C504      1.0  0.63960  0.89500  0.27120  1.0000 -0.0031827994
H   H252      1.0  0.65130  0.91210  0.26570  1.0000 0.1409926186
N   N126      1.0  0.64410  0.87650  0.29420  1.0000 -0.0544270277
O   O253      1.0  0.14370  0.46899  0.18723  1.0000 -0.4995068494
O   O254      1.0  0.10804  0.46900  0.15132  1.0000 -0.4995068494
C   C505      1.0  0.10455  0.43384  0.19031  1.0000 -0.009554516
C   C506      1.0  0.11986  0.45935  0.17521  1.0000 0.5784922245
C   C507      1.0  0.11580  0.42216  0.21710  1.0000 -0.1095745209
H   H253      1.0  0.13240  0.43170  0.22660  1.0000 0.1409926186
C   C508      1.0  0.13960  0.39500  0.27120  1.0000 -0.0031827994
H   H254      1.0  0.15130  0.41210  0.26570  1.0000 0.1409926186
N   N127      1.0  0.14410  0.37650  0.29420  1.0000 -0.0544270277
O   O255      1.0  0.14370  0.96899  0.68723  1.0000 -0.4995068494
O   O256      1.0  0.10804  0.96900  0.65132  1.0000 -0.4995068494
C   C509      1.0  0.10455  0.93384  0.69031  1.0000 -0.009554516
C   C510      1.0  0.11986  0.95935  0.67521  1.0000 0.5784922245
C   C511      1.0  0.11580  0.92216  0.71710  1.0000 -0.1095745209
H   H255      1.0  0.13240  0.93170  0.72660  1.0000 0.1409926186
C   C512      1.0  0.13960  0.89500  0.77120  1.0000 -0.0031827994
H   H256      1.0  0.15130  0.91210  0.76570  1.0000 0.1409926186
N   N128      1.0  0.14410  0.87650  0.79420  1.0000 -0.0544270277
O   O257      1.0  0.31277  0.35630  0.46899  1.0000 -0.4995068494
O   O258      1.0  0.34868  0.39196  0.46900  1.0000 -0.4995068494
C   C513      1.0  0.30969  0.39545  0.43384  1.0000 -0.009554516
C   C514      1.0  0.32479  0.38014  0.45935  1.0000 0.5784922245
C   C515      1.0  0.28290  0.38420  0.42216  1.0000 -0.1095745209
H   H257      1.0  0.27340  0.36760  0.43170  1.0000 0.1409926186
C   C516      1.0  0.22880  0.36040  0.39500  1.0000 -0.0031827994
H   H258      1.0  0.23430  0.34870  0.41210  1.0000 0.1409926186
N   N129      1.0  0.20580  0.35590  0.37650  1.0000 -0.0544270277
O   O259      1.0  0.31277  0.85630  0.96899  1.0000 -0.4995068494
O   O260      1.0  0.34868  0.89196  0.96900  1.0000 -0.4995068494
C   C517      1.0  0.30969  0.89545  0.93384  1.0000 -0.009554516
C   C518      1.0  0.32479  0.88014  0.95935  1.0000 0.5784922245
C   C519      1.0  0.28290  0.88420  0.92216  1.0000 -0.1095745209
H   H259      1.0  0.27340  0.86760  0.93170  1.0000 0.1409926186
C   C520      1.0  0.22880  0.86040  0.89500  1.0000 -0.0031827994
H   H260      1.0  0.23430  0.84870  0.91210  1.0000 0.1409926186
N   N130      1.0  0.20580  0.85590  0.87650  1.0000 -0.0544270277
O   O261      1.0  0.81277  0.35630  0.96899  1.0000 -0.4995068494
O   O262      1.0  0.84868  0.39196  0.96900  1.0000 -0.4995068494
C   C521      1.0  0.80969  0.39545  0.93384  1.0000 -0.009554516
C   C522      1.0  0.82479  0.38014  0.95935  1.0000 0.5784922245
C   C523      1.0  0.78290  0.38420  0.92216  1.0000 -0.1095745209
H   H261      1.0  0.77340  0.36760  0.93170  1.0000 0.1409926186
C   C524      1.0  0.72880  0.36040  0.89500  1.0000 -0.0031827994
H   H262      1.0  0.73430  0.34870  0.91210  1.0000 0.1409926186
N   N131      1.0  0.70580  0.35590  0.87650  1.0000 -0.0544270277
O   O263      1.0  0.81277  0.85630  0.46899  1.0000 -0.4995068494
O   O264      1.0  0.84868  0.89196  0.46900  1.0000 -0.4995068494
C   C525      1.0  0.80969  0.89545  0.43384  1.0000 -0.009554516
C   C526      1.0  0.82479  0.88014  0.45935  1.0000 0.5784922245
C   C527      1.0  0.78290  0.88420  0.42216  1.0000 -0.1095745209
H   H263      1.0  0.77340  0.86760  0.43170  1.0000 0.1409926186
C   C528      1.0  0.72880  0.86040  0.39500  1.0000 -0.0031827994
H   H264      1.0  0.73430  0.84870  0.41210  1.0000 0.1409926186
N   N132      1.0  0.70580  0.85590  0.37650  1.0000 -0.0544270277
O   O265      1.0  0.68723  0.35630  0.53101  1.0000 -0.4995068494
O   O266      1.0  0.65132  0.39196  0.53100  1.0000 -0.4995068494
C   C529      1.0  0.69031  0.39545  0.56616  1.0000 -0.009554516
C   C530      1.0  0.67521  0.38014  0.54065  1.0000 0.5784922245
C   C531      1.0  0.71710  0.38420  0.57784  1.0000 -0.1095745209
H   H265      1.0  0.72660  0.36760  0.56830  1.0000 0.1409926186
C   C532      1.0  0.77120  0.36040  0.60500  1.0000 -0.0031827994
H   H266      1.0  0.76570  0.34870  0.58790  1.0000 0.1409926186
N   N133      1.0  0.79420  0.35590  0.62350  1.0000 -0.0544270277
O   O267      1.0  0.68723  0.85630  0.03101  1.0000 -0.4995068494
O   O268      1.0  0.65132  0.89196  0.03100  1.0000 -0.4995068494
C   C533      1.0  0.69031  0.89545  0.06616  1.0000 -0.009554516
C   C534      1.0  0.67521  0.88014  0.04065  1.0000 0.5784922245
C   C535      1.0  0.71710  0.88420  0.07784  1.0000 -0.1095745209
H   H267      1.0  0.72660  0.86760  0.06830  1.0000 0.1409926186
C   C536      1.0  0.77120  0.86040  0.10500  1.0000 -0.0031827994
H   H268      1.0  0.76570  0.84870  0.08790  1.0000 0.1409926186
N   N134      1.0  0.79420  0.85590  0.12350  1.0000 -0.0544270277
O   O269      1.0  0.18723  0.35630  0.03101  1.0000 -0.4995068494
O   O270      1.0  0.15132  0.39196  0.03100  1.0000 -0.4995068494
C   C537      1.0  0.19031  0.39545  0.06616  1.0000 -0.009554516
C   C538      1.0  0.17521  0.38014  0.04065  1.0000 0.5784922245
C   C539      1.0  0.21710  0.38420  0.07784  1.0000 -0.1095745209
H   H269      1.0  0.22660  0.36760  0.06830  1.0000 0.1409926186
C   C540      1.0  0.27120  0.36040  0.10500  1.0000 -0.0031827994
H   H270      1.0  0.26570  0.34870  0.08790  1.0000 0.1409926186
N   N135      1.0  0.29420  0.35590  0.12350  1.0000 -0.0544270277
O   O271      1.0  0.18723  0.85630  0.53101  1.0000 -0.4995068494
O   O272      1.0  0.15132  0.89196  0.53100  1.0000 -0.4995068494
C   C541      1.0  0.19031  0.89545  0.56616  1.0000 -0.009554516
C   C542      1.0  0.17521  0.88014  0.54065  1.0000 0.5784922245
C   C543      1.0  0.21710  0.88420  0.57784  1.0000 -0.1095745209
H   H271      1.0  0.22660  0.86760  0.56830  1.0000 0.1409926186
C   C544      1.0  0.27120  0.86040  0.60500  1.0000 -0.0031827994
H   H272      1.0  0.26570  0.84870  0.58790  1.0000 0.1409926186
N   N136      1.0  0.29420  0.85590  0.62350  1.0000 -0.0544270277
O   O273      1.0  0.31277  0.64370  0.53101  1.0000 -0.4995068494
O   O274      1.0  0.34868  0.60804  0.53100  1.0000 -0.4995068494
C   C545      1.0  0.30969  0.60455  0.56616  1.0000 -0.009554516
C   C546      1.0  0.32479  0.61986  0.54065  1.0000 0.5784922245
C   C547      1.0  0.28290  0.61580  0.57784  1.0000 -0.1095745209
H   H273      1.0  0.27340  0.63240  0.56830  1.0000 0.1409926186
C   C548      1.0  0.22880  0.63960  0.60500  1.0000 -0.0031827994
H   H274      1.0  0.23430  0.65130  0.58790  1.0000 0.1409926186
N   N137      1.0  0.20580  0.64410  0.62350  1.0000 -0.0544270277
O   O275      1.0  0.31277  0.14370  0.03101  1.0000 -0.4995068494
O   O276      1.0  0.34868  0.10804  0.03100  1.0000 -0.4995068494
C   C549      1.0  0.30969  0.10455  0.06616  1.0000 -0.009554516
C   C550      1.0  0.32479  0.11986  0.04065  1.0000 0.5784922245
C   C551      1.0  0.28290  0.11580  0.07784  1.0000 -0.1095745209
H   H275      1.0  0.27340  0.13240  0.06830  1.0000 0.1409926186
C   C552      1.0  0.22880  0.13960  0.10500  1.0000 -0.0031827994
H   H276      1.0  0.23430  0.15130  0.08790  1.0000 0.1409926186
N   N138      1.0  0.20580  0.14410  0.12350  1.0000 -0.0544270277
O   O277      1.0  0.81277  0.64370  0.03101  1.0000 -0.4995068494
O   O278      1.0  0.84868  0.60804  0.03100  1.0000 -0.4995068494
C   C553      1.0  0.80969  0.60455  0.06616  1.0000 -0.009554516
C   C554      1.0  0.82479  0.61986  0.04065  1.0000 0.5784922245
C   C555      1.0  0.78290  0.61580  0.07784  1.0000 -0.1095745209
H   H277      1.0  0.77340  0.63240  0.06830  1.0000 0.1409926186
C   C556      1.0  0.72880  0.63960  0.10500  1.0000 -0.0031827994
H   H278      1.0  0.73430  0.65130  0.08790  1.0000 0.1409926186
N   N139      1.0  0.70580  0.64410  0.12350  1.0000 -0.0544270277
O   O279      1.0  0.81277  0.14370  0.53101  1.0000 -0.4995068494
O   O280      1.0  0.84868  0.10804  0.53100  1.0000 -0.4995068494
C   C557      1.0  0.80969  0.10455  0.56616  1.0000 -0.009554516
C   C558      1.0  0.82479  0.11986  0.54065  1.0000 0.5784922245
C   C559      1.0  0.78290  0.11580  0.57784  1.0000 -0.1095745209
H   H279      1.0  0.77340  0.13240  0.56830  1.0000 0.1409926186
C   C560      1.0  0.72880  0.13960  0.60500  1.0000 -0.0031827994
H   H280      1.0  0.73430  0.15130  0.58790  1.0000 0.1409926186
N   N140      1.0  0.70580  0.14410  0.62350  1.0000 -0.0544270277
O   O281      1.0  0.68723  0.64370  0.46899  1.0000 -0.4995068494
O   O282      1.0  0.65132  0.60804  0.46900  1.0000 -0.4995068494
C   C561      1.0  0.69031  0.60455  0.43384  1.0000 -0.009554516
C   C562      1.0  0.67521  0.61986  0.45935  1.0000 0.5784922245
C   C563      1.0  0.71710  0.61580  0.42216  1.0000 -0.1095745209
H   H281      1.0  0.72660  0.63240  0.43170  1.0000 0.1409926186
C   C564      1.0  0.77120  0.63960  0.39500  1.0000 -0.0031827994
H   H282      1.0  0.76570  0.65130  0.41210  1.0000 0.1409926186
N   N141      1.0  0.79420  0.64410  0.37650  1.0000 -0.0544270277
O   O283      1.0  0.68723  0.14370  0.96899  1.0000 -0.4995068494
O   O284      1.0  0.65132  0.10804  0.96900  1.0000 -0.4995068494
C   C565      1.0  0.69031  0.10455  0.93384  1.0000 -0.009554516
C   C566      1.0  0.67521  0.11986  0.95935  1.0000 0.5784922245
C   C567      1.0  0.71710  0.11580  0.92216  1.0000 -0.1095745209
H   H283      1.0  0.72660  0.13240  0.93170  1.0000 0.1409926186
C   C568      1.0  0.77120  0.13960  0.89500  1.0000 -0.0031827994
H   H284      1.0  0.76570  0.15130  0.91210  1.0000 0.1409926186
N   N142      1.0  0.79420  0.14410  0.87650  1.0000 -0.0544270277
O   O285      1.0  0.18723  0.64370  0.96899  1.0000 -0.4995068494
O   O286      1.0  0.15132  0.60804  0.96900  1.0000 -0.4995068494
C   C569      1.0  0.19031  0.60455  0.93384  1.0000 -0.009554516
C   C570      1.0  0.17521  0.61986  0.95935  1.0000 0.5784922245
C   C571      1.0  0.21710  0.61580  0.92216  1.0000 -0.1095745209
H   H285      1.0  0.22660  0.63240  0.93170  1.0000 0.1409926186
C   C572      1.0  0.27120  0.63960  0.89500  1.0000 -0.0031827994
H   H286      1.0  0.26570  0.65130  0.91210  1.0000 0.1409926186
N   N143      1.0  0.29420  0.64410  0.87650  1.0000 -0.0544270277
O   O287      1.0  0.18723  0.14370  0.46899  1.0000 -0.4995068494
O   O288      1.0  0.15132  0.10804  0.46900  1.0000 -0.4995068494
C   C573      1.0  0.19031  0.10455  0.43384  1.0000 -0.009554516
C   C574      1.0  0.17521  0.11986  0.45935  1.0000 0.5784922245
C   C575      1.0  0.21710  0.11580  0.42216  1.0000 -0.1095745209
H   H287      1.0  0.22660  0.13240  0.43170  1.0000 0.1409926186
C   C576      1.0  0.27120  0.13960  0.39500  1.0000 -0.0031827994
H   H288      1.0  0.26570  0.15130  0.41210  1.0000 0.1409926186
N   N144      1.0  0.29420  0.14410  0.37650  1.0000 -0.0544270277
O   O289      1.0  0.31277  0.46899  0.64370  1.0000 -0.4995068494
O   O290      1.0  0.34868  0.46900  0.60804  1.0000 -0.4995068494
C   C577      1.0  0.30969  0.43384  0.60455  1.0000 -0.009554516
C   C578      1.0  0.32479  0.45935  0.61986  1.0000 0.5784922245
C   C579      1.0  0.28290  0.42216  0.61580  1.0000 -0.1095745209
H   H289      1.0  0.27340  0.43170  0.63240  1.0000 0.1409926186
C   C580      1.0  0.22880  0.39500  0.63960  1.0000 -0.0031827994
H   H290      1.0  0.23430  0.41210  0.65130  1.0000 0.1409926186
N   N145      1.0  0.20580  0.37650  0.64410  1.0000 -0.0544270277
O   O291      1.0  0.31277  0.96899  0.14370  1.0000 -0.4995068494
O   O292      1.0  0.34868  0.96900  0.10804  1.0000 -0.4995068494
C   C581      1.0  0.30969  0.93384  0.10455  1.0000 -0.009554516
C   C582      1.0  0.32479  0.95935  0.11986  1.0000 0.5784922245
C   C583      1.0  0.28290  0.92216  0.11580  1.0000 -0.1095745209
H   H291      1.0  0.27340  0.93170  0.13240  1.0000 0.1409926186
C   C584      1.0  0.22880  0.89500  0.13960  1.0000 -0.0031827994
H   H292      1.0  0.23430  0.91210  0.15130  1.0000 0.1409926186
N   N146      1.0  0.20580  0.87650  0.14410  1.0000 -0.0544270277
O   O293      1.0  0.81277  0.46899  0.14370  1.0000 -0.4995068494
O   O294      1.0  0.84868  0.46900  0.10804  1.0000 -0.4995068494
C   C585      1.0  0.80969  0.43384  0.10455  1.0000 -0.009554516
C   C586      1.0  0.82479  0.45935  0.11986  1.0000 0.5784922245
C   C587      1.0  0.78290  0.42216  0.11580  1.0000 -0.1095745209
H   H293      1.0  0.77340  0.43170  0.13240  1.0000 0.1409926186
C   C588      1.0  0.72880  0.39500  0.13960  1.0000 -0.0031827994
H   H294      1.0  0.73430  0.41210  0.15130  1.0000 0.1409926186
N   N147      1.0  0.70580  0.37650  0.14410  1.0000 -0.0544270277
O   O295      1.0  0.81277  0.96899  0.64370  1.0000 -0.4995068494
O   O296      1.0  0.84868  0.96900  0.60804  1.0000 -0.4995068494
C   C589      1.0  0.80969  0.93384  0.60455  1.0000 -0.009554516
C   C590      1.0  0.82479  0.95935  0.61986  1.0000 0.5784922245
C   C591      1.0  0.78290  0.92216  0.61580  1.0000 -0.1095745209
H   H295      1.0  0.77340  0.93170  0.63240  1.0000 0.1409926186
C   C592      1.0  0.72880  0.89500  0.63960  1.0000 -0.0031827994
H   H296      1.0  0.73430  0.91210  0.65130  1.0000 0.1409926186
N   N148      1.0  0.70580  0.87650  0.64410  1.0000 -0.0544270277
O   O297      1.0  0.68723  0.53101  0.64370  1.0000 -0.4995068494
O   O298      1.0  0.65132  0.53100  0.60804  1.0000 -0.4995068494
C   C593      1.0  0.69031  0.56616  0.60455  1.0000 -0.009554516
C   C594      1.0  0.67521  0.54065  0.61986  1.0000 0.5784922245
C   C595      1.0  0.71710  0.57784  0.61580  1.0000 -0.1095745209
H   H297      1.0  0.72660  0.56830  0.63240  1.0000 0.1409926186
C   C596      1.0  0.77120  0.60500  0.63960  1.0000 -0.0031827994
H   H298      1.0  0.76570  0.58790  0.65130  1.0000 0.1409926186
N   N149      1.0  0.79420  0.62350  0.64410  1.0000 -0.0544270277
O   O299      1.0  0.68723  0.03101  0.14370  1.0000 -0.4995068494
O   O300      1.0  0.65132  0.03100  0.10804  1.0000 -0.4995068494
C   C597      1.0  0.69031  0.06616  0.10455  1.0000 -0.009554516
C   C598      1.0  0.67521  0.04065  0.11986  1.0000 0.5784922245
C   C599      1.0  0.71710  0.07784  0.11580  1.0000 -0.1095745209
H   H299      1.0  0.72660  0.06830  0.13240  1.0000 0.1409926186
C   C600      1.0  0.77120  0.10500  0.13960  1.0000 -0.0031827994
H   H300      1.0  0.76570  0.08790  0.15130  1.0000 0.1409926186
N   N150      1.0  0.79420  0.12350  0.14410  1.0000 -0.0544270277
O   O301      1.0  0.18723  0.53101  0.14370  1.0000 -0.4995068494
O   O302      1.0  0.15132  0.53100  0.10804  1.0000 -0.4995068494
C   C601      1.0  0.19031  0.56616  0.10455  1.0000 -0.009554516
C   C602      1.0  0.17521  0.54065  0.11986  1.0000 0.5784922245
C   C603      1.0  0.21710  0.57784  0.11580  1.0000 -0.1095745209
H   H301      1.0  0.22660  0.56830  0.13240  1.0000 0.1409926186
C   C604      1.0  0.27120  0.60500  0.13960  1.0000 -0.0031827994
H   H302      1.0  0.26570  0.58790  0.15130  1.0000 0.1409926186
N   N151      1.0  0.29420  0.62350  0.14410  1.0000 -0.0544270277
O   O303      1.0  0.18723  0.03101  0.64370  1.0000 -0.4995068494
O   O304      1.0  0.15132  0.03100  0.60804  1.0000 -0.4995068494
C   C605      1.0  0.19031  0.06616  0.60455  1.0000 -0.009554516
C   C606      1.0  0.17521  0.04065  0.61986  1.0000 0.5784922245
C   C607      1.0  0.21710  0.07784  0.61580  1.0000 -0.1095745209
H   H303      1.0  0.22660  0.06830  0.63240  1.0000 0.1409926186
C   C608      1.0  0.27120  0.10500  0.63960  1.0000 -0.0031827994
H   H304      1.0  0.26570  0.08790  0.65130  1.0000 0.1409926186
N   N152      1.0  0.29420  0.12350  0.64410  1.0000 -0.0544270277
O   O305      1.0  0.31277  0.53101  0.35630  1.0000 -0.4995068494
O   O306      1.0  0.34868  0.53100  0.39196  1.0000 -0.4995068494
C   C609      1.0  0.30969  0.56616  0.39545  1.0000 -0.009554516
C   C610      1.0  0.32479  0.54065  0.38014  1.0000 0.5784922245
C   C611      1.0  0.28290  0.57784  0.38420  1.0000 -0.1095745209
H   H305      1.0  0.27340  0.56830  0.36760  1.0000 0.1409926186
C   C612      1.0  0.22880  0.60500  0.36040  1.0000 -0.0031827994
H   H306      1.0  0.23430  0.58790  0.34870  1.0000 0.1409926186
N   N153      1.0  0.20580  0.62350  0.35590  1.0000 -0.0544270277
O   O307      1.0  0.31277  0.03101  0.85630  1.0000 -0.4995068494
O   O308      1.0  0.34868  0.03100  0.89196  1.0000 -0.4995068494
C   C613      1.0  0.30969  0.06616  0.89545  1.0000 -0.009554516
C   C614      1.0  0.32479  0.04065  0.88014  1.0000 0.5784922245
C   C615      1.0  0.28290  0.07784  0.88420  1.0000 -0.1095745209
H   H307      1.0  0.27340  0.06830  0.86760  1.0000 0.1409926186
C   C616      1.0  0.22880  0.10500  0.86040  1.0000 -0.0031827994
H   H308      1.0  0.23430  0.08790  0.84870  1.0000 0.1409926186
N   N154      1.0  0.20580  0.12350  0.85590  1.0000 -0.0544270277
O   O309      1.0  0.81277  0.53101  0.85630  1.0000 -0.4995068494
O   O310      1.0  0.84868  0.53100  0.89196  1.0000 -0.4995068494
C   C617      1.0  0.80969  0.56616  0.89545  1.0000 -0.009554516
C   C618      1.0  0.82479  0.54065  0.88014  1.0000 0.5784922245
C   C619      1.0  0.78290  0.57784  0.88420  1.0000 -0.1095745209
H   H309      1.0  0.77340  0.56830  0.86760  1.0000 0.1409926186
C   C620      1.0  0.72880  0.60500  0.86040  1.0000 -0.0031827994
H   H310      1.0  0.73430  0.58790  0.84870  1.0000 0.1409926186
N   N155      1.0  0.70580  0.62350  0.85590  1.0000 -0.0544270277
O   O311      1.0  0.81277  0.03101  0.35630  1.0000 -0.4995068494
O   O312      1.0  0.84868  0.03100  0.39196  1.0000 -0.4995068494
C   C621      1.0  0.80969  0.06616  0.39545  1.0000 -0.009554516
C   C622      1.0  0.82479  0.04065  0.38014  1.0000 0.5784922245
C   C623      1.0  0.78290  0.07784  0.38420  1.0000 -0.1095745209
H   H311      1.0  0.77340  0.06830  0.36760  1.0000 0.1409926186
C   C624      1.0  0.72880  0.10500  0.36040  1.0000 -0.0031827994
H   H312      1.0  0.73430  0.08790  0.34870  1.0000 0.1409926186
N   N156      1.0  0.70580  0.12350  0.35590  1.0000 -0.0544270277
O   O313      1.0  0.68723  0.46899  0.35630  1.0000 -0.4995068494
O   O314      1.0  0.65132  0.46900  0.39196  1.0000 -0.4995068494
C   C625      1.0  0.69031  0.43384  0.39545  1.0000 -0.009554516
C   C626      1.0  0.67521  0.45935  0.38014  1.0000 0.5784922245
C   C627      1.0  0.71710  0.42216  0.38420  1.0000 -0.1095745209
H   H313      1.0  0.72660  0.43170  0.36760  1.0000 0.1409926186
C   C628      1.0  0.77120  0.39500  0.36040  1.0000 -0.0031827994
H   H314      1.0  0.76570  0.41210  0.34870  1.0000 0.1409926186
N   N157      1.0  0.79420  0.37650  0.35590  1.0000 -0.0544270277
O   O315      1.0  0.68723  0.96899  0.85630  1.0000 -0.4995068494
O   O316      1.0  0.65132  0.96900  0.89196  1.0000 -0.4995068494
C   C629      1.0  0.69031  0.93384  0.89545  1.0000 -0.009554516
C   C630      1.0  0.67521  0.95935  0.88014  1.0000 0.5784922245
C   C631      1.0  0.71710  0.92216  0.88420  1.0000 -0.1095745209
H   H315      1.0  0.72660  0.93170  0.86760  1.0000 0.1409926186
C   C632      1.0  0.77120  0.89500  0.86040  1.0000 -0.0031827994
H   H316      1.0  0.76570  0.91210  0.84870  1.0000 0.1409926186
N   N158      1.0  0.79420  0.87650  0.85590  1.0000 -0.0544270277
O   O317      1.0  0.18723  0.46899  0.85630  1.0000 -0.4995068494
O   O318      1.0  0.15132  0.46900  0.89196  1.0000 -0.4995068494
C   C633      1.0  0.19031  0.43384  0.89545  1.0000 -0.009554516
C   C634      1.0  0.17521  0.45935  0.88014  1.0000 0.5784922245
C   C635      1.0  0.21710  0.42216  0.88420  1.0000 -0.1095745209
H   H317      1.0  0.22660  0.43170  0.86760  1.0000 0.1409926186
C   C636      1.0  0.27120  0.39500  0.86040  1.0000 -0.0031827994
H   H318      1.0  0.26570  0.41210  0.84870  1.0000 0.1409926186
N   N159      1.0  0.29420  0.37650  0.85590  1.0000 -0.0544270277
O   O319      1.0  0.18723  0.96899  0.35630  1.0000 -0.4995068494
O   O320      1.0  0.15132  0.96900  0.39196  1.0000 -0.4995068494
C   C637      1.0  0.19031  0.93384  0.39545  1.0000 -0.009554516
C   C638      1.0  0.17521  0.95935  0.38014  1.0000 0.5784922245
C   C639      1.0  0.21710  0.92216  0.38420  1.0000 -0.1095745209
H   H319      1.0  0.22660  0.93170  0.36760  1.0000 0.1409926186
C   C640      1.0  0.27120  0.89500  0.36040  1.0000 -0.0031827994
H   H320      1.0  0.26570  0.91210  0.34870  1.0000 0.1409926186
N   N160      1.0  0.29420  0.87650  0.35590  1.0000 -0.0544270277
O   O321      1.0  0.46899  0.35630  0.68723  1.0000 -0.4995068494
O   O322      1.0  0.46900  0.39196  0.65132  1.0000 -0.4995068494
C   C641      1.0  0.43384  0.39545  0.69031  1.0000 -0.009554516
C   C642      1.0  0.45935  0.38014  0.67521  1.0000 0.5784922245
C   C643      1.0  0.42216  0.38420  0.71710  1.0000 -0.1095745209
H   H321      1.0  0.43170  0.36760  0.72660  1.0000 0.1409926186
C   C644      1.0  0.39500  0.36040  0.77120  1.0000 -0.0031827994
H   H322      1.0  0.41210  0.34870  0.76570  1.0000 0.1409926186
N   N161      1.0  0.37650  0.35590  0.79420  1.0000 -0.0544270277
O   O323      1.0  0.46899  0.85630  0.18723  1.0000 -0.4995068494
O   O324      1.0  0.46900  0.89196  0.15132  1.0000 -0.4995068494
C   C645      1.0  0.43384  0.89545  0.19031  1.0000 -0.009554516
C   C646      1.0  0.45935  0.88014  0.17521  1.0000 0.5784922245
C   C647      1.0  0.42216  0.88420  0.21710  1.0000 -0.1095745209
H   H323      1.0  0.43170  0.86760  0.22660  1.0000 0.1409926186
C   C648      1.0  0.39500  0.86040  0.27120  1.0000 -0.0031827994
H   H324      1.0  0.41210  0.84870  0.26570  1.0000 0.1409926186
N   N162      1.0  0.37650  0.85590  0.29420  1.0000 -0.0544270277
O   O325      1.0  0.96899  0.35630  0.18723  1.0000 -0.4995068494
O   O326      1.0  0.96900  0.39196  0.15132  1.0000 -0.4995068494
C   C649      1.0  0.93384  0.39545  0.19031  1.0000 -0.009554516
C   C650      1.0  0.95935  0.38014  0.17521  1.0000 0.5784922245
C   C651      1.0  0.92216  0.38420  0.21710  1.0000 -0.1095745209
H   H325      1.0  0.93170  0.36760  0.22660  1.0000 0.1409926186
C   C652      1.0  0.89500  0.36040  0.27120  1.0000 -0.0031827994
H   H326      1.0  0.91210  0.34870  0.26570  1.0000 0.1409926186
N   N163      1.0  0.87650  0.35590  0.29420  1.0000 -0.0544270277
O   O327      1.0  0.96899  0.85630  0.68723  1.0000 -0.4995068494
O   O328      1.0  0.96900  0.89196  0.65132  1.0000 -0.4995068494
C   C653      1.0  0.93384  0.89545  0.69031  1.0000 -0.009554516
C   C654      1.0  0.95935  0.88014  0.67521  1.0000 0.5784922245
C   C655      1.0  0.92216  0.88420  0.71710  1.0000 -0.1095745209
H   H327      1.0  0.93170  0.86760  0.72660  1.0000 0.1409926186
C   C656      1.0  0.89500  0.86040  0.77120  1.0000 -0.0031827994
H   H328      1.0  0.91210  0.84870  0.76570  1.0000 0.1409926186
N   N164      1.0  0.87650  0.85590  0.79420  1.0000 -0.0544270277
O   O329      1.0  0.53101  0.35630  0.31277  1.0000 -0.4995068494
O   O330      1.0  0.53100  0.39196  0.34868  1.0000 -0.4995068494
C   C657      1.0  0.56616  0.39545  0.30969  1.0000 -0.009554516
C   C658      1.0  0.54065  0.38014  0.32479  1.0000 0.5784922245
C   C659      1.0  0.57784  0.38420  0.28290  1.0000 -0.1095745209
H   H329      1.0  0.56830  0.36760  0.27340  1.0000 0.1409926186
C   C660      1.0  0.60500  0.36040  0.22880  1.0000 -0.0031827994
H   H330      1.0  0.58790  0.34870  0.23430  1.0000 0.1409926186
N   N165      1.0  0.62350  0.35590  0.20580  1.0000 -0.0544270277
O   O331      1.0  0.53101  0.85630  0.81277  1.0000 -0.4995068494
O   O332      1.0  0.53100  0.89196  0.84868  1.0000 -0.4995068494
C   C661      1.0  0.56616  0.89545  0.80969  1.0000 -0.009554516
C   C662      1.0  0.54065  0.88014  0.82479  1.0000 0.5784922245
C   C663      1.0  0.57784  0.88420  0.78290  1.0000 -0.1095745209
H   H331      1.0  0.56830  0.86760  0.77340  1.0000 0.1409926186
C   C664      1.0  0.60500  0.86040  0.72880  1.0000 -0.0031827994
H   H332      1.0  0.58790  0.84870  0.73430  1.0000 0.1409926186
N   N166      1.0  0.62350  0.85590  0.70580  1.0000 -0.0544270277
O   O333      1.0  0.03101  0.35630  0.81277  1.0000 -0.4995068494
O   O334      1.0  0.03100  0.39196  0.84868  1.0000 -0.4995068494
C   C665      1.0  0.06616  0.39545  0.80969  1.0000 -0.009554516
C   C666      1.0  0.04065  0.38014  0.82479  1.0000 0.5784922245
C   C667      1.0  0.07784  0.38420  0.78290  1.0000 -0.1095745209
H   H333      1.0  0.06830  0.36760  0.77340  1.0000 0.1409926186
C   C668      1.0  0.10500  0.36040  0.72880  1.0000 -0.0031827994
H   H334      1.0  0.08790  0.34870  0.73430  1.0000 0.1409926186
N   N167      1.0  0.12350  0.35590  0.70580  1.0000 -0.0544270277
O   O335      1.0  0.03101  0.85630  0.31277  1.0000 -0.4995068494
O   O336      1.0  0.03100  0.89196  0.34868  1.0000 -0.4995068494
C   C669      1.0  0.06616  0.89545  0.30969  1.0000 -0.009554516
C   C670      1.0  0.04065  0.88014  0.32479  1.0000 0.5784922245
C   C671      1.0  0.07784  0.88420  0.28290  1.0000 -0.1095745209
H   H335      1.0  0.06830  0.86760  0.27340  1.0000 0.1409926186
C   C672      1.0  0.10500  0.86040  0.22880  1.0000 -0.0031827994
H   H336      1.0  0.08790  0.84870  0.23430  1.0000 0.1409926186
N   N168      1.0  0.12350  0.85590  0.20580  1.0000 -0.0544270277
O   O337      1.0  0.53101  0.64370  0.68723  1.0000 -0.4995068494
O   O338      1.0  0.53100  0.60804  0.65132  1.0000 -0.4995068494
C   C673      1.0  0.56616  0.60455  0.69031  1.0000 -0.009554516
C   C674      1.0  0.54065  0.61986  0.67521  1.0000 0.5784922245
C   C675      1.0  0.57784  0.61580  0.71710  1.0000 -0.1095745209
H   H337      1.0  0.56830  0.63240  0.72660  1.0000 0.1409926186
C   C676      1.0  0.60500  0.63960  0.77120  1.0000 -0.0031827994
H   H338      1.0  0.58790  0.65130  0.76570  1.0000 0.1409926186
N   N169      1.0  0.62350  0.64410  0.79420  1.0000 -0.0544270277
O   O339      1.0  0.53101  0.14370  0.18723  1.0000 -0.4995068494
O   O340      1.0  0.53100  0.10804  0.15132  1.0000 -0.4995068494
C   C677      1.0  0.56616  0.10455  0.19031  1.0000 -0.009554516
C   C678      1.0  0.54065  0.11986  0.17521  1.0000 0.5784922245
C   C679      1.0  0.57784  0.11580  0.21710  1.0000 -0.1095745209
H   H339      1.0  0.56830  0.13240  0.22660  1.0000 0.1409926186
C   C680      1.0  0.60500  0.13960  0.27120  1.0000 -0.0031827994
H   H340      1.0  0.58790  0.15130  0.26570  1.0000 0.1409926186
N   N170      1.0  0.62350  0.14410  0.29420  1.0000 -0.0544270277
O   O341      1.0  0.03101  0.64370  0.18723  1.0000 -0.4995068494
O   O342      1.0  0.03100  0.60804  0.15132  1.0000 -0.4995068494
C   C681      1.0  0.06616  0.60455  0.19031  1.0000 -0.009554516
C   C682      1.0  0.04065  0.61986  0.17521  1.0000 0.5784922245
C   C683      1.0  0.07784  0.61580  0.21710  1.0000 -0.1095745209
H   H341      1.0  0.06830  0.63240  0.22660  1.0000 0.1409926186
C   C684      1.0  0.10500  0.63960  0.27120  1.0000 -0.0031827994
H   H342      1.0  0.08790  0.65130  0.26570  1.0000 0.1409926186
N   N171      1.0  0.12350  0.64410  0.29420  1.0000 -0.0544270277
O   O343      1.0  0.03101  0.14370  0.68723  1.0000 -0.4995068494
O   O344      1.0  0.03100  0.10804  0.65132  1.0000 -0.4995068494
C   C685      1.0  0.06616  0.10455  0.69031  1.0000 -0.009554516
C   C686      1.0  0.04065  0.11986  0.67521  1.0000 0.5784922245
C   C687      1.0  0.07784  0.11580  0.71710  1.0000 -0.1095745209
H   H343      1.0  0.06830  0.13240  0.72660  1.0000 0.1409926186
C   C688      1.0  0.10500  0.13960  0.77120  1.0000 -0.0031827994
H   H344      1.0  0.08790  0.15130  0.76570  1.0000 0.1409926186
N   N172      1.0  0.12350  0.14410  0.79420  1.0000 -0.0544270277
O   O345      1.0  0.46899  0.64370  0.31277  1.0000 -0.4995068494
O   O346      1.0  0.46900  0.60804  0.34868  1.0000 -0.4995068494
C   C689      1.0  0.43384  0.60455  0.30969  1.0000 -0.009554516
C   C690      1.0  0.45935  0.61986  0.32479  1.0000 0.5784922245
C   C691      1.0  0.42216  0.61580  0.28290  1.0000 -0.1095745209
H   H345      1.0  0.43170  0.63240  0.27340  1.0000 0.1409926186
C   C692      1.0  0.39500  0.63960  0.22880  1.0000 -0.0031827994
H   H346      1.0  0.41210  0.65130  0.23430  1.0000 0.1409926186
N   N173      1.0  0.37650  0.64410  0.20580  1.0000 -0.0544270277
O   O347      1.0  0.46899  0.14370  0.81277  1.0000 -0.4995068494
O   O348      1.0  0.46900  0.10804  0.84868  1.0000 -0.4995068494
C   C693      1.0  0.43384  0.10455  0.80969  1.0000 -0.009554516
C   C694      1.0  0.45935  0.11986  0.82479  1.0000 0.5784922245
C   C695      1.0  0.42216  0.11580  0.78290  1.0000 -0.1095745209
H   H347      1.0  0.43170  0.13240  0.77340  1.0000 0.1409926186
C   C696      1.0  0.39500  0.13960  0.72880  1.0000 -0.0031827994
H   H348      1.0  0.41210  0.15130  0.73430  1.0000 0.1409926186
N   N174      1.0  0.37650  0.14410  0.70580  1.0000 -0.0544270277
O   O349      1.0  0.96899  0.64370  0.81277  1.0000 -0.4995068494
O   O350      1.0  0.96900  0.60804  0.84868  1.0000 -0.4995068494
C   C697      1.0  0.93384  0.60455  0.80969  1.0000 -0.009554516
C   C698      1.0  0.95935  0.61986  0.82479  1.0000 0.5784922245
C   C699      1.0  0.92216  0.61580  0.78290  1.0000 -0.1095745209
H   H349      1.0  0.93170  0.63240  0.77340  1.0000 0.1409926186
C   C700      1.0  0.89500  0.63960  0.72880  1.0000 -0.0031827994
H   H350      1.0  0.91210  0.65130  0.73430  1.0000 0.1409926186
N   N175      1.0  0.87650  0.64410  0.70580  1.0000 -0.0544270277
O   O351      1.0  0.96899  0.14370  0.31277  1.0000 -0.4995068494
O   O352      1.0  0.96900  0.10804  0.34868  1.0000 -0.4995068494
C   C701      1.0  0.93384  0.10455  0.30969  1.0000 -0.009554516
C   C702      1.0  0.95935  0.11986  0.32479  1.0000 0.5784922245
C   C703      1.0  0.92216  0.11580  0.28290  1.0000 -0.1095745209
H   H351      1.0  0.93170  0.13240  0.27340  1.0000 0.1409926186
C   C704      1.0  0.89500  0.13960  0.22880  1.0000 -0.0031827994
H   H352      1.0  0.91210  0.15130  0.23430  1.0000 0.1409926186
N   N176      1.0  0.87650  0.14410  0.20580  1.0000 -0.0544270277
O   O353      1.0  0.35630  0.31277  0.53101  1.0000 -0.4995068494
O   O354      1.0  0.39196  0.34868  0.53100  1.0000 -0.4995068494
C   C705      1.0  0.39545  0.30969  0.56616  1.0000 -0.009554516
C   C706      1.0  0.38014  0.32479  0.54065  1.0000 0.5784922245
C   C707      1.0  0.38420  0.28290  0.57784  1.0000 -0.1095745209
H   H353      1.0  0.36760  0.27340  0.56830  1.0000 0.1409926186
C   C708      1.0  0.36040  0.22880  0.60500  1.0000 -0.0031827994
H   H354      1.0  0.34870  0.23430  0.58790  1.0000 0.1409926186
N   N177      1.0  0.35590  0.20580  0.62350  1.0000 -0.0544270277
O   O355      1.0  0.35630  0.81277  0.03101  1.0000 -0.4995068494
O   O356      1.0  0.39196  0.84868  0.03100  1.0000 -0.4995068494
C   C709      1.0  0.39545  0.80969  0.06616  1.0000 -0.009554516
C   C710      1.0  0.38014  0.82479  0.04065  1.0000 0.5784922245
C   C711      1.0  0.38420  0.78290  0.07784  1.0000 -0.1095745209
H   H355      1.0  0.36760  0.77340  0.06830  1.0000 0.1409926186
C   C712      1.0  0.36040  0.72880  0.10500  1.0000 -0.0031827994
H   H356      1.0  0.34870  0.73430  0.08790  1.0000 0.1409926186
N   N178      1.0  0.35590  0.70580  0.12350  1.0000 -0.0544270277
O   O357      1.0  0.85630  0.31277  0.03101  1.0000 -0.4995068494
O   O358      1.0  0.89196  0.34868  0.03100  1.0000 -0.4995068494
C   C713      1.0  0.89545  0.30969  0.06616  1.0000 -0.009554516
C   C714      1.0  0.88014  0.32479  0.04065  1.0000 0.5784922245
C   C715      1.0  0.88420  0.28290  0.07784  1.0000 -0.1095745209
H   H357      1.0  0.86760  0.27340  0.06830  1.0000 0.1409926186
C   C716      1.0  0.86040  0.22880  0.10500  1.0000 -0.0031827994
H   H358      1.0  0.84870  0.23430  0.08790  1.0000 0.1409926186
N   N179      1.0  0.85590  0.20580  0.12350  1.0000 -0.0544270277
O   O359      1.0  0.85630  0.81277  0.53101  1.0000 -0.4995068494
O   O360      1.0  0.89196  0.84868  0.53100  1.0000 -0.4995068494
C   C717      1.0  0.89545  0.80969  0.56616  1.0000 -0.009554516
C   C718      1.0  0.88014  0.82479  0.54065  1.0000 0.5784922245
C   C719      1.0  0.88420  0.78290  0.57784  1.0000 -0.1095745209
H   H359      1.0  0.86760  0.77340  0.56830  1.0000 0.1409926186
C   C720      1.0  0.86040  0.72880  0.60500  1.0000 -0.0031827994
H   H360      1.0  0.84870  0.73430  0.58790  1.0000 0.1409926186
N   N180      1.0  0.85590  0.70580  0.62350  1.0000 -0.0544270277
O   O361      1.0  0.35630  0.68723  0.46899  1.0000 -0.4995068494
O   O362      1.0  0.39196  0.65132  0.46900  1.0000 -0.4995068494
C   C721      1.0  0.39545  0.69031  0.43384  1.0000 -0.009554516
C   C722      1.0  0.38014  0.67521  0.45935  1.0000 0.5784922245
C   C723      1.0  0.38420  0.71710  0.42216  1.0000 -0.1095745209
H   H361      1.0  0.36760  0.72660  0.43170  1.0000 0.1409926186
C   C724      1.0  0.36040  0.77120  0.39500  1.0000 -0.0031827994
H   H362      1.0  0.34870  0.76570  0.41210  1.0000 0.1409926186
N   N181      1.0  0.35590  0.79420  0.37650  1.0000 -0.0544270277
O   O363      1.0  0.35630  0.18723  0.96899  1.0000 -0.4995068494
O   O364      1.0  0.39196  0.15132  0.96900  1.0000 -0.4995068494
C   C725      1.0  0.39545  0.19031  0.93384  1.0000 -0.009554516
C   C726      1.0  0.38014  0.17521  0.95935  1.0000 0.5784922245
C   C727      1.0  0.38420  0.21710  0.92216  1.0000 -0.1095745209
H   H363      1.0  0.36760  0.22660  0.93170  1.0000 0.1409926186
C   C728      1.0  0.36040  0.27120  0.89500  1.0000 -0.0031827994
H   H364      1.0  0.34870  0.26570  0.91210  1.0000 0.1409926186
N   N182      1.0  0.35590  0.29420  0.87650  1.0000 -0.0544270277
O   O365      1.0  0.85630  0.68723  0.96899  1.0000 -0.4995068494
O   O366      1.0  0.89196  0.65132  0.96900  1.0000 -0.4995068494
C   C729      1.0  0.89545  0.69031  0.93384  1.0000 -0.009554516
C   C730      1.0  0.88014  0.67521  0.95935  1.0000 0.5784922245
C   C731      1.0  0.88420  0.71710  0.92216  1.0000 -0.1095745209
H   H365      1.0  0.86760  0.72660  0.93170  1.0000 0.1409926186
C   C732      1.0  0.86040  0.77120  0.89500  1.0000 -0.0031827994
H   H366      1.0  0.84870  0.76570  0.91210  1.0000 0.1409926186
N   N183      1.0  0.85590  0.79420  0.87650  1.0000 -0.0544270277
O   O367      1.0  0.85630  0.18723  0.46899  1.0000 -0.4995068494
O   O368      1.0  0.89196  0.15132  0.46900  1.0000 -0.4995068494
C   C733      1.0  0.89545  0.19031  0.43384  1.0000 -0.009554516
C   C734      1.0  0.88014  0.17521  0.45935  1.0000 0.5784922245
C   C735      1.0  0.88420  0.21710  0.42216  1.0000 -0.1095745209
H   H367      1.0  0.86760  0.22660  0.43170  1.0000 0.1409926186
C   C736      1.0  0.86040  0.27120  0.39500  1.0000 -0.0031827994
H   H368      1.0  0.84870  0.26570  0.41210  1.0000 0.1409926186
N   N184      1.0  0.85590  0.29420  0.37650  1.0000 -0.0544270277
O   O369      1.0  0.64370  0.31277  0.46899  1.0000 -0.4995068494
O   O370      1.0  0.60804  0.34868  0.46900  1.0000 -0.4995068494
C   C737      1.0  0.60455  0.30969  0.43384  1.0000 -0.009554516
C   C738      1.0  0.61986  0.32479  0.45935  1.0000 0.5784922245
C   C739      1.0  0.61580  0.28290  0.42216  1.0000 -0.1095745209
H   H369      1.0  0.63240  0.27340  0.43170  1.0000 0.1409926186
C   C740      1.0  0.63960  0.22880  0.39500  1.0000 -0.0031827994
H   H370      1.0  0.65130  0.23430  0.41210  1.0000 0.1409926186
N   N185      1.0  0.64410  0.20580  0.37650  1.0000 -0.0544270277
O   O371      1.0  0.64370  0.81277  0.96899  1.0000 -0.4995068494
O   O372      1.0  0.60804  0.84868  0.96900  1.0000 -0.4995068494
C   C741      1.0  0.60455  0.80969  0.93384  1.0000 -0.009554516
C   C742      1.0  0.61986  0.82479  0.95935  1.0000 0.5784922245
C   C743      1.0  0.61580  0.78290  0.92216  1.0000 -0.1095745209
H   H371      1.0  0.63240  0.77340  0.93170  1.0000 0.1409926186
C   C744      1.0  0.63960  0.72880  0.89500  1.0000 -0.0031827994
H   H372      1.0  0.65130  0.73430  0.91210  1.0000 0.1409926186
N   N186      1.0  0.64410  0.70580  0.87650  1.0000 -0.0544270277
O   O373      1.0  0.14370  0.31277  0.96899  1.0000 -0.4995068494
O   O374      1.0  0.10804  0.34868  0.96900  1.0000 -0.4995068494
C   C745      1.0  0.10455  0.30969  0.93384  1.0000 -0.009554516
C   C746      1.0  0.11986  0.32479  0.95935  1.0000 0.5784922245
C   C747      1.0  0.11580  0.28290  0.92216  1.0000 -0.1095745209
H   H373      1.0  0.13240  0.27340  0.93170  1.0000 0.1409926186
C   C748      1.0  0.13960  0.22880  0.89500  1.0000 -0.0031827994
H   H374      1.0  0.15130  0.23430  0.91210  1.0000 0.1409926186
N   N187      1.0  0.14410  0.20580  0.87650  1.0000 -0.0544270277
O   O375      1.0  0.14370  0.81277  0.46899  1.0000 -0.4995068494
O   O376      1.0  0.10804  0.84868  0.46900  1.0000 -0.4995068494
C   C749      1.0  0.10455  0.80969  0.43384  1.0000 -0.009554516
C   C750      1.0  0.11986  0.82479  0.45935  1.0000 0.5784922245
C   C751      1.0  0.11580  0.78290  0.42216  1.0000 -0.1095745209
H   H375      1.0  0.13240  0.77340  0.43170  1.0000 0.1409926186
C   C752      1.0  0.13960  0.72880  0.39500  1.0000 -0.0031827994
H   H376      1.0  0.15130  0.73430  0.41210  1.0000 0.1409926186
N   N188      1.0  0.14410  0.70580  0.37650  1.0000 -0.0544270277
O   O377      1.0  0.64370  0.68723  0.53101  1.0000 -0.4995068494
O   O378      1.0  0.60804  0.65132  0.53100  1.0000 -0.4995068494
C   C753      1.0  0.60455  0.69031  0.56616  1.0000 -0.009554516
C   C754      1.0  0.61986  0.67521  0.54065  1.0000 0.5784922245
C   C755      1.0  0.61580  0.71710  0.57784  1.0000 -0.1095745209
H   H377      1.0  0.63240  0.72660  0.56830  1.0000 0.1409926186
C   C756      1.0  0.63960  0.77120  0.60500  1.0000 -0.0031827994
H   H378      1.0  0.65130  0.76570  0.58790  1.0000 0.1409926186
N   N189      1.0  0.64410  0.79420  0.62350  1.0000 -0.0544270277
O   O379      1.0  0.64370  0.18723  0.03101  1.0000 -0.4995068494
O   O380      1.0  0.60804  0.15132  0.03100  1.0000 -0.4995068494
C   C757      1.0  0.60455  0.19031  0.06616  1.0000 -0.009554516
C   C758      1.0  0.61986  0.17521  0.04065  1.0000 0.5784922245
C   C759      1.0  0.61580  0.21710  0.07784  1.0000 -0.1095745209
H   H379      1.0  0.63240  0.22660  0.06830  1.0000 0.1409926186
C   C760      1.0  0.63960  0.27120  0.10500  1.0000 -0.0031827994
H   H380      1.0  0.65130  0.26570  0.08790  1.0000 0.1409926186
N   N190      1.0  0.64410  0.29420  0.12350  1.0000 -0.0544270277
O   O381      1.0  0.14370  0.68723  0.03101  1.0000 -0.4995068494
O   O382      1.0  0.10804  0.65132  0.03100  1.0000 -0.4995068494
C   C761      1.0  0.10455  0.69031  0.06616  1.0000 -0.009554516
C   C762      1.0  0.11986  0.67521  0.04065  1.0000 0.5784922245
C   C763      1.0  0.11580  0.71710  0.07784  1.0000 -0.1095745209
H   H381      1.0  0.13240  0.72660  0.06830  1.0000 0.1409926186
C   C764      1.0  0.13960  0.77120  0.10500  1.0000 -0.0031827994
H   H382      1.0  0.15130  0.76570  0.08790  1.0000 0.1409926186
N   N191      1.0  0.14410  0.79420  0.12350  1.0000 -0.0544270277
O   O383      1.0  0.14370  0.18723  0.53101  1.0000 -0.4995068494
O   O384      1.0  0.10804  0.15132  0.53100  1.0000 -0.4995068494
C   C765      1.0  0.10455  0.19031  0.56616  1.0000 -0.009554516
C   C766      1.0  0.11986  0.17521  0.54065  1.0000 0.5784922245
C   C767      1.0  0.11580  0.21710  0.57784  1.0000 -0.1095745209
H   H383      1.0  0.13240  0.22660  0.56830  1.0000 0.1409926186
C   C768      1.0  0.13960  0.27120  0.60500  1.0000 -0.0031827994
H   H384      1.0  0.15130  0.26570  0.58790  1.0000 0.1409926186
N   N192      1.0  0.14410  0.29420  0.62350  1.0000 -0.0544270277
V   V1        1.0  0.69343  0.75163  0.69343  1.0000 2.4024503907
O   O385      1.0  0.66980  0.73810  0.66980  1.0000 -0.5093925453
C   C769      1.0  0.57960  0.67720  0.57960  1.0000 -0.0875603931
H   H385      1.0  0.57160  0.65900  0.57160  1.0000 0.1526984294
C   C770      1.0  0.60310  0.73000  0.60310  1.0000 0.0883352564
C   C771      1.0  0.61550  0.75760  0.61550  1.0000 -0.009554516
V   V2        1.0  0.69343  0.25163  0.19343  1.0000 2.4024503907
O   O386      1.0  0.66980  0.23810  0.16980  1.0000 -0.5093925453
C   C772      1.0  0.57960  0.17720  0.07960  1.0000 -0.0875603931
H   H386      1.0  0.57160  0.15900  0.07160  1.0000 0.1526984294
C   C773      1.0  0.60310  0.23000  0.10310  1.0000 0.0883352564
C   C774      1.0  0.61550  0.25760  0.11550  1.0000 -0.009554516
V   V3        1.0  0.19343  0.75163  0.19343  1.0000 2.4024503907
O   O387      1.0  0.16980  0.73810  0.16980  1.0000 -0.5093925453
C   C775      1.0  0.07960  0.67720  0.07960  1.0000 -0.0875603931
H   H387      1.0  0.07160  0.65900  0.07160  1.0000 0.1526984294
C   C776      1.0  0.10310  0.73000  0.10310  1.0000 0.0883352564
C   C777      1.0  0.11550  0.75760  0.11550  1.0000 -0.009554516
V   V4        1.0  0.19343  0.25163  0.69343  1.0000 2.4024503907
O   O388      1.0  0.16980  0.23810  0.66980  1.0000 -0.5093925453
C   C778      1.0  0.07960  0.17720  0.57960  1.0000 -0.0875603931
H   H388      1.0  0.07160  0.15900  0.57160  1.0000 0.1526984294
C   C779      1.0  0.10310  0.23000  0.60310  1.0000 0.0883352564
C   C780      1.0  0.11550  0.25760  0.61550  1.0000 -0.009554516
V   V5        1.0  0.30657  0.24837  0.69343  1.0000 2.4024503907
O   O389      1.0  0.33020  0.26190  0.66980  1.0000 -0.5093925453
C   C781      1.0  0.42040  0.32280  0.57960  1.0000 -0.0875603931
H   H389      1.0  0.42840  0.34100  0.57160  1.0000 0.1526984294
C   C782      1.0  0.39690  0.27000  0.60310  1.0000 0.0883352564
C   C783      1.0  0.38450  0.24240  0.61550  1.0000 -0.009554516
V   V6        1.0  0.30657  0.74837  0.19343  1.0000 2.4024503907
O   O390      1.0  0.33020  0.76190  0.16980  1.0000 -0.5093925453
C   C784      1.0  0.42040  0.82280  0.07960  1.0000 -0.0875603931
H   H390      1.0  0.42840  0.84100  0.07160  1.0000 0.1526984294
C   C785      1.0  0.39690  0.77000  0.10310  1.0000 0.0883352564
C   C786      1.0  0.38450  0.74240  0.11550  1.0000 -0.009554516
V   V7        1.0  0.80657  0.24837  0.19343  1.0000 2.4024503907
O   O391      1.0  0.83020  0.26190  0.16980  1.0000 -0.5093925453
C   C787      1.0  0.92040  0.32280  0.07960  1.0000 -0.0875603931
H   H391      1.0  0.92840  0.34100  0.07160  1.0000 0.1526984294
C   C788      1.0  0.89690  0.27000  0.10310  1.0000 0.0883352564
C   C789      1.0  0.88450  0.24240  0.11550  1.0000 -0.009554516
V   V8        1.0  0.80657  0.74837  0.69343  1.0000 2.4024503907
O   O392      1.0  0.83020  0.76190  0.66980  1.0000 -0.5093925453
C   C790      1.0  0.92040  0.82280  0.57960  1.0000 -0.0875603931
H   H392      1.0  0.92840  0.84100  0.57160  1.0000 0.1526984294
C   C791      1.0  0.89690  0.77000  0.60310  1.0000 0.0883352564
C   C792      1.0  0.88450  0.74240  0.61550  1.0000 -0.009554516
V   V9        1.0  0.30657  0.75163  0.30657  1.0000 2.4024503907
O   O393      1.0  0.33020  0.73810  0.33020  1.0000 -0.5093925453
C   C793      1.0  0.42040  0.67720  0.42040  1.0000 -0.0875603931
H   H393      1.0  0.42840  0.65900  0.42840  1.0000 0.1526984294
C   C794      1.0  0.39690  0.73000  0.39690  1.0000 0.0883352564
C   C795      1.0  0.38450  0.75760  0.38450  1.0000 -0.009554516
V   V10       1.0  0.30657  0.25163  0.80657  1.0000 2.4024503907
O   O394      1.0  0.33020  0.23810  0.83020  1.0000 -0.5093925453
C   C796      1.0  0.42040  0.17720  0.92040  1.0000 -0.0875603931
H   H394      1.0  0.42840  0.15900  0.92840  1.0000 0.1526984294
C   C797      1.0  0.39690  0.23000  0.89690  1.0000 0.0883352564
C   C798      1.0  0.38450  0.25760  0.88450  1.0000 -0.009554516
V   V11       1.0  0.80657  0.75163  0.80657  1.0000 2.4024503907
O   O395      1.0  0.83020  0.73810  0.83020  1.0000 -0.5093925453
C   C799      1.0  0.92040  0.67720  0.92040  1.0000 -0.0875603931
H   H395      1.0  0.92840  0.65900  0.92840  1.0000 0.1526984294
C   C800      1.0  0.89690  0.73000  0.89690  1.0000 0.0883352564
C   C801      1.0  0.88450  0.75760  0.88450  1.0000 -0.009554516
V   V12       1.0  0.80657  0.25163  0.30657  1.0000 2.4024503907
O   O396      1.0  0.83020  0.23810  0.33020  1.0000 -0.5093925453
C   C802      1.0  0.92040  0.17720  0.42040  1.0000 -0.0875603931
H   H396      1.0  0.92840  0.15900  0.42840  1.0000 0.1526984294
C   C803      1.0  0.89690  0.23000  0.39690  1.0000 0.0883352564
C   C804      1.0  0.88450  0.25760  0.38450  1.0000 -0.009554516
V   V13       1.0  0.69343  0.24837  0.30657  1.0000 2.4024503907
O   O397      1.0  0.66980  0.26190  0.33020  1.0000 -0.5093925453
C   C805      1.0  0.57960  0.32280  0.42040  1.0000 -0.0875603931
H   H397      1.0  0.57160  0.34100  0.42840  1.0000 0.1526984294
C   C806      1.0  0.60310  0.27000  0.39690  1.0000 0.0883352564
C   C807      1.0  0.61550  0.24240  0.38450  1.0000 -0.009554516
V   V14       1.0  0.69343  0.74837  0.80657  1.0000 2.4024503907
O   O398      1.0  0.66980  0.76190  0.83020  1.0000 -0.5093925453
C   C808      1.0  0.57960  0.82280  0.92040  1.0000 -0.0875603931
H   H398      1.0  0.57160  0.84100  0.92840  1.0000 0.1526984294
C   C809      1.0  0.60310  0.77000  0.89690  1.0000 0.0883352564
C   C810      1.0  0.61550  0.74240  0.88450  1.0000 -0.009554516
V   V15       1.0  0.19343  0.24837  0.80657  1.0000 2.4024503907
O   O399      1.0  0.16980  0.26190  0.83020  1.0000 -0.5093925453
C   C811      1.0  0.07960  0.32280  0.92040  1.0000 -0.0875603931
H   H399      1.0  0.07160  0.34100  0.92840  1.0000 0.1526984294
C   C812      1.0  0.10310  0.27000  0.89690  1.0000 0.0883352564
C   C813      1.0  0.11550  0.24240  0.88450  1.0000 -0.009554516
V   V16       1.0  0.19343  0.74837  0.30657  1.0000 2.4024503907
O   O400      1.0  0.16980  0.76190  0.33020  1.0000 -0.5093925453
C   C814      1.0  0.07960  0.82280  0.42040  1.0000 -0.0875603931
H   H400      1.0  0.07160  0.84100  0.42840  1.0000 0.1526984294
C   C815      1.0  0.10310  0.77000  0.39690  1.0000 0.0883352564
C   C816      1.0  0.11550  0.74240  0.38450  1.0000 -0.009554516
V   V17       1.0  0.69343  0.69343  0.75163  1.0000 2.4024503907
O   O401      1.0  0.66980  0.66980  0.73810  1.0000 -0.5093925453
C   C817      1.0  0.57960  0.57960  0.67720  1.0000 -0.0875603931
H   H401      1.0  0.57160  0.57160  0.65900  1.0000 0.1526984294
C   C818      1.0  0.60310  0.60310  0.73000  1.0000 0.0883352564
C   C819      1.0  0.61550  0.61550  0.75760  1.0000 -0.009554516
V   V18       1.0  0.69343  0.19343  0.25163  1.0000 2.4024503907
O   O402      1.0  0.66980  0.16980  0.23810  1.0000 -0.5093925453
C   C820      1.0  0.57960  0.07960  0.17720  1.0000 -0.0875603931
H   H402      1.0  0.57160  0.07160  0.15900  1.0000 0.1526984294
C   C821      1.0  0.60310  0.10310  0.23000  1.0000 0.0883352564
C   C822      1.0  0.61550  0.11550  0.25760  1.0000 -0.009554516
V   V19       1.0  0.19343  0.69343  0.25163  1.0000 2.4024503907
O   O403      1.0  0.16980  0.66980  0.23810  1.0000 -0.5093925453
C   C823      1.0  0.07960  0.57960  0.17720  1.0000 -0.0875603931
H   H403      1.0  0.07160  0.57160  0.15900  1.0000 0.1526984294
C   C824      1.0  0.10310  0.60310  0.23000  1.0000 0.0883352564
C   C825      1.0  0.11550  0.61550  0.25760  1.0000 -0.009554516
V   V20       1.0  0.19343  0.19343  0.75163  1.0000 2.4024503907
O   O404      1.0  0.16980  0.16980  0.73810  1.0000 -0.5093925453
C   C826      1.0  0.07960  0.07960  0.67720  1.0000 -0.0875603931
H   H404      1.0  0.07160  0.07160  0.65900  1.0000 0.1526984294
C   C827      1.0  0.10310  0.10310  0.73000  1.0000 0.0883352564
C   C828      1.0  0.11550  0.11550  0.75760  1.0000 -0.009554516
V   V21       1.0  0.69343  0.30657  0.24837  1.0000 2.4024503907
O   O405      1.0  0.66980  0.33020  0.26190  1.0000 -0.5093925453
C   C829      1.0  0.57960  0.42040  0.32280  1.0000 -0.0875603931
H   H405      1.0  0.57160  0.42840  0.34100  1.0000 0.1526984294
C   C830      1.0  0.60310  0.39690  0.27000  1.0000 0.0883352564
C   C831      1.0  0.61550  0.38450  0.24240  1.0000 -0.009554516
V   V22       1.0  0.69343  0.80657  0.74837  1.0000 2.4024503907
O   O406      1.0  0.66980  0.83020  0.76190  1.0000 -0.5093925453
C   C832      1.0  0.57960  0.92040  0.82280  1.0000 -0.0875603931
H   H406      1.0  0.57160  0.92840  0.84100  1.0000 0.1526984294
C   C833      1.0  0.60310  0.89690  0.77000  1.0000 0.0883352564
C   C834      1.0  0.61550  0.88450  0.74240  1.0000 -0.009554516
V   V23       1.0  0.19343  0.30657  0.74837  1.0000 2.4024503907
O   O407      1.0  0.16980  0.33020  0.76190  1.0000 -0.5093925453
C   C835      1.0  0.07960  0.42040  0.82280  1.0000 -0.0875603931
H   H407      1.0  0.07160  0.42840  0.84100  1.0000 0.1526984294
C   C836      1.0  0.10310  0.39690  0.77000  1.0000 0.0883352564
C   C837      1.0  0.11550  0.38450  0.74240  1.0000 -0.009554516
V   V24       1.0  0.19343  0.80657  0.24837  1.0000 2.4024503907
O   O408      1.0  0.16980  0.83020  0.26190  1.0000 -0.5093925453
C   C838      1.0  0.07960  0.92040  0.32280  1.0000 -0.0875603931
H   H408      1.0  0.07160  0.92840  0.34100  1.0000 0.1526984294
C   C839      1.0  0.10310  0.89690  0.27000  1.0000 0.0883352564
C   C840      1.0  0.11550  0.88450  0.24240  1.0000 -0.009554516
V   V25       1.0  0.30657  0.30657  0.75163  1.0000 2.4024503907
O   O409      1.0  0.33020  0.33020  0.73810  1.0000 -0.5093925453
C   C841      1.0  0.42040  0.42040  0.67720  1.0000 -0.0875603931
H   H409      1.0  0.42840  0.42840  0.65900  1.0000 0.1526984294
C   C842      1.0  0.39690  0.39690  0.73000  1.0000 0.0883352564
C   C843      1.0  0.38450  0.38450  0.75760  1.0000 -0.009554516
V   V26       1.0  0.30657  0.80657  0.25163  1.0000 2.4024503907
O   O410      1.0  0.33020  0.83020  0.23810  1.0000 -0.5093925453
C   C844      1.0  0.42040  0.92040  0.17720  1.0000 -0.0875603931
H   H410      1.0  0.42840  0.92840  0.15900  1.0000 0.1526984294
C   C845      1.0  0.39690  0.89690  0.23000  1.0000 0.0883352564
C   C846      1.0  0.38450  0.88450  0.25760  1.0000 -0.009554516
V   V27       1.0  0.80657  0.30657  0.25163  1.0000 2.4024503907
O   O411      1.0  0.83020  0.33020  0.23810  1.0000 -0.5093925453
C   C847      1.0  0.92040  0.42040  0.17720  1.0000 -0.0875603931
H   H411      1.0  0.92840  0.42840  0.15900  1.0000 0.1526984294
C   C848      1.0  0.89690  0.39690  0.23000  1.0000 0.0883352564
C   C849      1.0  0.88450  0.38450  0.25760  1.0000 -0.009554516
V   V28       1.0  0.80657  0.80657  0.75163  1.0000 2.4024503907
O   O412      1.0  0.83020  0.83020  0.73810  1.0000 -0.5093925453
C   C850      1.0  0.92040  0.92040  0.67720  1.0000 -0.0875603931
H   H412      1.0  0.92840  0.92840  0.65900  1.0000 0.1526984294
C   C851      1.0  0.89690  0.89690  0.73000  1.0000 0.0883352564
C   C852      1.0  0.88450  0.88450  0.75760  1.0000 -0.009554516
V   V29       1.0  0.30657  0.69343  0.24837  1.0000 2.4024503907
O   O413      1.0  0.33020  0.66980  0.26190  1.0000 -0.5093925453
C   C853      1.0  0.42040  0.57960  0.32280  1.0000 -0.0875603931
H   H413      1.0  0.42840  0.57160  0.34100  1.0000 0.1526984294
C   C854      1.0  0.39690  0.60310  0.27000  1.0000 0.0883352564
C   C855      1.0  0.38450  0.61550  0.24240  1.0000 -0.009554516
V   V30       1.0  0.30657  0.19343  0.74837  1.0000 2.4024503907
O   O414      1.0  0.33020  0.16980  0.76190  1.0000 -0.5093925453
C   C856      1.0  0.42040  0.07960  0.82280  1.0000 -0.0875603931
H   H414      1.0  0.42840  0.07160  0.84100  1.0000 0.1526984294
C   C857      1.0  0.39690  0.10310  0.77000  1.0000 0.0883352564
C   C858      1.0  0.38450  0.11550  0.74240  1.0000 -0.009554516
V   V31       1.0  0.80657  0.69343  0.74837  1.0000 2.4024503907
O   O415      1.0  0.83020  0.66980  0.76190  1.0000 -0.5093925453
C   C859      1.0  0.92040  0.57960  0.82280  1.0000 -0.0875603931
H   H415      1.0  0.92840  0.57160  0.84100  1.0000 0.1526984294
C   C860      1.0  0.89690  0.60310  0.77000  1.0000 0.0883352564
C   C861      1.0  0.88450  0.61550  0.74240  1.0000 -0.009554516
V   V32       1.0  0.80657  0.19343  0.24837  1.0000 2.4024503907
O   O416      1.0  0.83020  0.16980  0.26190  1.0000 -0.5093925453
C   C862      1.0  0.92040  0.07960  0.32280  1.0000 -0.0875603931
H   H416      1.0  0.92840  0.07160  0.34100  1.0000 0.1526984294
C   C863      1.0  0.89690  0.10310  0.27000  1.0000 0.0883352564
C   C864      1.0  0.88450  0.11550  0.24240  1.0000 -0.009554516
V   V33       1.0  0.75163  0.69343  0.69343  1.0000 2.4024503907
O   O417      1.0  0.73810  0.66980  0.66980  1.0000 -0.5093925453
C   C865      1.0  0.67720  0.57960  0.57960  1.0000 -0.0875603931
H   H417      1.0  0.65900  0.57160  0.57160  1.0000 0.1526984294
C   C866      1.0  0.73000  0.60310  0.60310  1.0000 0.0883352564
C   C867      1.0  0.75760  0.61550  0.61550  1.0000 -0.009554516
V   V34       1.0  0.75163  0.19343  0.19343  1.0000 2.4024503907
O   O418      1.0  0.73810  0.16980  0.16980  1.0000 -0.5093925453
C   C868      1.0  0.67720  0.07960  0.07960  1.0000 -0.0875603931
H   H418      1.0  0.65900  0.07160  0.07160  1.0000 0.1526984294
C   C869      1.0  0.73000  0.10310  0.10310  1.0000 0.0883352564
C   C870      1.0  0.75760  0.11550  0.11550  1.0000 -0.009554516
V   V35       1.0  0.25163  0.69343  0.19343  1.0000 2.4024503907
O   O419      1.0  0.23810  0.66980  0.16980  1.0000 -0.5093925453
C   C871      1.0  0.17720  0.57960  0.07960  1.0000 -0.0875603931
H   H419      1.0  0.15900  0.57160  0.07160  1.0000 0.1526984294
C   C872      1.0  0.23000  0.60310  0.10310  1.0000 0.0883352564
C   C873      1.0  0.25760  0.61550  0.11550  1.0000 -0.009554516
V   V36       1.0  0.25163  0.19343  0.69343  1.0000 2.4024503907
O   O420      1.0  0.23810  0.16980  0.66980  1.0000 -0.5093925453
C   C874      1.0  0.17720  0.07960  0.57960  1.0000 -0.0875603931
H   H420      1.0  0.15900  0.07160  0.57160  1.0000 0.1526984294
C   C875      1.0  0.23000  0.10310  0.60310  1.0000 0.0883352564
C   C876      1.0  0.25760  0.11550  0.61550  1.0000 -0.009554516
V   V37       1.0  0.24837  0.69343  0.30657  1.0000 2.4024503907
O   O421      1.0  0.26190  0.66980  0.33020  1.0000 -0.5093925453
C   C877      1.0  0.32280  0.57960  0.42040  1.0000 -0.0875603931
H   H421      1.0  0.34100  0.57160  0.42840  1.0000 0.1526984294
C   C878      1.0  0.27000  0.60310  0.39690  1.0000 0.0883352564
C   C879      1.0  0.24240  0.61550  0.38450  1.0000 -0.009554516
V   V38       1.0  0.24837  0.19343  0.80657  1.0000 2.4024503907
O   O422      1.0  0.26190  0.16980  0.83020  1.0000 -0.5093925453
C   C880      1.0  0.32280  0.07960  0.92040  1.0000 -0.0875603931
H   H422      1.0  0.34100  0.07160  0.92840  1.0000 0.1526984294
C   C881      1.0  0.27000  0.10310  0.89690  1.0000 0.0883352564
C   C882      1.0  0.24240  0.11550  0.88450  1.0000 -0.009554516
V   V39       1.0  0.74837  0.69343  0.80657  1.0000 2.4024503907
O   O423      1.0  0.76190  0.66980  0.83020  1.0000 -0.5093925453
C   C883      1.0  0.82280  0.57960  0.92040  1.0000 -0.0875603931
H   H423      1.0  0.84100  0.57160  0.92840  1.0000 0.1526984294
C   C884      1.0  0.77000  0.60310  0.89690  1.0000 0.0883352564
C   C885      1.0  0.74240  0.61550  0.88450  1.0000 -0.009554516
V   V40       1.0  0.74837  0.19343  0.30657  1.0000 2.4024503907
O   O424      1.0  0.76190  0.16980  0.33020  1.0000 -0.5093925453
C   C886      1.0  0.82280  0.07960  0.42040  1.0000 -0.0875603931
H   H424      1.0  0.84100  0.07160  0.42840  1.0000 0.1526984294
C   C887      1.0  0.77000  0.10310  0.39690  1.0000 0.0883352564
C   C888      1.0  0.74240  0.11550  0.38450  1.0000 -0.009554516
V   V41       1.0  0.75163  0.30657  0.30657  1.0000 2.4024503907
O   O425      1.0  0.73810  0.33020  0.33020  1.0000 -0.5093925453
C   C889      1.0  0.67720  0.42040  0.42040  1.0000 -0.0875603931
H   H425      1.0  0.65900  0.42840  0.42840  1.0000 0.1526984294
C   C890      1.0  0.73000  0.39690  0.39690  1.0000 0.0883352564
C   C891      1.0  0.75760  0.38450  0.38450  1.0000 -0.009554516
V   V42       1.0  0.75163  0.80657  0.80657  1.0000 2.4024503907
O   O426      1.0  0.73810  0.83020  0.83020  1.0000 -0.5093925453
C   C892      1.0  0.67720  0.92040  0.92040  1.0000 -0.0875603931
H   H426      1.0  0.65900  0.92840  0.92840  1.0000 0.1526984294
C   C893      1.0  0.73000  0.89690  0.89690  1.0000 0.0883352564
C   C894      1.0  0.75760  0.88450  0.88450  1.0000 -0.009554516
V   V43       1.0  0.25163  0.30657  0.80657  1.0000 2.4024503907
O   O427      1.0  0.23810  0.33020  0.83020  1.0000 -0.5093925453
C   C895      1.0  0.17720  0.42040  0.92040  1.0000 -0.0875603931
H   H427      1.0  0.15900  0.42840  0.92840  1.0000 0.1526984294
C   C896      1.0  0.23000  0.39690  0.89690  1.0000 0.0883352564
C   C897      1.0  0.25760  0.38450  0.88450  1.0000 -0.009554516
V   V44       1.0  0.25163  0.80657  0.30657  1.0000 2.4024503907
O   O428      1.0  0.23810  0.83020  0.33020  1.0000 -0.5093925453
C   C898      1.0  0.17720  0.92040  0.42040  1.0000 -0.0875603931
H   H428      1.0  0.15900  0.92840  0.42840  1.0000 0.1526984294
C   C899      1.0  0.23000  0.89690  0.39690  1.0000 0.0883352564
C   C900      1.0  0.25760  0.88450  0.38450  1.0000 -0.009554516
V   V45       1.0  0.24837  0.30657  0.69343  1.0000 2.4024503907
O   O429      1.0  0.26190  0.33020  0.66980  1.0000 -0.5093925453
C   C901      1.0  0.32280  0.42040  0.57960  1.0000 -0.0875603931
H   H429      1.0  0.34100  0.42840  0.57160  1.0000 0.1526984294
C   C902      1.0  0.27000  0.39690  0.60310  1.0000 0.0883352564
C   C903      1.0  0.24240  0.38450  0.61550  1.0000 -0.009554516
V   V46       1.0  0.24837  0.80657  0.19343  1.0000 2.4024503907
O   O430      1.0  0.26190  0.83020  0.16980  1.0000 -0.5093925453
C   C904      1.0  0.32280  0.92040  0.07960  1.0000 -0.0875603931
H   H430      1.0  0.34100  0.92840  0.07160  1.0000 0.1526984294
C   C905      1.0  0.27000  0.89690  0.10310  1.0000 0.0883352564
C   C906      1.0  0.24240  0.88450  0.11550  1.0000 -0.009554516
V   V47       1.0  0.74837  0.30657  0.19343  1.0000 2.4024503907
O   O431      1.0  0.76190  0.33020  0.16980  1.0000 -0.5093925453
C   C907      1.0  0.82280  0.42040  0.07960  1.0000 -0.0875603931
H   H431      1.0  0.84100  0.42840  0.07160  1.0000 0.1526984294
C   C908      1.0  0.77000  0.39690  0.10310  1.0000 0.0883352564
C   C909      1.0  0.74240  0.38450  0.11550  1.0000 -0.009554516
V   V48       1.0  0.74837  0.80657  0.69343  1.0000 2.4024503907
O   O432      1.0  0.76190  0.83020  0.66980  1.0000 -0.5093925453
C   C910      1.0  0.82280  0.92040  0.57960  1.0000 -0.0875603931
H   H432      1.0  0.84100  0.92840  0.57160  1.0000 0.1526984294
C   C911      1.0  0.77000  0.89690  0.60310  1.0000 0.0883352564
C   C912      1.0  0.74240  0.88450  0.61550  1.0000 -0.009554516
V   V49       1.0  0.75163  0.69343  0.30657  1.0000 2.4024503907
O   O433      1.0  0.73810  0.66980  0.33020  1.0000 -0.5093925453
C   C913      1.0  0.67720  0.57960  0.42040  1.0000 -0.0875603931
H   H433      1.0  0.65900  0.57160  0.42840  1.0000 0.1526984294
C   C914      1.0  0.73000  0.60310  0.39690  1.0000 0.0883352564
C   C915      1.0  0.75760  0.61550  0.38450  1.0000 -0.009554516
V   V50       1.0  0.75163  0.19343  0.80657  1.0000 2.4024503907
O   O434      1.0  0.73810  0.16980  0.83020  1.0000 -0.5093925453
C   C916      1.0  0.67720  0.07960  0.92040  1.0000 -0.0875603931
H   H434      1.0  0.65900  0.07160  0.92840  1.0000 0.1526984294
C   C917      1.0  0.73000  0.10310  0.89690  1.0000 0.0883352564
C   C918      1.0  0.75760  0.11550  0.88450  1.0000 -0.009554516
V   V51       1.0  0.25163  0.69343  0.80657  1.0000 2.4024503907
O   O435      1.0  0.23810  0.66980  0.83020  1.0000 -0.5093925453
C   C919      1.0  0.17720  0.57960  0.92040  1.0000 -0.0875603931
H   H435      1.0  0.15900  0.57160  0.92840  1.0000 0.1526984294
C   C920      1.0  0.23000  0.60310  0.89690  1.0000 0.0883352564
C   C921      1.0  0.25760  0.61550  0.88450  1.0000 -0.009554516
V   V52       1.0  0.25163  0.19343  0.30657  1.0000 2.4024503907
O   O436      1.0  0.23810  0.16980  0.33020  1.0000 -0.5093925453
C   C922      1.0  0.17720  0.07960  0.42040  1.0000 -0.0875603931
H   H436      1.0  0.15900  0.07160  0.42840  1.0000 0.1526984294
C   C923      1.0  0.23000  0.10310  0.39690  1.0000 0.0883352564
C   C924      1.0  0.25760  0.11550  0.38450  1.0000 -0.009554516
V   V53       1.0  0.24837  0.30657  0.30657  1.0000 2.4024503907
O   O437      1.0  0.26190  0.33020  0.33020  1.0000 -0.5093925453
C   C925      1.0  0.32280  0.42040  0.42040  1.0000 -0.0875603931
H   H437      1.0  0.34100  0.42840  0.42840  1.0000 0.1526984294
C   C926      1.0  0.27000  0.39690  0.39690  1.0000 0.0883352564
C   C927      1.0  0.24240  0.38450  0.38450  1.0000 -0.009554516
V   V54       1.0  0.24837  0.80657  0.80657  1.0000 2.4024503907
O   O438      1.0  0.26190  0.83020  0.83020  1.0000 -0.5093925453
C   C928      1.0  0.32280  0.92040  0.92040  1.0000 -0.0875603931
H   H438      1.0  0.34100  0.92840  0.92840  1.0000 0.1526984294
C   C929      1.0  0.27000  0.89690  0.89690  1.0000 0.0883352564
C   C930      1.0  0.24240  0.88450  0.88450  1.0000 -0.009554516
V   V55       1.0  0.74837  0.30657  0.80657  1.0000 2.4024503907
O   O439      1.0  0.76190  0.33020  0.83020  1.0000 -0.5093925453
C   C931      1.0  0.82280  0.42040  0.92040  1.0000 -0.0875603931
H   H439      1.0  0.84100  0.42840  0.92840  1.0000 0.1526984294
C   C932      1.0  0.77000  0.39690  0.89690  1.0000 0.0883352564
C   C933      1.0  0.74240  0.38450  0.88450  1.0000 -0.009554516
V   V56       1.0  0.74837  0.80657  0.30657  1.0000 2.4024503907
O   O440      1.0  0.76190  0.83020  0.33020  1.0000 -0.5093925453
C   C934      1.0  0.82280  0.92040  0.42040  1.0000 -0.0875603931
H   H440      1.0  0.84100  0.92840  0.42840  1.0000 0.1526984294
C   C935      1.0  0.77000  0.89690  0.39690  1.0000 0.0883352564
C   C936      1.0  0.74240  0.88450  0.38450  1.0000 -0.009554516
V   V57       1.0  0.75163  0.30657  0.69343  1.0000 2.4024503907
O   O441      1.0  0.73810  0.33020  0.66980  1.0000 -0.5093925453
C   C937      1.0  0.67720  0.42040  0.57960  1.0000 -0.0875603931
H   H441      1.0  0.65900  0.42840  0.57160  1.0000 0.1526984294
C   C938      1.0  0.73000  0.39690  0.60310  1.0000 0.0883352564
C   C939      1.0  0.75760  0.38450  0.61550  1.0000 -0.009554516
V   V58       1.0  0.75163  0.80657  0.19343  1.0000 2.4024503907
O   O442      1.0  0.73810  0.83020  0.16980  1.0000 -0.5093925453
C   C940      1.0  0.67720  0.92040  0.07960  1.0000 -0.0875603931
H   H442      1.0  0.65900  0.92840  0.07160  1.0000 0.1526984294
C   C941      1.0  0.73000  0.89690  0.10310  1.0000 0.0883352564
C   C942      1.0  0.75760  0.88450  0.11550  1.0000 -0.009554516
V   V59       1.0  0.25163  0.30657  0.19343  1.0000 2.4024503907
O   O443      1.0  0.23810  0.33020  0.16980  1.0000 -0.5093925453
C   C943      1.0  0.17720  0.42040  0.07960  1.0000 -0.0875603931
H   H443      1.0  0.15900  0.42840  0.07160  1.0000 0.1526984294
C   C944      1.0  0.23000  0.39690  0.10310  1.0000 0.0883352564
C   C945      1.0  0.25760  0.38450  0.11550  1.0000 -0.009554516
V   V60       1.0  0.25163  0.80657  0.69343  1.0000 2.4024503907
O   O444      1.0  0.23810  0.83020  0.66980  1.0000 -0.5093925453
C   C946      1.0  0.17720  0.92040  0.57960  1.0000 -0.0875603931
H   H444      1.0  0.15900  0.92840  0.57160  1.0000 0.1526984294
C   C947      1.0  0.23000  0.89690  0.60310  1.0000 0.0883352564
C   C948      1.0  0.25760  0.88450  0.61550  1.0000 -0.009554516
V   V61       1.0  0.24837  0.69343  0.69343  1.0000 2.4024503907
O   O445      1.0  0.26190  0.66980  0.66980  1.0000 -0.5093925453
C   C949      1.0  0.32280  0.57960  0.57960  1.0000 -0.0875603931
H   H445      1.0  0.34100  0.57160  0.57160  1.0000 0.1526984294
C   C950      1.0  0.27000  0.60310  0.60310  1.0000 0.0883352564
C   C951      1.0  0.24240  0.61550  0.61550  1.0000 -0.009554516
V   V62       1.0  0.24837  0.19343  0.19343  1.0000 2.4024503907
O   O446      1.0  0.26190  0.16980  0.16980  1.0000 -0.5093925453
C   C952      1.0  0.32280  0.07960  0.07960  1.0000 -0.0875603931
H   H446      1.0  0.34100  0.07160  0.07160  1.0000 0.1526984294
C   C953      1.0  0.27000  0.10310  0.10310  1.0000 0.0883352564
C   C954      1.0  0.24240  0.11550  0.11550  1.0000 -0.009554516
V   V63       1.0  0.74837  0.69343  0.19343  1.0000 2.4024503907
O   O447      1.0  0.76190  0.66980  0.16980  1.0000 -0.5093925453
C   C955      1.0  0.82280  0.57960  0.07960  1.0000 -0.0875603931
H   H447      1.0  0.84100  0.57160  0.07160  1.0000 0.1526984294
C   C956      1.0  0.77000  0.60310  0.10310  1.0000 0.0883352564
C   C957      1.0  0.74240  0.61550  0.11550  1.0000 -0.009554516
V   V64       1.0  0.74837  0.19343  0.69343  1.0000 2.4024503907
O   O448      1.0  0.76190  0.16980  0.66980  1.0000 -0.5093925453
C   C958      1.0  0.82280  0.07960  0.57960  1.0000 -0.0875603931
H   H448      1.0  0.84100  0.07160  0.57160  1.0000 0.1526984294
C   C959      1.0  0.77000  0.10310  0.60310  1.0000 0.0883352564
C   C960      1.0  0.74240  0.11550  0.61550  1.0000 -0.009554516
V   V65       1.0  0.69343  0.69343  0.24837  1.0000 2.4024503907
O   O449      1.0  0.66980  0.66980  0.26190  1.0000 -0.5093925453
C   C961      1.0  0.57960  0.57960  0.32280  1.0000 -0.0875603931
H   H449      1.0  0.57160  0.57160  0.34100  1.0000 0.1526984294
C   C962      1.0  0.60310  0.60310  0.27000  1.0000 0.0883352564
C   C963      1.0  0.61550  0.61550  0.24240  1.0000 -0.009554516
V   V66       1.0  0.69343  0.19343  0.74837  1.0000 2.4024503907
O   O450      1.0  0.66980  0.16980  0.76190  1.0000 -0.5093925453
C   C964      1.0  0.57960  0.07960  0.82280  1.0000 -0.0875603931
H   H450      1.0  0.57160  0.07160  0.84100  1.0000 0.1526984294
C   C965      1.0  0.60310  0.10310  0.77000  1.0000 0.0883352564
C   C966      1.0  0.61550  0.11550  0.74240  1.0000 -0.009554516
V   V67       1.0  0.19343  0.69343  0.74837  1.0000 2.4024503907
O   O451      1.0  0.16980  0.66980  0.76190  1.0000 -0.5093925453
C   C967      1.0  0.07960  0.57960  0.82280  1.0000 -0.0875603931
H   H451      1.0  0.07160  0.57160  0.84100  1.0000 0.1526984294
C   C968      1.0  0.10310  0.60310  0.77000  1.0000 0.0883352564
C   C969      1.0  0.11550  0.61550  0.74240  1.0000 -0.009554516
V   V68       1.0  0.19343  0.19343  0.24837  1.0000 2.4024503907
O   O452      1.0  0.16980  0.16980  0.26190  1.0000 -0.5093925453
C   C970      1.0  0.07960  0.07960  0.32280  1.0000 -0.0875603931
H   H452      1.0  0.07160  0.07160  0.34100  1.0000 0.1526984294
C   C971      1.0  0.10310  0.10310  0.27000  1.0000 0.0883352564
C   C972      1.0  0.11550  0.11550  0.24240  1.0000 -0.009554516
V   V69       1.0  0.30657  0.69343  0.75163  1.0000 2.4024503907
O   O453      1.0  0.33020  0.66980  0.73810  1.0000 -0.5093925453
C   C973      1.0  0.42040  0.57960  0.67720  1.0000 -0.0875603931
H   H453      1.0  0.42840  0.57160  0.65900  1.0000 0.1526984294
C   C974      1.0  0.39690  0.60310  0.73000  1.0000 0.0883352564
C   C975      1.0  0.38450  0.61550  0.75760  1.0000 -0.009554516
V   V70       1.0  0.30657  0.19343  0.25163  1.0000 2.4024503907
O   O454      1.0  0.33020  0.16980  0.23810  1.0000 -0.5093925453
C   C976      1.0  0.42040  0.07960  0.17720  1.0000 -0.0875603931
H   H454      1.0  0.42840  0.07160  0.15900  1.0000 0.1526984294
C   C977      1.0  0.39690  0.10310  0.23000  1.0000 0.0883352564
C   C978      1.0  0.38450  0.11550  0.25760  1.0000 -0.009554516
V   V71       1.0  0.80657  0.69343  0.25163  1.0000 2.4024503907
O   O455      1.0  0.83020  0.66980  0.23810  1.0000 -0.5093925453
C   C979      1.0  0.92040  0.57960  0.17720  1.0000 -0.0875603931
H   H455      1.0  0.92840  0.57160  0.15900  1.0000 0.1526984294
C   C980      1.0  0.89690  0.60310  0.23000  1.0000 0.0883352564
C   C981      1.0  0.88450  0.61550  0.25760  1.0000 -0.009554516
V   V72       1.0  0.80657  0.19343  0.75163  1.0000 2.4024503907
O   O456      1.0  0.83020  0.16980  0.73810  1.0000 -0.5093925453
C   C982      1.0  0.92040  0.07960  0.67720  1.0000 -0.0875603931
H   H456      1.0  0.92840  0.07160  0.65900  1.0000 0.1526984294
C   C983      1.0  0.89690  0.10310  0.73000  1.0000 0.0883352564
C   C984      1.0  0.88450  0.11550  0.75760  1.0000 -0.009554516
V   V73       1.0  0.30657  0.30657  0.24837  1.0000 2.4024503907
O   O457      1.0  0.33020  0.33020  0.26190  1.0000 -0.5093925453
C   C985      1.0  0.42040  0.42040  0.32280  1.0000 -0.0875603931
H   H457      1.0  0.42840  0.42840  0.34100  1.0000 0.1526984294
C   C986      1.0  0.39690  0.39690  0.27000  1.0000 0.0883352564
C   C987      1.0  0.38450  0.38450  0.24240  1.0000 -0.009554516
V   V74       1.0  0.30657  0.80657  0.74837  1.0000 2.4024503907
O   O458      1.0  0.33020  0.83020  0.76190  1.0000 -0.5093925453
C   C988      1.0  0.42040  0.92040  0.82280  1.0000 -0.0875603931
H   H458      1.0  0.42840  0.92840  0.84100  1.0000 0.1526984294
C   C989      1.0  0.39690  0.89690  0.77000  1.0000 0.0883352564
C   C990      1.0  0.38450  0.88450  0.74240  1.0000 -0.009554516
V   V75       1.0  0.80657  0.30657  0.74837  1.0000 2.4024503907
O   O459      1.0  0.83020  0.33020  0.76190  1.0000 -0.5093925453
C   C991      1.0  0.92040  0.42040  0.82280  1.0000 -0.0875603931
H   H459      1.0  0.92840  0.42840  0.84100  1.0000 0.1526984294
C   C992      1.0  0.89690  0.39690  0.77000  1.0000 0.0883352564
C   C993      1.0  0.88450  0.38450  0.74240  1.0000 -0.009554516
V   V76       1.0  0.80657  0.80657  0.24837  1.0000 2.4024503907
O   O460      1.0  0.83020  0.83020  0.26190  1.0000 -0.5093925453
C   C994      1.0  0.92040  0.92040  0.32280  1.0000 -0.0875603931
H   H460      1.0  0.92840  0.92840  0.34100  1.0000 0.1526984294
C   C995      1.0  0.89690  0.89690  0.27000  1.0000 0.0883352564
C   C996      1.0  0.88450  0.88450  0.24240  1.0000 -0.009554516
V   V77       1.0  0.69343  0.30657  0.75163  1.0000 2.4024503907
O   O461      1.0  0.66980  0.33020  0.73810  1.0000 -0.5093925453
C   C997      1.0  0.57960  0.42040  0.67720  1.0000 -0.0875603931
H   H461      1.0  0.57160  0.42840  0.65900  1.0000 0.1526984294
C   C998      1.0  0.60310  0.39690  0.73000  1.0000 0.0883352564
C   C999      1.0  0.61550  0.38450  0.75760  1.0000 -0.009554516
V   V78       1.0  0.69343  0.80657  0.25163  1.0000 2.4024503907
O   O462      1.0  0.66980  0.83020  0.23810  1.0000 -0.5093925453
C   C1000     1.0  0.57960  0.92040  0.17720  1.0000 -0.0875603931
H   H462      1.0  0.57160  0.92840  0.15900  1.0000 0.1526984294
C   C1001     1.0  0.60310  0.89690  0.23000  1.0000 0.0883352564
C   C1002     1.0  0.61550  0.88450  0.25760  1.0000 -0.009554516
V   V79       1.0  0.19343  0.30657  0.25163  1.0000 2.4024503907
O   O463      1.0  0.16980  0.33020  0.23810  1.0000 -0.5093925453
C   C1003     1.0  0.07960  0.42040  0.17720  1.0000 -0.0875603931
H   H463      1.0  0.07160  0.42840  0.15900  1.0000 0.1526984294
C   C1004     1.0  0.10310  0.39690  0.23000  1.0000 0.0883352564
C   C1005     1.0  0.11550  0.38450  0.25760  1.0000 -0.009554516
V   V80       1.0  0.19343  0.80657  0.75163  1.0000 2.4024503907
O   O464      1.0  0.16980  0.83020  0.73810  1.0000 -0.5093925453
C   C1006     1.0  0.07960  0.92040  0.67720  1.0000 -0.0875603931
H   H464      1.0  0.07160  0.92840  0.65900  1.0000 0.1526984294
C   C1007     1.0  0.10310  0.89690  0.73000  1.0000 0.0883352564
C   C1008     1.0  0.11550  0.88450  0.75760  1.0000 -0.009554516
V   V81       1.0  0.69343  0.75163  0.30657  1.0000 2.4024503907
O   O465      1.0  0.66980  0.73810  0.33020  1.0000 -0.5093925453
C   C1009     1.0  0.57960  0.67720  0.42040  1.0000 -0.0875603931
H   H465      1.0  0.57160  0.65900  0.42840  1.0000 0.1526984294
C   C1010     1.0  0.60310  0.73000  0.39690  1.0000 0.0883352564
C   C1011     1.0  0.61550  0.75760  0.38450  1.0000 -0.009554516
V   V82       1.0  0.69343  0.25163  0.80657  1.0000 2.4024503907
O   O466      1.0  0.66980  0.23810  0.83020  1.0000 -0.5093925453
C   C1012     1.0  0.57960  0.17720  0.92040  1.0000 -0.0875603931
H   H466      1.0  0.57160  0.15900  0.92840  1.0000 0.1526984294
C   C1013     1.0  0.60310  0.23000  0.89690  1.0000 0.0883352564
C   C1014     1.0  0.61550  0.25760  0.88450  1.0000 -0.009554516
V   V83       1.0  0.19343  0.75163  0.80657  1.0000 2.4024503907
O   O467      1.0  0.16980  0.73810  0.83020  1.0000 -0.5093925453
C   C1015     1.0  0.07960  0.67720  0.92040  1.0000 -0.0875603931
H   H467      1.0  0.07160  0.65900  0.92840  1.0000 0.1526984294
C   C1016     1.0  0.10310  0.73000  0.89690  1.0000 0.0883352564
C   C1017     1.0  0.11550  0.75760  0.88450  1.0000 -0.009554516
V   V84       1.0  0.19343  0.25163  0.30657  1.0000 2.4024503907
O   O468      1.0  0.16980  0.23810  0.33020  1.0000 -0.5093925453
C   C1018     1.0  0.07960  0.17720  0.42040  1.0000 -0.0875603931
H   H468      1.0  0.07160  0.15900  0.42840  1.0000 0.1526984294
C   C1019     1.0  0.10310  0.23000  0.39690  1.0000 0.0883352564
C   C1020     1.0  0.11550  0.25760  0.38450  1.0000 -0.009554516
V   V85       1.0  0.69343  0.24837  0.69343  1.0000 2.4024503907
O   O469      1.0  0.66980  0.26190  0.66980  1.0000 -0.5093925453
C   C1021     1.0  0.57960  0.32280  0.57960  1.0000 -0.0875603931
H   H469      1.0  0.57160  0.34100  0.57160  1.0000 0.1526984294
C   C1022     1.0  0.60310  0.27000  0.60310  1.0000 0.0883352564
C   C1023     1.0  0.61550  0.24240  0.61550  1.0000 -0.009554516
V   V86       1.0  0.69343  0.74837  0.19343  1.0000 2.4024503907
O   O470      1.0  0.66980  0.76190  0.16980  1.0000 -0.5093925453
C   C1024     1.0  0.57960  0.82280  0.07960  1.0000 -0.0875603931
H   H470      1.0  0.57160  0.84100  0.07160  1.0000 0.1526984294
C   C1025     1.0  0.60310  0.77000  0.10310  1.0000 0.0883352564
C   C1026     1.0  0.61550  0.74240  0.11550  1.0000 -0.009554516
V   V87       1.0  0.19343  0.24837  0.19343  1.0000 2.4024503907
O   O471      1.0  0.16980  0.26190  0.16980  1.0000 -0.5093925453
C   C1027     1.0  0.07960  0.32280  0.07960  1.0000 -0.0875603931
H   H471      1.0  0.07160  0.34100  0.07160  1.0000 0.1526984294
C   C1028     1.0  0.10310  0.27000  0.10310  1.0000 0.0883352564
C   C1029     1.0  0.11550  0.24240  0.11550  1.0000 -0.009554516
V   V88       1.0  0.19343  0.74837  0.69343  1.0000 2.4024503907
O   O472      1.0  0.16980  0.76190  0.66980  1.0000 -0.5093925453
C   C1030     1.0  0.07960  0.82280  0.57960  1.0000 -0.0875603931
H   H472      1.0  0.07160  0.84100  0.57160  1.0000 0.1526984294
C   C1031     1.0  0.10310  0.77000  0.60310  1.0000 0.0883352564
C   C1032     1.0  0.11550  0.74240  0.61550  1.0000 -0.009554516
V   V89       1.0  0.30657  0.75163  0.69343  1.0000 2.4024503907
O   O473      1.0  0.33020  0.73810  0.66980  1.0000 -0.5093925453
C   C1033     1.0  0.42040  0.67720  0.57960  1.0000 -0.0875603931
H   H473      1.0  0.42840  0.65900  0.57160  1.0000 0.1526984294
C   C1034     1.0  0.39690  0.73000  0.60310  1.0000 0.0883352564
C   C1035     1.0  0.38450  0.75760  0.61550  1.0000 -0.009554516
V   V90       1.0  0.30657  0.25163  0.19343  1.0000 2.4024503907
O   O474      1.0  0.33020  0.23810  0.16980  1.0000 -0.5093925453
C   C1036     1.0  0.42040  0.17720  0.07960  1.0000 -0.0875603931
H   H474      1.0  0.42840  0.15900  0.07160  1.0000 0.1526984294
C   C1037     1.0  0.39690  0.23000  0.10310  1.0000 0.0883352564
C   C1038     1.0  0.38450  0.25760  0.11550  1.0000 -0.009554516
V   V91       1.0  0.80657  0.75163  0.19343  1.0000 2.4024503907
O   O475      1.0  0.83020  0.73810  0.16980  1.0000 -0.5093925453
C   C1039     1.0  0.92040  0.67720  0.07960  1.0000 -0.0875603931
H   H475      1.0  0.92840  0.65900  0.07160  1.0000 0.1526984294
C   C1040     1.0  0.89690  0.73000  0.10310  1.0000 0.0883352564
C   C1041     1.0  0.88450  0.75760  0.11550  1.0000 -0.009554516
V   V92       1.0  0.80657  0.25163  0.69343  1.0000 2.4024503907
O   O476      1.0  0.83020  0.23810  0.66980  1.0000 -0.5093925453
C   C1042     1.0  0.92040  0.17720  0.57960  1.0000 -0.0875603931
H   H476      1.0  0.92840  0.15900  0.57160  1.0000 0.1526984294
C   C1043     1.0  0.89690  0.23000  0.60310  1.0000 0.0883352564
C   C1044     1.0  0.88450  0.25760  0.61550  1.0000 -0.009554516
V   V93       1.0  0.30657  0.24837  0.30657  1.0000 2.4024503907
O   O477      1.0  0.33020  0.26190  0.33020  1.0000 -0.5093925453
C   C1045     1.0  0.42040  0.32280  0.42040  1.0000 -0.0875603931
H   H477      1.0  0.42840  0.34100  0.42840  1.0000 0.1526984294
C   C1046     1.0  0.39690  0.27000  0.39690  1.0000 0.0883352564
C   C1047     1.0  0.38450  0.24240  0.38450  1.0000 -0.009554516
V   V94       1.0  0.30657  0.74837  0.80657  1.0000 2.4024503907
O   O478      1.0  0.33020  0.76190  0.83020  1.0000 -0.5093925453
C   C1048     1.0  0.42040  0.82280  0.92040  1.0000 -0.0875603931
H   H478      1.0  0.42840  0.84100  0.92840  1.0000 0.1526984294
C   C1049     1.0  0.39690  0.77000  0.89690  1.0000 0.0883352564
C   C1050     1.0  0.38450  0.74240  0.88450  1.0000 -0.009554516
V   V95       1.0  0.80657  0.24837  0.80657  1.0000 2.4024503907
O   O479      1.0  0.83020  0.26190  0.83020  1.0000 -0.5093925453
C   C1051     1.0  0.92040  0.32280  0.92040  1.0000 -0.0875603931
H   H479      1.0  0.92840  0.34100  0.92840  1.0000 0.1526984294
C   C1052     1.0  0.89690  0.27000  0.89690  1.0000 0.0883352564
C   C1053     1.0  0.88450  0.24240  0.88450  1.0000 -0.009554516
V   V96       1.0  0.80657  0.74837  0.30657  1.0000 2.4024503907
O   O480      1.0  0.83020  0.76190  0.33020  1.0000 -0.5093925453
C   C1054     1.0  0.92040  0.82280  0.42040  1.0000 -0.0875603931
H   H480      1.0  0.92840  0.84100  0.42840  1.0000 0.1526984294
C   C1055     1.0  0.89690  0.77000  0.39690  1.0000 0.0883352564
C   C1056     1.0  0.88450  0.74240  0.38450  1.0000 -0.009554516
O   O481      1.0  0.67500  0.78120  0.71880  1.0000 -0.8038939083
Cu  Cu1       1.0  0.62196  0.82496  0.67504  1.0000 0.8762835978
O   O482      1.0  0.58790  0.80810  0.69190  1.0000 -0.7519957691
O   O483      1.0  0.17500  0.78120  0.21880  1.0000 -0.8038939083
Cu  Cu2       1.0  0.12196  0.82496  0.17504  1.0000 0.8762835978
O   O484      1.0  0.08790  0.80810  0.19190  1.0000 -0.7519957691
O   O485      1.0  0.32500  0.21880  0.71880  1.0000 -0.8038939083
Cu  Cu3       1.0  0.37804  0.17504  0.67504  1.0000 0.8762835978
O   O486      1.0  0.41210  0.19190  0.69190  1.0000 -0.7519957691
O   O487      1.0  0.82500  0.21880  0.21880  1.0000 -0.8038939083
Cu  Cu4       1.0  0.87804  0.17504  0.17504  1.0000 0.8762835978
O   O488      1.0  0.91210  0.19190  0.19190  1.0000 -0.7519957691
O   O489      1.0  0.32500  0.78120  0.28120  1.0000 -0.8038939083
Cu  Cu5       1.0  0.37804  0.82496  0.32496  1.0000 0.8762835978
O   O490      1.0  0.41210  0.80810  0.30810  1.0000 -0.7519957691
O   O491      1.0  0.82500  0.78120  0.78120  1.0000 -0.8038939083
Cu  Cu6       1.0  0.87804  0.82496  0.82496  1.0000 0.8762835978
O   O492      1.0  0.91210  0.80810  0.80810  1.0000 -0.7519957691
O   O493      1.0  0.67500  0.21880  0.28120  1.0000 -0.8038939083
Cu  Cu7       1.0  0.62196  0.17504  0.32496  1.0000 0.8762835978
O   O494      1.0  0.58790  0.19190  0.30810  1.0000 -0.7519957691
O   O495      1.0  0.17500  0.21880  0.78120  1.0000 -0.8038939083
Cu  Cu8       1.0  0.12196  0.17504  0.82496  1.0000 0.8762835978
O   O496      1.0  0.08790  0.19190  0.80810  1.0000 -0.7519957691
O   O497      1.0  0.71880  0.67500  0.78120  1.0000 -0.8038939083
Cu  Cu9       1.0  0.67504  0.62196  0.82496  1.0000 0.8762835978
O   O498      1.0  0.69190  0.58790  0.80810  1.0000 -0.7519957691
O   O499      1.0  0.71880  0.17500  0.28120  1.0000 -0.8038939083
Cu  Cu10      1.0  0.67504  0.12196  0.32496  1.0000 0.8762835978
O   O500      1.0  0.69190  0.08790  0.30810  1.0000 -0.7519957691
O   O501      1.0  0.71880  0.32500  0.21880  1.0000 -0.8038939083
Cu  Cu11      1.0  0.67504  0.37804  0.17504  1.0000 0.8762835978
O   O502      1.0  0.69190  0.41210  0.19190  1.0000 -0.7519957691
O   O503      1.0  0.71880  0.82500  0.71880  1.0000 -0.8038939083
Cu  Cu12      1.0  0.67504  0.87804  0.67504  1.0000 0.8762835978
O   O504      1.0  0.69190  0.91210  0.69190  1.0000 -0.7519957691
O   O505      1.0  0.28120  0.32500  0.78120  1.0000 -0.8038939083
Cu  Cu13      1.0  0.32496  0.37804  0.82496  1.0000 0.8762835978
O   O506      1.0  0.30810  0.41210  0.80810  1.0000 -0.7519957691
O   O507      1.0  0.28120  0.82500  0.28120  1.0000 -0.8038939083
Cu  Cu14      1.0  0.32496  0.87804  0.32496  1.0000 0.8762835978
O   O508      1.0  0.30810  0.91210  0.30810  1.0000 -0.7519957691
O   O509      1.0  0.28120  0.67500  0.21880  1.0000 -0.8038939083
Cu  Cu15      1.0  0.32496  0.62196  0.17504  1.0000 0.8762835978
O   O510      1.0  0.30810  0.58790  0.19190  1.0000 -0.7519957691
O   O511      1.0  0.28120  0.17500  0.71880  1.0000 -0.8038939083
Cu  Cu16      1.0  0.32496  0.12196  0.67504  1.0000 0.8762835978
O   O512      1.0  0.30810  0.08790  0.69190  1.0000 -0.7519957691
O   O513      1.0  0.78120  0.71880  0.67500  1.0000 -0.8038939083
Cu  Cu17      1.0  0.82496  0.67504  0.62196  1.0000 0.8762835978
O   O514      1.0  0.80810  0.69190  0.58790  1.0000 -0.7519957691
O   O515      1.0  0.78120  0.21880  0.17500  1.0000 -0.8038939083
Cu  Cu18      1.0  0.82496  0.17504  0.12196  1.0000 0.8762835978
O   O516      1.0  0.80810  0.19190  0.08790  1.0000 -0.7519957691
O   O517      1.0  0.21880  0.71880  0.32500  1.0000 -0.8038939083
Cu  Cu19      1.0  0.17504  0.67504  0.37804  1.0000 0.8762835978
O   O518      1.0  0.19190  0.69190  0.41210  1.0000 -0.7519957691
O   O519      1.0  0.21880  0.21880  0.82500  1.0000 -0.8038939083
Cu  Cu20      1.0  0.17504  0.17504  0.87804  1.0000 0.8762835978
O   O520      1.0  0.19190  0.19190  0.91210  1.0000 -0.7519957691
O   O521      1.0  0.78120  0.28120  0.32500  1.0000 -0.8038939083
Cu  Cu21      1.0  0.82496  0.32496  0.37804  1.0000 0.8762835978
O   O522      1.0  0.80810  0.30810  0.41210  1.0000 -0.7519957691
O   O523      1.0  0.78120  0.78120  0.82500  1.0000 -0.8038939083
Cu  Cu22      1.0  0.82496  0.82496  0.87804  1.0000 0.8762835978
O   O524      1.0  0.80810  0.80810  0.91210  1.0000 -0.7519957691
O   O525      1.0  0.21880  0.28120  0.67500  1.0000 -0.8038939083
Cu  Cu23      1.0  0.17504  0.32496  0.62196  1.0000 0.8762835978
O   O526      1.0  0.19190  0.30810  0.58790  1.0000 -0.7519957691
O   O527      1.0  0.21880  0.78120  0.17500  1.0000 -0.8038939083
Cu  Cu24      1.0  0.17504  0.82496  0.12196  1.0000 0.8762835978
O   O528      1.0  0.19190  0.80810  0.08790  1.0000 -0.7519957691
O   O529      1.0  0.78120  0.67500  0.28120  1.0000 -0.8038939083
Cu  Cu25      1.0  0.82496  0.62196  0.32496  1.0000 0.8762835978
O   O530      1.0  0.80810  0.58790  0.30810  1.0000 -0.7519957691
O   O531      1.0  0.78120  0.17500  0.78120  1.0000 -0.8038939083
Cu  Cu26      1.0  0.82496  0.12196  0.82496  1.0000 0.8762835978
O   O532      1.0  0.80810  0.08790  0.80810  1.0000 -0.7519957691
O   O533      1.0  0.21880  0.32500  0.28120  1.0000 -0.8038939083
Cu  Cu27      1.0  0.17504  0.37804  0.32496  1.0000 0.8762835978
O   O534      1.0  0.19190  0.41210  0.30810  1.0000 -0.7519957691
O   O535      1.0  0.21880  0.82500  0.78120  1.0000 -0.8038939083
Cu  Cu28      1.0  0.17504  0.87804  0.82496  1.0000 0.8762835978
O   O536      1.0  0.19190  0.91210  0.80810  1.0000 -0.7519957691
O   O537      1.0  0.78120  0.32500  0.71880  1.0000 -0.8038939083
Cu  Cu29      1.0  0.82496  0.37804  0.67504  1.0000 0.8762835978
O   O538      1.0  0.80810  0.41210  0.69190  1.0000 -0.7519957691
O   O539      1.0  0.78120  0.82500  0.21880  1.0000 -0.8038939083
Cu  Cu30      1.0  0.82496  0.87804  0.17504  1.0000 0.8762835978
O   O540      1.0  0.80810  0.91210  0.19190  1.0000 -0.7519957691
O   O541      1.0  0.21880  0.67500  0.71880  1.0000 -0.8038939083
Cu  Cu31      1.0  0.17504  0.62196  0.67504  1.0000 0.8762835978
O   O542      1.0  0.19190  0.58790  0.69190  1.0000 -0.7519957691
O   O543      1.0  0.21880  0.17500  0.21880  1.0000 -0.8038939083
Cu  Cu32      1.0  0.17504  0.12196  0.17504  1.0000 0.8762835978
O   O544      1.0  0.19190  0.08790  0.19190  1.0000 -0.7519957691
O   O545      1.0  0.67500  0.71880  0.21880  1.0000 -0.8038939083
Cu  Cu33      1.0  0.62196  0.67504  0.17504  1.0000 0.8762835978
O   O546      1.0  0.58790  0.69190  0.19190  1.0000 -0.7519957691
O   O547      1.0  0.17500  0.71880  0.71880  1.0000 -0.8038939083
Cu  Cu34      1.0  0.12196  0.67504  0.67504  1.0000 0.8762835978
O   O548      1.0  0.08790  0.69190  0.69190  1.0000 -0.7519957691
O   O549      1.0  0.32500  0.71880  0.78120  1.0000 -0.8038939083
Cu  Cu35      1.0  0.37804  0.67504  0.82496  1.0000 0.8762835978
O   O550      1.0  0.41210  0.69190  0.80810  1.0000 -0.7519957691
O   O551      1.0  0.82500  0.71880  0.28120  1.0000 -0.8038939083
Cu  Cu36      1.0  0.87804  0.67504  0.32496  1.0000 0.8762835978
O   O552      1.0  0.91210  0.69190  0.30810  1.0000 -0.7519957691
O   O553      1.0  0.32500  0.28120  0.21880  1.0000 -0.8038939083
Cu  Cu37      1.0  0.37804  0.32496  0.17504  1.0000 0.8762835978
O   O554      1.0  0.41210  0.30810  0.19190  1.0000 -0.7519957691
O   O555      1.0  0.82500  0.28120  0.71880  1.0000 -0.8038939083
Cu  Cu38      1.0  0.87804  0.32496  0.67504  1.0000 0.8762835978
O   O556      1.0  0.91210  0.30810  0.69190  1.0000 -0.7519957691
O   O557      1.0  0.67500  0.28120  0.78120  1.0000 -0.8038939083
Cu  Cu39      1.0  0.62196  0.32496  0.82496  1.0000 0.8762835978
O   O558      1.0  0.58790  0.30810  0.80810  1.0000 -0.7519957691
O   O559      1.0  0.17500  0.28120  0.28120  1.0000 -0.8038939083
Cu  Cu40      1.0  0.12196  0.32496  0.32496  1.0000 0.8762835978
O   O560      1.0  0.08790  0.30810  0.30810  1.0000 -0.7519957691
O   O561      1.0  0.71880  0.78120  0.32500  1.0000 -0.8038939083
Cu  Cu41      1.0  0.67504  0.82496  0.37804  1.0000 0.8762835978
O   O562      1.0  0.69190  0.80810  0.41210  1.0000 -0.7519957691
O   O563      1.0  0.71880  0.28120  0.82500  1.0000 -0.8038939083
Cu  Cu42      1.0  0.67504  0.32496  0.87804  1.0000 0.8762835978
O   O564      1.0  0.69190  0.30810  0.91210  1.0000 -0.7519957691
O   O565      1.0  0.71880  0.21880  0.67500  1.0000 -0.8038939083
Cu  Cu43      1.0  0.67504  0.17504  0.62196  1.0000 0.8762835978
O   O566      1.0  0.69190  0.19190  0.58790  1.0000 -0.7519957691
O   O567      1.0  0.71880  0.71880  0.17500  1.0000 -0.8038939083
Cu  Cu44      1.0  0.67504  0.67504  0.12196  1.0000 0.8762835978
O   O568      1.0  0.69190  0.69190  0.08790  1.0000 -0.7519957691
O   O569      1.0  0.28120  0.78120  0.67500  1.0000 -0.8038939083
Cu  Cu45      1.0  0.32496  0.82496  0.62196  1.0000 0.8762835978
O   O570      1.0  0.30810  0.80810  0.58790  1.0000 -0.7519957691
O   O571      1.0  0.28120  0.28120  0.17500  1.0000 -0.8038939083
Cu  Cu46      1.0  0.32496  0.32496  0.12196  1.0000 0.8762835978
O   O572      1.0  0.30810  0.30810  0.08790  1.0000 -0.7519957691
O   O573      1.0  0.28120  0.21880  0.32500  1.0000 -0.8038939083
Cu  Cu47      1.0  0.32496  0.17504  0.37804  1.0000 0.8762835978
O   O574      1.0  0.30810  0.19190  0.41210  1.0000 -0.7519957691
O   O575      1.0  0.28120  0.71880  0.82500  1.0000 -0.8038939083
Cu  Cu48      1.0  0.32496  0.67504  0.87804  1.0000 0.8762835978
O   O576      1.0  0.30810  0.69190  0.91210  1.0000 -0.7519957691
O   O577      1.0  0.32500  0.21880  0.28120  1.0000 -0.8038939083
Cu  Cu49      1.0  0.37804  0.17504  0.32496  1.0000 0.8762835978
O   O578      1.0  0.41210  0.19190  0.30810  1.0000 -0.7519957691
O   O579      1.0  0.82500  0.21880  0.78120  1.0000 -0.8038939083
Cu  Cu50      1.0  0.87804  0.17504  0.82496  1.0000 0.8762835978
O   O580      1.0  0.91210  0.19190  0.80810  1.0000 -0.7519957691
O   O581      1.0  0.67500  0.78120  0.28120  1.0000 -0.8038939083
Cu  Cu51      1.0  0.62196  0.82496  0.32496  1.0000 0.8762835978
O   O582      1.0  0.58790  0.80810  0.30810  1.0000 -0.7519957691
O   O583      1.0  0.17500  0.78120  0.78120  1.0000 -0.8038939083
Cu  Cu52      1.0  0.12196  0.82496  0.82496  1.0000 0.8762835978
O   O584      1.0  0.08790  0.80810  0.80810  1.0000 -0.7519957691
O   O585      1.0  0.67500  0.21880  0.71880  1.0000 -0.8038939083
Cu  Cu53      1.0  0.62196  0.17504  0.67504  1.0000 0.8762835978
O   O586      1.0  0.58790  0.19190  0.69190  1.0000 -0.7519957691
O   O587      1.0  0.17500  0.21880  0.21880  1.0000 -0.8038939083
Cu  Cu54      1.0  0.12196  0.17504  0.17504  1.0000 0.8762835978
O   O588      1.0  0.08790  0.19190  0.19190  1.0000 -0.7519957691
O   O589      1.0  0.32500  0.78120  0.71880  1.0000 -0.8038939083
Cu  Cu55      1.0  0.37804  0.82496  0.67504  1.0000 0.8762835978
O   O590      1.0  0.41210  0.80810  0.69190  1.0000 -0.7519957691
O   O591      1.0  0.82500  0.78120  0.21880  1.0000 -0.8038939083
Cu  Cu56      1.0  0.87804  0.82496  0.17504  1.0000 0.8762835978
O   O592      1.0  0.91210  0.80810  0.19190  1.0000 -0.7519957691
O   O593      1.0  0.28120  0.32500  0.21880  1.0000 -0.8038939083
Cu  Cu57      1.0  0.32496  0.37804  0.17504  1.0000 0.8762835978
O   O594      1.0  0.30810  0.41210  0.19190  1.0000 -0.7519957691
O   O595      1.0  0.28120  0.82500  0.71880  1.0000 -0.8038939083
Cu  Cu58      1.0  0.32496  0.87804  0.67504  1.0000 0.8762835978
O   O596      1.0  0.30810  0.91210  0.69190  1.0000 -0.7519957691
O   O597      1.0  0.28120  0.67500  0.78120  1.0000 -0.8038939083
Cu  Cu59      1.0  0.32496  0.62196  0.82496  1.0000 0.8762835978
O   O598      1.0  0.30810  0.58790  0.80810  1.0000 -0.7519957691
O   O599      1.0  0.28120  0.17500  0.28120  1.0000 -0.8038939083
Cu  Cu60      1.0  0.32496  0.12196  0.32496  1.0000 0.8762835978
O   O600      1.0  0.30810  0.08790  0.30810  1.0000 -0.7519957691
O   O601      1.0  0.71880  0.67500  0.21880  1.0000 -0.8038939083
Cu  Cu61      1.0  0.67504  0.62196  0.17504  1.0000 0.8762835978
O   O602      1.0  0.69190  0.58790  0.19190  1.0000 -0.7519957691
O   O603      1.0  0.71880  0.17500  0.71880  1.0000 -0.8038939083
Cu  Cu62      1.0  0.67504  0.12196  0.67504  1.0000 0.8762835978
O   O604      1.0  0.69190  0.08790  0.69190  1.0000 -0.7519957691
O   O605      1.0  0.71880  0.32500  0.78120  1.0000 -0.8038939083
Cu  Cu63      1.0  0.67504  0.37804  0.82496  1.0000 0.8762835978
O   O606      1.0  0.69190  0.41210  0.80810  1.0000 -0.7519957691
O   O607      1.0  0.71880  0.82500  0.28120  1.0000 -0.8038939083
Cu  Cu64      1.0  0.67504  0.87804  0.32496  1.0000 0.8762835978
O   O608      1.0  0.69190  0.91210  0.30810  1.0000 -0.7519957691
O   O609      1.0  0.21880  0.28120  0.32500  1.0000 -0.8038939083
Cu  Cu65      1.0  0.17504  0.32496  0.37804  1.0000 0.8762835978
O   O610      1.0  0.19190  0.30810  0.41210  1.0000 -0.7519957691
O   O611      1.0  0.21880  0.78120  0.82500  1.0000 -0.8038939083
Cu  Cu66      1.0  0.17504  0.82496  0.87804  1.0000 0.8762835978
O   O612      1.0  0.19190  0.80810  0.91210  1.0000 -0.7519957691
O   O613      1.0  0.78120  0.28120  0.67500  1.0000 -0.8038939083
Cu  Cu67      1.0  0.82496  0.32496  0.62196  1.0000 0.8762835978
O   O614      1.0  0.80810  0.30810  0.58790  1.0000 -0.7519957691
O   O615      1.0  0.78120  0.78120  0.17500  1.0000 -0.8038939083
Cu  Cu68      1.0  0.82496  0.82496  0.12196  1.0000 0.8762835978
O   O616      1.0  0.80810  0.80810  0.08790  1.0000 -0.7519957691
O   O617      1.0  0.21880  0.71880  0.67500  1.0000 -0.8038939083
Cu  Cu69      1.0  0.17504  0.67504  0.62196  1.0000 0.8762835978
O   O618      1.0  0.19190  0.69190  0.58790  1.0000 -0.7519957691
O   O619      1.0  0.21880  0.21880  0.17500  1.0000 -0.8038939083
Cu  Cu70      1.0  0.17504  0.17504  0.12196  1.0000 0.8762835978
O   O620      1.0  0.19190  0.19190  0.08790  1.0000 -0.7519957691
O   O621      1.0  0.78120  0.71880  0.32500  1.0000 -0.8038939083
Cu  Cu71      1.0  0.82496  0.67504  0.37804  1.0000 0.8762835978
O   O622      1.0  0.80810  0.69190  0.41210  1.0000 -0.7519957691
O   O623      1.0  0.78120  0.21880  0.82500  1.0000 -0.8038939083
Cu  Cu72      1.0  0.82496  0.17504  0.87804  1.0000 0.8762835978
O   O624      1.0  0.80810  0.19190  0.91210  1.0000 -0.7519957691
O   O625      1.0  0.21880  0.32500  0.71880  1.0000 -0.8038939083
Cu  Cu73      1.0  0.17504  0.37804  0.67504  1.0000 0.8762835978
O   O626      1.0  0.19190  0.41210  0.69190  1.0000 -0.7519957691
O   O627      1.0  0.21880  0.82500  0.21880  1.0000 -0.8038939083
Cu  Cu74      1.0  0.17504  0.87804  0.17504  1.0000 0.8762835978
O   O628      1.0  0.19190  0.91210  0.19190  1.0000 -0.7519957691
O   O629      1.0  0.78120  0.67500  0.71880  1.0000 -0.8038939083
Cu  Cu75      1.0  0.82496  0.62196  0.67504  1.0000 0.8762835978
O   O630      1.0  0.80810  0.58790  0.69190  1.0000 -0.7519957691
O   O631      1.0  0.78120  0.17500  0.21880  1.0000 -0.8038939083
Cu  Cu76      1.0  0.82496  0.12196  0.17504  1.0000 0.8762835978
O   O632      1.0  0.80810  0.08790  0.19190  1.0000 -0.7519957691
O   O633      1.0  0.21880  0.67500  0.28120  1.0000 -0.8038939083
Cu  Cu77      1.0  0.17504  0.62196  0.32496  1.0000 0.8762835978
O   O634      1.0  0.19190  0.58790  0.30810  1.0000 -0.7519957691
O   O635      1.0  0.21880  0.17500  0.78120  1.0000 -0.8038939083
Cu  Cu78      1.0  0.17504  0.12196  0.82496  1.0000 0.8762835978
O   O636      1.0  0.19190  0.08790  0.80810  1.0000 -0.7519957691
O   O637      1.0  0.78120  0.32500  0.28120  1.0000 -0.8038939083
Cu  Cu79      1.0  0.82496  0.37804  0.32496  1.0000 0.8762835978
O   O638      1.0  0.80810  0.41210  0.30810  1.0000 -0.7519957691
O   O639      1.0  0.78120  0.82500  0.78120  1.0000 -0.8038939083
Cu  Cu80      1.0  0.82496  0.87804  0.82496  1.0000 0.8762835978
O   O640      1.0  0.80810  0.91210  0.80810  1.0000 -0.7519957691
O   O641      1.0  0.32500  0.28120  0.78120  1.0000 -0.8038939083
Cu  Cu81      1.0  0.37804  0.32496  0.82496  1.0000 0.8762835978
O   O642      1.0  0.41210  0.30810  0.80810  1.0000 -0.7519957691
O   O643      1.0  0.82500  0.28120  0.28120  1.0000 -0.8038939083
Cu  Cu82      1.0  0.87804  0.32496  0.32496  1.0000 0.8762835978
O   O644      1.0  0.91210  0.30810  0.30810  1.0000 -0.7519957691
O   O645      1.0  0.67500  0.28120  0.21880  1.0000 -0.8038939083
Cu  Cu83      1.0  0.62196  0.32496  0.17504  1.0000 0.8762835978
O   O646      1.0  0.58790  0.30810  0.19190  1.0000 -0.7519957691
O   O647      1.0  0.17500  0.28120  0.71880  1.0000 -0.8038939083
Cu  Cu84      1.0  0.12196  0.32496  0.67504  1.0000 0.8762835978
O   O648      1.0  0.08790  0.30810  0.69190  1.0000 -0.7519957691
O   O649      1.0  0.67500  0.71880  0.78120  1.0000 -0.8038939083
Cu  Cu85      1.0  0.62196  0.67504  0.82496  1.0000 0.8762835978
O   O650      1.0  0.58790  0.69190  0.80810  1.0000 -0.7519957691
O   O651      1.0  0.17500  0.71880  0.28120  1.0000 -0.8038939083
Cu  Cu86      1.0  0.12196  0.67504  0.32496  1.0000 0.8762835978
O   O652      1.0  0.08790  0.69190  0.30810  1.0000 -0.7519957691
O   O653      1.0  0.32500  0.71880  0.21880  1.0000 -0.8038939083
Cu  Cu87      1.0  0.37804  0.67504  0.17504  1.0000 0.8762835978
O   O654      1.0  0.41210  0.69190  0.19190  1.0000 -0.7519957691
O   O655      1.0  0.82500  0.71880  0.71880  1.0000 -0.8038939083
Cu  Cu88      1.0  0.87804  0.67504  0.67504  1.0000 0.8762835978
O   O656      1.0  0.91210  0.69190  0.69190  1.0000 -0.7519957691
O   O657      1.0  0.28120  0.21880  0.67500  1.0000 -0.8038939083
Cu  Cu89      1.0  0.32496  0.17504  0.62196  1.0000 0.8762835978
O   O658      1.0  0.30810  0.19190  0.58790  1.0000 -0.7519957691
O   O659      1.0  0.28120  0.71880  0.17500  1.0000 -0.8038939083
Cu  Cu90      1.0  0.32496  0.67504  0.12196  1.0000 0.8762835978
O   O660      1.0  0.30810  0.69190  0.08790  1.0000 -0.7519957691
O   O661      1.0  0.28120  0.78120  0.32500  1.0000 -0.8038939083
Cu  Cu91      1.0  0.32496  0.82496  0.37804  1.0000 0.8762835978
O   O662      1.0  0.30810  0.80810  0.41210  1.0000 -0.7519957691
O   O663      1.0  0.28120  0.28120  0.82500  1.0000 -0.8038939083
Cu  Cu92      1.0  0.32496  0.32496  0.87804  1.0000 0.8762835978
O   O664      1.0  0.30810  0.30810  0.91210  1.0000 -0.7519957691
O   O665      1.0  0.71880  0.21880  0.32500  1.0000 -0.8038939083
Cu  Cu93      1.0  0.67504  0.17504  0.37804  1.0000 0.8762835978
O   O666      1.0  0.69190  0.19190  0.41210  1.0000 -0.7519957691
O   O667      1.0  0.71880  0.71880  0.82500  1.0000 -0.8038939083
Cu  Cu94      1.0  0.67504  0.67504  0.87804  1.0000 0.8762835978
O   O668      1.0  0.69190  0.69190  0.91210  1.0000 -0.7519957691
O   O669      1.0  0.71880  0.78120  0.67500  1.0000 -0.8038939083
Cu  Cu95      1.0  0.67504  0.82496  0.62196  1.0000 0.8762835978
O   O670      1.0  0.69190  0.80810  0.58790  1.0000 -0.7519957691
O   O671      1.0  0.71880  0.28120  0.17500  1.0000 -0.8038939083
Cu  Cu96      1.0  0.67504  0.32496  0.12196  1.0000 0.8762835978
O   O672      1.0  0.69190  0.30810  0.08790  1.0000 -0.7519957691
O   O673      1.0  0.72440  0.72440  0.67970  1.0000 -0.8784090745
O   O674      1.0  0.72440  0.22440  0.17970  1.0000 -0.8784090745
O   O675      1.0  0.22440  0.72440  0.17970  1.0000 -0.8784090745
O   O676      1.0  0.22440  0.22440  0.67970  1.0000 -0.8784090745
O   O677      1.0  0.27560  0.27560  0.67970  1.0000 -0.8784090745
O   O678      1.0  0.27560  0.77560  0.17970  1.0000 -0.8784090745
O   O679      1.0  0.77560  0.27560  0.17970  1.0000 -0.8784090745
O   O680      1.0  0.77560  0.77560  0.67970  1.0000 -0.8784090745
O   O681      1.0  0.27560  0.72440  0.32030  1.0000 -0.8784090745
O   O682      1.0  0.27560  0.22440  0.82030  1.0000 -0.8784090745
O   O683      1.0  0.77560  0.72440  0.82030  1.0000 -0.8784090745
O   O684      1.0  0.77560  0.22440  0.32030  1.0000 -0.8784090745
O   O685      1.0  0.72440  0.27560  0.32030  1.0000 -0.8784090745
O   O686      1.0  0.72440  0.77560  0.82030  1.0000 -0.8784090745
O   O687      1.0  0.22440  0.27560  0.82030  1.0000 -0.8784090745
O   O688      1.0  0.22440  0.77560  0.32030  1.0000 -0.8784090745
O   O689      1.0  0.67970  0.72440  0.72440  1.0000 -0.8784090745
O   O690      1.0  0.67970  0.22440  0.22440  1.0000 -0.8784090745
O   O691      1.0  0.17970  0.72440  0.22440  1.0000 -0.8784090745
O   O692      1.0  0.17970  0.22440  0.72440  1.0000 -0.8784090745
O   O693      1.0  0.67970  0.27560  0.27560  1.0000 -0.8784090745
O   O694      1.0  0.67970  0.77560  0.77560  1.0000 -0.8784090745
O   O695      1.0  0.17970  0.27560  0.77560  1.0000 -0.8784090745
O   O696      1.0  0.17970  0.77560  0.27560  1.0000 -0.8784090745
O   O697      1.0  0.32030  0.27560  0.72440  1.0000 -0.8784090745
O   O698      1.0  0.32030  0.77560  0.22440  1.0000 -0.8784090745
O   O699      1.0  0.82030  0.27560  0.22440  1.0000 -0.8784090745
O   O700      1.0  0.82030  0.77560  0.72440  1.0000 -0.8784090745
O   O701      1.0  0.32030  0.72440  0.27560  1.0000 -0.8784090745
O   O702      1.0  0.32030  0.22440  0.77560  1.0000 -0.8784090745
O   O703      1.0  0.82030  0.72440  0.77560  1.0000 -0.8784090745
O   O704      1.0  0.82030  0.22440  0.27560  1.0000 -0.8784090745
O   O705      1.0  0.72440  0.67970  0.72440  1.0000 -0.8784090745
O   O706      1.0  0.72440  0.17970  0.22440  1.0000 -0.8784090745
O   O707      1.0  0.22440  0.67970  0.22440  1.0000 -0.8784090745
O   O708      1.0  0.22440  0.17970  0.72440  1.0000 -0.8784090745
O   O709      1.0  0.27560  0.67970  0.27560  1.0000 -0.8784090745
O   O710      1.0  0.27560  0.17970  0.77560  1.0000 -0.8784090745
O   O711      1.0  0.77560  0.67970  0.77560  1.0000 -0.8784090745
O   O712      1.0  0.77560  0.17970  0.27560  1.0000 -0.8784090745
O   O713      1.0  0.72440  0.32030  0.27560  1.0000 -0.8784090745
O   O714      1.0  0.72440  0.82030  0.77560  1.0000 -0.8784090745
O   O715      1.0  0.22440  0.32030  0.77560  1.0000 -0.8784090745
O   O716      1.0  0.22440  0.82030  0.27560  1.0000 -0.8784090745
O   O717      1.0  0.27560  0.32030  0.72440  1.0000 -0.8784090745
O   O718      1.0  0.27560  0.82030  0.22440  1.0000 -0.8784090745
O   O719      1.0  0.77560  0.32030  0.22440  1.0000 -0.8784090745
O   O720      1.0  0.77560  0.82030  0.72440  1.0000 -0.8784090745
O   O721      1.0  0.72440  0.72440  0.32030  1.0000 -0.8784090745
O   O722      1.0  0.72440  0.22440  0.82030  1.0000 -0.8784090745
O   O723      1.0  0.22440  0.72440  0.82030  1.0000 -0.8784090745
O   O724      1.0  0.22440  0.22440  0.32030  1.0000 -0.8784090745
O   O725      1.0  0.27560  0.27560  0.32030  1.0000 -0.8784090745
O   O726      1.0  0.27560  0.77560  0.82030  1.0000 -0.8784090745
O   O727      1.0  0.77560  0.27560  0.82030  1.0000 -0.8784090745
O   O728      1.0  0.77560  0.77560  0.32030  1.0000 -0.8784090745
O   O729      1.0  0.72440  0.27560  0.67970  1.0000 -0.8784090745
O   O730      1.0  0.72440  0.77560  0.17970  1.0000 -0.8784090745
O   O731      1.0  0.22440  0.27560  0.17970  1.0000 -0.8784090745
O   O732      1.0  0.22440  0.77560  0.67970  1.0000 -0.8784090745
O   O733      1.0  0.27560  0.72440  0.67970  1.0000 -0.8784090745
O   O734      1.0  0.27560  0.22440  0.17970  1.0000 -0.8784090745
O   O735      1.0  0.77560  0.72440  0.17970  1.0000 -0.8784090745
O   O736      1.0  0.77560  0.22440  0.67970  1.0000 -0.8784090745
O   O737      1.0  0.72440  0.67970  0.27560  1.0000 -0.8784090745
O   O738      1.0  0.72440  0.17970  0.77560  1.0000 -0.8784090745
O   O739      1.0  0.22440  0.67970  0.77560  1.0000 -0.8784090745
O   O740      1.0  0.22440  0.17970  0.27560  1.0000 -0.8784090745
O   O741      1.0  0.27560  0.67970  0.72440  1.0000 -0.8784090745
O   O742      1.0  0.27560  0.17970  0.22440  1.0000 -0.8784090745
O   O743      1.0  0.77560  0.67970  0.22440  1.0000 -0.8784090745
O   O744      1.0  0.77560  0.17970  0.72440  1.0000 -0.8784090745
O   O745      1.0  0.27560  0.32030  0.27560  1.0000 -0.8784090745
O   O746      1.0  0.27560  0.82030  0.77560  1.0000 -0.8784090745
O   O747      1.0  0.77560  0.32030  0.77560  1.0000 -0.8784090745
O   O748      1.0  0.77560  0.82030  0.27560  1.0000 -0.8784090745
O   O749      1.0  0.72440  0.32030  0.72440  1.0000 -0.8784090745
O   O750      1.0  0.72440  0.82030  0.22440  1.0000 -0.8784090745
O   O751      1.0  0.22440  0.32030  0.22440  1.0000 -0.8784090745
O   O752      1.0  0.22440  0.82030  0.72440  1.0000 -0.8784090745
O   O753      1.0  0.67970  0.72440  0.27560  1.0000 -0.8784090745
O   O754      1.0  0.67970  0.22440  0.77560  1.0000 -0.8784090745
O   O755      1.0  0.17970  0.72440  0.77560  1.0000 -0.8784090745
O   O756      1.0  0.17970  0.22440  0.27560  1.0000 -0.8784090745
O   O757      1.0  0.67970  0.27560  0.72440  1.0000 -0.8784090745
O   O758      1.0  0.67970  0.77560  0.22440  1.0000 -0.8784090745
O   O759      1.0  0.17970  0.27560  0.22440  1.0000 -0.8784090745
O   O760      1.0  0.17970  0.77560  0.72440  1.0000 -0.8784090745
O   O761      1.0  0.32030  0.72440  0.72440  1.0000 -0.8784090745
O   O762      1.0  0.32030  0.22440  0.22440  1.0000 -0.8784090745
O   O763      1.0  0.82030  0.72440  0.22440  1.0000 -0.8784090745
O   O764      1.0  0.82030  0.22440  0.72440  1.0000 -0.8784090745
O   O765      1.0  0.32030  0.27560  0.27560  1.0000 -0.8784090745
O   O766      1.0  0.32030  0.77560  0.77560  1.0000 -0.8784090745
O   O767      1.0  0.82030  0.27560  0.77560  1.0000 -0.8784090745
O   O768      1.0  0.82030  0.77560  0.27560  1.0000 -0.8784090745
O   O769      1.0  0.72870  0.77130  0.72870  1.0000 -0.9261301353
O   O770      1.0  0.66520  0.83480  0.66520  1.0000 -0.8784090745
O   O771      1.0  0.27130  0.22870  0.72870  1.0000 -0.9261301353
O   O772      1.0  0.33480  0.16520  0.66520  1.0000 -0.8784090745
O   O773      1.0  0.27130  0.77130  0.27130  1.0000 -0.9261301353
O   O774      1.0  0.33480  0.83480  0.33480  1.0000 -0.8784090745
O   O775      1.0  0.72870  0.22870  0.27130  1.0000 -0.9261301353
O   O776      1.0  0.66520  0.16520  0.33480  1.0000 -0.8853656843
O   O777      1.0  0.72870  0.72870  0.77130  1.0000 -0.9261301353
O   O778      1.0  0.66520  0.66520  0.83480  1.0000 -0.8784090745
O   O779      1.0  0.72870  0.27130  0.22870  1.0000 -0.9261301353
O   O780      1.0  0.66520  0.33480  0.16520  1.0000 -0.8853656843
O   O781      1.0  0.27130  0.27130  0.77130  1.0000 -0.9261301353
O   O782      1.0  0.33480  0.33480  0.83480  1.0000 -0.8784090745
O   O783      1.0  0.27130  0.72870  0.22870  1.0000 -0.9261301353
O   O784      1.0  0.33480  0.66520  0.16520  1.0000 -0.8784090745
O   O785      1.0  0.77130  0.72870  0.72870  1.0000 -0.9261301353
O   O786      1.0  0.83480  0.66520  0.66520  1.0000 -0.8784090745
O   O787      1.0  0.77130  0.22870  0.22870  1.0000 -0.9261301353
O   O788      1.0  0.83480  0.16520  0.16520  1.0000 -0.8853656843
O   O789      1.0  0.22870  0.72870  0.27130  1.0000 -0.9261301353
O   O790      1.0  0.16520  0.66520  0.33480  1.0000 -0.8784090745
O   O791      1.0  0.22870  0.22870  0.77130  1.0000 -0.9261301353
O   O792      1.0  0.16520  0.16520  0.83480  1.0000 -0.8784090745
O   O793      1.0  0.77130  0.27130  0.27130  1.0000 -0.9261301353
O   O794      1.0  0.83480  0.33480  0.33480  1.0000 -0.8853656843
O   O795      1.0  0.77130  0.77130  0.77130  1.0000 -0.9261301353
O   O796      1.0  0.83480  0.83480  0.83480  1.0000 -0.8784090745
O   O797      1.0  0.22870  0.27130  0.72870  1.0000 -0.9261301353
O   O798      1.0  0.16520  0.33480  0.66520  1.0000 -0.8784090745
O   O799      1.0  0.22870  0.77130  0.22870  1.0000 -0.9261301353
O   O800      1.0  0.16520  0.83480  0.16520  1.0000 -0.8784090745
O   O801      1.0  0.77130  0.72870  0.27130  1.0000 -0.9261301353
O   O802      1.0  0.83480  0.66520  0.33480  1.0000 -0.8784090745
O   O803      1.0  0.77130  0.22870  0.77130  1.0000 -0.9261301353
O   O804      1.0  0.83480  0.16520  0.83480  1.0000 -0.8784090745
O   O805      1.0  0.22870  0.27130  0.27130  1.0000 -0.9261301353
O   O806      1.0  0.16520  0.33480  0.33480  1.0000 -0.8784090745
O   O807      1.0  0.22870  0.77130  0.77130  1.0000 -0.9261301353
O   O808      1.0  0.16520  0.83480  0.83480  1.0000 -0.8784090745
O   O809      1.0  0.77130  0.27130  0.72870  1.0000 -0.9261301353
O   O810      1.0  0.83480  0.33480  0.66520  1.0000 -0.8853656843
O   O811      1.0  0.77130  0.77130  0.22870  1.0000 -0.9261301353
O   O812      1.0  0.83480  0.83480  0.16520  1.0000 -0.8784090745
O   O813      1.0  0.22870  0.72870  0.72870  1.0000 -0.9261301353
O   O814      1.0  0.16520  0.66520  0.66520  1.0000 -0.8784090745
O   O815      1.0  0.22870  0.22870  0.22870  1.0000 -0.9261301353
O   O816      1.0  0.16520  0.16520  0.16520  1.0000 -0.8784090745
O   O817      1.0  0.72870  0.72870  0.22870  1.0000 -0.9261301353
O   O818      1.0  0.66520  0.66520  0.16520  1.0000 -0.8784090745
O   O819      1.0  0.27130  0.72870  0.77130  1.0000 -0.9261301353
O   O820      1.0  0.33480  0.66520  0.83480  1.0000 -0.8784090745
O   O821      1.0  0.27130  0.27130  0.22870  1.0000 -0.9261301353
O   O822      1.0  0.33480  0.33480  0.16520  1.0000 -0.8784090745
O   O823      1.0  0.72870  0.27130  0.77130  1.0000 -0.9261301353
O   O824      1.0  0.66520  0.33480  0.83480  1.0000 -0.8784090745
O   O825      1.0  0.72870  0.77130  0.27130  1.0000 -0.9261301353
O   O826      1.0  0.66520  0.83480  0.33480  1.0000 -0.8784090745
O   O827      1.0  0.72870  0.22870  0.72870  1.0000 -0.9261301353
O   O828      1.0  0.66520  0.16520  0.66520  1.0000 -0.8784090745
O   O829      1.0  0.27130  0.77130  0.72870  1.0000 -0.9261301353
O   O830      1.0  0.33480  0.83480  0.66520  1.0000 -0.8784090745
O   O831      1.0  0.27130  0.22870  0.27130  1.0000 -0.9261301353
O   O832      1.0  0.33480  0.16520  0.33480  1.0000 -0.8784090745
P   P1        1.0  0.75000  0.75000  0.75000  1.0000 1.0923916385
P   P2        1.0  0.25000  0.25000  0.75000  1.0000 1.0923916385
P   P3        1.0  0.25000  0.75000  0.25000  1.0000 1.0923916385
P   P4        1.0  0.75000  0.25000  0.25000  1.0000 1.0953646705
P   P5        1.0  0.75000  0.75000  0.25000  1.0000 1.0923916385
P   P6        1.0  0.25000  0.25000  0.25000  1.0000 1.0953646705
P   P7        1.0  0.75000  0.25000  0.75000  1.0000 1.0953646705
P   P8        1.0  0.25000  0.75000  0.75000  1.0000 1.0923916385
Cu  Cu97      1.0  0.50000  0.62654  0.62654  1.0000 0.9374759029
Cu  Cu98      1.0  0.50000  0.66886  0.66886  1.0000 0.9511742101
O   O833      1.0  0.50000  0.70282  0.70282  1.0000 -0.2918579144
O   O834      1.0  0.50000  0.59253  0.59253  1.0000 -0.2721150313
Cu  Cu99      1.0  0.50000  0.12654  0.12654  1.0000 0.9374759029
Cu  Cu100     1.0  0.50000  0.16886  0.16886  1.0000 0.9511742101
O   O835      1.0  0.50000  0.20282  0.20282  1.0000 -0.2918579144
O   O836      1.0  0.50000  0.09253  0.09253  1.0000 -0.2721150313
Cu  Cu101     1.0  0.00000  0.62654  0.12654  1.0000 0.9374759029
Cu  Cu102     1.0  0.00000  0.66886  0.16886  1.0000 0.9511742101
O   O837      1.0  0.00000  0.70282  0.20282  1.0000 -0.2918579144
O   O838      1.0  0.00000  0.59253  0.09253  1.0000 -0.2721150313
Cu  Cu103     1.0  0.00000  0.12654  0.62654  1.0000 0.9374759029
Cu  Cu104     1.0  0.00000  0.16886  0.66886  1.0000 0.9511742101
O   O839      1.0  0.00000  0.20282  0.70282  1.0000 -0.2918579144
O   O840      1.0  0.00000  0.09253  0.59253  1.0000 -0.2721150313
Cu  Cu105     1.0  0.50000  0.37346  0.62654  1.0000 0.9374759029
Cu  Cu106     1.0  0.50000  0.33114  0.66886  1.0000 0.9511742101
O   O841      1.0  0.50000  0.29718  0.70282  1.0000 -0.2918579144
O   O842      1.0  0.50000  0.40747  0.59253  1.0000 -0.2721150313
Cu  Cu107     1.0  0.50000  0.87346  0.12654  1.0000 0.9374759029
Cu  Cu108     1.0  0.50000  0.83114  0.16886  1.0000 0.9511742101
O   O843      1.0  0.50000  0.79718  0.20282  1.0000 -0.2918579144
O   O844      1.0  0.50000  0.90747  0.09253  1.0000 -0.2721150313
Cu  Cu109     1.0  0.00000  0.37346  0.12654  1.0000 0.9374759029
Cu  Cu110     1.0  0.00000  0.33114  0.16886  1.0000 0.9511742101
O   O845      1.0  0.00000  0.29718  0.20282  1.0000 -0.2918579144
O   O846      1.0  0.00000  0.40747  0.09253  1.0000 -0.2721150313
Cu  Cu111     1.0  0.00000  0.87346  0.62654  1.0000 0.9374759029
Cu  Cu112     1.0  0.00000  0.83114  0.66886  1.0000 0.9511742101
O   O847      1.0  0.00000  0.79718  0.70282  1.0000 -0.2918579144
O   O848      1.0  0.00000  0.90747  0.59253  1.0000 -0.2721150313
Cu  Cu113     1.0  0.50000  0.62654  0.37346  1.0000 0.9374759029
Cu  Cu114     1.0  0.50000  0.66886  0.33114  1.0000 0.9511742101
O   O849      1.0  0.50000  0.70282  0.29718  1.0000 -0.2918579144
O   O850      1.0  0.50000  0.59253  0.40747  1.0000 -0.2721150313
Cu  Cu115     1.0  0.50000  0.12654  0.87346  1.0000 0.9374759029
Cu  Cu116     1.0  0.50000  0.16886  0.83114  1.0000 0.9511742101
O   O851      1.0  0.50000  0.20282  0.79718  1.0000 -0.2918579144
O   O852      1.0  0.50000  0.09253  0.90747  1.0000 -0.2721150313
Cu  Cu117     1.0  0.00000  0.62654  0.87346  1.0000 0.9374759029
Cu  Cu118     1.0  0.00000  0.66886  0.83114  1.0000 0.9511742101
O   O853      1.0  0.00000  0.70282  0.79718  1.0000 -0.2918579144
O   O854      1.0  0.00000  0.59253  0.90747  1.0000 -0.2721150313
Cu  Cu119     1.0  0.00000  0.12654  0.37346  1.0000 0.9374759029
Cu  Cu120     1.0  0.00000  0.16886  0.33114  1.0000 0.9511742101
O   O855      1.0  0.00000  0.20282  0.29718  1.0000 -0.2918579144
O   O856      1.0  0.00000  0.09253  0.40747  1.0000 -0.2721150313
Cu  Cu121     1.0  0.50000  0.37346  0.37346  1.0000 0.9374759029
Cu  Cu122     1.0  0.50000  0.33114  0.33114  1.0000 0.9511742101
O   O857      1.0  0.50000  0.29718  0.29718  1.0000 -0.2918579144
O   O858      1.0  0.50000  0.40747  0.40747  1.0000 -0.2721150313
Cu  Cu123     1.0  0.50000  0.87346  0.87346  1.0000 0.9374759029
Cu  Cu124     1.0  0.50000  0.83114  0.83114  1.0000 0.9511742101
O   O859      1.0  0.50000  0.79718  0.79718  1.0000 -0.2918579144
O   O860      1.0  0.50000  0.90747  0.90747  1.0000 -0.2721150313
Cu  Cu125     1.0  0.00000  0.37346  0.87346  1.0000 0.9374759029
Cu  Cu126     1.0  0.00000  0.33114  0.83114  1.0000 0.9511742101
O   O861      1.0  0.00000  0.29718  0.79718  1.0000 -0.2918579144
O   O862      1.0  0.00000  0.40747  0.90747  1.0000 -0.2721150313
Cu  Cu127     1.0  0.00000  0.87346  0.37346  1.0000 0.9374759029
Cu  Cu128     1.0  0.00000  0.83114  0.33114  1.0000 0.9511742101
O   O863      1.0  0.00000  0.79718  0.29718  1.0000 -0.2918579144
O   O864      1.0  0.00000  0.90747  0.40747  1.0000 -0.2721150313
Cu  Cu129     1.0  0.62654  0.50000  0.62654  1.0000 0.9374759029
Cu  Cu130     1.0  0.66886  0.50000  0.66886  1.0000 0.9511742101
O   O865      1.0  0.70282  0.50000  0.70282  1.0000 -0.2918579144
O   O866      1.0  0.59253  0.50000  0.59253  1.0000 -0.2721150313
Cu  Cu131     1.0  0.62654  0.00000  0.12654  1.0000 0.9374759029
Cu  Cu132     1.0  0.66886  0.00000  0.16886  1.0000 0.9511742101
O   O867      1.0  0.70282  0.00000  0.20282  1.0000 -0.2918579144
O   O868      1.0  0.59253  0.00000  0.09253  1.0000 -0.2721150313
Cu  Cu133     1.0  0.12654  0.50000  0.12654  1.0000 0.9374759029
Cu  Cu134     1.0  0.16886  0.50000  0.16886  1.0000 0.9511742101
O   O869      1.0  0.20282  0.50000  0.20282  1.0000 -0.2918579144
O   O870      1.0  0.09253  0.50000  0.09253  1.0000 -0.2721150313
Cu  Cu135     1.0  0.12654  0.00000  0.62654  1.0000 0.9374759029
Cu  Cu136     1.0  0.16886  0.00000  0.66886  1.0000 0.9511742101
O   O871      1.0  0.20282  0.00000  0.70282  1.0000 -0.2918579144
O   O872      1.0  0.09253  0.00000  0.59253  1.0000 -0.2721150313
Cu  Cu137     1.0  0.62654  0.50000  0.37346  1.0000 0.9374759029
Cu  Cu138     1.0  0.66886  0.50000  0.33114  1.0000 0.9511742101
O   O873      1.0  0.70282  0.50000  0.29718  1.0000 -0.2918579144
O   O874      1.0  0.59253  0.50000  0.40747  1.0000 -0.2721150313
Cu  Cu139     1.0  0.62654  0.00000  0.87346  1.0000 0.9374759029
Cu  Cu140     1.0  0.66886  0.00000  0.83114  1.0000 0.9511742101
O   O875      1.0  0.70282  0.00000  0.79718  1.0000 -0.2918579144
O   O876      1.0  0.59253  0.00000  0.90747  1.0000 -0.2721150313
Cu  Cu141     1.0  0.12654  0.50000  0.87346  1.0000 0.9374759029
Cu  Cu142     1.0  0.16886  0.50000  0.83114  1.0000 0.9511742101
O   O877      1.0  0.20282  0.50000  0.79718  1.0000 -0.2918579144
O   O878      1.0  0.09253  0.50000  0.90747  1.0000 -0.2721150313
Cu  Cu143     1.0  0.12654  0.00000  0.37346  1.0000 0.9374759029
Cu  Cu144     1.0  0.16886  0.00000  0.33114  1.0000 0.9511742101
O   O879      1.0  0.20282  0.00000  0.29718  1.0000 -0.2918579144
O   O880      1.0  0.09253  0.00000  0.40747  1.0000 -0.2721150313
Cu  Cu145     1.0  0.37346  0.50000  0.62654  1.0000 0.9374759029
Cu  Cu146     1.0  0.33114  0.50000  0.66886  1.0000 0.9511742101
O   O881      1.0  0.29718  0.50000  0.70282  1.0000 -0.2918579144
O   O882      1.0  0.40747  0.50000  0.59253  1.0000 -0.2721150313
Cu  Cu147     1.0  0.37346  0.00000  0.12654  1.0000 0.9374759029
Cu  Cu148     1.0  0.33114  0.00000  0.16886  1.0000 0.9511742101
O   O883      1.0  0.29718  0.00000  0.20282  1.0000 -0.2918579144
O   O884      1.0  0.40747  0.00000  0.09253  1.0000 -0.2721150313
Cu  Cu149     1.0  0.87346  0.50000  0.12654  1.0000 0.9374759029
Cu  Cu150     1.0  0.83114  0.50000  0.16886  1.0000 0.9511742101
O   O885      1.0  0.79718  0.50000  0.20282  1.0000 -0.2918579144
O   O886      1.0  0.90747  0.50000  0.09253  1.0000 -0.2721150313
Cu  Cu151     1.0  0.87346  0.00000  0.62654  1.0000 0.9374759029
Cu  Cu152     1.0  0.83114  0.00000  0.66886  1.0000 0.9511742101
O   O887      1.0  0.79718  0.00000  0.70282  1.0000 -0.2918579144
O   O888      1.0  0.90747  0.00000  0.59253  1.0000 -0.2721150313
Cu  Cu153     1.0  0.37346  0.50000  0.37346  1.0000 0.9374759029
Cu  Cu154     1.0  0.33114  0.50000  0.33114  1.0000 0.9511742101
O   O889      1.0  0.29718  0.50000  0.29718  1.0000 -0.2918579144
O   O890      1.0  0.40747  0.50000  0.40747  1.0000 -0.2721150313
Cu  Cu155     1.0  0.37346  0.00000  0.87346  1.0000 0.9374759029
Cu  Cu156     1.0  0.33114  0.00000  0.83114  1.0000 0.9511742101
O   O891      1.0  0.29718  0.00000  0.79718  1.0000 -0.2918579144
O   O892      1.0  0.40747  0.00000  0.90747  1.0000 -0.2721150313
Cu  Cu157     1.0  0.87346  0.50000  0.87346  1.0000 0.9374759029
Cu  Cu158     1.0  0.83114  0.50000  0.83114  1.0000 0.9511742101
O   O893      1.0  0.79718  0.50000  0.79718  1.0000 -0.2918579144
O   O894      1.0  0.90747  0.50000  0.90747  1.0000 -0.2721150313
Cu  Cu159     1.0  0.87346  0.00000  0.37346  1.0000 0.9374759029
Cu  Cu160     1.0  0.83114  0.00000  0.33114  1.0000 0.9511742101
O   O895      1.0  0.79718  0.00000  0.29718  1.0000 -0.2918579144
O   O896      1.0  0.90747  0.00000  0.40747  1.0000 -0.2721150313
Cu  Cu161     1.0  0.62654  0.62654  0.50000  1.0000 0.9374759029
Cu  Cu162     1.0  0.66886  0.66886  0.50000  1.0000 0.9511742101
O   O897      1.0  0.70282  0.70282  0.50000  1.0000 -0.2918579144
O   O898      1.0  0.59253  0.59253  0.50000  1.0000 -0.2721150313
Cu  Cu163     1.0  0.62654  0.12654  0.00000  1.0000 0.9374759029
Cu  Cu164     1.0  0.66886  0.16886  0.00000  1.0000 0.9511742101
O   O899      1.0  0.70282  0.20282  0.00000  1.0000 -0.2918579144
O   O900      1.0  0.59253  0.09253  0.00000  1.0000 -0.2721150313
Cu  Cu165     1.0  0.12654  0.62654  0.00000  1.0000 0.9374759029
Cu  Cu166     1.0  0.16886  0.66886  0.00000  1.0000 0.9511742101
O   O901      1.0  0.20282  0.70282  0.00000  1.0000 -0.2918579144
O   O902      1.0  0.09253  0.59253  0.00000  1.0000 -0.2721150313
Cu  Cu167     1.0  0.12654  0.12654  0.50000  1.0000 0.9374759029
Cu  Cu168     1.0  0.16886  0.16886  0.50000  1.0000 0.9511742101
O   O903      1.0  0.20282  0.20282  0.50000  1.0000 -0.2918579144
O   O904      1.0  0.09253  0.09253  0.50000  1.0000 -0.2721150313
Cu  Cu169     1.0  0.37346  0.62654  0.50000  1.0000 0.9374759029
Cu  Cu170     1.0  0.33114  0.66886  0.50000  1.0000 0.9511742101
O   O905      1.0  0.29718  0.70282  0.50000  1.0000 -0.2918579144
O   O906      1.0  0.40747  0.59253  0.50000  1.0000 -0.2721150313
Cu  Cu171     1.0  0.37346  0.12654  0.00000  1.0000 0.9374759029
Cu  Cu172     1.0  0.33114  0.16886  0.00000  1.0000 0.9511742101
O   O907      1.0  0.29718  0.20282  0.00000  1.0000 -0.2918579144
O   O908      1.0  0.40747  0.09253  0.00000  1.0000 -0.2721150313
Cu  Cu173     1.0  0.87346  0.62654  0.00000  1.0000 0.9374759029
Cu  Cu174     1.0  0.83114  0.66886  0.00000  1.0000 0.9511742101
O   O909      1.0  0.79718  0.70282  0.00000  1.0000 -0.2918579144
O   O910      1.0  0.90747  0.59253  0.00000  1.0000 -0.2721150313
Cu  Cu175     1.0  0.87346  0.12654  0.50000  1.0000 0.9374759029
Cu  Cu176     1.0  0.83114  0.16886  0.50000  1.0000 0.9511742101
O   O911      1.0  0.79718  0.20282  0.50000  1.0000 -0.2918579144
O   O912      1.0  0.90747  0.09253  0.50000  1.0000 -0.2721150313
Cu  Cu177     1.0  0.62654  0.37346  0.50000  1.0000 0.9374759029
Cu  Cu178     1.0  0.66886  0.33114  0.50000  1.0000 0.9511742101
O   O913      1.0  0.70282  0.29718  0.50000  1.0000 -0.2918579144
O   O914      1.0  0.59253  0.40747  0.50000  1.0000 -0.2721150313
Cu  Cu179     1.0  0.62654  0.87346  0.00000  1.0000 0.9374759029
Cu  Cu180     1.0  0.66886  0.83114  0.00000  1.0000 0.9511742101
O   O915      1.0  0.70282  0.79718  0.00000  1.0000 -0.2918579144
O   O916      1.0  0.59253  0.90747  0.00000  1.0000 -0.2721150313
Cu  Cu181     1.0  0.12654  0.37346  0.00000  1.0000 0.9374759029
Cu  Cu182     1.0  0.16886  0.33114  0.00000  1.0000 0.9511742101
O   O917      1.0  0.20282  0.29718  0.00000  1.0000 -0.2918579144
O   O918      1.0  0.09253  0.40747  0.00000  1.0000 -0.2721150313
Cu  Cu183     1.0  0.12654  0.87346  0.50000  1.0000 0.9374759029
Cu  Cu184     1.0  0.16886  0.83114  0.50000  1.0000 0.9511742101
O   O919      1.0  0.20282  0.79718  0.50000  1.0000 -0.2918579144
O   O920      1.0  0.09253  0.90747  0.50000  1.0000 -0.2721150313
Cu  Cu185     1.0  0.37346  0.37346  0.50000  1.0000 0.9374759029
Cu  Cu186     1.0  0.33114  0.33114  0.50000  1.0000 0.9511742101
O   O921      1.0  0.29718  0.29718  0.50000  1.0000 -0.2918579144
O   O922      1.0  0.40747  0.40747  0.50000  1.0000 -0.2721150313
Cu  Cu187     1.0  0.37346  0.87346  0.00000  1.0000 0.9374759029
Cu  Cu188     1.0  0.33114  0.83114  0.00000  1.0000 0.9511742101
O   O923      1.0  0.29718  0.79718  0.00000  1.0000 -0.2918579144
O   O924      1.0  0.40747  0.90747  0.00000  1.0000 -0.2721150313
Cu  Cu189     1.0  0.87346  0.37346  0.00000  1.0000 0.9374759029
Cu  Cu190     1.0  0.83114  0.33114  0.00000  1.0000 0.9511742101
O   O925      1.0  0.79718  0.29718  0.00000  1.0000 -0.2918579144
O   O926      1.0  0.90747  0.40747  0.00000  1.0000 -0.2721150313
Cu  Cu191     1.0  0.87346  0.87346  0.50000  1.0000 0.9374759029
Cu  Cu192     1.0  0.83114  0.83114  0.50000  1.0000 0.9511742101
O   O927      1.0  0.79718  0.79718  0.50000  1.0000 -0.2918579144
O   O928      1.0  0.90747  0.90747  0.50000  1.0000 -0.2721150313
  W   W1        1.0  0.69343  0.75163  0.69343  1.0000
  W   W2        1.0  0.69343  0.25163  0.19343  1.0000
  W   W3        1.0  0.19343  0.75163  0.19343  1.0000
  W   W4        1.0  0.19343  0.25163  0.69343  1.0000
  W   W5        1.0  0.30657  0.24837  0.69343  1.0000
  W   W6        1.0  0.30657  0.74837  0.19343  1.0000
  W   W7        1.0  0.80657  0.24837  0.19343  1.0000
  W   W8        1.0  0.80657  0.74837  0.69343  1.0000
  W   W9        1.0  0.30657  0.75163  0.30657  1.0000
  W   W10       1.0  0.30657  0.25163  0.80657  1.0000
  W   W11       1.0  0.80657  0.75163  0.80657  1.0000
  W   W12       1.0  0.80657  0.25163  0.30657  1.0000
  W   W13       1.0  0.69343  0.24837  0.30657  1.0000
  W   W14       1.0  0.69343  0.74837  0.80657  1.0000
  W   W15       1.0  0.19343  0.24837  0.80657  1.0000
  W   W16       1.0  0.19343  0.74837  0.30657  1.0000
  W   W17       1.0  0.69343  0.69343  0.75163  1.0000
  W   W18       1.0  0.69343  0.19343  0.25163  1.0000
  W   W19       1.0  0.19343  0.69343  0.25163  1.0000
  W   W20       1.0  0.19343  0.19343  0.75163  1.0000
  W   W21       1.0  0.69343  0.30657  0.24837  1.0000
  W   W22       1.0  0.69343  0.80657  0.74837  1.0000
  W   W23       1.0  0.19343  0.30657  0.74837  1.0000
  W   W24       1.0  0.19343  0.80657  0.24837  1.0000
  W   W25       1.0  0.30657  0.30657  0.75163  1.0000
  W   W26       1.0  0.30657  0.80657  0.25163  1.0000
  W   W27       1.0  0.80657  0.30657  0.25163  1.0000
  W   W28       1.0  0.80657  0.80657  0.75163  1.0000
  W   W29       1.0  0.30657  0.69343  0.24837  1.0000
  W   W30       1.0  0.30657  0.19343  0.74837  1.0000
  W   W31       1.0  0.80657  0.69343  0.74837  1.0000
  W   W32       1.0  0.80657  0.19343  0.24837  1.0000
  W   W33       1.0  0.75163  0.69343  0.69343  1.0000
  W   W34       1.0  0.75163  0.19343  0.19343  1.0000
  W   W35       1.0  0.25163  0.69343  0.19343  1.0000
  W   W36       1.0  0.25163  0.19343  0.69343  1.0000
  W   W37       1.0  0.24837  0.69343  0.30657  1.0000
  W   W38       1.0  0.24837  0.19343  0.80657  1.0000
  W   W39       1.0  0.74837  0.69343  0.80657  1.0000
  W   W40       1.0  0.74837  0.19343  0.30657  1.0000
  W   W41       1.0  0.75163  0.30657  0.30657  1.0000
  W   W42       1.0  0.75163  0.80657  0.80657  1.0000
  W   W43       1.0  0.25163  0.30657  0.80657  1.0000
  W   W44       1.0  0.25163  0.80657  0.30657  1.0000
  W   W45       1.0  0.24837  0.30657  0.69343  1.0000
  W   W46       1.0  0.24837  0.80657  0.19343  1.0000
  W   W47       1.0  0.74837  0.30657  0.19343  1.0000
  W   W48       1.0  0.74837  0.80657  0.69343  1.0000
  W   W49       1.0  0.75163  0.69343  0.30657  1.0000
  W   W50       1.0  0.75163  0.19343  0.80657  1.0000
  W   W51       1.0  0.25163  0.69343  0.80657  1.0000
  W   W52       1.0  0.25163  0.19343  0.30657  1.0000
  W   W53       1.0  0.24837  0.30657  0.30657  1.0000
  W   W54       1.0  0.24837  0.80657  0.80657  1.0000
  W   W55       1.0  0.74837  0.30657  0.80657  1.0000
  W   W56       1.0  0.74837  0.80657  0.30657  1.0000
  W   W57       1.0  0.75163  0.30657  0.69343  1.0000
  W   W58       1.0  0.75163  0.80657  0.19343  1.0000
  W   W59       1.0  0.25163  0.30657  0.19343  1.0000
  W   W60       1.0  0.25163  0.80657  0.69343  1.0000
  W   W61       1.0  0.24837  0.69343  0.69343  1.0000
  W   W62       1.0  0.24837  0.19343  0.19343  1.0000
  W   W63       1.0  0.74837  0.69343  0.19343  1.0000
  W   W64       1.0  0.74837  0.19343  0.69343  1.0000
  W   W65       1.0  0.69343  0.69343  0.24837  1.0000
  W   W66       1.0  0.69343  0.19343  0.74837  1.0000
  W   W67       1.0  0.19343  0.69343  0.74837  1.0000
  W   W68       1.0  0.19343  0.19343  0.24837  1.0000
  W   W69       1.0  0.30657  0.69343  0.75163  1.0000
  W   W70       1.0  0.30657  0.19343  0.25163  1.0000
  W   W71       1.0  0.80657  0.69343  0.25163  1.0000
  W   W72       1.0  0.80657  0.19343  0.75163  1.0000
  W   W73       1.0  0.30657  0.30657  0.24837  1.0000
  W   W74       1.0  0.30657  0.80657  0.74837  1.0000
  W   W75       1.0  0.80657  0.30657  0.74837  1.0000
  W   W76       1.0  0.80657  0.80657  0.24837  1.0000
  W   W77       1.0  0.69343  0.30657  0.75163  1.0000
  W   W78       1.0  0.69343  0.80657  0.25163  1.0000
  W   W79       1.0  0.19343  0.30657  0.25163  1.0000
  W   W80       1.0  0.19343  0.80657  0.75163  1.0000
  W   W81       1.0  0.69343  0.75163  0.30657  1.0000
  W   W82       1.0  0.69343  0.25163  0.80657  1.0000
  W   W83       1.0  0.19343  0.75163  0.80657  1.0000
  W   W84       1.0  0.19343  0.25163  0.30657  1.0000
  W   W85       1.0  0.69343  0.24837  0.69343  1.0000
  W   W86       1.0  0.69343  0.74837  0.19343  1.0000
  W   W87       1.0  0.19343  0.24837  0.19343  1.0000
  W   W88       1.0  0.19343  0.74837  0.69343  1.0000
  W   W89       1.0  0.30657  0.75163  0.69343  1.0000
  W   W90       1.0  0.30657  0.25163  0.19343  1.0000
  W   W91       1.0  0.80657  0.75163  0.19343  1.0000
  W   W92       1.0  0.80657  0.25163  0.69343  1.0000
  W   W93       1.0  0.30657  0.24837  0.30657  1.0000
  W   W94       1.0  0.30657  0.74837  0.80657  1.0000
  W   W95       1.0  0.80657  0.24837  0.80657  1.0000
  W   W96       1.0  0.80657  0.74837  0.30657  1.0000
