# DDEC6 charges by PACMAN v1.1 (https://github.com/mtap-research/PACMAN-charge/)
data_MEHMET_ASR_pacman
_symmetry_space_group_name_H-M   'P 1'
_cell_length_a   34.57260000
_cell_length_b   34.57260000
_cell_length_c   34.57260000
_cell_angle_alpha   60.00000000
_cell_angle_beta   60.00000000
_cell_angle_gamma   60.00000000
_symmetry_Int_Tables_number   1
_chemical_formula_structural   CuH4(C7O2)2
_chemical_formula_sum   'Cu24 H96 C336 O96'
_cell_volume   29220.06156339
_cell_formula_units_Z   24
loop_
 _symmetry_equiv_pos_site_id
 _symmetry_equiv_pos_as_xyz
  1  'x, y, z'
loop_
 _atom_site_type_symbol
 _atom_site_label
 _atom_site_symmetry_multiplicity
 _atom_site_fract_x
 _atom_site_fract_y
 _atom_site_fract_z
 _atom_site_occupancy
 _atom_site_charge
Cu  Cu1  1  0.22950000  0.00000000  0.00000000  1.0 0.8193930305
Cu  Cu2  1  0.22950000  0.00000000  0.77050000  1.0 0.8193930305
Cu  Cu3  1  0.00000000  0.22950000  0.77050000  1.0 0.8193930305
Cu  Cu4  1  0.00000000  0.22950000  0.00000000  1.0 0.8193930305
Cu  Cu5  1  0.77050000  0.00000000  0.00000000  1.0 0.8193930305
Cu  Cu6  1  0.00000000  0.77050000  0.22950000  1.0 0.8193930305
Cu  Cu7  1  0.00000000  0.00000000  0.22950000  1.0 0.8193930305
Cu  Cu8  1  0.22950000  0.77050000  0.00000000  1.0 0.8193930305
Cu  Cu9  1  0.00000000  0.00000000  0.77050000  1.0 0.8193930305
Cu  Cu10  1  0.77050000  0.00000000  0.22950000  1.0 0.8193930305
Cu  Cu11  1  0.00000000  0.77050000  0.00000000  1.0 0.8193930305
Cu  Cu12  1  0.77050000  0.22950000  0.00000000  1.0 0.8193930305
Cu  Cu13  1  0.30640000  0.00000000  0.00000000  1.0 0.8074637668
Cu  Cu14  1  0.30640000  0.00000000  0.69360000  1.0 0.8074637668
Cu  Cu15  1  0.00000000  0.30640000  0.69360000  1.0 0.8074637668
Cu  Cu16  1  0.00000000  0.30640000  0.00000000  1.0 0.8074637668
Cu  Cu17  1  0.69360000  0.00000000  0.00000000  1.0 0.8074637668
Cu  Cu18  1  0.00000000  0.69360000  0.30640000  1.0 0.8074637668
Cu  Cu19  1  0.00000000  0.00000000  0.30640000  1.0 0.8074637668
Cu  Cu20  1  0.30640000  0.69360000  0.00000000  1.0 0.8074637668
Cu  Cu21  1  0.00000000  0.00000000  0.69360000  1.0 0.8074637668
Cu  Cu22  1  0.69360000  0.00000000  0.30640000  1.0 0.8074637668
Cu  Cu23  1  0.00000000  0.69360000  0.00000000  1.0 0.8074637668
Cu  Cu24  1  0.69360000  0.30640000  0.00000000  1.0 0.8074637668
H  H1  1  0.27630000  0.01030000  0.85670000  1.0 0.1286642402
H  H2  1  0.14330000  0.14330000  0.72370000  1.0 0.1286642402
H  H3  1  0.01030000  0.27630000  0.85670000  1.0 0.1286642402
H  H4  1  0.14330000  0.14330000  0.98970000  1.0 0.1286642402
H  H5  1  0.98970000  0.14330000  0.72370000  1.0 0.1286642402
H  H6  1  0.85670000  0.85670000  0.01030000  1.0 0.1286642402
H  H7  1  0.14330000  0.72370000  0.14330000  1.0 0.1286642402
H  H8  1  0.98970000  0.14330000  0.14330000  1.0 0.1286642402
H  H9  1  0.85670000  0.85670000  0.27630000  1.0 0.1286642402
H  H10  1  0.14330000  0.72370000  0.98970000  1.0 0.1286642402
H  H11  1  0.85670000  0.27630000  0.01030000  1.0 0.1286642402
H  H12  1  0.01030000  0.85670000  0.27630000  1.0 0.1286642402
H  H13  1  0.85670000  0.01030000  0.85670000  1.0 0.1286642402
H  H14  1  0.85670000  0.01030000  0.27630000  1.0 0.1286642402
H  H15  1  0.27630000  0.85670000  0.01030000  1.0 0.1286642402
H  H16  1  0.27630000  0.85670000  0.85670000  1.0 0.1286642402
H  H17  1  0.01030000  0.85670000  0.85670000  1.0 0.1286642402
H  H18  1  0.85670000  0.27630000  0.85670000  1.0 0.1286642402
H  H19  1  0.72370000  0.98970000  0.14330000  1.0 0.1286642402
H  H20  1  0.98970000  0.72370000  0.14330000  1.0 0.1286642402
H  H21  1  0.14330000  0.98970000  0.14330000  1.0 0.1286642402
H  H22  1  0.72370000  0.14330000  0.98970000  1.0 0.1286642402
H  H23  1  0.72370000  0.14330000  0.14330000  1.0 0.1286642402
H  H24  1  0.14330000  0.98970000  0.72370000  1.0 0.1286642402
H  H25  1  0.38440000  0.02440000  0.85560000  1.0 0.1286642402
H  H26  1  0.26440000  0.14440000  0.61560000  1.0 0.1286642402
H  H27  1  0.02440000  0.38440000  0.73560000  1.0 0.1286642402
H  H28  1  0.14440000  0.26440000  0.97560000  1.0 0.1286642402
H  H29  1  0.97560000  0.26440000  0.61560000  1.0 0.1286642402
H  H30  1  0.73560000  0.85560000  0.02440000  1.0 0.1286642402
H  H31  1  0.14440000  0.61560000  0.26440000  1.0 0.1286642402
H  H32  1  0.97560000  0.14440000  0.26440000  1.0 0.1286642402
H  H33  1  0.85560000  0.73560000  0.38440000  1.0 0.1286642402
H  H34  1  0.26440000  0.61560000  0.97560000  1.0 0.1286642402
H  H35  1  0.85560000  0.38440000  0.02440000  1.0 0.1286642402
H  H36  1  0.02440000  0.85560000  0.38440000  1.0 0.1286642402
H  H37  1  0.85560000  0.02440000  0.73560000  1.0 0.1286642402
H  H38  1  0.73560000  0.02440000  0.38440000  1.0 0.1286642402
H  H39  1  0.38440000  0.73560000  0.02440000  1.0 0.1286642402
H  H40  1  0.38440000  0.85560000  0.73560000  1.0 0.1286642402
H  H41  1  0.02440000  0.73560000  0.85560000  1.0 0.1286642402
H  H42  1  0.73560000  0.38440000  0.85560000  1.0 0.1286642402
H  H43  1  0.61560000  0.97560000  0.26440000  1.0 0.1286642402
H  H44  1  0.97560000  0.61560000  0.14440000  1.0 0.1286642402
H  H45  1  0.26440000  0.97560000  0.14440000  1.0 0.1286642402
H  H46  1  0.61560000  0.14440000  0.97560000  1.0 0.1286642402
H  H47  1  0.61560000  0.26440000  0.14440000  1.0 0.1286642402
H  H48  1  0.14440000  0.97560000  0.61560000  1.0 0.1286642402
H  H49  1  0.61560000  0.97560000  0.14440000  1.0 0.1286642402
H  H50  1  0.73560000  0.85560000  0.38440000  1.0 0.1286642402
H  H51  1  0.97560000  0.61560000  0.26440000  1.0 0.1286642402
H  H52  1  0.85560000  0.73560000  0.02440000  1.0 0.1286642402
H  H53  1  0.02440000  0.73560000  0.38440000  1.0 0.1286642402
H  H54  1  0.26440000  0.14440000  0.97560000  1.0 0.1286642402
H  H55  1  0.85560000  0.38440000  0.73560000  1.0 0.1286642402
H  H56  1  0.02440000  0.85560000  0.73560000  1.0 0.1286642402
H  H57  1  0.14440000  0.26440000  0.61560000  1.0 0.1286642402
H  H58  1  0.73560000  0.38440000  0.02440000  1.0 0.1286642402
H  H59  1  0.14440000  0.61560000  0.97560000  1.0 0.1286642402
H  H60  1  0.97560000  0.14440000  0.61560000  1.0 0.1286642402
H  H61  1  0.14440000  0.97560000  0.26440000  1.0 0.1286642402
H  H62  1  0.26440000  0.97560000  0.61560000  1.0 0.1286642402
H  H63  1  0.61560000  0.26440000  0.97560000  1.0 0.1286642402
H  H64  1  0.61560000  0.14440000  0.26440000  1.0 0.1286642402
H  H65  1  0.97560000  0.26440000  0.14440000  1.0 0.1286642402
H  H66  1  0.26440000  0.61560000  0.14440000  1.0 0.1286642402
H  H67  1  0.38440000  0.02440000  0.73560000  1.0 0.1286642402
H  H68  1  0.02440000  0.38440000  0.85560000  1.0 0.1286642402
H  H69  1  0.73560000  0.02440000  0.85560000  1.0 0.1286642402
H  H70  1  0.38440000  0.85560000  0.02440000  1.0 0.1286642402
H  H71  1  0.38440000  0.73560000  0.85560000  1.0 0.1286642402
H  H72  1  0.85560000  0.02440000  0.38440000  1.0 0.1286642402
H  H73  1  0.61160000  0.04900000  0.72780000  1.0 0.1092069482
H  H74  1  0.38840000  0.27220000  0.38840000  1.0 0.1092069482
H  H75  1  0.04900000  0.61160000  0.61160000  1.0 0.1092069482
H  H76  1  0.27220000  0.38840000  0.95100000  1.0 0.1092069482
H  H77  1  0.95100000  0.38840000  0.38840000  1.0 0.1092069482
H  H78  1  0.61160000  0.72780000  0.04900000  1.0 0.1092069482
H  H79  1  0.27220000  0.38840000  0.38840000  1.0 0.1092069482
H  H80  1  0.95100000  0.27220000  0.38840000  1.0 0.1092069482
H  H81  1  0.72780000  0.61160000  0.61160000  1.0 0.1092069482
H  H82  1  0.38840000  0.38840000  0.95100000  1.0 0.1092069482
H  H83  1  0.72780000  0.61160000  0.04900000  1.0 0.1092069482
H  H84  1  0.04900000  0.72780000  0.61160000  1.0 0.1092069482
H  H85  1  0.72780000  0.04900000  0.61160000  1.0 0.1092069482
H  H86  1  0.61160000  0.04900000  0.61160000  1.0 0.1092069482
H  H87  1  0.61160000  0.61160000  0.04900000  1.0 0.1092069482
H  H88  1  0.61160000  0.72780000  0.61160000  1.0 0.1092069482
H  H89  1  0.04900000  0.61160000  0.72780000  1.0 0.1092069482
H  H90  1  0.61160000  0.61160000  0.72780000  1.0 0.1092069482
H  H91  1  0.38840000  0.95100000  0.38840000  1.0 0.1092069482
H  H92  1  0.95100000  0.38840000  0.27220000  1.0 0.1092069482
H  H93  1  0.38840000  0.95100000  0.27220000  1.0 0.1092069482
H  H94  1  0.38840000  0.27220000  0.95100000  1.0 0.1092069482
H  H95  1  0.38840000  0.38840000  0.27220000  1.0 0.1092069482
H  H96  1  0.27220000  0.95100000  0.38840000  1.0 0.1092069482
C  C1  1  0.30410000  0.01112000  0.91562000  1.0 0.5587784925
C  C2  1  0.23084000  0.08438000  0.69590000  1.0 0.5587784925
C  C3  1  0.01112000  0.30410000  0.76916000  1.0 0.5587784925
C  C4  1  0.08438000  0.23084000  0.98888000  1.0 0.5587784925
C  C5  1  0.98888000  0.23084000  0.69590000  1.0 0.5587784925
C  C6  1  0.76916000  0.91562000  0.01112000  1.0 0.5587784925
C  C7  1  0.08438000  0.69590000  0.23084000  1.0 0.5587784925
C  C8  1  0.98888000  0.08438000  0.23084000  1.0 0.5587784925
C  C9  1  0.91562000  0.76916000  0.30410000  1.0 0.5587784925
C  C10  1  0.23084000  0.69590000  0.98888000  1.0 0.5587784925
C  C11  1  0.91562000  0.30410000  0.01112000  1.0 0.5587784925
C  C12  1  0.01112000  0.91562000  0.30410000  1.0 0.5587784925
C  C13  1  0.91562000  0.01112000  0.76916000  1.0 0.5587784925
C  C14  1  0.76916000  0.01112000  0.30410000  1.0 0.5587784925
C  C15  1  0.30410000  0.76916000  0.01112000  1.0 0.5587784925
C  C16  1  0.30410000  0.91562000  0.76916000  1.0 0.5587784925
C  C17  1  0.01112000  0.76916000  0.91562000  1.0 0.5587784925
C  C18  1  0.76916000  0.30410000  0.91562000  1.0 0.5587784925
C  C19  1  0.69590000  0.98888000  0.23084000  1.0 0.5587784925
C  C20  1  0.98888000  0.69590000  0.08438000  1.0 0.5587784925
C  C21  1  0.23084000  0.98888000  0.08438000  1.0 0.5587784925
C  C22  1  0.69590000  0.08438000  0.98888000  1.0 0.5587784925
C  C23  1  0.69590000  0.23084000  0.08438000  1.0 0.5587784925
C  C24  1  0.08438000  0.98888000  0.69590000  1.0 0.5587784925
C  C25  1  0.69590000  0.98888000  0.08438000  1.0 0.5587784925
C  C26  1  0.76916000  0.91562000  0.30410000  1.0 0.5587784925
C  C27  1  0.98888000  0.69590000  0.23084000  1.0 0.5587784925
C  C28  1  0.91562000  0.76916000  0.01112000  1.0 0.5587784925
C  C29  1  0.01112000  0.76916000  0.30410000  1.0 0.5587784925
C  C30  1  0.23084000  0.08438000  0.98888000  1.0 0.5587784925
C  C31  1  0.91562000  0.30410000  0.76916000  1.0 0.5587784925
C  C32  1  0.01112000  0.91562000  0.76916000  1.0 0.5587784925
C  C33  1  0.08438000  0.23084000  0.69590000  1.0 0.5587784925
C  C34  1  0.76916000  0.30410000  0.01112000  1.0 0.5587784925
C  C35  1  0.08438000  0.69590000  0.98888000  1.0 0.5587784925
C  C36  1  0.98888000  0.08438000  0.69590000  1.0 0.5587784925
C  C37  1  0.08438000  0.98888000  0.23084000  1.0 0.5587784925
C  C38  1  0.23084000  0.98888000  0.69590000  1.0 0.5587784925
C  C39  1  0.69590000  0.23084000  0.98888000  1.0 0.5587784925
C  C40  1  0.69590000  0.08438000  0.23084000  1.0 0.5587784925
C  C41  1  0.98888000  0.23084000  0.08438000  1.0 0.5587784925
C  C42  1  0.23084000  0.69590000  0.08438000  1.0 0.5587784925
C  C43  1  0.30410000  0.01112000  0.76916000  1.0 0.5587784925
C  C44  1  0.01112000  0.30410000  0.91562000  1.0 0.5587784925
C  C45  1  0.76916000  0.01112000  0.91562000  1.0 0.5587784925
C  C46  1  0.30410000  0.91562000  0.01112000  1.0 0.5587784925
C  C47  1  0.30410000  0.76916000  0.91562000  1.0 0.5587784925
C  C48  1  0.91562000  0.01112000  0.30410000  1.0 0.5587784925
C  C49  1  0.32695000  0.02223000  0.85993000  1.0 -0.0006681158
C  C50  1  0.20911000  0.14007000  0.67305000  1.0 -0.0006681158
C  C51  1  0.02223000  0.32695000  0.79089000  1.0 -0.0006681158
C  C52  1  0.14007000  0.20911000  0.97777000  1.0 -0.0006681158
C  C53  1  0.97777000  0.20911000  0.67305000  1.0 -0.0006681158
C  C54  1  0.79089000  0.85993000  0.02223000  1.0 -0.0006681158
C  C55  1  0.14007000  0.67305000  0.20911000  1.0 -0.0006681158
C  C56  1  0.97777000  0.14007000  0.20911000  1.0 1.99875e-05
C  C57  1  0.85993000  0.79089000  0.32695000  1.0 -0.0006681158
C  C58  1  0.20911000  0.67305000  0.97777000  1.0 -0.0006681158
C  C59  1  0.85993000  0.32695000  0.02223000  1.0 1.99875e-05
C  C60  1  0.02223000  0.85993000  0.32695000  1.0 -0.0006681158
C  C61  1  0.85993000  0.02223000  0.79089000  1.0 -0.0006681158
C  C62  1  0.79089000  0.02223000  0.32695000  1.0 -0.0006681158
C  C63  1  0.32695000  0.79089000  0.02223000  1.0 -0.0006681158
C  C64  1  0.32695000  0.85993000  0.79089000  1.0 -0.0006681158
C  C65  1  0.02223000  0.79089000  0.85993000  1.0 -0.0006681158
C  C66  1  0.79089000  0.32695000  0.85993000  1.0 -0.0006681158
C  C67  1  0.67305000  0.97777000  0.20911000  1.0 -0.0006681158
C  C68  1  0.97777000  0.67305000  0.14007000  1.0 -0.0006681158
C  C69  1  0.20911000  0.97777000  0.14007000  1.0 -0.0006681158
C  C70  1  0.67305000  0.14007000  0.97777000  1.0 -0.0006681158
C  C71  1  0.67305000  0.20911000  0.14007000  1.0 -0.0006681158
C  C72  1  0.14007000  0.97777000  0.67305000  1.0 -0.0006681158
C  C73  1  0.67305000  0.97777000  0.14007000  1.0 -0.0006681158
C  C74  1  0.79089000  0.85993000  0.32695000  1.0 -0.0006681158
C  C75  1  0.97777000  0.67305000  0.20911000  1.0 -0.0006681158
C  C76  1  0.85993000  0.79089000  0.02223000  1.0 -0.0006681158
C  C77  1  0.02223000  0.79089000  0.32695000  1.0 -0.0006681158
C  C78  1  0.20911000  0.14007000  0.97777000  1.0 -0.0006681158
C  C79  1  0.85993000  0.32695000  0.79089000  1.0 -0.0006681158
C  C80  1  0.02223000  0.85993000  0.79089000  1.0 -0.0006681158
C  C81  1  0.14007000  0.20911000  0.67305000  1.0 -0.0006681158
C  C82  1  0.79089000  0.32695000  0.02223000  1.0 1.99875e-05
C  C83  1  0.14007000  0.67305000  0.97777000  1.0 -0.0006681158
C  C84  1  0.97777000  0.14007000  0.67305000  1.0 -0.0006681158
C  C85  1  0.14007000  0.97777000  0.20911000  1.0 -0.0006681158
C  C86  1  0.20911000  0.97777000  0.67305000  1.0 1.99875e-05
C  C87  1  0.67305000  0.20911000  0.97777000  1.0 -0.0006681158
C  C88  1  0.67305000  0.14007000  0.20911000  1.0 -0.0006681158
C  C89  1  0.97777000  0.20911000  0.14007000  1.0 1.99875e-05
C  C90  1  0.20911000  0.67305000  0.14007000  1.0 -0.0006681158
C  C91  1  0.32695000  0.02223000  0.79089000  1.0 -0.0006681158
C  C92  1  0.02223000  0.32695000  0.85993000  1.0 -0.0006681158
C  C93  1  0.79089000  0.02223000  0.85993000  1.0 -0.0006681158
C  C94  1  0.32695000  0.85993000  0.02223000  1.0 -0.0006681158
C  C95  1  0.32695000  0.79089000  0.85993000  1.0 -0.0006681158
C  C96  1  0.85993000  0.02223000  0.32695000  1.0 -0.0006681158
C  C97  1  0.30480000  0.01704000  0.83908000  1.0 -0.1062322627
C  C98  1  0.16092000  0.16092000  0.69520000  1.0 -0.1062322627
C  C99  1  0.01704000  0.30480000  0.83908000  1.0 -0.1062322627
C  C100  1  0.16092000  0.16092000  0.98296000  1.0 -0.1062322627
C  C101  1  0.98296000  0.16092000  0.69520000  1.0 -0.1062322627
C  C102  1  0.83908000  0.83908000  0.01704000  1.0 -0.1062322627
C  C103  1  0.16092000  0.69520000  0.16092000  1.0 -0.1062322627
C  C104  1  0.98296000  0.16092000  0.16092000  1.0 -0.1062322627
C  C105  1  0.83908000  0.83908000  0.30480000  1.0 -0.1062322627
C  C106  1  0.16092000  0.69520000  0.98296000  1.0 -0.1062322627
C  C107  1  0.83908000  0.30480000  0.01704000  1.0 -0.1062322627
C  C108  1  0.01704000  0.83908000  0.30480000  1.0 -0.1062322627
C  C109  1  0.83908000  0.01704000  0.83908000  1.0 -0.1062322627
C  C110  1  0.83908000  0.01704000  0.30480000  1.0 -0.1062322627
C  C111  1  0.30480000  0.83908000  0.01704000  1.0 -0.1062322627
C  C112  1  0.30480000  0.83908000  0.83908000  1.0 -0.1062322627
C  C113  1  0.01704000  0.83908000  0.83908000  1.0 -0.1062322627
C  C114  1  0.83908000  0.30480000  0.83908000  1.0 -0.1062322627
C  C115  1  0.69520000  0.98296000  0.16092000  1.0 -0.1062322627
C  C116  1  0.98296000  0.69520000  0.16092000  1.0 -0.1062322627
C  C117  1  0.16092000  0.98296000  0.16092000  1.0 -0.1062322627
C  C118  1  0.69520000  0.16092000  0.98296000  1.0 -0.1062322627
C  C119  1  0.69520000  0.16092000  0.16092000  1.0 -0.1062322627
C  C120  1  0.16092000  0.98296000  0.69520000  1.0 -0.1062322627
C  C121  1  0.36834000  0.02660000  0.83884000  1.0 -0.1300120022
C  C122  1  0.23378000  0.16116000  0.63166000  1.0 -0.1300120022
C  C123  1  0.02660000  0.36834000  0.76622000  1.0 -0.1300120022
C  C124  1  0.16116000  0.23378000  0.97340000  1.0 -0.1300120022
C  C125  1  0.97340000  0.23378000  0.63166000  1.0 -0.1300120022
C  C126  1  0.76622000  0.83884000  0.02660000  1.0 -0.1300120022
C  C127  1  0.16116000  0.63166000  0.23378000  1.0 -0.1300120022
C  C128  1  0.97340000  0.16116000  0.23378000  1.0 -0.1300120022
C  C129  1  0.83884000  0.76622000  0.36834000  1.0 -0.1300120022
C  C130  1  0.23378000  0.63166000  0.97340000  1.0 -0.1300120022
C  C131  1  0.83884000  0.36834000  0.02660000  1.0 -0.1300120022
C  C132  1  0.02660000  0.83884000  0.36834000  1.0 -0.1300120022
C  C133  1  0.83884000  0.02660000  0.76622000  1.0 -0.1300120022
C  C134  1  0.76622000  0.02660000  0.36834000  1.0 -0.1300120022
C  C135  1  0.36834000  0.76622000  0.02660000  1.0 -0.1300120022
C  C136  1  0.36834000  0.83884000  0.76622000  1.0 -0.1300120022
C  C137  1  0.02660000  0.76622000  0.83884000  1.0 -0.1300120022
C  C138  1  0.76622000  0.36834000  0.83884000  1.0 -0.1300120022
C  C139  1  0.63166000  0.97340000  0.23378000  1.0 -0.1300120022
C  C140  1  0.97340000  0.63166000  0.16116000  1.0 -0.1300120022
C  C141  1  0.23378000  0.97340000  0.16116000  1.0 -0.1300120022
C  C142  1  0.63166000  0.16116000  0.97340000  1.0 -0.1300120022
C  C143  1  0.63166000  0.23378000  0.16116000  1.0 -0.1300120022
C  C144  1  0.16116000  0.97340000  0.63166000  1.0 -0.1300120022
C  C145  1  0.63166000  0.97340000  0.16116000  1.0 -0.1300120022
C  C146  1  0.76622000  0.83884000  0.36834000  1.0 -0.1300120022
C  C147  1  0.97340000  0.63166000  0.23378000  1.0 -0.1300120022
C  C148  1  0.83884000  0.76622000  0.02660000  1.0 -0.1300120022
C  C149  1  0.02660000  0.76622000  0.36834000  1.0 -0.1300120022
C  C150  1  0.23378000  0.16116000  0.97340000  1.0 -0.1300120022
C  C151  1  0.83884000  0.36834000  0.76622000  1.0 -0.1300120022
C  C152  1  0.02660000  0.83884000  0.76622000  1.0 -0.1300120022
C  C153  1  0.16116000  0.23378000  0.63166000  1.0 -0.1300120022
C  C154  1  0.76622000  0.36834000  0.02660000  1.0 -0.1300120022
C  C155  1  0.16116000  0.63166000  0.97340000  1.0 -0.1300120022
C  C156  1  0.97340000  0.16116000  0.63166000  1.0 -0.1300120022
C  C157  1  0.16116000  0.97340000  0.23378000  1.0 -0.1300120022
C  C158  1  0.23378000  0.97340000  0.63166000  1.0 -0.1300120022
C  C159  1  0.63166000  0.23378000  0.97340000  1.0 -0.1300120022
C  C160  1  0.63166000  0.16116000  0.23378000  1.0 -0.1300120022
C  C161  1  0.97340000  0.23378000  0.16116000  1.0 -0.1300120022
C  C162  1  0.23378000  0.63166000  0.16116000  1.0 -0.1300120022
C  C163  1  0.36834000  0.02660000  0.76622000  1.0 -0.1300120022
C  C164  1  0.02660000  0.36834000  0.83884000  1.0 -0.1300120022
C  C165  1  0.76622000  0.02660000  0.83884000  1.0 -0.1300120022
C  C166  1  0.36834000  0.83884000  0.02660000  1.0 -0.1300120022
C  C167  1  0.36834000  0.76622000  0.83884000  1.0 -0.1300120022
C  C168  1  0.83884000  0.02660000  0.36834000  1.0 -0.1300120022
C  C169  1  0.38910000  0.03510000  0.78790000  1.0 0.1231453802
C  C170  1  0.21210000  0.21210000  0.61090000  1.0 0.1231453802
C  C171  1  0.03510000  0.38910000  0.78790000  1.0 0.1231453802
C  C172  1  0.21210000  0.21210000  0.96490000  1.0 0.1231453802
C  C173  1  0.96490000  0.21210000  0.61090000  1.0 0.1231453802
C  C174  1  0.78790000  0.78790000  0.03510000  1.0 0.1231453802
C  C175  1  0.21210000  0.61090000  0.21210000  1.0 0.1231453802
C  C176  1  0.96490000  0.21210000  0.21210000  1.0 0.1231453802
C  C177  1  0.78790000  0.78790000  0.38910000  1.0 0.1231453802
C  C178  1  0.21210000  0.61090000  0.96490000  1.0 0.1231453802
C  C179  1  0.78790000  0.38910000  0.03510000  1.0 0.1231453802
C  C180  1  0.03510000  0.78790000  0.38910000  1.0 0.1231453802
C  C181  1  0.78790000  0.03510000  0.78790000  1.0 0.1231453802
C  C182  1  0.78790000  0.03510000  0.38910000  1.0 0.1231453802
C  C183  1  0.38910000  0.78790000  0.03510000  1.0 0.1231453802
C  C184  1  0.38910000  0.78790000  0.78790000  1.0 0.1231453802
C  C185  1  0.03510000  0.78790000  0.78790000  1.0 0.1231453802
C  C186  1  0.78790000  0.38910000  0.78790000  1.0 0.1231453802
C  C187  1  0.61090000  0.96490000  0.21210000  1.0 0.1231453802
C  C188  1  0.96490000  0.61090000  0.21210000  1.0 0.1231453802
C  C189  1  0.21210000  0.96490000  0.21210000  1.0 0.1231453802
C  C190  1  0.61090000  0.21210000  0.96490000  1.0 0.1231453802
C  C191  1  0.61090000  0.21210000  0.21210000  1.0 0.1231453802
C  C192  1  0.21210000  0.96490000  0.61090000  1.0 0.1231453802
C  C193  1  0.43782000  0.03718000  0.76250000  1.0 -0.0641367953
C  C194  1  0.23750000  0.23750000  0.56218000  1.0 -0.0641367953
C  C195  1  0.03718000  0.43782000  0.76250000  1.0 -0.0641367953
C  C196  1  0.23750000  0.23750000  0.96282000  1.0 -0.0641367953
C  C197  1  0.96282000  0.23750000  0.56218000  1.0 -0.0641367953
C  C198  1  0.76250000  0.76250000  0.03718000  1.0 -0.066088196
C  C199  1  0.23750000  0.56218000  0.23750000  1.0 -0.0641367953
C  C200  1  0.96282000  0.23750000  0.23750000  1.0 -0.066088196
C  C201  1  0.76250000  0.76250000  0.43782000  1.0 -0.0641367953
C  C202  1  0.23750000  0.56218000  0.96282000  1.0 -0.0641367953
C  C203  1  0.76250000  0.43782000  0.03718000  1.0 -0.066088196
C  C204  1  0.03718000  0.76250000  0.43782000  1.0 -0.0641367953
C  C205  1  0.76250000  0.03718000  0.76250000  1.0 -0.0641367953
C  C206  1  0.76250000  0.03718000  0.43782000  1.0 -0.0641367953
C  C207  1  0.43782000  0.76250000  0.03718000  1.0 -0.066088196
C  C208  1  0.43782000  0.76250000  0.76250000  1.0 -0.0641367953
C  C209  1  0.03718000  0.76250000  0.76250000  1.0 -0.0641367953
C  C210  1  0.76250000  0.43782000  0.76250000  1.0 -0.0641367953
C  C211  1  0.56218000  0.96282000  0.23750000  1.0 -0.0641367953
C  C212  1  0.96282000  0.56218000  0.23750000  1.0 -0.066088196
C  C213  1  0.23750000  0.96282000  0.23750000  1.0 -0.066088196
C  C214  1  0.56218000  0.23750000  0.96282000  1.0 -0.0641367953
C  C215  1  0.56218000  0.23750000  0.23750000  1.0 -0.0641367953
C  C216  1  0.23750000  0.96282000  0.56218000  1.0 -0.066088196
C  C217  1  0.47390000  0.04510000  0.74050000  1.0 -0.0407058313
C  C218  1  0.25950000  0.25950000  0.52610000  1.0 -0.0407058313
C  C219  1  0.04510000  0.47390000  0.74050000  1.0 -0.0407058313
C  C220  1  0.25950000  0.25950000  0.95490000  1.0 -0.0407058313
C  C221  1  0.95490000  0.25950000  0.52610000  1.0 -0.0407058313
C  C222  1  0.74050000  0.74050000  0.04510000  1.0 -0.0407058313
C  C223  1  0.25950000  0.52610000  0.25950000  1.0 -0.0407058313
C  C224  1  0.95490000  0.25950000  0.25950000  1.0 -0.0407058313
C  C225  1  0.74050000  0.74050000  0.47390000  1.0 -0.0407058313
C  C226  1  0.25950000  0.52610000  0.95490000  1.0 -0.0407058313
C  C227  1  0.74050000  0.47390000  0.04510000  1.0 -0.0407058313
C  C228  1  0.04510000  0.74050000  0.47390000  1.0 -0.0407058313
C  C229  1  0.74050000  0.04510000  0.74050000  1.0 -0.0407058313
C  C230  1  0.74050000  0.04510000  0.47390000  1.0 -0.0407058313
C  C231  1  0.47390000  0.74050000  0.04510000  1.0 -0.0407058313
C  C232  1  0.47390000  0.74050000  0.74050000  1.0 -0.0407058313
C  C233  1  0.04510000  0.74050000  0.74050000  1.0 -0.0407058313
C  C234  1  0.74050000  0.47390000  0.74050000  1.0 -0.0407058313
C  C235  1  0.52610000  0.95490000  0.25950000  1.0 -0.0407058313
C  C236  1  0.95490000  0.52610000  0.25950000  1.0 -0.0407058313
C  C237  1  0.25950000  0.95490000  0.25950000  1.0 -0.0407058313
C  C238  1  0.52610000  0.25950000  0.95490000  1.0 -0.0407058313
C  C239  1  0.52610000  0.25950000  0.25950000  1.0 -0.0407058313
C  C240  1  0.25950000  0.95490000  0.52610000  1.0 -0.0407058313
C  C241  1  0.51920000  0.04560000  0.71760000  1.0 -0.0407058313
C  C242  1  0.28240000  0.28240000  0.48080000  1.0 -0.0407058313
C  C243  1  0.04560000  0.51920000  0.71760000  1.0 -0.0407058313
C  C244  1  0.28240000  0.28240000  0.95440000  1.0 -0.0407058313
C  C245  1  0.95440000  0.28240000  0.48080000  1.0 -0.0407058313
C  C246  1  0.71760000  0.71760000  0.04560000  1.0 -0.0471321899
C  C247  1  0.28240000  0.48080000  0.28240000  1.0 -0.0471321899
C  C248  1  0.95440000  0.28240000  0.28240000  1.0 -0.0407058313
C  C249  1  0.71760000  0.71760000  0.51920000  1.0 -0.0407058313
C  C250  1  0.28240000  0.48080000  0.95440000  1.0 -0.0407058313
C  C251  1  0.71760000  0.51920000  0.04560000  1.0 -0.0471321899
C  C252  1  0.04560000  0.71760000  0.51920000  1.0 -0.0407058313
C  C253  1  0.71760000  0.04560000  0.71760000  1.0 -0.0407058313
C  C254  1  0.71760000  0.04560000  0.51920000  1.0 -0.0407058313
C  C255  1  0.51920000  0.71760000  0.04560000  1.0 -0.0471321899
C  C256  1  0.51920000  0.71760000  0.71760000  1.0 -0.0407058313
C  C257  1  0.04560000  0.71760000  0.71760000  1.0 -0.0407058313
C  C258  1  0.71760000  0.51920000  0.71760000  1.0 -0.0407058313
C  C259  1  0.48080000  0.95440000  0.28240000  1.0 -0.0471321899
C  C260  1  0.95440000  0.48080000  0.28240000  1.0 -0.0407058313
C  C261  1  0.28240000  0.95440000  0.28240000  1.0 -0.0407058313
C  C262  1  0.48080000  0.28240000  0.95440000  1.0 -0.0407058313
C  C263  1  0.48080000  0.28240000  0.28240000  1.0 -0.0471321899
C  C264  1  0.28240000  0.95440000  0.48080000  1.0 -0.0407058313
C  C265  1  0.55570000  0.05330000  0.69550000  1.0 -0.0170708645
C  C266  1  0.30450000  0.30450000  0.44430000  1.0 -0.0170708645
C  C267  1  0.05330000  0.55570000  0.69550000  1.0 -0.0170708645
C  C268  1  0.30450000  0.30450000  0.94670000  1.0 -0.0170708645
C  C269  1  0.94670000  0.30450000  0.44430000  1.0 -0.0170708645
C  C270  1  0.69550000  0.69550000  0.05330000  1.0 -0.0125204572
C  C271  1  0.30450000  0.44430000  0.30450000  1.0 -0.0170708645
C  C272  1  0.94670000  0.30450000  0.30450000  1.0 -0.0170708645
C  C273  1  0.69550000  0.69550000  0.55570000  1.0 -0.0170708645
C  C274  1  0.30450000  0.44430000  0.94670000  1.0 -0.0170708645
C  C275  1  0.69550000  0.55570000  0.05330000  1.0 -0.0125204572
C  C276  1  0.05330000  0.69550000  0.55570000  1.0 -0.0170708645
C  C277  1  0.69550000  0.05330000  0.69550000  1.0 -0.0170708645
C  C278  1  0.69550000  0.05330000  0.55570000  1.0 -0.0170708645
C  C279  1  0.55570000  0.69550000  0.05330000  1.0 -0.0125204572
C  C280  1  0.55570000  0.69550000  0.69550000  1.0 -0.0170708645
C  C281  1  0.05330000  0.69550000  0.69550000  1.0 -0.0170708645
C  C282  1  0.69550000  0.55570000  0.69550000  1.0 -0.0170708645
C  C283  1  0.44430000  0.94670000  0.30450000  1.0 -0.0170708645
C  C284  1  0.94670000  0.44430000  0.30450000  1.0 -0.0170708645
C  C285  1  0.30450000  0.94670000  0.30450000  1.0 -0.0170708645
C  C286  1  0.44430000  0.30450000  0.94670000  1.0 -0.0170708645
C  C287  1  0.44430000  0.30450000  0.30450000  1.0 -0.0170708645
C  C288  1  0.30450000  0.94670000  0.44430000  1.0 -0.0170708645
C  C289  1  0.60270000  0.05590000  0.67070000  1.0 0.0879012047
C  C290  1  0.32930000  0.32930000  0.39730000  1.0 0.0879012047
C  C291  1  0.05590000  0.60270000  0.67070000  1.0 0.0879012047
C  C292  1  0.32930000  0.32930000  0.94410000  1.0 0.0879012047
C  C293  1  0.94410000  0.32930000  0.39730000  1.0 0.0879012047
C  C294  1  0.67070000  0.67070000  0.05590000  1.0 0.0879012047
C  C295  1  0.32930000  0.39730000  0.32930000  1.0 0.0879012047
C  C296  1  0.94410000  0.32930000  0.32930000  1.0 0.0879012047
C  C297  1  0.67070000  0.67070000  0.60270000  1.0 0.0879012047
C  C298  1  0.32930000  0.39730000  0.94410000  1.0 0.0879012047
C  C299  1  0.67070000  0.60270000  0.05590000  1.0 0.0879012047
C  C300  1  0.05590000  0.67070000  0.60270000  1.0 0.0879012047
C  C301  1  0.67070000  0.05590000  0.67070000  1.0 0.0879012047
C  C302  1  0.67070000  0.05590000  0.60270000  1.0 0.0879012047
C  C303  1  0.60270000  0.67070000  0.05590000  1.0 0.0879012047
C  C304  1  0.60270000  0.67070000  0.67070000  1.0 0.0879012047
C  C305  1  0.05590000  0.67070000  0.67070000  1.0 0.0879012047
C  C306  1  0.67070000  0.60270000  0.67070000  1.0 0.0879012047
C  C307  1  0.39730000  0.94410000  0.32930000  1.0 0.0879012047
C  C308  1  0.94410000  0.39730000  0.32930000  1.0 0.0879012047
C  C309  1  0.32930000  0.94410000  0.32930000  1.0 0.0879012047
C  C310  1  0.39730000  0.32930000  0.94410000  1.0 0.0879012047
C  C311  1  0.39730000  0.32930000  0.32930000  1.0 0.0879012047
C  C312  1  0.32930000  0.94410000  0.39730000  1.0 0.0879012047
C  C313  1  0.62590000  0.05290000  0.69530000  1.0 -0.1008311518
C  C314  1  0.37410000  0.30470000  0.37410000  1.0 -0.1008311518
C  C315  1  0.05290000  0.62590000  0.62590000  1.0 -0.1008311518
C  C316  1  0.30470000  0.37410000  0.94710000  1.0 -0.1008311518
C  C317  1  0.94710000  0.37410000  0.37410000  1.0 -0.1008311518
C  C318  1  0.62590000  0.69530000  0.05290000  1.0 -0.1008311518
C  C319  1  0.30470000  0.37410000  0.37410000  1.0 -0.1008311518
C  C320  1  0.94710000  0.30470000  0.37410000  1.0 -0.1008311518
C  C321  1  0.69530000  0.62590000  0.62590000  1.0 -0.1008311518
C  C322  1  0.37410000  0.37410000  0.94710000  1.0 -0.1008311518
C  C323  1  0.69530000  0.62590000  0.05290000  1.0 -0.1008311518
C  C324  1  0.05290000  0.69530000  0.62590000  1.0 -0.1008311518
C  C325  1  0.69530000  0.05290000  0.62590000  1.0 -0.1008311518
C  C326  1  0.62590000  0.05290000  0.62590000  1.0 -0.1008311518
C  C327  1  0.62590000  0.62590000  0.05290000  1.0 -0.1008311518
C  C328  1  0.62590000  0.69530000  0.62590000  1.0 -0.1008311518
C  C329  1  0.05290000  0.62590000  0.69530000  1.0 -0.1008311518
C  C330  1  0.62590000  0.62590000  0.69530000  1.0 -0.1008311518
C  C331  1  0.37410000  0.94710000  0.37410000  1.0 -0.1008311518
C  C332  1  0.94710000  0.37410000  0.30470000  1.0 -0.1008311518
C  C333  1  0.37410000  0.94710000  0.30470000  1.0 -0.1008311518
C  C334  1  0.37410000  0.30470000  0.94710000  1.0 -0.1008311518
C  C335  1  0.37410000  0.37410000  0.30470000  1.0 -0.1008311518
C  C336  1  0.30470000  0.94710000  0.37410000  1.0 -0.1008311518
O  O1  1  0.26378000  0.01122000  0.93262000  1.0 -0.4913542428
O  O2  1  0.20762000  0.06738000  0.73622000  1.0 -0.4913542428
O  O3  1  0.01122000  0.26378000  0.79238000  1.0 -0.4913542428
O  O4  1  0.06738000  0.20762000  0.98878000  1.0 -0.4913542428
O  O5  1  0.98878000  0.20762000  0.73622000  1.0 -0.4913542428
O  O6  1  0.79238000  0.93262000  0.01122000  1.0 -0.4913542428
O  O7  1  0.06738000  0.73622000  0.20762000  1.0 -0.4913542428
O  O8  1  0.98878000  0.06738000  0.20762000  1.0 -0.4913542428
O  O9  1  0.93262000  0.79238000  0.26378000  1.0 -0.4913542428
O  O10  1  0.20762000  0.73622000  0.98878000  1.0 -0.4913542428
O  O11  1  0.93262000  0.26378000  0.01122000  1.0 -0.4913542428
O  O12  1  0.01122000  0.93262000  0.26378000  1.0 -0.4913542428
O  O13  1  0.93262000  0.01122000  0.79238000  1.0 -0.4913542428
O  O14  1  0.79238000  0.01122000  0.26378000  1.0 -0.4913542428
O  O15  1  0.26378000  0.79238000  0.01122000  1.0 -0.4913542428
O  O16  1  0.26378000  0.93262000  0.79238000  1.0 -0.4913542428
O  O17  1  0.01122000  0.79238000  0.93262000  1.0 -0.4913542428
O  O18  1  0.79238000  0.26378000  0.93262000  1.0 -0.4913542428
O  O19  1  0.73622000  0.98878000  0.20762000  1.0 -0.4913542428
O  O20  1  0.98878000  0.73622000  0.06738000  1.0 -0.4913542428
O  O21  1  0.20762000  0.98878000  0.06738000  1.0 -0.4913542428
O  O22  1  0.73622000  0.06738000  0.98878000  1.0 -0.4913542428
O  O23  1  0.73622000  0.20762000  0.06738000  1.0 -0.4913542428
O  O24  1  0.06738000  0.98878000  0.73622000  1.0 -0.4913542428
O  O25  1  0.73622000  0.98878000  0.06738000  1.0 -0.4913542428
O  O26  1  0.79238000  0.93262000  0.26378000  1.0 -0.4913542428
O  O27  1  0.98878000  0.73622000  0.20762000  1.0 -0.4913542428
O  O28  1  0.93262000  0.79238000  0.01122000  1.0 -0.4913542428
O  O29  1  0.01122000  0.79238000  0.26378000  1.0 -0.4913542428
O  O30  1  0.20762000  0.06738000  0.98878000  1.0 -0.4913542428
O  O31  1  0.93262000  0.26378000  0.79238000  1.0 -0.4913542428
O  O32  1  0.01122000  0.93262000  0.79238000  1.0 -0.4913542428
O  O33  1  0.06738000  0.20762000  0.73622000  1.0 -0.4913542428
O  O34  1  0.79238000  0.26378000  0.01122000  1.0 -0.4913542428
O  O35  1  0.06738000  0.73622000  0.98878000  1.0 -0.4913542428
O  O36  1  0.98878000  0.06738000  0.73622000  1.0 -0.4913542428
O  O37  1  0.06738000  0.98878000  0.20762000  1.0 -0.4913542428
O  O38  1  0.20762000  0.98878000  0.73622000  1.0 -0.4913542428
O  O39  1  0.73622000  0.20762000  0.98878000  1.0 -0.4913542428
O  O40  1  0.73622000  0.06738000  0.20762000  1.0 -0.4913542428
O  O41  1  0.98878000  0.20762000  0.06738000  1.0 -0.4913542428
O  O42  1  0.20762000  0.73622000  0.06738000  1.0 -0.4913542428
O  O43  1  0.26378000  0.01122000  0.79238000  1.0 -0.4913542428
O  O44  1  0.01122000  0.26378000  0.93262000  1.0 -0.4913542428
O  O45  1  0.79238000  0.01122000  0.93262000  1.0 -0.4913542428
O  O46  1  0.26378000  0.93262000  0.01122000  1.0 -0.4913542428
O  O47  1  0.26378000  0.79238000  0.93262000  1.0 -0.4913542428
O  O48  1  0.93262000  0.01122000  0.26378000  1.0 -0.4913542428
O  O49  1  0.32970000  0.01086000  0.93152000  1.0 -0.5110082933
O  O50  1  0.27208000  0.06848000  0.67030000  1.0 -0.5110082933
O  O51  1  0.01086000  0.32970000  0.72792000  1.0 -0.5110082933
O  O52  1  0.06848000  0.27208000  0.98914000  1.0 -0.5110082933
O  O53  1  0.98914000  0.27208000  0.67030000  1.0 -0.5110082933
O  O54  1  0.72792000  0.93152000  0.01086000  1.0 -0.5110082933
O  O55  1  0.06848000  0.67030000  0.27208000  1.0 -0.5110082933
O  O56  1  0.98914000  0.06848000  0.27208000  1.0 -0.5110082933
O  O57  1  0.93152000  0.72792000  0.32970000  1.0 -0.5110082933
O  O58  1  0.27208000  0.67030000  0.98914000  1.0 -0.5110082933
O  O59  1  0.93152000  0.32970000  0.01086000  1.0 -0.5110082933
O  O60  1  0.01086000  0.93152000  0.32970000  1.0 -0.5110082933
O  O61  1  0.93152000  0.01086000  0.72792000  1.0 -0.5110082933
O  O62  1  0.72792000  0.01086000  0.32970000  1.0 -0.5110082933
O  O63  1  0.32970000  0.72792000  0.01086000  1.0 -0.5110082933
O  O64  1  0.32970000  0.93152000  0.72792000  1.0 -0.5110082933
O  O65  1  0.01086000  0.72792000  0.93152000  1.0 -0.5110082933
O  O66  1  0.72792000  0.32970000  0.93152000  1.0 -0.5110082933
O  O67  1  0.67030000  0.98914000  0.27208000  1.0 -0.5110082933
O  O68  1  0.98914000  0.67030000  0.06848000  1.0 -0.5110082933
O  O69  1  0.27208000  0.98914000  0.06848000  1.0 -0.5110082933
O  O70  1  0.67030000  0.06848000  0.98914000  1.0 -0.5110082933
O  O71  1  0.67030000  0.27208000  0.06848000  1.0 -0.5110082933
O  O72  1  0.06848000  0.98914000  0.67030000  1.0 -0.5110082933
O  O73  1  0.67030000  0.98914000  0.06848000  1.0 -0.5110082933
O  O74  1  0.72792000  0.93152000  0.32970000  1.0 -0.5110082933
O  O75  1  0.98914000  0.67030000  0.27208000  1.0 -0.5110082933
O  O76  1  0.93152000  0.72792000  0.01086000  1.0 -0.5110082933
O  O77  1  0.01086000  0.72792000  0.32970000  1.0 -0.5110082933
O  O78  1  0.27208000  0.06848000  0.98914000  1.0 -0.5110082933
O  O79  1  0.93152000  0.32970000  0.72792000  1.0 -0.5110082933
O  O80  1  0.01086000  0.93152000  0.72792000  1.0 -0.5110082933
O  O81  1  0.06848000  0.27208000  0.67030000  1.0 -0.5110082933
O  O82  1  0.72792000  0.32970000  0.01086000  1.0 -0.5110082933
O  O83  1  0.06848000  0.67030000  0.98914000  1.0 -0.5110082933
O  O84  1  0.98914000  0.06848000  0.67030000  1.0 -0.5110082933
O  O85  1  0.06848000  0.98914000  0.27208000  1.0 -0.5110082933
O  O86  1  0.27208000  0.98914000  0.67030000  1.0 -0.5110082933
O  O87  1  0.67030000  0.27208000  0.98914000  1.0 -0.5110082933
O  O88  1  0.67030000  0.06848000  0.27208000  1.0 -0.5110082933
O  O89  1  0.98914000  0.27208000  0.06848000  1.0 -0.5110082933
O  O90  1  0.27208000  0.67030000  0.06848000  1.0 -0.5110082933
O  O91  1  0.32970000  0.01086000  0.72792000  1.0 -0.5110082933
O  O92  1  0.01086000  0.32970000  0.93152000  1.0 -0.5110082933
O  O93  1  0.72792000  0.01086000  0.93152000  1.0 -0.5110082933
O  O94  1  0.32970000  0.93152000  0.01086000  1.0 -0.5110082933
O  O95  1  0.32970000  0.72792000  0.93152000  1.0 -0.5110082933
O  O96  1  0.93152000  0.01086000  0.32970000  1.0 -0.5110082933
