# DDEC6 charges by PACMAN v1.1 (https://github.com/mtap-research/PACMAN-charge/)
data_MELRUT_ASR_pacman
_symmetry_space_group_name_H-M   'P 1'
_cell_length_a   33.00020000
_cell_length_b   29.23060000
_cell_length_c   19.94250000
_cell_angle_alpha   81.95730000
_cell_angle_beta   61.28940000
_cell_angle_gamma   36.75340000
_symmetry_Int_Tables_number   1
_chemical_formula_structural   Ni2H68C82N14O13
_chemical_formula_sum   'Ni8 H272 C328 N56 O52'
_cell_volume   8928.16597020
_cell_formula_units_Z   4
loop_
 _symmetry_equiv_pos_site_id
 _symmetry_equiv_pos_as_xyz
  1  'x, y, z'
loop_
 _atom_site_type_symbol
 _atom_site_label
 _atom_site_symmetry_multiplicity
 _atom_site_fract_x
 _atom_site_fract_y
 _atom_site_fract_z
 _atom_site_occupancy
 _atom_site_charge
Ni  Ni1  1  0.08106000  0.94188000  0.24368000  1.0 0.813610059
Ni  Ni2  1  0.94188000  0.08106000  0.73338000  1.0 0.813610059
Ni  Ni3  1  0.24368000  0.73338000  0.08106000  1.0 0.813610059
Ni  Ni4  1  0.73338000  0.24368000  0.94188000  1.0 0.813610059
Ni  Ni5  1  0.16894000  0.30812000  0.00632000  1.0 0.813610059
Ni  Ni6  1  0.30812000  0.16894000  0.51662000  1.0 0.813610059
Ni  Ni7  1  0.00632000  0.51662000  0.16894000  1.0 0.813610059
Ni  Ni8  1  0.51662000  0.00632000  0.30812000  1.0 0.813610059
H  H1  1  0.01050000  0.84650000  0.54770000  1.0 0.1216609695
H  H2  1  0.04430000  0.87510000  0.44170000  1.0 0.1216609695
H  H3  1  0.18250000  0.67090000  0.26590000  1.0 0.130973582
H  H4  1  0.15660000  0.63640000  0.37200000  1.0 0.130973582
H  H5  1  0.18860000  0.50500000  0.42380000  1.0 0.1216609695
H  H6  1  0.25620000  0.37960000  0.38420000  1.0 0.130973582
H  H7  1  0.13280000  0.43620000  0.63120000  1.0 0.1216609695
H  H8  1  0.07070000  0.55810000  0.67050000  1.0 0.1216609695
H  H9  1  0.96580000  0.72680000  0.81460000  1.0 0.1216609695
H  H10  1  0.87240000  0.82160000  0.96060000  1.0 0.1100848504
H  H11  1  0.78380000  0.00720000  0.88960000  1.0 0.130973582
H  H12  1  0.88570000  0.90910000  0.74870000  1.0 0.1100848504
H  H13  1  0.16380000  0.96740000  0.10500000  1.0 0.1385796811
H  H14  1  0.92580000  0.12180000  0.26480000  1.0 0.1216609695
H  H15  1  0.07200000  0.10200000  0.09660000  1.0 0.1385796811
H  H16  1  0.92920000  0.23220000  0.14480000  1.0 0.1216609695
H  H17  1  0.87630000  0.23150000  0.17590000  1.0 0.1216609695
H  H18  1  0.81310000  0.29510000  0.31030000  1.0 0.1100848504
H  H19  1  0.86510000  0.29710000  0.27830000  1.0 0.1216609695
H  H20  1  0.75490000  0.37650000  0.24710000  1.0 0.1025800132
H  H21  1  0.79760000  0.38720000  0.23380000  1.0 0.1100848504
H  H22  1  0.72180000  0.45040000  0.37940000  1.0 0.1025800132
H  H23  1  0.68700000  0.43000000  0.39680000  1.0 0.1025800132
H  H24  1  0.62830000  0.55970000  0.33770000  1.0 0.1025800132
H  H25  1  0.59020000  0.54220000  0.36220000  1.0 0.1025800132
H  H26  1  0.08340000  0.03260000  0.29580000  1.0 0.1470153153
H  H27  1  0.93340000  0.05280000  0.46580000  1.0 0.1385796811
H  H28  1  0.80920000  0.24480000  0.48040000  1.0 0.1100848504
H  H29  1  0.81410000  0.29450000  0.47030000  1.0 0.1100848504
H  H30  1  0.66666667  0.42780000  0.55540000  1.0 0.1100848504
H  H31  1  0.68340000  0.37360000  0.50200000  1.0 0.1100848504
H  H32  1  0.56640000  0.46340000  0.64600000  1.0 0.1025800132
H  H33  1  0.63060000  0.40340000  0.66700000  1.0 0.1025800132
H  H34  1  0.15630000  0.86070000  0.08610000  1.0 0.3376330555
H  H35  1  0.84650000  0.01050000  0.59530000  1.0 0.1216609695
H  H36  1  0.87510000  0.04430000  0.63890000  1.0 0.1216609695
H  H37  1  0.67090000  0.18250000  0.88070000  1.0 0.130973582
H  H38  1  0.63640000  0.15660000  0.83500000  1.0 0.130973582
H  H39  1  0.50500000  0.18860000  0.88260000  1.0 0.1216609695
H  H40  1  0.37960000  0.25620000  0.98000000  1.0 0.130973582
H  H41  1  0.43620000  0.13280000  0.79980000  1.0 0.1216609695
H  H42  1  0.55810000  0.07070000  0.70070000  1.0 0.1216609695
H  H43  1  0.72680000  0.96580000  0.49280000  1.0 0.1216609695
H  H44  1  0.82160000  0.87240000  0.34540000  1.0 0.1100848504
H  H45  1  0.00720000  0.78380000  0.31940000  1.0 0.130973582
H  H46  1  0.90910000  0.88570000  0.45650000  1.0 0.1100848504
H  H47  1  0.96740000  0.16380000  0.76380000  1.0 0.1385796811
H  H48  1  0.12180000  0.92580000  0.68760000  1.0 0.1216609695
H  H49  1  0.10200000  0.07200000  0.72940000  1.0 0.1385796811
H  H50  1  0.23220000  0.92920000  0.69380000  1.0 0.1216609695
H  H51  1  0.23150000  0.87630000  0.71630000  1.0 0.1216609695
H  H52  1  0.29510000  0.81310000  0.58150000  1.0 0.1100848504
H  H53  1  0.29710000  0.86510000  0.55950000  1.0 0.1216609695
H  H54  1  0.37650000  0.75490000  0.62150000  1.0 0.1025800132
H  H55  1  0.38720000  0.79760000  0.58140000  1.0 0.1100848504
H  H56  1  0.45040000  0.72180000  0.44840000  1.0 0.1025800132
H  H57  1  0.43000000  0.68700000  0.48620000  1.0 0.1025800132
H  H58  1  0.55970000  0.62830000  0.47430000  1.0 0.1025800132
H  H59  1  0.54220000  0.59020000  0.50540000  1.0 0.1025800132
H  H60  1  0.03260000  0.08340000  0.58820000  1.0 0.1470153153
H  H61  1  0.05280000  0.93340000  0.54800000  1.0 0.1385796811
H  H62  1  0.24480000  0.80920000  0.46560000  1.0 0.1100848504
H  H63  1  0.29450000  0.81410000  0.42110000  1.0 0.1100848504
H  H64  1  0.42780000  0.66666667  0.35020000  1.0 0.1100848504
H  H65  1  0.37360000  0.68340000  0.44100000  1.0 0.1100848504
H  H66  1  0.46340000  0.56640000  0.32420000  1.0 0.1025800132
H  H67  1  0.40340000  0.63060000  0.29900000  1.0 0.1025800132
H  H68  1  0.86070000  0.15630000  0.89690000  1.0 0.3376330555
H  H69  1  0.54770000  0.59530000  0.01050000  1.0 0.1216609695
H  H70  1  0.44170000  0.63890000  0.04430000  1.0 0.1216609695
H  H71  1  0.26590000  0.88070000  0.18250000  1.0 0.130973582
H  H72  1  0.37200000  0.83500000  0.15660000  1.0 0.130973582
H  H73  1  0.42380000  0.88260000  0.18860000  1.0 0.1216609695
H  H74  1  0.38420000  0.98000000  0.25620000  1.0 0.130973582
H  H75  1  0.63120000  0.79980000  0.13280000  1.0 0.1216609695
H  H76  1  0.67050000  0.70070000  0.07070000  1.0 0.1216609695
H  H77  1  0.81460000  0.49280000  0.96580000  1.0 0.1216609695
H  H78  1  0.96060000  0.34540000  0.87240000  1.0 0.1100848504
H  H79  1  0.88960000  0.31940000  0.78380000  1.0 0.130973582
H  H80  1  0.74870000  0.45650000  0.88570000  1.0 0.1100848504
H  H81  1  0.10500000  0.76380000  0.16380000  1.0 0.1385796811
H  H82  1  0.26480000  0.68760000  0.92580000  1.0 0.1216609695
H  H83  1  0.09660000  0.72940000  0.07200000  1.0 0.1385796811
H  H84  1  0.14480000  0.69380000  0.92920000  1.0 0.1216609695
H  H85  1  0.17590000  0.71630000  0.87630000  1.0 0.1216609695
H  H86  1  0.31030000  0.58150000  0.81310000  1.0 0.1100848504
H  H87  1  0.27830000  0.55950000  0.86510000  1.0 0.1216609695
H  H88  1  0.24710000  0.62150000  0.75490000  1.0 0.1025800132
H  H89  1  0.23380000  0.58140000  0.79760000  1.0 0.1100848504
H  H90  1  0.37940000  0.44840000  0.72180000  1.0 0.1025800132
H  H91  1  0.39680000  0.48620000  0.68700000  1.0 0.1025800132
H  H92  1  0.33770000  0.47430000  0.62830000  1.0 0.1025800132
H  H93  1  0.36220000  0.50540000  0.59020000  1.0 0.1025800132
H  H94  1  0.29580000  0.58820000  0.08340000  1.0 0.1470153153
H  H95  1  0.46580000  0.54800000  0.93340000  1.0 0.1385796811
H  H96  1  0.48040000  0.46560000  0.80920000  1.0 0.1100848504
H  H97  1  0.47030000  0.42110000  0.81410000  1.0 0.1100848504
H  H98  1  0.55540000  0.35020000  0.66666667  1.0 0.1100848504
H  H99  1  0.50200000  0.44100000  0.68340000  1.0 0.1100848504
H  H100  1  0.64600000  0.32420000  0.56640000  1.0 0.1025800132
H  H101  1  0.66700000  0.29900000  0.63060000  1.0 0.1025800132
H  H102  1  0.08610000  0.89690000  0.15630000  1.0 0.3376330555
H  H103  1  0.59530000  0.54770000  0.84650000  1.0 0.1216609695
H  H104  1  0.63890000  0.44170000  0.87510000  1.0 0.1216609695
H  H105  1  0.88070000  0.26590000  0.67090000  1.0 0.130973582
H  H106  1  0.83500000  0.37200000  0.63640000  1.0 0.130973582
H  H107  1  0.88260000  0.42380000  0.50500000  1.0 0.1216609695
H  H108  1  0.98000000  0.38420000  0.37960000  1.0 0.130973582
H  H109  1  0.79980000  0.63120000  0.43620000  1.0 0.1216609695
H  H110  1  0.70070000  0.67050000  0.55810000  1.0 0.1216609695
H  H111  1  0.49280000  0.81460000  0.72680000  1.0 0.1216609695
H  H112  1  0.34540000  0.96060000  0.82160000  1.0 0.1100848504
H  H113  1  0.31940000  0.88960000  0.00720000  1.0 0.130973582
H  H114  1  0.45650000  0.74870000  0.90910000  1.0 0.1100848504
H  H115  1  0.76380000  0.10500000  0.96740000  1.0 0.1385796811
H  H116  1  0.68760000  0.26480000  0.12180000  1.0 0.1216609695
H  H117  1  0.72940000  0.09660000  0.10200000  1.0 0.1385796811
H  H118  1  0.69380000  0.14480000  0.23220000  1.0 0.1216609695
H  H119  1  0.71630000  0.17590000  0.23150000  1.0 0.1216609695
H  H120  1  0.58150000  0.31030000  0.29510000  1.0 0.1100848504
H  H121  1  0.55950000  0.27830000  0.29710000  1.0 0.1216609695
H  H122  1  0.62150000  0.24710000  0.37650000  1.0 0.1025800132
H  H123  1  0.58140000  0.23380000  0.38720000  1.0 0.1100848504
H  H124  1  0.44840000  0.37940000  0.45040000  1.0 0.1025800132
H  H125  1  0.48620000  0.39680000  0.43000000  1.0 0.1025800132
H  H126  1  0.47430000  0.33770000  0.55970000  1.0 0.1025800132
H  H127  1  0.50540000  0.36220000  0.54220000  1.0 0.1025800132
H  H128  1  0.58820000  0.29580000  0.03260000  1.0 0.1470153153
H  H129  1  0.54800000  0.46580000  0.05280000  1.0 0.1385796811
H  H130  1  0.46560000  0.48040000  0.24480000  1.0 0.1100848504
H  H131  1  0.42110000  0.47030000  0.29450000  1.0 0.1100848504
H  H132  1  0.35020000  0.55540000  0.42780000  1.0 0.1100848504
H  H133  1  0.44100000  0.50200000  0.37360000  1.0 0.1100848504
H  H134  1  0.32420000  0.64600000  0.46340000  1.0 0.1025800132
H  H135  1  0.29900000  0.66700000  0.40340000  1.0 0.1025800132
H  H136  1  0.89690000  0.08610000  0.86070000  1.0 0.3376330555
H  H137  1  0.23950000  0.40350000  0.70230000  1.0 0.1216609695
H  H138  1  0.20570000  0.37490000  0.80830000  1.0 0.1216609695
H  H139  1  0.06750000  0.57910000  0.98410000  1.0 0.130973582
H  H140  1  0.09340000  0.61360000  0.87800000  1.0 0.130973582
H  H141  1  0.06140000  0.74500000  0.82620000  1.0 0.1216609695
H  H142  1  0.99380000  0.87040000  0.86580000  1.0 0.130973582
H  H143  1  0.11720000  0.81380000  0.61880000  1.0 0.1216609695
H  H144  1  0.17930000  0.69190000  0.57950000  1.0 0.1216609695
H  H145  1  0.28420000  0.52320000  0.43540000  1.0 0.1216609695
H  H146  1  0.37760000  0.42840000  0.28940000  1.0 0.1100848504
H  H147  1  0.46620000  0.24280000  0.36040000  1.0 0.130973582
H  H148  1  0.36430000  0.34090000  0.50130000  1.0 0.1100848504
H  H149  1  0.08620000  0.28260000  0.14500000  1.0 0.1385796811
H  H150  1  0.32420000  0.12820000  0.98520000  1.0 0.1216609695
H  H151  1  0.17800000  0.14800000  0.15340000  1.0 0.1385796811
H  H152  1  0.32080000  0.01780000  0.10520000  1.0 0.1216609695
H  H153  1  0.37370000  0.01850000  0.07410000  1.0 0.1216609695
H  H154  1  0.43690000  0.95490000  0.93970000  1.0 0.1100848504
H  H155  1  0.38490000  0.95290000  0.97170000  1.0 0.1216609695
H  H156  1  0.49510000  0.87350000  0.00290000  1.0 0.1025800132
H  H157  1  0.45240000  0.86280000  0.01620000  1.0 0.1100848504
H  H158  1  0.52820000  0.79960000  0.87060000  1.0 0.1025800132
H  H159  1  0.56300000  0.82000000  0.85320000  1.0 0.1025800132
H  H160  1  0.62170000  0.69030000  0.91230000  1.0 0.1025800132
H  H161  1  0.65980000  0.70780000  0.88780000  1.0 0.1025800132
H  H162  1  0.16660000  0.21740000  0.95420000  1.0 0.1470153153
H  H163  1  0.31660000  0.19720000  0.78420000  1.0 0.1385796811
H  H164  1  0.44080000  0.00520000  0.76960000  1.0 0.1100848504
H  H165  1  0.43590000  0.95550000  0.77970000  1.0 0.1100848504
H  H166  1  0.58340000  0.82220000  0.69460000  1.0 0.1100848504
H  H167  1  0.56660000  0.87640000  0.74800000  1.0 0.1100848504
H  H168  1  0.68360000  0.78660000  0.60400000  1.0 0.1025800132
H  H169  1  0.61940000  0.84660000  0.58300000  1.0 0.1025800132
H  H170  1  0.09370000  0.38930000  0.16390000  1.0 0.3376330555
H  H171  1  0.40350000  0.23950000  0.65470000  1.0 0.1216609695
H  H172  1  0.37490000  0.20570000  0.61110000  1.0 0.1216609695
H  H173  1  0.57910000  0.06750000  0.36930000  1.0 0.130973582
H  H174  1  0.61360000  0.09340000  0.41500000  1.0 0.130973582
H  H175  1  0.74500000  0.06140000  0.36740000  1.0 0.1216609695
H  H176  1  0.87040000  0.99380000  0.27000000  1.0 0.130973582
H  H177  1  0.81380000  0.11720000  0.45020000  1.0 0.1216609695
H  H178  1  0.69190000  0.17930000  0.54930000  1.0 0.1216609695
H  H179  1  0.52320000  0.28420000  0.75720000  1.0 0.1216609695
H  H180  1  0.42840000  0.37760000  0.90460000  1.0 0.1100848504
H  H181  1  0.24280000  0.46620000  0.93060000  1.0 0.130973582
H  H182  1  0.34090000  0.36430000  0.79350000  1.0 0.1100848504
H  H183  1  0.28260000  0.08620000  0.48620000  1.0 0.1385796811
H  H184  1  0.12820000  0.32420000  0.56240000  1.0 0.1216609695
H  H185  1  0.14800000  0.17800000  0.52060000  1.0 0.1385796811
H  H186  1  0.01780000  0.32080000  0.55620000  1.0 0.1216609695
H  H187  1  0.01850000  0.37370000  0.53370000  1.0 0.1216609695
H  H188  1  0.95490000  0.43690000  0.66850000  1.0 0.1100848504
H  H189  1  0.95290000  0.38490000  0.69050000  1.0 0.1216609695
H  H190  1  0.87350000  0.49510000  0.62850000  1.0 0.1025800132
H  H191  1  0.86280000  0.45240000  0.66860000  1.0 0.1100848504
H  H192  1  0.79960000  0.52820000  0.80160000  1.0 0.1025800132
H  H193  1  0.82000000  0.56300000  0.76380000  1.0 0.1025800132
H  H194  1  0.69030000  0.62170000  0.77570000  1.0 0.1025800132
H  H195  1  0.70780000  0.65980000  0.74460000  1.0 0.1025800132
H  H196  1  0.21740000  0.16660000  0.66180000  1.0 0.1470153153
H  H197  1  0.19720000  0.31660000  0.70200000  1.0 0.1385796811
H  H198  1  0.00520000  0.44080000  0.78440000  1.0 0.1100848504
H  H199  1  0.95550000  0.43590000  0.82890000  1.0 0.1100848504
H  H200  1  0.82220000  0.58340000  0.89980000  1.0 0.1100848504
H  H201  1  0.87640000  0.56660000  0.80900000  1.0 0.1100848504
H  H202  1  0.78660000  0.68360000  0.92580000  1.0 0.1025800132
H  H203  1  0.84660000  0.61940000  0.95100000  1.0 0.1025800132
H  H204  1  0.38930000  0.09370000  0.35310000  1.0 0.3376330555
H  H205  1  0.70230000  0.65470000  0.23950000  1.0 0.1216609695
H  H206  1  0.80830000  0.61110000  0.20570000  1.0 0.1216609695
H  H207  1  0.98410000  0.36930000  0.06750000  1.0 0.130973582
H  H208  1  0.87800000  0.41500000  0.09340000  1.0 0.130973582
H  H209  1  0.82620000  0.36740000  0.06140000  1.0 0.1216609695
H  H210  1  0.86580000  0.27000000  0.99380000  1.0 0.130973582
H  H211  1  0.61880000  0.45020000  0.11720000  1.0 0.1216609695
H  H212  1  0.57950000  0.54930000  0.17930000  1.0 0.1216609695
H  H213  1  0.43540000  0.75720000  0.28420000  1.0 0.1216609695
H  H214  1  0.28940000  0.90460000  0.37760000  1.0 0.1100848504
H  H215  1  0.36040000  0.93060000  0.46620000  1.0 0.130973582
H  H216  1  0.50130000  0.79350000  0.36430000  1.0 0.1100848504
H  H217  1  0.14500000  0.48620000  0.08620000  1.0 0.1385796811
H  H218  1  0.98520000  0.56240000  0.32420000  1.0 0.1216609695
H  H219  1  0.15340000  0.52060000  0.17800000  1.0 0.1385796811
H  H220  1  0.10520000  0.55620000  0.32080000  1.0 0.1216609695
H  H221  1  0.07410000  0.53370000  0.37370000  1.0 0.1216609695
H  H222  1  0.93970000  0.66850000  0.43690000  1.0 0.1100848504
H  H223  1  0.97170000  0.69050000  0.38490000  1.0 0.1216609695
H  H224  1  0.00290000  0.62850000  0.49510000  1.0 0.1025800132
H  H225  1  0.01620000  0.66860000  0.45240000  1.0 0.1100848504
H  H226  1  0.87060000  0.80160000  0.52820000  1.0 0.1025800132
H  H227  1  0.85320000  0.76380000  0.56300000  1.0 0.1025800132
H  H228  1  0.91230000  0.77570000  0.62170000  1.0 0.1025800132
H  H229  1  0.88780000  0.74460000  0.65980000  1.0 0.1025800132
H  H230  1  0.95420000  0.66180000  0.16660000  1.0 0.1470153153
H  H231  1  0.78420000  0.70200000  0.31660000  1.0 0.1385796811
H  H232  1  0.76960000  0.78440000  0.44080000  1.0 0.1100848504
H  H233  1  0.77970000  0.82890000  0.43590000  1.0 0.1100848504
H  H234  1  0.69460000  0.89980000  0.58340000  1.0 0.1100848504
H  H235  1  0.74800000  0.80900000  0.56660000  1.0 0.1100848504
H  H236  1  0.60400000  0.92580000  0.68360000  1.0 0.1025800132
H  H237  1  0.58300000  0.95100000  0.61940000  1.0 0.1025800132
H  H238  1  0.16390000  0.35310000  0.09370000  1.0 0.3376330555
H  H239  1  0.65470000  0.70230000  0.40350000  1.0 0.1216609695
H  H240  1  0.61110000  0.80830000  0.37490000  1.0 0.1216609695
H  H241  1  0.36930000  0.98410000  0.57910000  1.0 0.130973582
H  H242  1  0.41500000  0.87800000  0.61360000  1.0 0.130973582
H  H243  1  0.36740000  0.82620000  0.74500000  1.0 0.1216609695
H  H244  1  0.27000000  0.86580000  0.87040000  1.0 0.130973582
H  H245  1  0.45020000  0.61880000  0.81380000  1.0 0.1216609695
H  H246  1  0.54930000  0.57950000  0.69190000  1.0 0.1216609695
H  H247  1  0.75720000  0.43540000  0.52320000  1.0 0.1216609695
H  H248  1  0.90460000  0.28940000  0.42840000  1.0 0.1100848504
H  H249  1  0.93060000  0.36040000  0.24280000  1.0 0.130973582
H  H250  1  0.79350000  0.50130000  0.34090000  1.0 0.1100848504
H  H251  1  0.48620000  0.14500000  0.28260000  1.0 0.1385796811
H  H252  1  0.56240000  0.98520000  0.12820000  1.0 0.1216609695
H  H253  1  0.52060000  0.15340000  0.14800000  1.0 0.1385796811
H  H254  1  0.55620000  0.10520000  0.01780000  1.0 0.1216609695
H  H255  1  0.53370000  0.07410000  0.01850000  1.0 0.1216609695
H  H256  1  0.66850000  0.93970000  0.95490000  1.0 0.1100848504
H  H257  1  0.69050000  0.97170000  0.95290000  1.0 0.1216609695
H  H258  1  0.62850000  0.00290000  0.87350000  1.0 0.1025800132
H  H259  1  0.66860000  0.01620000  0.86280000  1.0 0.1100848504
H  H260  1  0.80160000  0.87060000  0.79960000  1.0 0.1025800132
H  H261  1  0.76380000  0.85320000  0.82000000  1.0 0.1025800132
H  H262  1  0.77570000  0.91230000  0.69030000  1.0 0.1025800132
H  H263  1  0.74460000  0.88780000  0.70780000  1.0 0.1025800132
H  H264  1  0.66180000  0.95420000  0.21740000  1.0 0.1470153153
H  H265  1  0.70200000  0.78420000  0.19720000  1.0 0.1385796811
H  H266  1  0.78440000  0.76960000  0.00520000  1.0 0.1100848504
H  H267  1  0.82890000  0.77970000  0.95550000  1.0 0.1100848504
H  H268  1  0.89980000  0.69460000  0.82220000  1.0 0.1100848504
H  H269  1  0.80900000  0.74800000  0.87640000  1.0 0.1100848504
H  H270  1  0.92580000  0.60400000  0.78660000  1.0 0.1025800132
H  H271  1  0.95100000  0.58300000  0.84660000  1.0 0.1025800132
H  H272  1  0.35310000  0.16390000  0.38930000  1.0 0.3376330555
C  C1  1  0.06143000  0.71703000  0.53917000  1.0 0.3654541567
C  C2  1  0.99346000  0.74986000  0.67774000  1.0 0.3548965872
C  C3  1  0.08362000  0.62502000  0.57518000  1.0 0.3639972627
C  C4  1  0.08096000  0.73796000  0.47064000  1.0 0.0291990608
C  C5  1  0.04725000  0.80925000  0.49035000  1.0 -0.121870502
C  C6  1  0.06697000  0.82657000  0.42663000  1.0 -0.112055484
C  C7  1  0.11837000  0.77597000  0.34163000  1.0 -0.0216987067
C  C8  1  0.14948000  0.70568000  0.32272000  1.0 -0.1012416959
C  C9  1  0.13240000  0.68600000  0.38660000  1.0 -0.112055484
C  C10  1  0.13848000  0.79588000  0.27332000  1.0 0.5769132197
C  C11  1  0.12564000  0.54464000  0.55056000  1.0 0.0078954365
C  C12  1  0.17916000  0.49016000  0.46624000  1.0 -0.112055484
C  C13  1  0.21874000  0.41554000  0.44266000  1.0 -0.0909962889
C  C14  1  0.20522000  0.39162000  0.50198000  1.0 -0.0216987067
C  C15  1  0.14624000  0.44884000  0.58896000  1.0 -0.112055484
C  C16  1  0.10883000  0.52163000  0.61217000  1.0 -0.1259816253
C  C17  1  0.24821000  0.30961000  0.47459000  1.0 0.54968552
C  C18  1  0.93508000  0.80808000  0.76752000  1.0 0.0078954365
C  C19  1  0.93023000  0.78283000  0.83017000  1.0 -0.112055484
C  C20  1  0.87230000  0.83990000  0.91850000  1.0 -0.147747216
C  C21  1  0.81290000  0.92850000  0.93910000  1.0 -0.0130830725
C  C22  1  0.82060000  0.95080000  0.87540000  1.0 -0.0909962889
C  C23  1  0.88070000  0.89250000  0.79130000  1.0 -0.121870502
C  C24  1  0.75580000  0.98260000  0.03320000  1.0 0.5111561015
C  C25  1  0.10432000  0.01536000  0.13616000  1.0 0.0045104491
C  C26  1  0.97357000  0.10013000  0.22395000  1.0 0.0809418529
C  C27  1  0.05389000  0.08929000  0.13157000  1.0 -0.0758791372
C  C28  1  0.90251000  0.22881000  0.18959000  1.0 -0.1411316573
C  C29  1  0.83899000  0.29907000  0.26533000  1.0 -0.1774354383
C  C30  1  0.77540000  0.37650000  0.26930000  1.0 -0.1592899442
C  C31  1  0.70220000  0.44644000  0.36056000  1.0 -0.170897457
C  C32  1  0.61285000  0.54465000  0.37655000  1.0 -0.1774354383
C  C33  1  0.04142000  0.05032000  0.34672000  1.0 -0.0909962889
C  C34  1  0.95739000  0.06183000  0.44033000  1.0 -0.0264207331
C  C35  1  0.98543000  0.11259000  0.42785000  1.0 0.0858019188
C  C36  1  0.87456000  0.17470000  0.55542000  1.0 0.1659659267
C  C37  1  0.79467000  0.28121000  0.57617000  1.0 -0.1592899442
C  C38  1  0.78303000  0.29389000  0.51147000  1.0 -0.2180644899
C  C39  1  0.68490000  0.38030000  0.54668000  1.0 -0.147747216
C  C40  1  0.62348000  0.40406000  0.62478000  1.0 -0.1592899442
C  C41  1  0.90160000  0.20276000  0.52482000  1.0 0.0392526699
C  C42  1  0.71703000  0.06143000  0.68237000  1.0 0.3654541567
C  C43  1  0.74986000  0.99346000  0.57894000  1.0 0.3548965872
C  C44  1  0.62502000  0.08362000  0.71618000  1.0 0.3639972627
C  C45  1  0.73796000  0.08096000  0.71044000  1.0 0.0291990608
C  C46  1  0.80925000  0.04725000  0.65315000  1.0 -0.121870502
C  C47  1  0.82657000  0.06697000  0.67983000  1.0 -0.112055484
C  C48  1  0.77597000  0.11837000  0.76403000  1.0 -0.0216987067
C  C49  1  0.70568000  0.14948000  0.82212000  1.0 -0.1012416959
C  C50  1  0.68600000  0.13240000  0.79500000  1.0 -0.112055484
C  C51  1  0.79588000  0.13848000  0.79232000  1.0 0.5769132197
C  C52  1  0.54464000  0.12564000  0.77916000  1.0 0.0078954365
C  C53  1  0.49016000  0.17916000  0.86444000  1.0 -0.112055484
C  C54  1  0.41554000  0.21874000  0.92306000  1.0 -0.0909962889
C  C55  1  0.39162000  0.20522000  0.90118000  1.0 -0.0216987067
C  C56  1  0.44884000  0.14624000  0.81596000  1.0 -0.112055484
C  C57  1  0.52163000  0.10883000  0.75737000  1.0 -0.1259816253
C  C58  1  0.30961000  0.24821000  0.96759000  1.0 0.54968552
C  C59  1  0.80808000  0.93508000  0.48932000  1.0 0.0078954365
C  C60  1  0.78283000  0.93023000  0.45677000  1.0 -0.112055484
C  C61  1  0.83990000  0.87230000  0.36930000  1.0 -0.147747216
C  C62  1  0.92850000  0.81290000  0.31950000  1.0 -0.0130830725
C  C63  1  0.95080000  0.82060000  0.35320000  1.0 -0.0909962889
C  C64  1  0.89250000  0.88070000  0.43550000  1.0 -0.121870502
C  C65  1  0.98260000  0.75580000  0.22840000  1.0 0.5111561015
C  C66  1  0.01536000  0.10432000  0.74416000  1.0 0.0045104491
C  C67  1  0.10013000  0.97357000  0.70235000  1.0 0.0809418529
C  C68  1  0.08929000  0.05389000  0.72525000  1.0 -0.0758791372
C  C69  1  0.22881000  0.90251000  0.67909000  1.0 -0.1411316573
C  C70  1  0.29907000  0.83899000  0.59661000  1.0 -0.1774354383
C  C71  1  0.37650000  0.77540000  0.57880000  1.0 -0.1592899442
C  C72  1  0.44644000  0.70220000  0.49080000  1.0 -0.170897457
C  C73  1  0.54465000  0.61285000  0.46595000  1.0 -0.1774354383
C  C74  1  0.05032000  0.04142000  0.56154000  1.0 -0.0909962889
C  C75  1  0.06183000  0.95739000  0.54045000  1.0 -0.0264207331
C  C76  1  0.11259000  0.98543000  0.47413000  1.0 0.0858019188
C  C77  1  0.17470000  0.87456000  0.39532000  1.0 0.1659659267
C  C78  1  0.28121000  0.79467000  0.34795000  1.0 -0.1592899442
C  C79  1  0.29389000  0.78303000  0.41161000  1.0 -0.2180644899
C  C80  1  0.38030000  0.68490000  0.38812000  1.0 -0.147747216
C  C81  1  0.40406000  0.62348000  0.34768000  1.0 -0.1592899442
C  C82  1  0.20276000  0.90160000  0.37082000  1.0 0.0392526699
C  C83  1  0.53917000  0.68237000  0.06143000  1.0 0.3654541567
C  C84  1  0.67774000  0.57894000  0.99346000  1.0 0.3548965872
C  C85  1  0.57518000  0.71618000  0.08362000  1.0 0.3639972627
C  C86  1  0.47064000  0.71044000  0.08096000  1.0 0.0291990608
C  C87  1  0.49035000  0.65315000  0.04725000  1.0 -0.121870502
C  C88  1  0.42663000  0.67983000  0.06697000  1.0 -0.112055484
C  C89  1  0.34163000  0.76403000  0.11837000  1.0 -0.0216987067
C  C90  1  0.32272000  0.82212000  0.14948000  1.0 -0.1012416959
C  C91  1  0.38660000  0.79500000  0.13240000  1.0 -0.112055484
C  C92  1  0.27332000  0.79232000  0.13848000  1.0 0.5769132197
C  C93  1  0.55056000  0.77916000  0.12564000  1.0 0.0078954365
C  C94  1  0.46624000  0.86444000  0.17916000  1.0 -0.112055484
C  C95  1  0.44266000  0.92306000  0.21874000  1.0 -0.0909962889
C  C96  1  0.50198000  0.90118000  0.20522000  1.0 -0.0216987067
C  C97  1  0.58896000  0.81596000  0.14624000  1.0 -0.112055484
C  C98  1  0.61217000  0.75737000  0.10883000  1.0 -0.1259816253
C  C99  1  0.47459000  0.96759000  0.24821000  1.0 0.54968552
C  C100  1  0.76752000  0.48932000  0.93508000  1.0 0.0078954365
C  C101  1  0.83017000  0.45677000  0.93023000  1.0 -0.112055484
C  C102  1  0.91850000  0.36930000  0.87230000  1.0 -0.147747216
C  C103  1  0.93910000  0.31950000  0.81290000  1.0 -0.0130830725
C  C104  1  0.87540000  0.35320000  0.82060000  1.0 -0.0909962889
C  C105  1  0.79130000  0.43550000  0.88070000  1.0 -0.121870502
C  C106  1  0.03320000  0.22840000  0.75580000  1.0 0.5111561015
C  C107  1  0.13616000  0.74416000  0.10432000  1.0 0.0045104491
C  C108  1  0.22395000  0.70235000  0.97357000  1.0 0.0809418529
C  C109  1  0.13157000  0.72525000  0.05389000  1.0 -0.0758791372
C  C110  1  0.18959000  0.67909000  0.90251000  1.0 -0.1411316573
C  C111  1  0.26533000  0.59661000  0.83899000  1.0 -0.1774354383
C  C112  1  0.26930000  0.57880000  0.77540000  1.0 -0.1592899442
C  C113  1  0.36056000  0.49080000  0.70220000  1.0 -0.170897457
C  C114  1  0.37655000  0.46595000  0.61285000  1.0 -0.1774354383
C  C115  1  0.34672000  0.56154000  0.04142000  1.0 -0.0909962889
C  C116  1  0.44033000  0.54045000  0.95739000  1.0 -0.0264207331
C  C117  1  0.42785000  0.47413000  0.98543000  1.0 0.0858019188
C  C118  1  0.55542000  0.39532000  0.87456000  1.0 0.1659659267
C  C119  1  0.57617000  0.34795000  0.79467000  1.0 -0.1592899442
C  C120  1  0.51147000  0.41161000  0.78303000  1.0 -0.2180644899
C  C121  1  0.54668000  0.38812000  0.68490000  1.0 -0.147747216
C  C122  1  0.62478000  0.34768000  0.62348000  1.0 -0.1592899442
C  C123  1  0.52482000  0.37082000  0.90160000  1.0 0.0392526699
C  C124  1  0.68237000  0.53917000  0.71703000  1.0 0.3654541567
C  C125  1  0.57894000  0.67774000  0.74986000  1.0 0.3548965872
C  C126  1  0.71618000  0.57518000  0.62502000  1.0 0.3639972627
C  C127  1  0.71044000  0.47064000  0.73796000  1.0 0.0291990608
C  C128  1  0.65315000  0.49035000  0.80925000  1.0 -0.121870502
C  C129  1  0.67983000  0.42663000  0.82657000  1.0 -0.112055484
C  C130  1  0.76403000  0.34163000  0.77597000  1.0 -0.0216987067
C  C131  1  0.82212000  0.32272000  0.70568000  1.0 -0.1012416959
C  C132  1  0.79500000  0.38660000  0.68600000  1.0 -0.112055484
C  C133  1  0.79232000  0.27332000  0.79588000  1.0 0.5769132197
C  C134  1  0.77916000  0.55056000  0.54464000  1.0 0.0078954365
C  C135  1  0.86444000  0.46624000  0.49016000  1.0 -0.112055484
C  C136  1  0.92306000  0.44266000  0.41554000  1.0 -0.0909962889
C  C137  1  0.90118000  0.50198000  0.39162000  1.0 -0.0216987067
C  C138  1  0.81596000  0.58896000  0.44884000  1.0 -0.112055484
C  C139  1  0.75737000  0.61217000  0.52163000  1.0 -0.1259816253
C  C140  1  0.96759000  0.47459000  0.30961000  1.0 0.54968552
C  C141  1  0.48932000  0.76752000  0.80808000  1.0 0.0078954365
C  C142  1  0.45677000  0.83017000  0.78283000  1.0 -0.112055484
C  C143  1  0.36930000  0.91850000  0.83990000  1.0 -0.147747216
C  C144  1  0.31950000  0.93910000  0.92850000  1.0 -0.0130830725
C  C145  1  0.35320000  0.87540000  0.95080000  1.0 -0.0909962889
C  C146  1  0.43550000  0.79130000  0.89250000  1.0 -0.121870502
C  C147  1  0.22840000  0.03320000  0.98260000  1.0 0.5111561015
C  C148  1  0.74416000  0.13616000  0.01536000  1.0 0.0045104491
C  C149  1  0.70235000  0.22395000  0.10013000  1.0 0.0809418529
C  C150  1  0.72525000  0.13157000  0.08929000  1.0 -0.0758791372
C  C151  1  0.67909000  0.18959000  0.22881000  1.0 -0.1411316573
C  C152  1  0.59661000  0.26533000  0.29907000  1.0 -0.1774354383
C  C153  1  0.57880000  0.26930000  0.37650000  1.0 -0.1592899442
C  C154  1  0.49080000  0.36056000  0.44644000  1.0 -0.170897457
C  C155  1  0.46595000  0.37655000  0.54465000  1.0 -0.1774354383
C  C156  1  0.56154000  0.34672000  0.05032000  1.0 -0.0909962889
C  C157  1  0.54045000  0.44033000  0.06183000  1.0 -0.0264207331
C  C158  1  0.47413000  0.42785000  0.11259000  1.0 0.0858019188
C  C159  1  0.39532000  0.55542000  0.17470000  1.0 0.1659659267
C  C160  1  0.34795000  0.57617000  0.28121000  1.0 -0.1592899442
C  C161  1  0.41161000  0.51147000  0.29389000  1.0 -0.2180644899
C  C162  1  0.38812000  0.54668000  0.38030000  1.0 -0.147747216
C  C163  1  0.34768000  0.62478000  0.40406000  1.0 -0.1592899442
C  C164  1  0.37082000  0.52482000  0.20276000  1.0 0.0392526699
C  C165  1  0.18857000  0.53297000  0.71083000  1.0 0.3654541567
C  C166  1  0.25654000  0.50014000  0.57226000  1.0 0.3548965872
C  C167  1  0.16638000  0.62498000  0.67482000  1.0 0.3639972627
C  C168  1  0.16904000  0.51204000  0.77936000  1.0 0.0291990608
C  C169  1  0.20275000  0.44075000  0.75965000  1.0 -0.121870502
C  C170  1  0.18303000  0.42343000  0.82337000  1.0 -0.112055484
C  C171  1  0.13163000  0.47403000  0.90837000  1.0 -0.0216987067
C  C172  1  0.10052000  0.54432000  0.92728000  1.0 -0.1012416959
C  C173  1  0.11760000  0.56400000  0.86340000  1.0 -0.112055484
C  C174  1  0.11152000  0.45412000  0.97668000  1.0 0.5769132197
C  C175  1  0.12436000  0.70536000  0.69944000  1.0 0.0078954365
C  C176  1  0.07084000  0.75984000  0.78376000  1.0 -0.112055484
C  C177  1  0.03126000  0.83446000  0.80734000  1.0 -0.0909962889
C  C178  1  0.04478000  0.85838000  0.74802000  1.0 -0.0216987067
C  C179  1  0.10376000  0.80116000  0.66104000  1.0 -0.112055484
C  C180  1  0.14117000  0.72837000  0.63783000  1.0 -0.1259816253
C  C181  1  0.00179000  0.94039000  0.77541000  1.0 0.54968552
C  C182  1  0.31492000  0.44192000  0.48248000  1.0 0.0078954365
C  C183  1  0.31977000  0.46717000  0.41983000  1.0 -0.112055484
C  C184  1  0.37770000  0.41010000  0.33150000  1.0 -0.147747216
C  C185  1  0.43710000  0.32150000  0.31090000  1.0 -0.0130830725
C  C186  1  0.42940000  0.29920000  0.37460000  1.0 -0.0909962889
C  C187  1  0.36930000  0.35750000  0.45870000  1.0 -0.121870502
C  C188  1  0.49420000  0.26740000  0.21680000  1.0 0.5111561015
C  C189  1  0.14568000  0.23464000  0.11384000  1.0 0.0045104491
C  C190  1  0.27643000  0.14987000  0.02605000  1.0 0.0809418529
C  C191  1  0.19611000  0.16071000  0.11843000  1.0 -0.0758791372
C  C192  1  0.34749000  0.02119000  0.06041000  1.0 -0.1411316573
C  C193  1  0.41101000  0.95093000  0.98467000  1.0 -0.1774354383
C  C194  1  0.47460000  0.87350000  0.98070000  1.0 -0.1592899442
C  C195  1  0.54780000  0.80356000  0.88944000  1.0 -0.170897457
C  C196  1  0.63715000  0.70535000  0.87345000  1.0 -0.1774354383
C  C197  1  0.20858000  0.19968000  0.90328000  1.0 -0.0909962889
C  C198  1  0.29261000  0.18817000  0.80967000  1.0 -0.0264207331
C  C199  1  0.26457000  0.13741000  0.82215000  1.0 0.0858019188
C  C200  1  0.37544000  0.07530000  0.69458000  1.0 0.1659659267
C  C201  1  0.45533000  0.96879000  0.67383000  1.0 -0.1592899442
C  C202  1  0.46697000  0.95611000  0.73853000  1.0 -0.2180644899
C  C203  1  0.56510000  0.86970000  0.70332000  1.0 -0.147747216
C  C204  1  0.62652000  0.84594000  0.62522000  1.0 -0.1592899442
C  C205  1  0.34840000  0.04724000  0.72518000  1.0 0.0392526699
C  C206  1  0.53297000  0.18857000  0.56763000  1.0 0.3654541567
C  C207  1  0.50014000  0.25654000  0.67106000  1.0 0.3548965872
C  C208  1  0.62498000  0.16638000  0.53382000  1.0 0.3639972627
C  C209  1  0.51204000  0.16904000  0.53956000  1.0 0.0291990608
C  C210  1  0.44075000  0.20275000  0.59685000  1.0 -0.121870502
C  C211  1  0.42343000  0.18303000  0.57017000  1.0 -0.112055484
C  C212  1  0.47403000  0.13163000  0.48597000  1.0 -0.0216987067
C  C213  1  0.54432000  0.10052000  0.42788000  1.0 -0.1012416959
C  C214  1  0.56400000  0.11760000  0.45500000  1.0 -0.112055484
C  C215  1  0.45412000  0.11152000  0.45768000  1.0 0.5769132197
C  C216  1  0.70536000  0.12436000  0.47084000  1.0 0.0078954365
C  C217  1  0.75984000  0.07084000  0.38556000  1.0 -0.112055484
C  C218  1  0.83446000  0.03126000  0.32694000  1.0 -0.0909962889
C  C219  1  0.85838000  0.04478000  0.34882000  1.0 -0.0216987067
C  C220  1  0.80116000  0.10376000  0.43404000  1.0 -0.112055484
C  C221  1  0.72837000  0.14117000  0.49263000  1.0 -0.1259816253
C  C222  1  0.94039000  0.00179000  0.28241000  1.0 0.54968552
C  C223  1  0.44192000  0.31492000  0.76068000  1.0 0.0078954365
C  C224  1  0.46717000  0.31977000  0.79323000  1.0 -0.112055484
C  C225  1  0.41010000  0.37770000  0.88070000  1.0 -0.147747216
C  C226  1  0.32150000  0.43710000  0.93050000  1.0 -0.0130830725
C  C227  1  0.29920000  0.42940000  0.89680000  1.0 -0.0909962889
C  C228  1  0.35750000  0.36930000  0.81450000  1.0 -0.121870502
C  C229  1  0.26740000  0.49420000  0.02160000  1.0 0.5111561015
C  C230  1  0.23464000  0.14568000  0.50584000  1.0 0.0045104491
C  C231  1  0.14987000  0.27643000  0.54765000  1.0 0.0809418529
C  C232  1  0.16071000  0.19611000  0.52475000  1.0 -0.0758791372
C  C233  1  0.02119000  0.34749000  0.57091000  1.0 -0.1411316573
C  C234  1  0.95093000  0.41101000  0.65339000  1.0 -0.1774354383
C  C235  1  0.87350000  0.47460000  0.67120000  1.0 -0.1592899442
C  C236  1  0.80356000  0.54780000  0.75920000  1.0 -0.170897457
C  C237  1  0.70535000  0.63715000  0.78405000  1.0 -0.1774354383
C  C238  1  0.19968000  0.20858000  0.68846000  1.0 -0.0909962889
C  C239  1  0.18817000  0.29261000  0.70955000  1.0 -0.0264207331
C  C240  1  0.13741000  0.26457000  0.77587000  1.0 0.0858019188
C  C241  1  0.07530000  0.37544000  0.85468000  1.0 0.1659659267
C  C242  1  0.96879000  0.45533000  0.90205000  1.0 -0.1592899442
C  C243  1  0.95611000  0.46697000  0.83839000  1.0 -0.2180644899
C  C244  1  0.86970000  0.56510000  0.86188000  1.0 -0.147747216
C  C245  1  0.84594000  0.62652000  0.90232000  1.0 -0.1592899442
C  C246  1  0.04724000  0.34840000  0.87918000  1.0 0.0392526699
C  C247  1  0.71083000  0.56763000  0.18857000  1.0 0.3654541567
C  C248  1  0.57226000  0.67106000  0.25654000  1.0 0.3548965872
C  C249  1  0.67482000  0.53382000  0.16638000  1.0 0.3639972627
C  C250  1  0.77936000  0.53956000  0.16904000  1.0 0.0291990608
C  C251  1  0.75965000  0.59685000  0.20275000  1.0 -0.121870502
C  C252  1  0.82337000  0.57017000  0.18303000  1.0 -0.112055484
C  C253  1  0.90837000  0.48597000  0.13163000  1.0 -0.0216987067
C  C254  1  0.92728000  0.42788000  0.10052000  1.0 -0.1012416959
C  C255  1  0.86340000  0.45500000  0.11760000  1.0 -0.112055484
C  C256  1  0.97668000  0.45768000  0.11152000  1.0 0.5769132197
C  C257  1  0.69944000  0.47084000  0.12436000  1.0 0.0078954365
C  C258  1  0.78376000  0.38556000  0.07084000  1.0 -0.112055484
C  C259  1  0.80734000  0.32694000  0.03126000  1.0 -0.0909962889
C  C260  1  0.74802000  0.34882000  0.04478000  1.0 -0.0216987067
C  C261  1  0.66104000  0.43404000  0.10376000  1.0 -0.112055484
C  C262  1  0.63783000  0.49263000  0.14117000  1.0 -0.1259816253
C  C263  1  0.77541000  0.28241000  0.00179000  1.0 0.54968552
C  C264  1  0.48248000  0.76068000  0.31492000  1.0 0.0078954365
C  C265  1  0.41983000  0.79323000  0.31977000  1.0 -0.112055484
C  C266  1  0.33150000  0.88070000  0.37770000  1.0 -0.147747216
C  C267  1  0.31090000  0.93050000  0.43710000  1.0 -0.0130830725
C  C268  1  0.37460000  0.89680000  0.42940000  1.0 -0.0909962889
C  C269  1  0.45870000  0.81450000  0.36930000  1.0 -0.121870502
C  C270  1  0.21680000  0.02160000  0.49420000  1.0 0.5111561015
C  C271  1  0.11384000  0.50584000  0.14568000  1.0 0.0045104491
C  C272  1  0.02605000  0.54765000  0.27643000  1.0 0.0809418529
C  C273  1  0.11843000  0.52475000  0.19611000  1.0 -0.0758791372
C  C274  1  0.06041000  0.57091000  0.34749000  1.0 -0.1411316573
C  C275  1  0.98467000  0.65339000  0.41101000  1.0 -0.1774354383
C  C276  1  0.98070000  0.67120000  0.47460000  1.0 -0.1592899442
C  C277  1  0.88944000  0.75920000  0.54780000  1.0 -0.170897457
C  C278  1  0.87345000  0.78405000  0.63715000  1.0 -0.1774354383
C  C279  1  0.90328000  0.68846000  0.20858000  1.0 -0.0909962889
C  C280  1  0.80967000  0.70955000  0.29261000  1.0 -0.0264207331
C  C281  1  0.82215000  0.77587000  0.26457000  1.0 0.0858019188
C  C282  1  0.69458000  0.85468000  0.37544000  1.0 0.1659659267
C  C283  1  0.67383000  0.90205000  0.45533000  1.0 -0.1592899442
C  C284  1  0.73853000  0.83839000  0.46697000  1.0 -0.2180644899
C  C285  1  0.70332000  0.86188000  0.56510000  1.0 -0.147747216
C  C286  1  0.62522000  0.90232000  0.62652000  1.0 -0.1592899442
C  C287  1  0.72518000  0.87918000  0.34840000  1.0 0.0392526699
C  C288  1  0.56763000  0.71083000  0.53297000  1.0 0.3654541567
C  C289  1  0.67106000  0.57226000  0.50014000  1.0 0.3548965872
C  C290  1  0.53382000  0.67482000  0.62498000  1.0 0.3639972627
C  C291  1  0.53956000  0.77936000  0.51204000  1.0 0.0291990608
C  C292  1  0.59685000  0.75965000  0.44075000  1.0 -0.121870502
C  C293  1  0.57017000  0.82337000  0.42343000  1.0 -0.112055484
C  C294  1  0.48597000  0.90837000  0.47403000  1.0 -0.0216987067
C  C295  1  0.42788000  0.92728000  0.54432000  1.0 -0.1012416959
C  C296  1  0.45500000  0.86340000  0.56400000  1.0 -0.112055484
C  C297  1  0.45768000  0.97668000  0.45412000  1.0 0.5769132197
C  C298  1  0.47084000  0.69944000  0.70536000  1.0 0.0078954365
C  C299  1  0.38556000  0.78376000  0.75984000  1.0 -0.112055484
C  C300  1  0.32694000  0.80734000  0.83446000  1.0 -0.0909962889
C  C301  1  0.34882000  0.74802000  0.85838000  1.0 -0.0216987067
C  C302  1  0.43404000  0.66104000  0.80116000  1.0 -0.112055484
C  C303  1  0.49263000  0.63783000  0.72837000  1.0 -0.1259816253
C  C304  1  0.28241000  0.77541000  0.94039000  1.0 0.54968552
C  C305  1  0.76068000  0.48248000  0.44192000  1.0 0.0078954365
C  C306  1  0.79323000  0.41983000  0.46717000  1.0 -0.112055484
C  C307  1  0.88070000  0.33150000  0.41010000  1.0 -0.147747216
C  C308  1  0.93050000  0.31090000  0.32150000  1.0 -0.0130830725
C  C309  1  0.89680000  0.37460000  0.29920000  1.0 -0.0909962889
C  C310  1  0.81450000  0.45870000  0.35750000  1.0 -0.121870502
C  C311  1  0.02160000  0.21680000  0.26740000  1.0 0.5111561015
C  C312  1  0.50584000  0.11384000  0.23464000  1.0 0.0045104491
C  C313  1  0.54765000  0.02605000  0.14987000  1.0 0.0809418529
C  C314  1  0.52475000  0.11843000  0.16071000  1.0 -0.0758791372
C  C315  1  0.57091000  0.06041000  0.02119000  1.0 -0.1411316573
C  C316  1  0.65339000  0.98467000  0.95093000  1.0 -0.1774354383
C  C317  1  0.67120000  0.98070000  0.87350000  1.0 -0.1592899442
C  C318  1  0.75920000  0.88944000  0.80356000  1.0 -0.170897457
C  C319  1  0.78405000  0.87345000  0.70535000  1.0 -0.1774354383
C  C320  1  0.68846000  0.90328000  0.19968000  1.0 -0.0909962889
C  C321  1  0.70955000  0.80967000  0.18817000  1.0 -0.0264207331
C  C322  1  0.77587000  0.82215000  0.13741000  1.0 0.0858019188
C  C323  1  0.85468000  0.69458000  0.07530000  1.0 0.1659659267
C  C324  1  0.90205000  0.67383000  0.96879000  1.0 -0.1592899442
C  C325  1  0.83839000  0.73853000  0.95611000  1.0 -0.2180644899
C  C326  1  0.86188000  0.70332000  0.86970000  1.0 -0.147747216
C  C327  1  0.90232000  0.62522000  0.84594000  1.0 -0.1592899442
C  C328  1  0.87918000  0.72518000  0.04724000  1.0 0.0392526699
N  N1  1  0.93265000  0.12581000  0.48279000  1.0 0.0392526699
N  N2  1  0.03165000  0.67497000  0.65965000  1.0 -0.4184478253
N  N3  1  0.10259000  0.64109000  0.51277000  1.0 -0.4079017222
N  N4  1  0.00829000  0.77163000  0.61827000  1.0 -0.3840631425
N  N5  1  0.02409000  0.01895000  0.35445000  1.0 -0.2705846905
N  N6  1  0.05467000  0.02207000  0.19327000  1.0 -0.2705846905
N  N7  1  0.97310000  0.14166000  0.18584000  1.0 0.0488601037
N  N8  1  0.12581000  0.93265000  0.45875000  1.0 0.0392526699
N  N9  1  0.67497000  0.03165000  0.63373000  1.0 -0.4184478253
N  N10  1  0.64109000  0.10259000  0.74355000  1.0 -0.4079017222
N  N11  1  0.77163000  0.00829000  0.60181000  1.0 -0.3840631425
N  N12  1  0.01895000  0.02409000  0.60251000  1.0 -0.2705846905
N  N13  1  0.02207000  0.05467000  0.72999000  1.0 -0.2705846905
N  N14  1  0.14166000  0.97310000  0.69940000  1.0 0.0488601037
N  N15  1  0.48279000  0.45875000  0.93265000  1.0 0.0392526699
N  N16  1  0.65965000  0.63373000  0.03165000  1.0 -0.4184478253
N  N17  1  0.51277000  0.74355000  0.10259000  1.0 -0.4079017222
N  N18  1  0.61827000  0.60181000  0.00829000  1.0 -0.3840631425
N  N19  1  0.35445000  0.60251000  0.02409000  1.0 -0.2705846905
N  N20  1  0.19327000  0.72999000  0.05467000  1.0 -0.2705846905
N  N21  1  0.18584000  0.69940000  0.97310000  1.0 0.0488601037
N  N22  1  0.45875000  0.48279000  0.12581000  1.0 0.0392526699
N  N23  1  0.63373000  0.65965000  0.67497000  1.0 -0.4184478253
N  N24  1  0.74355000  0.51277000  0.64109000  1.0 -0.4079017222
N  N25  1  0.60181000  0.61827000  0.77163000  1.0 -0.3840631425
N  N26  1  0.60251000  0.35445000  0.01895000  1.0 -0.2705846905
N  N27  1  0.72999000  0.19327000  0.02207000  1.0 -0.2705846905
N  N28  1  0.69940000  0.18584000  0.14166000  1.0 0.0488601037
N  N29  1  0.31735000  0.12419000  0.76721000  1.0 0.0392526699
N  N30  1  0.21835000  0.57503000  0.59035000  1.0 -0.4184478253
N  N31  1  0.14741000  0.60891000  0.73723000  1.0 -0.4079017222
N  N32  1  0.24171000  0.47837000  0.63173000  1.0 -0.3840631425
N  N33  1  0.22591000  0.23105000  0.89555000  1.0 -0.2705846905
N  N34  1  0.19533000  0.22793000  0.05673000  1.0 -0.2705846905
N  N35  1  0.27690000  0.10834000  0.06416000  1.0 0.0488601037
N  N36  1  0.12419000  0.31735000  0.79125000  1.0 0.0392526699
N  N37  1  0.57503000  0.21835000  0.61627000  1.0 -0.4184478253
N  N38  1  0.60891000  0.14741000  0.50645000  1.0 -0.4079017222
N  N39  1  0.47837000  0.24171000  0.64819000  1.0 -0.3840631425
N  N40  1  0.23105000  0.22591000  0.64749000  1.0 -0.2705846905
N  N41  1  0.22793000  0.19533000  0.52001000  1.0 -0.2705846905
N  N42  1  0.10834000  0.27690000  0.55060000  1.0 0.0488601037
N  N43  1  0.76721000  0.79125000  0.31735000  1.0 0.0392526699
N  N44  1  0.59035000  0.61627000  0.21835000  1.0 -0.4184478253
N  N45  1  0.73723000  0.50645000  0.14741000  1.0 -0.4079017222
N  N46  1  0.63173000  0.64819000  0.24171000  1.0 -0.3840631425
N  N47  1  0.89555000  0.64749000  0.22591000  1.0 -0.2705846905
N  N48  1  0.05673000  0.52001000  0.19533000  1.0 -0.2705846905
N  N49  1  0.06416000  0.55060000  0.27690000  1.0 0.0488601037
N  N50  1  0.79125000  0.76721000  0.12419000  1.0 0.0392526699
N  N51  1  0.61627000  0.59035000  0.57503000  1.0 -0.4184478253
N  N52  1  0.50645000  0.73723000  0.60891000  1.0 -0.4079017222
N  N53  1  0.64819000  0.63173000  0.47837000  1.0 -0.3840631425
N  N54  1  0.64749000  0.89555000  0.23105000  1.0 -0.2705846905
N  N55  1  0.52001000  0.05673000  0.22793000  1.0 -0.2705846905
N  N56  1  0.55060000  0.06416000  0.10834000  1.0 0.0488601037
O  O1  1  0.23491000  0.28987000  0.52975000  1.0 -0.5294697761
O  O2  1  0.30122000  0.26102000  0.39490000  1.0 -0.5146943063
O  O3  1  0.76048000  0.96360000  0.08500000  1.0 -0.4079017222
O  O4  1  0.68454000  0.06722000  0.04642000  1.0 -0.6046717942
O  O5  1  0.10553000  0.86237000  0.29593000  1.0 -0.5203769013
O  O6  1  0.18853000  0.74347000  0.19595000  1.0 -0.5294697761
O  O7  1  0.28987000  0.23491000  0.94547000  1.0 -0.5294697761
O  O8  1  0.26102000  0.30122000  0.04286000  1.0 -0.5146943063
O  O9  1  0.96360000  0.76048000  0.19092000  1.0 -0.4079017222
O  O10  1  0.06722000  0.68454000  0.20182000  1.0 -0.6046717942
O  O11  1  0.86237000  0.10553000  0.73617000  1.0 -0.5203769013
O  O12  1  0.74347000  0.18853000  0.87205000  1.0 -0.5294697761
O  O13  1  0.52975000  0.94547000  0.23491000  1.0 -0.5294697761
O  O14  1  0.39490000  0.04286000  0.30122000  1.0 -0.5146943063
O  O15  1  0.08500000  0.19092000  0.76048000  1.0 -0.4079017222
O  O16  1  0.04642000  0.20182000  0.68454000  1.0 -0.6046717942
O  O17  1  0.29593000  0.73617000  0.10553000  1.0 -0.5203769013
O  O18  1  0.19595000  0.87205000  0.18853000  1.0 -0.5294697761
O  O19  1  0.94547000  0.52975000  0.28987000  1.0 -0.5294697761
O  O20  1  0.04286000  0.39490000  0.26102000  1.0 -0.5146943063
O  O21  1  0.19092000  0.08500000  0.96360000  1.0 -0.4079017222
O  O22  1  0.20182000  0.04642000  0.06722000  1.0 -0.6046717942
O  O23  1  0.73617000  0.29593000  0.86237000  1.0 -0.5203769013
O  O24  1  0.87205000  0.19595000  0.74347000  1.0 -0.5294697761
O  O25  1  0.01509000  0.96013000  0.72025000  1.0 -0.5294697761
O  O26  1  0.94878000  0.98898000  0.85510000  1.0 -0.5146943063
O  O27  1  0.48952000  0.28640000  0.16500000  1.0 -0.4079017222
O  O28  1  0.56546000  0.18278000  0.20358000  1.0 -0.6046717942
O  O29  1  0.14447000  0.38763000  0.95407000  1.0 -0.5203769013
O  O30  1  0.06147000  0.50653000  0.05405000  1.0 -0.5294697761
O  O31  1  0.96013000  0.01509000  0.30453000  1.0 -0.5294697761
O  O32  1  0.98898000  0.94878000  0.20714000  1.0 -0.5146943063
O  O33  1  0.28640000  0.48952000  0.05908000  1.0 -0.4079017222
O  O34  1  0.18278000  0.56546000  0.04818000  1.0 -0.6046717942
O  O35  1  0.38763000  0.14447000  0.51383000  1.0 -0.5203769013
O  O36  1  0.50653000  0.06147000  0.37795000  1.0 -0.5294697761
O  O37  1  0.72025000  0.30453000  0.01509000  1.0 -0.5294697761
O  O38  1  0.85510000  0.20714000  0.94878000  1.0 -0.5146943063
O  O39  1  0.16500000  0.05908000  0.48952000  1.0 -0.4079017222
O  O40  1  0.20358000  0.04818000  0.56546000  1.0 -0.6046717942
O  O41  1  0.95407000  0.51383000  0.14447000  1.0 -0.5203769013
O  O42  1  0.05405000  0.37795000  0.06147000  1.0 -0.5294697761
O  O43  1  0.30453000  0.72025000  0.96013000  1.0 -0.5294697761
O  O44  1  0.20714000  0.85510000  0.98898000  1.0 -0.5146943063
O  O45  1  0.05908000  0.16500000  0.28640000  1.0 -0.4079017222
O  O46  1  0.04818000  0.20358000  0.18278000  1.0 -0.6046717942
O  O47  1  0.51383000  0.95407000  0.38763000  1.0 -0.5203769013
O  O48  1  0.37795000  0.05405000  0.50653000  1.0 -0.5294697761
O  O49  1  0.13227000  0.86773000  0.13227000  1.0 -0.6108254075
O  O50  1  0.86773000  0.13227000  0.86773000  1.0 -0.6108254075
O  O51  1  0.11773000  0.38227000  0.11773000  1.0 -0.6108254075
O  O52  1  0.38227000  0.11773000  0.38227000  1.0 -0.6108254075
