# DDEC6 charges by PACMAN v1.1 (https://github.com/mtap-research/PACMAN-charge/)
data_MERLAZ_ASR_pacman
_symmetry_space_group_name_H-M   'P 1'
_cell_length_a   31.26940000
_cell_length_b   31.26940000
_cell_length_c   16.95360000
_cell_angle_alpha   90.00000000
_cell_angle_beta   90.00000000
_cell_angle_gamma   120.00000000
_symmetry_Int_Tables_number   1
_chemical_formula_structural   Fe9H72C144N12(Cl3O13)2
_chemical_formula_sum   'Fe9 H72 C144 N12 Cl6 O26'
_cell_volume   14355.94084326
_cell_formula_units_Z   1
loop_
 _symmetry_equiv_pos_site_id
 _symmetry_equiv_pos_as_xyz
  1  'x, y, z'
loop_
 _atom_site_type_symbol
 _atom_site_label
 _atom_site_symmetry_multiplicity
 _atom_site_fract_x
 _atom_site_fract_y
 _atom_site_fract_z
 _atom_site_occupancy
 _atom_site_charge
Fe  Fe1  1  0.29893000  0.70107000  0.50000000  1.0 1.1518884727
Fe  Fe2  1  0.70107000  0.40214000  0.50000000  1.0 1.1558549631
Fe  Fe3  1  0.70107000  0.29893000  0.50000000  1.0 1.1558549631
Fe  Fe4  1  0.40214000  0.70107000  0.50000000  1.0 1.1518884727
Fe  Fe5  1  0.29893000  0.59786000  0.50000000  1.0 1.1518884727
Fe  Fe6  1  0.59786000  0.29893000  0.50000000  1.0 1.1399989355
Fe  Fe7  1  0.00000000  0.50000000  0.00000000  1.0 0.5286034274
Fe  Fe8  1  0.50000000  0.00000000  0.00000000  1.0 0.5249362815
Fe  Fe9  1  0.50000000  0.50000000  0.00000000  1.0 0.5286034274
H  H1  1  0.19687000  0.52809000  0.31808000  1.0 0.1125008978
H  H2  1  0.80313000  0.33122000  0.68192000  1.0 0.1125008978
H  H3  1  0.80313000  0.47191000  0.31808000  1.0 0.1125008978
H  H4  1  0.33122000  0.80313000  0.31808000  1.0 0.1125008978
H  H5  1  0.33122000  0.52809000  0.68192000  1.0 0.1125008978
H  H6  1  0.47191000  0.80313000  0.68192000  1.0 0.1125008978
H  H7  1  0.47191000  0.66878000  0.31808000  1.0 0.1125008978
H  H8  1  0.52809000  0.33122000  0.31808000  1.0 0.1125008978
H  H9  1  0.52809000  0.19687000  0.68192000  1.0 0.1125008978
H  H10  1  0.66878000  0.47191000  0.68192000  1.0 0.1125008978
H  H11  1  0.66878000  0.19687000  0.31808000  1.0 0.1125008978
H  H12  1  0.19687000  0.66878000  0.68192000  1.0 0.1125008978
H  H13  1  0.80313000  0.47191000  0.68192000  1.0 0.1125008978
H  H14  1  0.19687000  0.66878000  0.31808000  1.0 0.1125008978
H  H15  1  0.19687000  0.52809000  0.68192000  1.0 0.1125008978
H  H16  1  0.66878000  0.19687000  0.68192000  1.0 0.1125008978
H  H17  1  0.66878000  0.47191000  0.31808000  1.0 0.1125008978
H  H18  1  0.52809000  0.19687000  0.31808000  1.0 0.1125008978
H  H19  1  0.52809000  0.33122000  0.68192000  1.0 0.1125008978
H  H20  1  0.47191000  0.66878000  0.68192000  1.0 0.1125008978
H  H21  1  0.47191000  0.80313000  0.31808000  1.0 0.1125008978
H  H22  1  0.33122000  0.52809000  0.31808000  1.0 0.1125008978
H  H23  1  0.33122000  0.80313000  0.68192000  1.0 0.1125008978
H  H24  1  0.80313000  0.33122000  0.31808000  1.0 0.1125008978
H  H25  1  0.13417000  0.49708000  0.21168000  1.0 0.1125008978
H  H26  1  0.86583000  0.36291000  0.78832000  1.0 0.1125008978
H  H27  1  0.86583000  0.50292000  0.21168000  1.0 0.1125008978
H  H28  1  0.36291000  0.86583000  0.21168000  1.0 0.1125008978
H  H29  1  0.36291000  0.49708000  0.78832000  1.0 0.1125008978
H  H30  1  0.50292000  0.86583000  0.78832000  1.0 0.1125008978
H  H31  1  0.50292000  0.63709000  0.21168000  1.0 0.1125008978
H  H32  1  0.49708000  0.36291000  0.21168000  1.0 0.1125008978
H  H33  1  0.49708000  0.13417000  0.78832000  1.0 0.1125008978
H  H34  1  0.63709000  0.50292000  0.78832000  1.0 0.1125008978
H  H35  1  0.63709000  0.13417000  0.21168000  1.0 0.1125008978
H  H36  1  0.13417000  0.63709000  0.78832000  1.0 0.1125008978
H  H37  1  0.86583000  0.50292000  0.78832000  1.0 0.1125008978
H  H38  1  0.13417000  0.63709000  0.21168000  1.0 0.1125008978
H  H39  1  0.13417000  0.49708000  0.78832000  1.0 0.1125008978
H  H40  1  0.63709000  0.13417000  0.78832000  1.0 0.1125008978
H  H41  1  0.63709000  0.50292000  0.21168000  1.0 0.1125008978
H  H42  1  0.49708000  0.13417000  0.21168000  1.0 0.1125008978
H  H43  1  0.49708000  0.36291000  0.78832000  1.0 0.1125008978
H  H44  1  0.50292000  0.63709000  0.78832000  1.0 0.1125008978
H  H45  1  0.50292000  0.86583000  0.21168000  1.0 0.1125008978
H  H46  1  0.36291000  0.49708000  0.21168000  1.0 0.1125008978
H  H47  1  0.36291000  0.86583000  0.78832000  1.0 0.1125008978
H  H48  1  0.86583000  0.36291000  0.21168000  1.0 0.1125008978
H  H49  1  0.18757000  0.59379000  0.07708000  1.0 0.1205019507
H  H50  1  0.81243000  0.40621000  0.92292000  1.0 0.1205019507
H  H51  1  0.81243000  0.40621000  0.07708000  1.0 0.1205019507
H  H52  1  0.40621000  0.81243000  0.07708000  1.0 0.1205019507
H  H53  1  0.40622000  0.59379000  0.92292000  1.0 0.1205019507
H  H54  1  0.40621000  0.81243000  0.92292000  1.0 0.1205019507
H  H55  1  0.40622000  0.59379000  0.07708000  1.0 0.1205019507
H  H56  1  0.59379000  0.40621000  0.07708000  1.0 0.1205019507
H  H57  1  0.59379000  0.18757000  0.92292000  1.0 0.1205019507
H  H58  1  0.59379000  0.40621000  0.92292000  1.0 0.1205019507
H  H59  1  0.59379000  0.18757000  0.07708000  1.0 0.1205019507
H  H60  1  0.18757000  0.59379000  0.92292000  1.0 0.1205019507
H  H61  1  0.04937000  0.52469000  0.29518000  1.0 0.1261256564
H  H62  1  0.95063000  0.47532000  0.70482000  1.0 0.1261256564
H  H63  1  0.95063000  0.47532000  0.29518000  1.0 0.1261256564
H  H64  1  0.47532000  0.95063000  0.29518000  1.0 0.1261256564
H  H65  1  0.47532000  0.52469000  0.70482000  1.0 0.1261256564
H  H66  1  0.47532000  0.95063000  0.70482000  1.0 0.1261256564
H  H67  1  0.47532000  0.52469000  0.29518000  1.0 0.1261256564
H  H68  1  0.52468000  0.47532000  0.29518000  1.0 0.1261256564
H  H69  1  0.52468000  0.04937000  0.70482000  1.0 0.1261256564
H  H70  1  0.52468000  0.47532000  0.70482000  1.0 0.1261256564
H  H71  1  0.52468000  0.04937000  0.29518000  1.0 0.1261256564
H  H72  1  0.04937000  0.52469000  0.70482000  1.0 0.1261256564
C  C1  1  0.23877000  0.61938000  0.39278000  1.0 0.5973728228
C  C2  1  0.76123000  0.38061000  0.60722000  1.0 0.5973728228
C  C3  1  0.76123000  0.38061000  0.39278000  1.0 0.5973728228
C  C4  1  0.38061000  0.76123000  0.39278000  1.0 0.5973728228
C  C5  1  0.38061000  0.61938000  0.60722000  1.0 0.5973728228
C  C6  1  0.38061000  0.76123000  0.60722000  1.0 0.5973728228
C  C7  1  0.38061000  0.61938000  0.39278000  1.0 0.5973728228
C  C8  1  0.61938000  0.38061000  0.39278000  1.0 0.5973728228
C  C9  1  0.61938000  0.23877000  0.60722000  1.0 0.5973728228
C  C10  1  0.61938000  0.38061000  0.60722000  1.0 0.5973728228
C  C11  1  0.61938000  0.23877000  0.39278000  1.0 0.5973728228
C  C12  1  0.23877000  0.61938000  0.60722000  1.0 0.5973728228
C  C13  1  0.20197000  0.60098000  0.32688000  1.0 -0.0586767671
C  C14  1  0.79803000  0.39902000  0.67312000  1.0 -0.0586767671
C  C15  1  0.79803000  0.39902000  0.32688000  1.0 -0.0586767671
C  C16  1  0.39902000  0.79803000  0.32688000  1.0 -0.0586767671
C  C17  1  0.39902000  0.60098000  0.67312000  1.0 -0.0586767671
C  C18  1  0.39902000  0.79803000  0.67312000  1.0 -0.0586767671
C  C19  1  0.39902000  0.60098000  0.32688000  1.0 -0.0586767671
C  C20  1  0.60098000  0.39902000  0.32688000  1.0 -0.0586767671
C  C21  1  0.60098000  0.20197000  0.67312000  1.0 -0.0586767671
C  C22  1  0.60098000  0.39902000  0.67312000  1.0 -0.0586767671
C  C23  1  0.60098000  0.20197000  0.32688000  1.0 -0.0586767671
C  C24  1  0.20197000  0.60098000  0.67312000  1.0 -0.0586767671
C  C25  1  0.18377000  0.55249000  0.29538000  1.0 -0.0860277597
C  C26  1  0.81623000  0.36872000  0.70462000  1.0 -0.0860277597
C  C27  1  0.81623000  0.44751000  0.29538000  1.0 -0.0860277597
C  C28  1  0.36872000  0.81623000  0.29538000  1.0 -0.0860277597
C  C29  1  0.36872000  0.55249000  0.70462000  1.0 -0.0860277597
C  C30  1  0.44751000  0.81623000  0.70462000  1.0 -0.0860277597
C  C31  1  0.44751000  0.63128000  0.29538000  1.0 -0.0860277597
C  C32  1  0.55249000  0.36872000  0.29538000  1.0 -0.0860277597
C  C33  1  0.55249000  0.18377000  0.70462000  1.0 -0.0860277597
C  C34  1  0.63128000  0.44751000  0.70462000  1.0 -0.0860277597
C  C35  1  0.63128000  0.18377000  0.29538000  1.0 -0.0860277597
C  C36  1  0.18377000  0.63128000  0.70462000  1.0 -0.0860277597
C  C37  1  0.81623000  0.44751000  0.70462000  1.0 -0.0860277597
C  C38  1  0.18377000  0.63128000  0.29538000  1.0 -0.0860277597
C  C39  1  0.18377000  0.55249000  0.70462000  1.0 -0.0860277597
C  C40  1  0.63128000  0.18377000  0.70462000  1.0 -0.0860277597
C  C41  1  0.63128000  0.44751000  0.29538000  1.0 -0.0860277597
C  C42  1  0.55249000  0.18377000  0.29538000  1.0 -0.0860277597
C  C43  1  0.55249000  0.36872000  0.70462000  1.0 -0.0860277597
C  C44  1  0.44751000  0.63128000  0.70462000  1.0 -0.0860277597
C  C45  1  0.44751000  0.81623000  0.29538000  1.0 -0.0860277597
C  C46  1  0.36872000  0.55249000  0.29538000  1.0 -0.0860277597
C  C47  1  0.36872000  0.81623000  0.70462000  1.0 -0.0860277597
C  C48  1  0.81623000  0.36872000  0.29538000  1.0 -0.0860277597
C  C49  1  0.14797000  0.53458000  0.23468000  1.0 -0.1402577627
C  C50  1  0.85203000  0.38661000  0.76532000  1.0 -0.1402577627
C  C51  1  0.85203000  0.46542000  0.23468000  1.0 -0.1402577627
C  C52  1  0.38661000  0.85203000  0.23468000  1.0 -0.1402577627
C  C53  1  0.38661000  0.53458000  0.76532000  1.0 -0.1402577627
C  C54  1  0.46542000  0.85203000  0.76532000  1.0 -0.1402577627
C  C55  1  0.46542000  0.61339000  0.23468000  1.0 -0.1402577627
C  C56  1  0.53458000  0.38661000  0.23468000  1.0 -0.1402577627
C  C57  1  0.53458000  0.14797000  0.76532000  1.0 -0.1402577627
C  C58  1  0.61339000  0.46542000  0.76532000  1.0 -0.1402577627
C  C59  1  0.61339000  0.14797000  0.23468000  1.0 -0.1402577627
C  C60  1  0.14797000  0.61339000  0.76532000  1.0 -0.1402577627
C  C61  1  0.85203000  0.46542000  0.76532000  1.0 -0.1402577627
C  C62  1  0.14797000  0.61339000  0.23468000  1.0 -0.1402577627
C  C63  1  0.14797000  0.53458000  0.76532000  1.0 -0.1402577627
C  C64  1  0.61339000  0.14797000  0.76532000  1.0 -0.1402577627
C  C65  1  0.61339000  0.46542000  0.23468000  1.0 -0.1402577627
C  C66  1  0.53458000  0.14797000  0.23468000  1.0 -0.1402577627
C  C67  1  0.53458000  0.38661000  0.76532000  1.0 -0.1402577627
C  C68  1  0.46542000  0.61339000  0.76532000  1.0 -0.1402577627
C  C69  1  0.46542000  0.85203000  0.23468000  1.0 -0.1402577627
C  C70  1  0.38661000  0.53458000  0.23468000  1.0 -0.1402577627
C  C71  1  0.38661000  0.85203000  0.76532000  1.0 -0.1402577627
C  C72  1  0.85203000  0.38661000  0.23468000  1.0 -0.1402577627
C  C73  1  0.12977000  0.56488000  0.20438000  1.0 0.0951574299
C  C74  1  0.87023000  0.43512000  0.79562000  1.0 0.0951574299
C  C75  1  0.87023000  0.43512000  0.20438000  1.0 0.093339179
C  C76  1  0.43512000  0.87023000  0.20438000  1.0 0.0951574299
C  C77  1  0.43511000  0.56488000  0.79562000  1.0 0.0951574299
C  C78  1  0.43512000  0.87023000  0.79562000  1.0 0.0951574299
C  C79  1  0.43511000  0.56488000  0.20438000  1.0 0.093339179
C  C80  1  0.56488000  0.43512000  0.20438000  1.0 0.093339179
C  C81  1  0.56488000  0.12977000  0.79562000  1.0 0.0951574299
C  C82  1  0.56488000  0.43512000  0.79562000  1.0 0.0951574299
C  C83  1  0.56488000  0.12977000  0.20438000  1.0 0.093339179
C  C84  1  0.12977000  0.56488000  0.79562000  1.0 0.0951574299
C  C85  1  0.09037000  0.54519000  0.14188000  1.0 -0.0586767671
C  C86  1  0.90963000  0.45482000  0.85812000  1.0 -0.0586767671
C  C87  1  0.90963000  0.45482000  0.14188000  1.0 -0.0586767671
C  C88  1  0.45482000  0.90963000  0.14188000  1.0 -0.0586767671
C  C89  1  0.45482000  0.54519000  0.85812000  1.0 -0.0586767671
C  C90  1  0.45482000  0.90963000  0.85812000  1.0 -0.0586767671
C  C91  1  0.45482000  0.54519000  0.14188000  1.0 -0.0586767671
C  C92  1  0.54519000  0.45482000  0.14188000  1.0 -0.0586767671
C  C93  1  0.54519000  0.09037000  0.85812000  1.0 -0.0586767671
C  C94  1  0.54519000  0.45482000  0.85812000  1.0 -0.0586767671
C  C95  1  0.54519000  0.09037000  0.14188000  1.0 -0.0586767671
C  C96  1  0.09037000  0.54519000  0.85812000  1.0 -0.0586767671
C  C97  1  0.10437000  0.55219000  0.06308000  1.0 0.146744202
C  C98  1  0.89563000  0.44782000  0.93692000  1.0 0.146744202
C  C99  1  0.89563000  0.44782000  0.06308000  1.0 0.146744202
C  C100  1  0.44782000  0.89563000  0.06308000  1.0 0.146744202
C  C101  1  0.44782000  0.55219000  0.93692000  1.0 0.146744202
C  C102  1  0.44782000  0.89563000  0.93692000  1.0 0.146744202
C  C103  1  0.44782000  0.55219000  0.06308000  1.0 0.146744202
C  C104  1  0.55218000  0.44782000  0.06308000  1.0 0.146744202
C  C105  1  0.55218000  0.10437000  0.93692000  1.0 0.146744202
C  C106  1  0.55218000  0.44782000  0.93692000  1.0 0.146744202
C  C107  1  0.55218000  0.10437000  0.06308000  1.0 0.146744202
C  C108  1  0.10437000  0.55219000  0.93692000  1.0 0.146744202
C  C109  1  0.15437000  0.57719000  0.03988000  1.0 -0.1459584795
C  C110  1  0.84563000  0.42282000  0.96012000  1.0 -0.1459584795
C  C111  1  0.84563000  0.42282000  0.03988000  1.0 -0.1402577627
C  C112  1  0.42281000  0.84563000  0.03988000  1.0 -0.1459584795
C  C113  1  0.42281000  0.57719000  0.96012000  1.0 -0.1459584795
C  C114  1  0.42281000  0.84563000  0.96012000  1.0 -0.1459584795
C  C115  1  0.42281000  0.57719000  0.03988000  1.0 -0.1459584795
C  C116  1  0.57718000  0.42282000  0.03988000  1.0 -0.1459584795
C  C117  1  0.57718000  0.15437000  0.96012000  1.0 -0.1459584795
C  C118  1  0.57718000  0.42282000  0.96012000  1.0 -0.1459584795
C  C119  1  0.57718000  0.15437000  0.03988000  1.0 -0.1459584795
C  C120  1  0.15437000  0.57719000  0.96012000  1.0 -0.1459584795
C  C121  1  0.04057000  0.52028000  0.16388000  1.0 0.146744202
C  C122  1  0.95943000  0.47972000  0.83612000  1.0 0.1445756632
C  C123  1  0.95943000  0.47972000  0.16388000  1.0 0.146744202
C  C124  1  0.47972000  0.95943000  0.16388000  1.0 0.146744202
C  C125  1  0.47972000  0.52028000  0.83612000  1.0 0.146744202
C  C126  1  0.47972000  0.95943000  0.83612000  1.0 0.146744202
C  C127  1  0.47972000  0.52028000  0.16388000  1.0 0.146744202
C  C128  1  0.52028000  0.47972000  0.16388000  1.0 0.146744202
C  C129  1  0.52028000  0.04057000  0.83612000  1.0 0.146744202
C  C130  1  0.52028000  0.47972000  0.83612000  1.0 0.146744202
C  C131  1  0.52028000  0.04057000  0.16388000  1.0 0.146744202
C  C132  1  0.04057000  0.52028000  0.83612000  1.0 0.146744202
C  C133  1  0.02597000  0.51299000  0.24268000  1.0 -0.158495334
C  C134  1  0.97403000  0.48701000  0.75732000  1.0 -0.158495334
C  C135  1  0.97403000  0.48701000  0.24268000  1.0 -0.158495334
C  C136  1  0.48701000  0.97403000  0.24268000  1.0 -0.158495334
C  C137  1  0.48701000  0.51299000  0.75732000  1.0 -0.158495334
C  C138  1  0.48701000  0.97403000  0.75732000  1.0 -0.158495334
C  C139  1  0.48701000  0.51299000  0.24268000  1.0 -0.158495334
C  C140  1  0.51299000  0.48701000  0.24268000  1.0 -0.158495334
C  C141  1  0.51299000  0.02597000  0.75732000  1.0 -0.158495334
C  C142  1  0.51299000  0.48701000  0.75732000  1.0 -0.158495334
C  C143  1  0.51299000  0.02597000  0.24268000  1.0 -0.158495334
C  C144  1  0.02597000  0.51299000  0.75732000  1.0 -0.158495334
N  N1  1  0.07257000  0.53629000  0.00000000  1.0 -0.2016944013
N  N2  1  0.92743000  0.46371000  0.00000000  1.0 -0.2016944013
N  N3  1  0.46371000  0.92743000  0.00000000  1.0 -0.2016944013
N  N4  1  0.46371000  0.53629000  0.00000000  1.0 -0.2016944013
N  N5  1  0.53629000  0.46371000  0.00000000  1.0 -0.2016944013
N  N6  1  0.53629000  0.07257000  0.00000000  1.0 -0.2016944013
N  N7  1  0.00000000  0.50000000  0.11358000  1.0 -0.2016944013
N  N8  1  0.00000000  0.50000000  0.88642000  1.0 -0.2016944013
N  N9  1  0.50000000  0.00000000  0.11358000  1.0 -0.2016944013
N  N10  1  0.50000000  0.50000000  0.88642000  1.0 -0.2016944013
N  N11  1  0.50000000  0.00000000  0.88642000  1.0 -0.2016944013
N  N12  1  0.50000000  0.50000000  0.11358000  1.0 -0.2016944013
Cl  Cl1  1  0.00000000  0.57360000  0.00000000  1.0 -0.267801277
Cl  Cl2  1  0.00000000  0.42640000  0.00000000  1.0 -0.267801277
Cl  Cl3  1  0.57360000  0.00000000  0.00000000  1.0 -0.267801277
Cl  Cl4  1  0.57360000  0.57360000  0.00000000  1.0 -0.267801277
Cl  Cl5  1  0.42640000  0.00000000  0.00000000  1.0 -0.267801277
Cl  Cl6  1  0.42640000  0.42640000  0.00000000  1.0 -0.267801277
O  O1  1  0.33333333  0.66666667  0.50000000  1.0 -0.8202954602
O  O2  1  0.66666667  0.33333333  0.50000000  1.0 -0.8202954602
O  O3  1  0.25357000  0.66309000  0.41988000  1.0 -0.521554281
O  O4  1  0.74643000  0.40952000  0.58012000  1.0 -0.521554281
O  O5  1  0.74643000  0.33691000  0.41988000  1.0 -0.521554281
O  O6  1  0.40952000  0.74643000  0.41988000  1.0 -0.521554281
O  O7  1  0.40952000  0.66309000  0.58012000  1.0 -0.521554281
O  O8  1  0.33691000  0.74643000  0.58012000  1.0 -0.521554281
O  O9  1  0.33691000  0.59048000  0.41988000  1.0 -0.521554281
O  O10  1  0.66309000  0.40952000  0.41988000  1.0 -0.521554281
O  O11  1  0.66309000  0.25357000  0.58012000  1.0 -0.521554281
O  O12  1  0.59048000  0.33691000  0.58012000  1.0 -0.521554281
O  O13  1  0.59048000  0.25357000  0.41988000  1.0 -0.521554281
O  O14  1  0.25357000  0.59048000  0.58012000  1.0 -0.521554281
O  O15  1  0.74643000  0.33691000  0.58012000  1.0 -0.521554281
O  O16  1  0.25357000  0.59048000  0.41988000  1.0 -0.521554281
O  O17  1  0.25357000  0.66309000  0.58012000  1.0 -0.521554281
O  O18  1  0.59048000  0.25357000  0.58012000  1.0 -0.521554281
O  O19  1  0.59048000  0.33691000  0.41988000  1.0 -0.521554281
O  O20  1  0.66309000  0.25357000  0.41988000  1.0 -0.521554281
O  O21  1  0.66309000  0.40952000  0.58012000  1.0 -0.521554281
O  O22  1  0.33691000  0.59048000  0.58012000  1.0 -0.521554281
O  O23  1  0.33691000  0.74643000  0.41988000  1.0 -0.521554281
O  O24  1  0.40952000  0.66309000  0.41988000  1.0 -0.521554281
O  O25  1  0.40952000  0.74643000  0.58012000  1.0 -0.521554281
O  O26  1  0.74643000  0.40952000  0.41988000  1.0 -0.521554281
