# DDEC6 charges by PACMAN v1.1 (https://github.com/mtap-research/PACMAN-charge/)
data_MIDSUP_ASR_pacman
_symmetry_space_group_name_H-M   'P 1'
_cell_length_a   9.21162000
_cell_length_b   17.94020000
_cell_length_c   19.15890000
_cell_angle_alpha   90.10110000
_cell_angle_beta   91.06560000
_cell_angle_gamma   91.45830000
_symmetry_Int_Tables_number   1
_chemical_formula_structural   NiH12C15NO4
_chemical_formula_sum   'Ni4 H48 C60 N4 O16'
_cell_volume   3164.58654008
_cell_formula_units_Z   4
loop_
 _symmetry_equiv_pos_site_id
 _symmetry_equiv_pos_as_xyz
  1  'x, y, z'
loop_
 _atom_site_type_symbol
 _atom_site_label
 _atom_site_symmetry_multiplicity
 _atom_site_fract_x
 _atom_site_fract_y
 _atom_site_fract_z
 _atom_site_occupancy
 _atom_site_charge
Ni  Ni1  1  0.25316000  0.80028000  0.25190000  1.0 0.662958752
Ni  Ni2  1  0.51151000  0.80381000  0.25428000  1.0 0.6666022349
Ni  Ni3  1  0.65548000  0.30844000  0.75477000  1.0 0.662958752
Ni  Ni4  1  0.39732000  0.30280000  0.75387000  1.0 0.6666022349
H  H1  1  0.14442000  0.95136000  0.41603000  1.0 0.1003519414
H  H2  1  0.61963000  0.99581000  0.38551000  1.0 0.1003519414
H  H3  1  0.62486000  0.97819000  0.10873000  1.0 0.1003519414
H  H4  1  0.15127000  0.58725000  0.13709000  1.0 0.1003519414
H  H5  1  0.76067000  0.77057000  0.36283000  1.0 0.0878819785
H  H6  1  0.75375000  0.87323000  0.34635000  1.0 0.0878819785
H  H7  1  0.62665000  0.64458000  0.41224000  1.0 0.1003519414
H  H8  1  0.13695000  0.55890000  0.52276000  1.0 0.1003519414
H  H9  1  0.75197000  0.71406000  0.17548000  1.0 0.0827525664
H  H10  1  0.74319000  0.84538000  0.14796000  1.0 0.0827525664
H  H11  1  0.60616000  0.65963000  0.08831000  1.0 0.1003519414
H  H12  1  0.14282000  0.64929000  0.41638000  1.0 0.1003519414
H  H13  1  0.15681000  0.48331000  0.04288000  1.0 0.1003519414
H  H14  1  0.75982000  0.91700000  0.22002000  1.0 0.0878819785
H  H15  1  0.15476000  0.92804000  0.06584000  1.0 0.1003519414
H  H16  1  0.14162000  0.04484000  0.51783000  1.0 0.1003519414
H  H17  1  0.73335000  0.68062000  0.26776000  1.0 0.0878819785
H  H18  1  0.91052000  0.42758000  0.74836000  1.0 0.0878819785
H  H19  1  0.89585000  0.38583000  0.83767000  1.0 0.0878819785
H  H20  1  0.27956000  0.47636000  0.61104000  1.0 0.1003519414
H  H21  1  0.76050000  0.17728000  0.57320000  1.0 0.1003519414
H  H22  1  0.76737000  0.56488000  0.50182000  1.0 0.1003519414
H  H23  1  0.76267000  0.47778000  0.61043000  1.0 0.1003519414
H  H24  1  0.90480000  0.23806000  0.66023000  1.0 0.0827525664
H  H25  1  0.87119000  0.33917000  0.64174000  1.0 0.0878819785
H  H26  1  0.28259000  0.13962000  0.59903000  1.0 0.1003519414
H  H27  1  0.75855000  0.09082000  0.46481000  1.0 0.1003519414
H  H28  1  0.91188000  0.25172000  0.85128000  1.0 0.0827525664
H  H29  1  0.87533000  0.18802000  0.77406000  1.0 0.0878819785
H  H30  1  0.00313000  0.68423000  0.28304000  1.0 0.0878819785
H  H31  1  0.00759000  0.83501000  0.14488000  1.0 0.0878819785
H  H32  1  0.02630000  0.91278000  0.21056000  1.0 0.0878819785
H  H33  1  0.01708000  0.88375000  0.33360000  1.0 0.0827525664
H  H34  1  0.02904000  0.78507000  0.36612000  1.0 0.0878819785
H  H35  1  0.01142000  0.70109000  0.18677000  1.0 0.0878819785
H  H36  1  0.13293000  0.37376000  0.65712000  1.0 0.0827525664
H  H37  1  0.17958000  0.42609000  0.76930000  1.0 0.0878819785
H  H38  1  0.16950000  0.23031000  0.83650000  1.0 0.0878819785
H  H39  1  0.14041000  0.18578000  0.74861000  1.0 0.0878819785
H  H40  1  0.16485000  0.27326000  0.63763000  1.0 0.0878819785
H  H41  1  0.15466000  0.36446000  0.84776000  1.0 0.0878819785
H  H42  1  0.74322000  0.49642000  0.89020000  1.0 0.1003519414
H  H43  1  0.29731000  0.41723000  0.94419000  1.0 0.1003519414
H  H44  1  0.74512000  0.59526000  0.99201000  1.0 0.1003519414
H  H45  1  0.15335000  0.01848000  0.96052000  1.0 0.1003519414
H  H46  1  0.29825000  0.11176000  0.87991000  1.0 0.1003519414
H  H47  1  0.75871000  0.17182000  0.93140000  1.0 0.1003519414
H  H48  1  0.76173000  0.07568000  0.03508000  1.0 0.1003519414
C  C1  1  0.24956000  0.98381000  0.43258000  1.0 -0.1068671629
C  C2  1  0.38412000  0.90949000  0.33998000  1.0 0.5763434816
C  C3  1  0.38333000  0.96934000  0.39622000  1.0 -0.0148879927
C  C4  1  0.38548000  0.89370000  0.15150000  1.0 0.5720804144
C  C5  1  0.39013000  0.94923000  0.09129000  1.0 -0.0174012709
C  C6  1  0.52203000  0.98836000  0.07468000  1.0 -0.1402168442
C  C7  1  0.25415000  0.57893000  0.10421000  1.0 -0.1068671629
C  C8  1  0.80340000  0.81827000  0.32702000  1.0 -0.0710248186
C  C9  1  0.38467000  0.70793000  0.35255000  1.0 0.5763434816
C  C10  1  0.38540000  0.65094000  0.41099000  1.0 -0.0174012709
C  C11  1  0.51983000  0.62450000  0.43802000  1.0 -0.1402168442
C  C12  1  0.24648000  0.57731000  0.49834000  1.0 -0.1334200459
C  C13  1  0.52184000  0.57437000  0.49713000  1.0 0.0878819785
C  C14  1  0.79944000  0.85894000  0.20181000  1.0 -0.0710248186
C  C15  1  0.96885000  0.85529000  0.19890000  1.0 -0.0710248186
C  C16  1  0.37777000  0.69200000  0.16885000  1.0 0.5763434816
C  C17  1  0.38082000  0.62774000  0.11672000  1.0 -0.0174012709
C  C18  1  0.50918000  0.61890000  0.07767000  1.0 -0.1334200459
C  C19  1  0.24842000  0.62639000  0.44082000  1.0 -0.1068671629
C  C20  1  0.25773000  0.52249000  0.05254000  1.0 -0.1334200459
C  C21  1  0.51510000  0.56322000  0.02328000  1.0 0.0878819785
C  C22  1  0.97336000  0.82339000  0.32524000  1.0 -0.0710248186
C  C23  1  0.51509000  0.00830000  0.41566000  1.0 -0.1402168442
C  C24  1  0.25903000  0.96065000  0.04995000  1.0 -0.1038797651
C  C25  1  0.24871000  0.03509000  0.48857000  1.0 -0.1334200459
C  C26  1  0.51759000  0.06167000  0.47240000  1.0 0.0878819785
C  C27  1  0.79215000  0.72424000  0.23237000  1.0 -0.0710248186
C  C28  1  0.96166000  0.72190000  0.23800000  1.0 -0.0760209154
C  C29  1  0.94835000  0.37874000  0.78365000  1.0 -0.0710248186
C  C30  1  0.52270000  0.41302000  0.66890000  1.0 0.5763434816
C  C31  1  0.52024000  0.47447000  0.61472000  1.0 -0.0174012709
C  C32  1  0.38548000  0.49952000  0.58688000  1.0 -0.1402168442
C  C33  1  0.65409000  0.14767000  0.55394000  1.0 -0.1068671629
C  C34  1  0.65824000  0.54762000  0.52705000  1.0 -0.1334200459
C  C35  1  0.38280000  0.55042000  0.52836000  1.0 0.0878819785
C  C36  1  0.65697000  0.50001000  0.58555000  1.0 -0.1038797651
C  C37  1  0.38713000  0.51392000  0.01026000  1.0 0.0878819785
C  C38  1  0.93654000  0.29852000  0.67668000  1.0 -0.0710248186
C  C39  1  0.52439000  0.21318000  0.65396000  1.0 0.5763434816
C  C40  1  0.52119000  0.16080000  0.59148000  1.0 -0.0148879927
C  C41  1  0.38692000  0.12631000  0.56893000  1.0 -0.1402168442
C  C42  1  0.65218000  0.10056000  0.49477000  1.0 -0.1334200459
C  C43  1  0.38260000  0.07498000  0.51049000  1.0 0.0878819785
C  C44  1  0.94051000  0.24080000  0.79348000  1.0 -0.0710248186
C  C45  1  0.11748000  0.37360000  0.79040000  1.0 -0.0760209154
C  C46  1  0.10796000  0.23550000  0.78355000  1.0 -0.0760209154
C  C47  1  0.10475000  0.31337000  0.67478000  1.0 -0.0710248186
C  C48  1  0.64499000  0.50347000  0.92619000  1.0 -0.1038797651
C  C49  1  0.52427000  0.39842000  0.85372000  1.0 0.5720804144
C  C50  1  0.51921000  0.45425000  0.91346000  1.0 -0.0174012709
C  C51  1  0.39311000  0.45882000  0.95498000  1.0 -0.1402168442
C  C52  1  0.64413000  0.55667000  0.98047000  1.0 -0.1334200459
C  C53  1  0.26011000  0.00977000  0.99226000  1.0 -0.1334200459
C  C54  1  0.52853000  0.20138000  0.84346000  1.0 0.5720804144
C  C55  1  0.52893000  0.14292000  0.90097000  1.0 -0.0148879927
C  C56  1  0.39892000  0.10142000  0.91533000  1.0 -0.1402168442
C  C57  1  0.39342000  0.05029000  0.97379000  1.0 0.0878819785
C  C58  1  0.65918000  0.13379000  0.94401000  1.0 -0.1038797651
C  C59  1  0.52631000  0.03998000  0.01663000  1.0 0.0878819785
C  C60  1  0.65849000  0.08314000  0.00042000  1.0 -0.1334200459
N  N1  1  0.74025000  0.80141000  0.25384000  1.0 -0.0710248186
N  N2  1  0.88318000  0.30686000  0.75171000  1.0 -0.0710248186
N  N3  1  0.02589000  0.79996000  0.25320000  1.0 -0.0710248186
N  N4  1  0.16884000  0.30628000  0.74905000  1.0 -0.0710248186
O  O1  1  0.51082000  0.87744000  0.33006000  1.0 -0.5003044398
O  O2  1  0.25884000  0.89288000  0.30734000  1.0 -0.5100695482
O  O3  1  0.50271000  0.72941000  0.17939000  1.0 -0.5100695482
O  O4  1  0.26004000  0.85842000  0.16347000  1.0 -0.5100695482
O  O5  1  0.25854000  0.73936000  0.33758000  1.0 -0.5100695482
O  O6  1  0.51126000  0.72190000  0.32217000  1.0 -0.5100695482
O  O7  1  0.25196000  0.70630000  0.19764000  1.0 -0.5100695482
O  O8  1  0.50936000  0.88551000  0.18700000  1.0 -0.5100695482
O  O9  1  0.39812000  0.24354000  0.66905000  1.0 -0.5003044398
O  O10  1  0.64840000  0.37828000  0.67626000  1.0 -0.5100695482
O  O11  1  0.40029000  0.39762000  0.70217000  1.0 -0.5100695482
O  O12  1  0.65062000  0.22448000  0.68735000  1.0 -0.5100695482
O  O13  1  0.40405000  0.35734000  0.84201000  1.0 -0.5100695482
O  O14  1  0.65092000  0.24130000  0.83567000  1.0 -0.5168844055
O  O15  1  0.64695000  0.39582000  0.81857000  1.0 -0.5100695482
O  O16  1  0.40516000  0.20875000  0.80738000  1.0 -0.5003044398
