# DDEC6 charges by PACMAN v1.1 (https://github.com/mtap-research/PACMAN-charge/)
data_MIDSEZ_ASR_pacman
_symmetry_space_group_name_H-M   'P 1'
_cell_length_a   9.01162000
_cell_length_b   9.34009000
_cell_length_c   23.21100000
_cell_angle_alpha   93.92710000
_cell_angle_beta   95.29680000
_cell_angle_gamma   105.61800000
_symmetry_Int_Tables_number   1
_chemical_formula_structural   NiH12C15NO4
_chemical_formula_sum   'Ni4 H48 C60 N4 O16'
_cell_volume   1864.59162409
_cell_formula_units_Z   4
loop_
 _symmetry_equiv_pos_site_id
 _symmetry_equiv_pos_as_xyz
  1  'x, y, z'
loop_
 _atom_site_type_symbol
 _atom_site_label
 _atom_site_symmetry_multiplicity
 _atom_site_fract_x
 _atom_site_fract_y
 _atom_site_fract_z
 _atom_site_occupancy
 _atom_site_charge
Ni  Ni1  1  0.79114000  0.74782000  0.30998000  1.0 0.6579409391
Ni  Ni2  1  0.80285000  0.49129000  0.29655000  1.0 0.6579409391
Ni  Ni3  1  0.19696000  0.29571000  0.78090000  1.0 0.6392759234
Ni  Ni4  1  0.19818000  0.55555000  0.78687000  1.0 0.6579409391
H  H1  1  0.99968000  0.38331000  0.17065000  1.0 0.0994941803
H  H2  1  0.46735000  0.76069000  0.15701000  1.0 0.0994941803
H  H3  1  0.15397000  0.85154000  0.05678000  1.0 0.0815686261
H  H4  1  0.84568000  0.26482000  0.40482000  1.0 0.0702800453
H  H5  1  0.02189000  0.31803000  0.36600000  1.0 0.0905165791
H  H6  1  0.59551000  0.93771000  0.34127000  1.0 0.1083310535
H  H7  1  0.57454000  0.36418000  0.44101000  1.0 0.0994941803
H  H8  1  0.85587000  0.86089000  0.51222000  1.0 0.0994941803
H  H9  1  0.25201000  0.72793000  0.49707000  1.0 0.0994941803
H  H10  1  0.58063000  0.18772000  0.25686000  1.0 0.0905165791
H  H11  1  0.79480000  0.22778000  0.21555000  1.0 0.0905165791
H  H12  1  0.77962000  0.95896000  0.21423000  1.0 0.0905165791
H  H13  1  0.99049000  0.01428000  0.24745000  1.0 0.0994941803
H  H14  1  0.72252000  0.42871000  0.11853000  1.0 0.1083310535
H  H15  1  0.37682000  0.73371000  0.39719000  1.0 0.1083310535
H  H16  1  0.41307000  0.79280000  0.04595000  1.0 0.0905165791
H  H17  1  0.00364000  0.26886000  0.25265000  1.0 0.0815686261
H  H18  1  0.02690000  0.05404000  0.37090000  1.0 0.0905165791
H  H19  1  0.83659000  0.00778000  0.39874000  1.0 0.0994941803
H  H20  1  0.98915000  0.45319000  0.45245000  1.0 0.1083310535
H  H21  1  0.10994000  0.87952000  0.16766000  1.0 0.0905165791
H  H22  1  0.79558000  0.74179000  0.60981000  1.0 0.0905165791
H  H23  1  0.57739000  0.19148000  0.33674000  1.0 0.0815686261
H  H24  1  0.58524000  0.91200000  0.25930000  1.0 0.1083310535
H  H25  1  0.11503000  0.70398000  0.96629000  1.0 0.0994941803
H  H26  1  0.67560000  0.34075000  0.90101000  1.0 0.1083310535
H  H27  1  0.06628000  0.22733000  0.07800000  1.0 0.0905165791
H  H28  1  0.22165000  0.78015000  0.69088000  1.0 0.0905165791
H  H29  1  0.43448000  0.85124000  0.76196000  1.0 0.0905165791
H  H30  1  0.43473000  0.11536000  0.75993000  1.0 0.0905165791
H  H31  1  0.40617000  0.12636000  0.83640000  1.0 0.0905165791
H  H32  1  0.23536000  0.62553000  0.59775000  1.0 0.0994941803
H  H33  1  0.01102000  0.17913000  0.62525000  1.0 0.0994941803
H  H34  1  0.56394000  0.26141000  0.54101000  1.0 0.0994941803
H  H35  1  0.15266000  0.82161000  0.87552000  1.0 0.0815686261
H  H36  1  0.98450000  0.74332000  0.82082000  1.0 0.0994941803
H  H37  1  0.41630000  0.68489000  0.93846000  1.0 0.0994941803
H  H38  1  0.45508000  0.27155000  0.64442000  1.0 0.1083310535
H  H39  1  0.75794000  0.34789000  0.00996000  1.0 0.0994941803
H  H40  1  0.02248000  0.72496000  0.70939000  1.0 0.0905165791
H  H41  1  0.99620000  0.98281000  0.70471000  1.0 0.0815686261
H  H42  1  0.20500000  0.04142000  0.68528000  1.0 0.0905165791
H  H43  1  0.81386000  0.56006000  0.67580000  1.0 0.1083310535
H  H44  1  0.13190000  0.22867000  0.97020000  1.0 0.0994941803
H  H45  1  0.01286000  0.25866000  0.51919000  1.0 0.0905165791
H  H46  1  0.40833000  0.87229000  0.84395000  1.0 0.0905165791
H  H47  1  0.12874000  0.07729000  0.86643000  1.0 0.0994941803
H  H48  1  0.96680000  0.00180000  0.80507000  1.0 0.0994941803
C  C1  1  0.01235000  0.64578000  0.23598000  1.0 0.5602219055
C  C2  1  0.06651000  0.63095000  0.17627000  1.0 -0.0209541246
C  C3  1  0.05504000  0.48756000  0.14747000  1.0 -0.1311924562
C  C4  1  0.52315000  0.70825000  0.12141000  1.0 -0.0999062956
C  C5  1  0.11984000  0.74613000  0.08433000  1.0 -0.1202199359
C  C6  1  0.08455000  0.47561000  0.08670000  1.0 0.0815686261
C  C7  1  0.89901000  0.23414000  0.36397000  1.0 -0.0532563534
C  C8  1  0.55648000  0.56509000  0.36219000  1.0 0.567358315
C  C9  1  0.46799000  0.53805000  0.41621000  1.0 -0.0289858418
C  C10  1  0.50393000  0.44175000  0.45683000  1.0 -0.1353204548
C  C11  1  0.87080000  0.74353000  0.51893000  1.0 -0.1311924562
C  C12  1  0.32697000  0.64858000  0.48531000  1.0 -0.1311924562
C  C13  1  0.45307000  0.43759000  0.51495000  1.0 0.0815686261
C  C14  1  0.87412000  0.20394000  0.25413000  1.0 -0.0692240174
C  C15  1  0.87004000  0.03523000  0.25033000  1.0 -0.0692240174
C  C16  1  0.65892000  0.60588000  0.20322000  1.0 0.567358315
C  C17  1  0.61791000  0.60954000  0.13941000  1.0 -0.0209541246
C  C18  1  0.66635000  0.51202000  0.09853000  1.0 -0.1311924562
C  C19  1  0.38713000  0.65111000  0.43111000  1.0 -0.0888753832
C  C20  1  0.48690000  0.71259000  0.06193000  1.0 -0.1202199359
C  C21  1  0.62659000  0.51248000  0.03724000  1.0 0.0905165791
C  C22  1  0.90243000  0.06581000  0.36327000  1.0 -0.0692240174
C  C23  1  0.92593000  0.67224000  0.40710000  1.0 0.5602219055
C  C24  1  0.91509000  0.64987000  0.47117000  1.0 -0.009829958
C  C25  1  0.93853000  0.51150000  0.48586000  1.0 -0.1593649536
C  C26  1  0.10018000  0.76145000  0.14420000  1.0 -0.0999062956
C  C27  1  0.83037000  0.67708000  0.57003000  1.0 -0.0999062956
C  C28  1  0.91555000  0.45182000  0.54048000  1.0 0.0905165791
C  C29  1  0.64468000  0.16079000  0.29885000  1.0 -0.057963827
C  C30  1  0.64676000  0.98683000  0.30079000  1.0 -0.0999062956
C  C31  1  0.13500000  0.43470000  0.89467000  1.0 0.567358315
C  C32  1  0.11694000  0.45507000  0.96034000  1.0 -0.0289858418
C  C33  1  0.10565000  0.59401000  0.98814000  1.0 -0.1311924562
C  C34  1  0.63572000  0.41677000  0.93443000  1.0 -0.1311924562
C  C35  1  0.08950000  0.33774000  0.05595000  1.0 -0.1311924562
C  C36  1  0.10252000  0.60153000  0.05199000  1.0 0.0815686261
C  C37  1  0.36274000  0.88755000  0.79682000  1.0 -0.057963827
C  C38  1  0.35404000  0.05411000  0.79248000  1.0 -0.0692240174
C  C39  1  0.29259000  0.44713000  0.68407000  1.0 0.567358315
C  C40  1  0.34306000  0.44653000  0.62216000  1.0 -0.0209541246
C  C41  1  0.30938000  0.54719000  0.58401000  1.0 -0.1311924562
C  C42  1  0.95284000  0.27209000  0.61179000  1.0 -0.0999062956
C  C43  1  0.49285000  0.34146000  0.55621000  1.0 -0.1202199359
C  C44  1  0.35845000  0.54189000  0.52685000  1.0 0.0905165791
C  C45  1  0.10161000  0.83682000  0.82937000  1.0 -0.0692240174
C  C46  1  0.44498000  0.49170000  0.84878000  1.0 0.5835713893
C  C47  1  0.53081000  0.51126000  0.91362000  1.0 0.0067374939
C  C48  1  0.49139000  0.60977000  0.95634000  1.0 -0.1487324983
C  C49  1  0.43312000  0.34443000  0.60947000  1.0 -0.0888753832
C  C50  1  0.69585000  0.43530000  0.99330000  1.0 -0.1100152135
C  C51  1  0.53700000  0.61723000  0.01896000  1.0 0.0994941803
C  C52  1  0.13877000  0.81335000  0.72129000  1.0 -0.0783411413
C  C53  1  0.12389000  0.97844000  0.71702000  1.0 -0.057963827
C  C54  1  0.95237000  0.36641000  0.72166000  1.0 0.5602219055
C  C55  1  0.91229000  0.36535000  0.65677000  1.0 -0.0289858418
C  C56  1  0.84234000  0.48218000  0.64090000  1.0 -0.1311924562
C  C57  1  0.12066000  0.33359000  0.99672000  1.0 -0.0783411413
C  C58  1  0.95611000  0.31216000  0.55492000  1.0 -0.1311924562
C  C59  1  0.84498000  0.52792000  0.58262000  1.0 0.0815686261
C  C60  1  0.09127000  0.00158000  0.82293000  1.0 -0.0692240174
N  N1  1  0.81645000  0.97616000  0.30565000  1.0 -0.0532563534
N  N2  1  0.80955000  0.26084000  0.30731000  1.0 -0.0999062956
N  N3  1  0.18973000  0.07112000  0.77718000  1.0 -0.0783411413
N  N4  1  0.19734000  0.78654000  0.78328000  1.0 -0.0783411413
O  O1  1  0.66278000  0.47721000  0.22171000  1.0 -0.4978797764
O  O2  1  0.98368000  0.76245000  0.25905000  1.0 -0.5170286745
O  O3  1  0.94024000  0.55686000  0.37637000  1.0 -0.4978797764
O  O4  1  0.57780000  0.70057000  0.34582000  1.0 -0.4978797764
O  O5  1  0.61735000  0.45982000  0.33980000  1.0 -0.5549712032
O  O6  1  0.67027000  0.73085000  0.23714000  1.0 -0.4978797764
O  O7  1  0.97498000  0.50441000  0.25269000  1.0 -0.531694139
O  O8  1  0.89791000  0.79130000  0.38295000  1.0 -0.4892999083
O  O9  1  0.40353000  0.61182000  0.82957000  1.0 -0.531694139
O  O10  1  0.16593000  0.30896000  0.87309000  1.0 -0.5663933009
O  O11  1  0.97809000  0.49731000  0.75427000  1.0 -0.5082025776
O  O12  1  0.27370000  0.31590000  0.70501000  1.0 -0.531694139
O  O13  1  0.29257000  0.57795000  0.70986000  1.0 -0.5170286745
O  O14  1  0.41871000  0.36115000  0.81833000  1.0 -0.5082025776
O  O15  1  0.13084000  0.54961000  0.86586000  1.0 -0.4978797764
O  O16  1  0.97696000  0.24640000  0.74632000  1.0 -0.5082025776
