# DDEC6 charges by PACMAN v1.1 (https://github.com/mtap-research/PACMAN-charge/)
data_MIFNUM_ASR_pacman
_symmetry_space_group_name_H-M   'P 1'
_cell_length_a   32.89780000
_cell_length_b   32.89780000
_cell_length_c   32.89780000
_cell_angle_alpha   91.60110000
_cell_angle_beta   91.60110000
_cell_angle_gamma   160.75500000
_symmetry_Int_Tables_number   1
_chemical_formula_structural   Dy2CoH24C48(NO2)8
_chemical_formula_sum   'Dy16 Co8 H192 C384 N64 O128'
_cell_volume   11570.31180594
_cell_formula_units_Z   8
loop_
 _symmetry_equiv_pos_site_id
 _symmetry_equiv_pos_as_xyz
  1  'x, y, z'
loop_
 _atom_site_type_symbol
 _atom_site_label
 _atom_site_symmetry_multiplicity
 _atom_site_fract_x
 _atom_site_fract_y
 _atom_site_fract_z
 _atom_site_occupancy
 _atom_site_charge
Dy  Dy1  1  0.84081000  0.91935000  0.27656000  1.0 1.9938279987
Dy  Dy2  1  0.81425000  0.59081000  0.42146000  1.0 1.9938279987
Dy  Dy3  1  0.64279000  0.56425000  0.72344000  1.0 1.9938279987
Dy  Dy4  1  0.16935000  0.39279000  0.57854000  1.0 1.9938279987
Dy  Dy5  1  0.40919000  0.83065000  0.22344000  1.0 1.9938279987
Dy  Dy6  1  0.43575000  0.15919000  0.07854000  1.0 1.9828507135
Dy  Dy7  1  0.60721000  0.18575000  0.77656000  1.0 1.9938279987
Dy  Dy8  1  0.08065000  0.35721000  0.92146000  1.0 1.9938279987
Dy  Dy9  1  0.34090000  0.41554000  0.27444000  1.0 2.0281813869
Dy  Dy10  1  0.31646000  0.09090000  0.42536000  1.0 2.0281813869
Dy  Dy11  1  0.14110000  0.06646000  0.72556000  1.0 2.0281813869
Dy  Dy12  1  0.66554000  0.89110000  0.57464000  1.0 2.0281813869
Dy  Dy13  1  0.90910000  0.33446000  0.22556000  1.0 2.0281813869
Dy  Dy14  1  0.93354000  0.65910000  0.07464000  1.0 2.0281813869
Dy  Dy15  1  0.10890000  0.68354000  0.77444000  1.0 2.0281813869
Dy  Dy16  1  0.58446000  0.85890000  0.92536000  1.0 2.0281813869
Co  Co1  1  0.20695000  0.42077000  0.12146000  1.0 0.538364155
Co  Co2  1  0.33549000  0.95695000  0.28618000  1.0 0.538364155
Co  Co3  1  0.29931000  0.08549000  0.87854000  1.0 0.538364155
Co  Co4  1  0.67077000  0.04931000  0.71382000  1.0 0.538364155
Co  Co5  1  0.04305000  0.32923000  0.37854000  1.0 0.538364155
Co  Co6  1  0.91451000  0.79305000  0.21382000  1.0 0.538364155
Co  Co7  1  0.95069000  0.66451000  0.62146000  1.0 0.538364155
Co  Co8  1  0.57923000  0.70069000  0.78618000  1.0 0.538364155
H  H1  1  0.83520000  0.86440000  0.12320000  1.0 0.1315660959
H  H2  1  0.96200000  0.58520000  0.47080000  1.0 0.1315660959
H  H3  1  0.74120000  0.71200000  0.87680000  1.0 0.1315660959
H  H4  1  0.11440000  0.49120000  0.52920000  1.0 0.1315660959
H  H5  1  0.41480000  0.88560000  0.37680000  1.0 0.1315660959
H  H6  1  0.28800000  0.16480000  0.02920000  1.0 0.1315660959
H  H7  1  0.50880000  0.03800000  0.62320000  1.0 0.1315660959
H  H8  1  0.13560000  0.25880000  0.97080000  1.0 0.1315660959
H  H9  1  0.67000000  0.66210000  0.12050000  1.0 0.1391044198
H  H10  1  0.79950000  0.42000000  0.50790000  1.0 0.1391044198
H  H11  1  0.54160000  0.54950000  0.87950000  1.0 0.1391044198
H  H12  1  0.91210000  0.29160000  0.49210000  1.0 0.1391044198
H  H13  1  0.58000000  0.08790000  0.37950000  1.0 0.1391044198
H  H14  1  0.45050000  0.33000000  0.99210000  1.0 0.1391044198
H  H15  1  0.70840000  0.20050000  0.62050000  1.0 0.1391044198
H  H16  1  0.33790000  0.45840000  0.00790000  1.0 0.1391044198
H  H17  1  0.69270000  0.62930000  0.16220000  1.0 0.1202814328
H  H18  1  0.78050000  0.44270000  0.56340000  1.0 0.1202814328
H  H19  1  0.46710000  0.53050000  0.83780000  1.0 0.1202814328
H  H20  1  0.87930000  0.21710000  0.43660000  1.0 0.1202814328
H  H21  1  0.55730000  0.12070000  0.33780000  1.0 0.1202814328
H  H22  1  0.46950000  0.30730000  0.93660000  1.0 0.1202814328
H  H23  1  0.78290000  0.21950000  0.66220000  1.0 0.1202814328
H  H24  1  0.37070000  0.53290000  0.06340000  1.0 0.1202814328
H  H25  1  0.20520000  0.05940000  0.24900000  1.0 0.1021873558
H  H26  1  0.20620000  0.95520000  0.64580000  1.0 0.1021873558
H  H27  1  0.81040000  0.95620000  0.75100000  1.0 0.1021873558
H  H28  1  0.30940000  0.56040000  0.35420000  1.0 0.1021873558
H  H29  1  0.04480000  0.69060000  0.25100000  1.0 0.1021873558
H  H30  1  0.04380000  0.79480000  0.85420000  1.0 0.1021873558
H  H31  1  0.43960000  0.79380000  0.74900000  1.0 0.1021873558
H  H32  1  0.94060000  0.18960000  0.14580000  1.0 0.1021873558
H  H33  1  0.35190000  0.23990000  0.28740000  1.0 0.1391044198
H  H34  1  0.31450000  0.10190000  0.61200000  1.0 0.1391044198
H  H35  1  0.95250000  0.06450000  0.71260000  1.0 0.1391044198
H  H36  1  0.48990000  0.70250000  0.38800000  1.0 0.1391044198
H  H37  1  0.89810000  0.51010000  0.21260000  1.0 0.1391044198
H  H38  1  0.93550000  0.64810000  0.88800000  1.0 0.1391044198
H  H39  1  0.29750000  0.68550000  0.78740000  1.0 0.1391044198
H  H40  1  0.76010000  0.04750000  0.11200000  1.0 0.1391044198
H  H41  1  0.30493000  0.26540000  0.29373000  1.0 0.1315660959
H  H42  1  0.26120000  0.05493000  0.53953000  1.0 0.1315660959
H  H43  1  0.97167000  0.01120000  0.70627000  1.0 0.1315660959
H  H44  1  0.51540000  0.72167000  0.46047000  1.0 0.1315660959
H  H45  1  0.94507000  0.48460000  0.20627000  1.0 0.1315660959
H  H46  1  0.98880000  0.69507000  0.96047000  1.0 0.1315660959
H  H47  1  0.27833000  0.73880000  0.79373000  1.0 0.1315660959
H  H48  1  0.73460000  0.02833000  0.03953000  1.0 0.1315660959
H  H49  1  0.24190000  0.35780000  0.40470000  1.0 0.1391044198
H  H50  1  0.08720000  0.99190000  0.38410000  1.0 0.1391044198
H  H51  1  0.95310000  0.83720000  0.59530000  1.0 0.1391044198
H  H52  1  0.60780000  0.70310000  0.61590000  1.0 0.1391044198
H  H53  1  0.00810000  0.39220000  0.09530000  1.0 0.1391044198
H  H54  1  0.16280000  0.75810000  0.11590000  1.0 0.1391044198
H  H55  1  0.29690000  0.91280000  0.90470000  1.0 0.1391044198
H  H56  1  0.64220000  0.04690000  0.88410000  1.0 0.1391044198
H  H57  1  0.18770000  0.34340000  0.46170000  1.0 0.1492360711
H  H58  1  0.97600000  0.93770000  0.34430000  1.0 0.1492360711
H  H59  1  0.88170000  0.72600000  0.53830000  1.0 0.1492360711
H  H60  1  0.59340000  0.63170000  0.65570000  1.0 0.1492360711
H  H61  1  0.06230000  0.40660000  0.03830000  1.0 0.1492360711
H  H62  1  0.27400000  0.81230000  0.15570000  1.0 0.1492360711
H  H63  1  0.36830000  0.02400000  0.96170000  1.0 0.1492360711
H  H64  1  0.65660000  0.11830000  0.84430000  1.0 0.1492360711
H  H65  1  0.07410000  0.29640000  0.44990000  1.0 0.1103699157
H  H66  1  0.87420000  0.82410000  0.27770000  1.0 0.1103699157
H  H67  1  0.84650000  0.62420000  0.55010000  1.0 0.1103699157
H  H68  1  0.54640000  0.59650000  0.72230000  1.0 0.1103699157
H  H69  1  0.17590000  0.45360000  0.05010000  1.0 0.1103699157
H  H70  1  0.37580000  0.92590000  0.22230000  1.0 0.1103699157
H  H71  1  0.40350000  0.12580000  0.94990000  1.0 0.1103699157
H  H72  1  0.70360000  0.15350000  0.77770000  1.0 0.1103699157
H  H73  1  0.01580000  0.32460000  0.28140000  1.0 0.1202814328
H  H74  1  0.98440000  0.76580000  0.19120000  1.0 0.1202814328
H  H75  1  0.04320000  0.73440000  0.71860000  1.0 0.1202814328
H  H76  1  0.57460000  0.79320000  0.80880000  1.0 0.1202814328
H  H77  1  0.23420000  0.42540000  0.21860000  1.0 0.1202814328
H  H78  1  0.26560000  0.98420000  0.30880000  1.0 0.1202814328
H  H79  1  0.20680000  0.01560000  0.78140000  1.0 0.1202814328
H  H80  1  0.67540000  0.95680000  0.69120000  1.0 0.1202814328
H  H81  1  0.93510000  0.21300000  0.22130000  1.0 0.1315660959
H  H82  1  0.96380000  0.68510000  0.22210000  1.0 0.1315660959
H  H83  1  0.99170000  0.71380000  0.77870000  1.0 0.1315660959
H  H84  1  0.46300000  0.74170000  0.77790000  1.0 0.1315660959
H  H85  1  0.31490000  0.53700000  0.27870000  1.0 0.1315660959
H  H86  1  0.28620000  0.06490000  0.27790000  1.0 0.1315660959
H  H87  1  0.25830000  0.03620000  0.72130000  1.0 0.1315660959
H  H88  1  0.78700000  0.00830000  0.72210000  1.0 0.1315660959
H  H89  1  0.89620000  0.10730000  0.22310000  1.0 0.1315660959
H  H90  1  0.92310000  0.64620000  0.28890000  1.0 0.1315660959
H  H91  1  0.88420000  0.67310000  0.77690000  1.0 0.1315660959
H  H92  1  0.35730000  0.63420000  0.71110000  1.0 0.1315660959
H  H93  1  0.35380000  0.64270000  0.27690000  1.0 0.1315660959
H  H94  1  0.32690000  0.10380000  0.21110000  1.0 0.1315660959
H  H95  1  0.36580000  0.07690000  0.72310000  1.0 0.1315660959
H  H96  1  0.89270000  0.11580000  0.78890000  1.0 0.1315660959
H  H97  1  0.66460000  0.85370000  0.23230000  1.0 0.1202814328
H  H98  1  0.68230000  0.41460000  0.31090000  1.0 0.1202814328
H  H99  1  0.62140000  0.43230000  0.76770000  1.0 0.1202814328
H  H100  1  0.10370000  0.37140000  0.68910000  1.0 0.1202814328
H  H101  1  0.58540000  0.89630000  0.26770000  1.0 0.1202814328
H  H102  1  0.56770000  0.33540000  0.18910000  1.0 0.1202814328
H  H103  1  0.62860000  0.31770000  0.73230000  1.0 0.1202814328
H  H104  1  0.14630000  0.37860000  0.81090000  1.0 0.1202814328
H  H105  1  0.63180000  0.87610000  0.18830000  1.0 0.1315660959
H  H106  1  0.69350000  0.38180000  0.25570000  1.0 0.1315660959
H  H107  1  0.68780000  0.44350000  0.81170000  1.0 0.1315660959
H  H108  1  0.12610000  0.43780000  0.74430000  1.0 0.1315660959
H  H109  1  0.61820000  0.87390000  0.31170000  1.0 0.1315660959
H  H110  1  0.55650000  0.36820000  0.24430000  1.0 0.1315660959
H  H111  1  0.56220000  0.30650000  0.68830000  1.0 0.1315660959
H  H112  1  0.12390000  0.31220000  0.75570000  1.0 0.1315660959
H  H113  1  0.45780000  0.71150000  0.13790000  1.0 0.1103699157
H  H114  1  0.56990000  0.20780000  0.24630000  1.0 0.1103699157
H  H115  1  0.57360000  0.31990000  0.86210000  1.0 0.1103699157
H  H116  1  0.96150000  0.32360000  0.75370000  1.0 0.1103699157
H  H117  1  0.79220000  0.03850000  0.36210000  1.0 0.1103699157
H  H118  1  0.68010000  0.54220000  0.25370000  1.0 0.1103699157
H  H119  1  0.67640000  0.43010000  0.63790000  1.0 0.1103699157
H  H120  1  0.28850000  0.42640000  0.74630000  1.0 0.1103699157
H  H121  1  0.06820000  0.20470000  0.11050000  1.0 0.1202814328
H  H122  1  0.20770000  0.81820000  0.36350000  1.0 0.1202814328
H  H123  1  0.09420000  0.95770000  0.88950000  1.0 0.1202814328
H  H124  1  0.45470000  0.84420000  0.63650000  1.0 0.1202814328
H  H125  1  0.18180000  0.54530000  0.38950000  1.0 0.1202814328
H  H126  1  0.04230000  0.93180000  0.13650000  1.0 0.1202814328
H  H127  1  0.15580000  0.79230000  0.61050000  1.0 0.1202814328
H  H128  1  0.79530000  0.90580000  0.86350000  1.0 0.1202814328
H  H129  1  0.12870000  0.19750000  0.10080000  1.0 0.1391044198
H  H130  1  0.27790000  0.87870000  0.43120000  1.0 0.1391044198
H  H131  1  0.09670000  0.02790000  0.89920000  1.0 0.1391044198
H  H132  1  0.44750000  0.84670000  0.56880000  1.0 0.1391044198
H  H133  1  0.12130000  0.55250000  0.39920000  1.0 0.1391044198
H  H134  1  0.97210000  0.87130000  0.06880000  1.0 0.1391044198
H  H135  1  0.15330000  0.72210000  0.60080000  1.0 0.1391044198
H  H136  1  0.80250000  0.90330000  0.93120000  1.0 0.1391044198
H  H137  1  0.33660000  0.37600000  0.12040000  1.0 0.1391044198
H  H138  1  0.46620000  0.08660000  0.46060000  1.0 0.1391044198
H  H139  1  0.25560000  0.21620000  0.87960000  1.0 0.1391044198
H  H140  1  0.62600000  0.00560000  0.53940000  1.0 0.1391044198
H  H141  1  0.91340000  0.37400000  0.37960000  1.0 0.1391044198
H  H142  1  0.78380000  0.66340000  0.03940000  1.0 0.1391044198
H  H143  1  0.99440000  0.53380000  0.62040000  1.0 0.1391044198
H  H144  1  0.62400000  0.74440000  0.96060000  1.0 0.1391044198
H  H145  1  0.65960000  0.77100000  0.39740000  1.0 0.1103699157
H  H146  1  0.51220000  0.40960000  0.38860000  1.0 0.1103699157
H  H147  1  0.37360000  0.26220000  0.60260000  1.0 0.1103699157
H  H148  1  0.02100000  0.12360000  0.61140000  1.0 0.1103699157
H  H149  1  0.59040000  0.97900000  0.10260000  1.0 0.1103699157
H  H150  1  0.73780000  0.34040000  0.11140000  1.0 0.1103699157
H  H151  1  0.87640000  0.48780000  0.89740000  1.0 0.1103699157
H  H152  1  0.22900000  0.62640000  0.88860000  1.0 0.1103699157
H  H153  1  0.56500000  0.68020000  0.46080000  1.0 0.1202814328
H  H154  1  0.35420000  0.31500000  0.38480000  1.0 0.1202814328
H  H155  1  0.21940000  0.10420000  0.53920000  1.0 0.1202814328
H  H156  1  0.93020000  0.96940000  0.61520000  1.0 0.1202814328
H  H157  1  0.68500000  0.06980000  0.03920000  1.0 0.1202814328
H  H158  1  0.89580000  0.43500000  0.11520000  1.0 0.1202814328
H  H159  1  0.03060000  0.64580000  0.96080000  1.0 0.1202814328
H  H160  1  0.31980000  0.78060000  0.88480000  1.0 0.1202814328
H  H161  1  0.58270000  0.63040000  0.48750000  1.0 0.1021873558
H  H162  1  0.34520000  0.33270000  0.45230000  1.0 0.1021873558
H  H163  1  0.14290000  0.09520000  0.51250000  1.0 0.1021873558
H  H164  1  0.88040000  0.89290000  0.54770000  1.0 0.1021873558
H  H165  1  0.66730000  0.11960000  0.01250000  1.0 0.1021873558
H  H166  1  0.90480000  0.41730000  0.04770000  1.0 0.1021873558
H  H167  1  0.10710000  0.65480000  0.98750000  1.0 0.1021873558
H  H168  1  0.36960000  0.85710000  0.95230000  1.0 0.1021873558
H  H169  1  0.79050000  0.67330000  0.37940000  1.0 0.1202814328
H  H170  1  0.66110000  0.54050000  0.61720000  1.0 0.1202814328
H  H171  1  0.29390000  0.41110000  0.62060000  1.0 0.1202814328
H  H172  1  0.92330000  0.04390000  0.38280000  1.0 0.1202814328
H  H173  1  0.45950000  0.07670000  0.12060000  1.0 0.1202814328
H  H174  1  0.58890000  0.20950000  0.88280000  1.0 0.1202814328
H  H175  1  0.95610000  0.33890000  0.87940000  1.0 0.1202814328
H  H176  1  0.32670000  0.70610000  0.11720000  1.0 0.1202814328
H  H177  1  0.68220000  0.55870000  0.31890000  1.0 0.1202814328
H  H178  1  0.61330000  0.43220000  0.62350000  1.0 0.1202814328
H  H179  1  0.23980000  0.36330000  0.68110000  1.0 0.1202814328
H  H180  1  0.80870000  0.98980000  0.37650000  1.0 0.1202814328
H  H181  1  0.56780000  0.19130000  0.18110000  1.0 0.1202814328
H  H182  1  0.63670000  0.31780000  0.87650000  1.0 0.1202814328
H  H183  1  0.01020000  0.38670000  0.81890000  1.0 0.1202814328
H  H184  1  0.44130000  0.76020000  0.12350000  1.0 0.1202814328
H  H185  1  0.56760000  0.50490000  0.29170000  1.0 0.1202814328
H  H186  1  0.52590000  0.31760000  0.56270000  1.0 0.1202814328
H  H187  1  0.21320000  0.27590000  0.70830000  1.0 0.1202814328
H  H188  1  0.75490000  0.96320000  0.43730000  1.0 0.1202814328
H  H189  1  0.68240000  0.24510000  0.20830000  1.0 0.1202814328
H  H190  1  0.72410000  0.43240000  0.93730000  1.0 0.1202814328
H  H191  1  0.03680000  0.47410000  0.79170000  1.0 0.1202814328
H  H192  1  0.49510000  0.78680000  0.06270000  1.0 0.1202814328
C  C1  1  0.05750000  0.07700000  0.17110000  1.0 0.5589018295
C  C2  1  0.13640000  0.80750000  0.48050000  1.0 0.5589018295
C  C3  1  0.90590000  0.88640000  0.82890000  1.0 0.5589018295
C  C4  1  0.32700000  0.65590000  0.51950000  1.0 0.5589018295
C  C5  1  0.19250000  0.67300000  0.32890000  1.0 0.5589018295
C  C6  1  0.11360000  0.94250000  0.01950000  1.0 0.5589018295
C  C7  1  0.34410000  0.86360000  0.67110000  1.0 0.5589018295
C  C8  1  0.92300000  0.09410000  0.98050000  1.0 0.5589018295
C  C9  1  0.94970000  0.94500000  0.17010000  1.0 -0.0667989511
C  C10  1  0.02960000  0.69970000  0.50470000  1.0 -0.0667989511
C  C11  1  0.77490000  0.77960000  0.82990000  1.0 -0.0667989511
C  C12  1  0.19500000  0.52490000  0.49530000  1.0 -0.0667989511
C  C13  1  0.30030000  0.80500000  0.32990000  1.0 -0.0667989511
C  C14  1  0.22040000  0.05030000  0.99530000  1.0 -0.0667989511
C  C15  1  0.47510000  0.97040000  0.67010000  1.0 -0.0667989511
C  C16  1  0.05500000  0.22510000  0.00470000  1.0 -0.0667989511
C  C17  1  0.84140000  0.84860000  0.14080000  1.0 -0.0383009777
C  C18  1  0.95060000  0.59140000  0.49280000  1.0 -0.0383009777
C  C19  1  0.70780000  0.70060000  0.85920000  1.0 -0.0383009777
C  C20  1  0.09860000  0.45780000  0.50720000  1.0 -0.0346921945
C  C21  1  0.40860000  0.90140000  0.35920000  1.0 -0.0346921945
C  C22  1  0.29940000  0.15860000  0.00720000  1.0 -0.0346921945
C  C23  1  0.54220000  0.04940000  0.64080000  1.0 -0.0383009777
C  C24  1  0.15140000  0.29220000  0.99280000  1.0 -0.0383009777
C  C25  1  0.74400000  0.72860000  0.13900000  1.0 -0.1085712031
C  C26  1  0.85500000  0.49400000  0.51540000  1.0 -0.1085712031
C  C27  1  0.58960000  0.60500000  0.86100000  1.0 -0.1085712031
C  C28  1  0.97860000  0.33960000  0.48460000  1.0 -0.1085712031
C  C29  1  0.50600000  0.02140000  0.36100000  1.0 -0.1085712031
C  C30  1  0.39500000  0.25600000  0.98460000  1.0 -0.1085712031
C  C31  1  0.66040000  0.14500000  0.63900000  1.0 -0.1085712031
C  C32  1  0.27140000  0.41040000  0.01540000  1.0 -0.1085712031
C  C33  1  0.75790000  0.70950000  0.16440000  1.0 0.0705025216
C  C34  1  0.84350000  0.50790000  0.54840000  1.0 0.0705025216
C  C35  1  0.54510000  0.59350000  0.83560000  1.0 0.0705025216
C  C36  1  0.95950000  0.29510000  0.45160000  1.0 0.0705025216
C  C37  1  0.49210000  0.04050000  0.33560000  1.0 0.0705025216
C  C38  1  0.40650000  0.24210000  0.95160000  1.0 0.0705025216
C  C39  1  0.70490000  0.15650000  0.66440000  1.0 0.0705025216
C  C40  1  0.29050000  0.45490000  0.04840000  1.0 0.0705025216
C  C41  1  0.95560000  0.91740000  0.19540000  1.0 0.1391044198
C  C42  1  0.01020000  0.70560000  0.53820000  1.0 0.1391044198
C  C43  1  0.72200000  0.76020000  0.80460000  1.0 0.1391044198
C  C44  1  0.16740000  0.47200000  0.46180000  1.0 0.1391044198
C  C45  1  0.29440000  0.83260000  0.30460000  1.0 0.1391044198
C  C46  1  0.23980000  0.04440000  0.96180000  1.0 0.1391044198
C  C47  1  0.52800000  0.98980000  0.69540000  1.0 0.1391044198
C  C48  1  0.08260000  0.27800000  0.03820000  1.0 0.1391044198
C  C49  1  0.06960000  0.01380000  0.22540000  1.0 0.1696672569
C  C50  1  0.09420000  0.81960000  0.55580000  1.0 0.1696672569
C  C51  1  0.78840000  0.84420000  0.77460000  1.0 0.1696672569
C  C52  1  0.26380000  0.53840000  0.44420000  1.0 0.1696672569
C  C53  1  0.18040000  0.73620000  0.27460000  1.0 0.1696672569
C  C54  1  0.15580000  0.93040000  0.94420000  1.0 0.1696672569
C  C55  1  0.46160000  0.90580000  0.72540000  1.0 0.1696672569
C  C56  1  0.98620000  0.21160000  0.05580000  1.0 0.1696672569
C  C57  1  0.19150000  0.07440000  0.24910000  1.0 0.0705025216
C  C58  1  0.19240000  0.94150000  0.61710000  1.0 0.0705025216
C  C59  1  0.82530000  0.94240000  0.75090000  1.0 0.0705025216
C  C60  1  0.32440000  0.57530000  0.38290000  1.0 0.0705025216
C  C61  1  0.05850000  0.67560000  0.25090000  1.0 0.0705025216
C  C62  1  0.05760000  0.80850000  0.88290000  1.0 0.0705025216
C  C63  1  0.42470000  0.80760000  0.74910000  1.0 0.0705025216
C  C64  1  0.92560000  0.17470000  0.11710000  1.0 0.0705025216
C  C65  1  0.27790000  0.18070000  0.27340000  1.0 -0.1509932182
C  C66  1  0.25450000  0.02790000  0.59720000  1.0 -0.1509932182
C  C67  1  0.90730000  0.00450000  0.72660000  1.0 -0.1509932182
C  C68  1  0.43070000  0.65730000  0.40280000  1.0 -0.1509932182
C  C69  1  0.97210000  0.56930000  0.22660000  1.0 -0.1509932182
C  C70  1  0.99550000  0.72210000  0.90280000  1.0 -0.1509932182
C  C71  1  0.34270000  0.74550000  0.77340000  1.0 -0.1509932182
C  C72  1  0.81930000  0.09270000  0.09720000  1.0 -0.1509932182
C  C73  1  0.25120000  0.19740000  0.27640000  1.0 -0.0383009777
C  C74  1  0.22480000  0.00120000  0.55380000  1.0 -0.0383009777
C  C75  1  0.92100000  0.97480000  0.72360000  1.0 -0.0383009777
C  C76  1  0.44740000  0.67100000  0.44620000  1.0 -0.0383009777
C  C77  1  0.99880000  0.55260000  0.22360000  1.0 -0.0383009777
C  C78  1  0.02520000  0.74880000  0.94620000  1.0 -0.0383009777
C  C79  1  0.32900000  0.77520000  0.77640000  1.0 -0.0383009777
C  C80  1  0.80260000  0.07900000  0.05380000  1.0 -0.0383009777
C  C81  1  0.14230000  0.10950000  0.25260000  1.0 -0.1032894273
C  C82  1  0.13970000  0.89230000  0.53280000  1.0 -0.1032894273
C  C83  1  0.85690000  0.88970000  0.74740000  1.0 -0.1032894273
C  C84  1  0.35950000  0.60690000  0.46720000  1.0 -0.1032894273
C  C85  1  0.10770000  0.64050000  0.24740000  1.0 -0.1032894273
C  C86  1  0.11030000  0.85770000  0.96720000  1.0 -0.1032894273
C  C87  1  0.39310000  0.86030000  0.75260000  1.0 -0.1032894273
C  C88  1  0.89050000  0.14310000  0.03280000  1.0 -0.1032894273
C  C89  1  0.10500000  0.11760000  0.26120000  1.0 0.6799747216
C  C90  1  0.09380000  0.85500000  0.48740000  1.0 0.6799747216
C  C91  1  0.85640000  0.84380000  0.73880000  1.0 0.6799747216
C  C92  1  0.36760000  0.60640000  0.51260000  1.0 0.6799747216
C  C93  1  0.14500000  0.63240000  0.23880000  1.0 0.6799747216
C  C94  1  0.15620000  0.89500000  0.01260000  1.0 0.6799747216
C  C95  1  0.39360000  0.90620000  0.76120000  1.0 0.6799747216
C  C96  1  0.88240000  0.14360000  0.98740000  1.0 0.6799747216
C  C97  1  0.21300000  0.35010000  0.32630000  1.0 0.5706720829
C  C98  1  0.13670000  0.96300000  0.36290000  1.0 0.5706720829
C  C99  1  0.02380000  0.88670000  0.67370000  1.0 0.5706720829
C  C100  1  0.60010000  0.77380000  0.63710000  1.0 0.5706720829
C  C101  1  0.03700000  0.39990000  0.17370000  1.0 0.5706720829
C  C102  1  0.11330000  0.78700000  0.13710000  1.0 0.5706720829
C  C103  1  0.22620000  0.86330000  0.82630000  1.0 0.5706720829
C  C104  1  0.64990000  0.97620000  0.86290000  1.0 0.5706720829
C  C105  1  0.15680000  0.31650000  0.36170000  1.0 -0.0572851446
C  C106  1  0.04510000  0.90680000  0.34030000  1.0 -0.0572851446
C  C107  1  0.95480000  0.79510000  0.63830000  1.0 -0.0572851446
C  C108  1  0.56650000  0.70480000  0.65970000  1.0 -0.0572851446
C  C109  1  0.09320000  0.43350000  0.13830000  1.0 -0.0572851446
C  C110  1  0.20490000  0.84320000  0.15970000  1.0 -0.0572851446
C  C111  1  0.29520000  0.95490000  0.86170000  1.0 -0.0572851446
C  C112  1  0.68350000  0.04520000  0.84030000  1.0 -0.0572851446
C  C113  1  0.19600000  0.33830000  0.40110000  1.0 -0.0572851446
C  C114  1  0.04490000  0.94600000  0.35770000  1.0 -0.0572851446
C  C115  1  0.93720000  0.79490000  0.59890000  1.0 -0.0572851446
C  C116  1  0.58830000  0.68720000  0.64230000  1.0 -0.0572851446
C  C117  1  0.05400000  0.41170000  0.09890000  1.0 -0.0572851446
C  C118  1  0.20510000  0.80400000  0.14230000  1.0 -0.0572851446
C  C119  1  0.31280000  0.95510000  0.90110000  1.0 -0.0572851446
C  C120  1  0.66170000  0.06280000  0.85770000  1.0 -0.0572851446
C  C121  1  0.16380000  0.32980000  0.43500000  1.0 -0.1085712031
C  C122  1  0.97880000  0.91380000  0.33400000  1.0 -0.1085712031
C  C123  1  0.89480000  0.72880000  0.56500000  1.0 -0.1085712031
C  C124  1  0.57980000  0.64480000  0.66600000  1.0 -0.1085712031
C  C125  1  0.08620000  0.42020000  0.06500000  1.0 -0.1085712031
C  C126  1  0.27120000  0.83620000  0.16600000  1.0 -0.1085712031
C  C127  1  0.35520000  0.02120000  0.93500000  1.0 -0.1085712031
C  C128  1  0.67020000  0.10520000  0.83400000  1.0 -0.1085712031
C  C129  1  0.09360000  0.30000000  0.42740000  1.0 0.1315660959
C  C130  1  0.91620000  0.84360000  0.29360000  1.0 0.1315660959
C  C131  1  0.87260000  0.66620000  0.57260000  1.0 0.1315660959
C  C132  1  0.55000000  0.62260000  0.70640000  1.0 0.1315660959
C  C133  1  0.15640000  0.45000000  0.07260000  1.0 0.1315660959
C  C134  1  0.33380000  0.90640000  0.20640000  1.0 0.1315660959
C  C135  1  0.37740000  0.08380000  0.92740000  1.0 0.1315660959
C  C136  1  0.70000000  0.12740000  0.79360000  1.0 0.1315660959
C  C137  1  0.08160000  0.28000000  0.35740000  1.0 0.1103699157
C  C138  1  0.97420000  0.83160000  0.30160000  1.0 0.1103699157
C  C139  1  0.92260000  0.72420000  0.64260000  1.0 0.1103699157
C  C140  1  0.53000000  0.67260000  0.69840000  1.0 0.1103699157
C  C141  1  0.16840000  0.47000000  0.14260000  1.0 0.1103699157
C  C142  1  0.27580000  0.91840000  0.19840000  1.0 0.1103699157
C  C143  1  0.32740000  0.02580000  0.85740000  1.0 0.1103699157
C  C144  1  0.72000000  0.07740000  0.80160000  1.0 0.1103699157
C  C145  1  0.03060000  0.24990000  0.31810000  1.0 0.1612384895
C  C146  1  0.96250000  0.78060000  0.28070000  1.0 0.1612384895
C  C147  1  0.93180000  0.71250000  0.68190000  1.0 0.1612384895
C  C148  1  0.49990000  0.68180000  0.71930000  1.0 0.1612384895
C  C149  1  0.21940000  0.50010000  0.18190000  1.0 0.1612384895
C  C150  1  0.28750000  0.96940000  0.21930000  1.0 0.1612384895
C  C151  1  0.31820000  0.03750000  0.81810000  1.0 0.1612384895
C  C152  1  0.75010000  0.06820000  0.78070000  1.0 0.1612384895
C  C153  1  0.00680000  0.28810000  0.28150000  1.0 0.0775370559
C  C154  1  0.97530000  0.75680000  0.21870000  1.0 0.0775370559
C  C155  1  0.00660000  0.72530000  0.71850000  1.0 0.0775370559
C  C156  1  0.53810000  0.75660000  0.78130000  1.0 0.0775370559
C  C157  1  0.24320000  0.46190000  0.21850000  1.0 0.0775370559
C  C158  1  0.27470000  0.99320000  0.28130000  1.0 0.0775370559
C  C159  1  0.24340000  0.02470000  0.78150000  1.0 0.0775370559
C  C160  1  0.71190000  0.99340000  0.71870000  1.0 0.0775370559
C  C161  1  0.95540000  0.21850000  0.24590000  1.0 -0.1236692296
C  C162  1  0.95950000  0.70540000  0.23690000  1.0 -0.1236692296
C  C163  1  0.97260000  0.70950000  0.75410000  1.0 -0.1236692296
C  C164  1  0.46850000  0.72260000  0.76310000  1.0 -0.1236692296
C  C165  1  0.29460000  0.53150000  0.25410000  1.0 -0.1236692296
C  C166  1  0.29050000  0.04460000  0.26310000  1.0 -0.1236692296
C  C167  1  0.27740000  0.04050000  0.74590000  1.0 -0.1236692296
C  C168  1  0.78150000  0.02740000  0.73690000  1.0 -0.1236692296
C  C169  1  0.93430000  0.15730000  0.24680000  1.0 -0.0795081302
C  C170  1  0.93750000  0.68430000  0.27700000  1.0 -0.0795081302
C  C171  1  0.91050000  0.68750000  0.75320000  1.0 -0.0795081302
C  C172  1  0.40730000  0.66050000  0.72300000  1.0 -0.0795081302
C  C173  1  0.31570000  0.59270000  0.25320000  1.0 -0.0795081302
C  C174  1  0.31250000  0.06570000  0.22300000  1.0 -0.0795081302
C  C175  1  0.33950000  0.06250000  0.74680000  1.0 -0.0795081302
C  C176  1  0.84270000  0.08950000  0.77700000  1.0 -0.0795081302
C  C177  1  0.96950000  0.17020000  0.28250000  1.0 -0.0498466135
C  C178  1  0.93700000  0.71950000  0.29930000  1.0 -0.0498466135
C  C179  1  0.88770000  0.68700000  0.71750000  1.0 -0.0498466135
C  C180  1  0.42020000  0.63770000  0.70070000  1.0 -0.0498466135
C  C181  1  0.28050000  0.57980000  0.21750000  1.0 -0.0498466135
C  C182  1  0.31300000  0.03050000  0.20070000  1.0 -0.0498466135
C  C183  1  0.36230000  0.06300000  0.78250000  1.0 -0.0498466135
C  C184  1  0.82980000  0.11230000  0.79930000  1.0 -0.0498466135
C  C185  1  0.92930000  0.08750000  0.28560000  1.0 0.5589018295
C  C186  1  0.89370000  0.67930000  0.34180000  1.0 0.5589018295
C  C187  1  0.80190000  0.64370000  0.71440000  1.0 0.5589018295
C  C188  1  0.33750000  0.55190000  0.65820000  1.0 0.5589018295
C  C189  1  0.32070000  0.66250000  0.21440000  1.0 0.5589018295
C  C190  1  0.35630000  0.07070000  0.15820000  1.0 0.5589018295
C  C191  1  0.44810000  0.10630000  0.78560000  1.0 0.5589018295
C  C192  1  0.91250000  0.19810000  0.84180000  1.0 0.5589018295
C  C193  1  0.54090000  0.66710000  0.23240000  1.0 0.6799747216
C  C194  1  0.55850000  0.29090000  0.37380000  1.0 0.6799747216
C  C195  1  0.43470000  0.30850000  0.76760000  1.0 0.6799747216
C  C196  1  0.91710000  0.18470000  0.62620000  1.0 0.6799747216
C  C197  1  0.70910000  0.08290000  0.26760000  1.0 0.6799747216
C  C198  1  0.69150000  0.45910000  0.12620000  1.0 0.6799747216
C  C199  1  0.81530000  0.44150000  0.73240000  1.0 0.6799747216
C  C200  1  0.33290000  0.56530000  0.87380000  1.0 0.6799747216
C  C201  1  0.52360000  0.68290000  0.20190000  1.0 -0.1426567549
C  C202  1  0.57170000  0.27360000  0.34070000  1.0 -0.1426567549
C  C203  1  0.48100000  0.32170000  0.79810000  1.0 -0.1426567549
C  C204  1  0.93290000  0.23100000  0.65930000  1.0 -0.1426567549
C  C205  1  0.72640000  0.06710000  0.29810000  1.0 -0.1426567549
C  C206  1  0.67830000  0.47640000  0.15930000  1.0 -0.1426567549
C  C207  1  0.76900000  0.42830000  0.70190000  1.0 -0.1426567549
C  C208  1  0.31710000  0.51900000  0.84070000  1.0 -0.1426567549
C  C209  1  0.60020000  0.79160000  0.20980000  1.0 -0.0498466135
C  C210  1  0.64040000  0.35020000  0.30860000  1.0 -0.0498466135
C  C211  1  0.58180000  0.39040000  0.79020000  1.0 -0.0498466135
C  C212  1  0.04160000  0.33180000  0.69140000  1.0 -0.0498466135
C  C213  1  0.64980000  0.95840000  0.29020000  1.0 -0.0498466135
C  C214  1  0.60960000  0.39980000  0.19140000  1.0 -0.0498466135
C  C215  1  0.66820000  0.35960000  0.70980000  1.0 -0.0498466135
C  C216  1  0.20840000  0.41820000  0.80860000  1.0 -0.0498466135
C  C217  1  0.57860000  0.80340000  0.18440000  1.0 -0.1509932182
C  C218  1  0.64420000  0.32860000  0.27520000  1.0 -0.1509932182
C  C219  1  0.61900000  0.39420000  0.81560000  1.0 -0.1509932182
C  C220  1  0.05340000  0.36900000  0.72480000  1.0 -0.1509932182
C  C221  1  0.67140000  0.94660000  0.31560000  1.0 -0.1509932182
C  C222  1  0.60580000  0.42140000  0.22480000  1.0 -0.1509932182
C  C223  1  0.63100000  0.35580000  0.68440000  1.0 -0.1509932182
C  C224  1  0.19660000  0.38100000  0.77520000  1.0 -0.1509932182
C  C225  1  0.47760000  0.70700000  0.15300000  1.0 0.0541820898
C  C226  1  0.57460000  0.22760000  0.27060000  1.0 0.0541820898
C  C227  1  0.55400000  0.32460000  0.84700000  1.0 0.0541820898
C  C228  1  0.95700000  0.30400000  0.72940000  1.0 0.0541820898
C  C229  1  0.77240000  0.04300000  0.34700000  1.0 0.0541820898
C  C230  1  0.67540000  0.52240000  0.22940000  1.0 0.0541820898
C  C231  1  0.69600000  0.42540000  0.65300000  1.0 0.0541820898
C  C232  1  0.29300000  0.44600000  0.77060000  1.0 0.0541820898
C  C233  1  0.43360000  0.59810000  0.16690000  1.0 0.1696672569
C  C234  1  0.51670000  0.18360000  0.33550000  1.0 0.1696672569
C  C235  1  0.43120000  0.26670000  0.83310000  1.0 0.1696672569
C  C236  1  0.84810000  0.18120000  0.66450000  1.0 0.1696672569
C  C237  1  0.81640000  0.15190000  0.33310000  1.0 0.1696672569
C  C238  1  0.73330000  0.56640000  0.16450000  1.0 0.1696672569
C  C239  1  0.81880000  0.48330000  0.66690000  1.0 0.1696672569
C  C240  1  0.40190000  0.56880000  0.83550000  1.0 0.1696672569
C  C241  1  0.35250000  0.48570000  0.14920000  1.0 0.1492360711
C  C242  1  0.45330000  0.10250000  0.36680000  1.0 0.1492360711
C  C243  1  0.33650000  0.20330000  0.85080000  1.0 0.1492360711
C  C244  1  0.73570000  0.08650000  0.63320000  1.0 0.1492360711
C  C245  1  0.89750000  0.26430000  0.35080000  1.0 0.1492360711
C  C246  1  0.79670000  0.64750000  0.13320000  1.0 0.1492360711
C  C247  1  0.91350000  0.54670000  0.64920000  1.0 0.1492360711
C  C248  1  0.51430000  0.66350000  0.86680000  1.0 0.1492360711
C  C249  1  0.15180000  0.27710000  0.11910000  1.0 0.0639694946
C  C250  1  0.28270000  0.90180000  0.37470000  1.0 0.0639694946
C  C251  1  0.15800000  0.03270000  0.88090000  1.0 0.0639694946
C  C252  1  0.52710000  0.90800000  0.62530000  1.0 0.0639694946
C  C253  1  0.09820000  0.47290000  0.38090000  1.0 0.0639694946
C  C254  1  0.96730000  0.84820000  0.12530000  1.0 0.0639694946
C  C255  1  0.09200000  0.71730000  0.61910000  1.0 0.0639694946
C  C256  1  0.72290000  0.84200000  0.87470000  1.0 0.0639694946
C  C257  1  0.18690000  0.27170000  0.11300000  1.0 -0.1085712031
C  C258  1  0.32390000  0.93690000  0.41520000  1.0 -0.1085712031
C  C259  1  0.15870000  0.07390000  0.88700000  1.0 -0.1085712031
C  C260  1  0.52170000  0.90870000  0.58480000  1.0 -0.1085712031
C  C261  1  0.06310000  0.47830000  0.38700000  1.0 -0.1085712031
C  C262  1  0.92610000  0.81310000  0.08480000  1.0 -0.1085712031
C  C263  1  0.09130000  0.67610000  0.61300000  1.0 -0.1085712031
C  C264  1  0.72830000  0.84130000  0.91520000  1.0 -0.1085712031
C  C265  1  0.31010000  0.37740000  0.12510000  1.0 -0.0383009777
C  C266  1  0.43500000  0.06010000  0.43270000  1.0 -0.0383009777
C  C267  1  0.25230000  0.18500000  0.87490000  1.0 -0.0383009777
C  C268  1  0.62740000  0.00230000  0.56730000  1.0 -0.0383009777
C  C269  1  0.93990000  0.37260000  0.37490000  1.0 -0.0383009777
C  C270  1  0.81500000  0.68990000  0.06730000  1.0 -0.0383009777
C  C271  1  0.99770000  0.56500000  0.62510000  1.0 -0.0383009777
C  C272  1  0.62260000  0.74770000  0.93270000  1.0 -0.0383009777
C  C273  1  0.39240000  0.48360000  0.14400000  1.0 -0.0795081302
C  C274  1  0.49840000  0.14240000  0.40880000  1.0 -0.0795081302
C  C275  1  0.33960000  0.24840000  0.85600000  1.0 -0.0795081302
C  C276  1  0.73360000  0.08960000  0.59120000  1.0 -0.0795081302
C  C277  1  0.85760000  0.26640000  0.35600000  1.0 -0.0795081302
C  C278  1  0.75160000  0.60760000  0.09120000  1.0 -0.0795081302
C  C279  1  0.91040000  0.50160000  0.64400000  1.0 -0.0795081302
C  C280  1  0.51640000  0.66040000  0.90880000  1.0 -0.0795081302
C  C281  1  0.52620000  0.59810000  0.15870000  1.0 0.5706720829
C  C282  1  0.61750000  0.27620000  0.42810000  1.0 0.5706720829
C  C283  1  0.43940000  0.36750000  0.84130000  1.0 0.5706720829
C  C284  1  0.84810000  0.18940000  0.57190000  1.0 0.5706720829
C  C285  1  0.72380000  0.15190000  0.34130000  1.0 0.5706720829
C  C286  1  0.63250000  0.47380000  0.07190000  1.0 0.5706720829
C  C287  1  0.81060000  0.38250000  0.65870000  1.0 0.5706720829
C  C288  1  0.40190000  0.56060000  0.92810000  1.0 0.5706720829
C  C289  1  0.74810000  0.80190000  0.34780000  1.0 0.5706720829
C  C290  1  0.65030000  0.49810000  0.44620000  1.0 0.5706720829
C  C291  1  0.45410000  0.40030000  0.65220000  1.0 0.5706720829
C  C292  1  0.05190000  0.20410000  0.55380000  1.0 0.5706720829
C  C293  1  0.50190000  0.94810000  0.15220000  1.0 0.5706720829
C  C294  1  0.59970000  0.25190000  0.05380000  1.0 0.5706720829
C  C295  1  0.79590000  0.34970000  0.84780000  1.0 0.5706720829
C  C296  1  0.19810000  0.54590000  0.94620000  1.0 0.5706720829
C  C297  1  0.68310000  0.73270000  0.38760000  1.0 -0.0870795339
C  C298  1  0.54550000  0.43310000  0.45040000  1.0 -0.0870795339
C  C299  1  0.34510000  0.29550000  0.61240000  1.0 -0.0870795339
C  C300  1  0.98270000  0.09510000  0.54960000  1.0 -0.0870795339
C  C301  1  0.56690000  0.01730000  0.11240000  1.0 -0.0870795339
C  C302  1  0.70450000  0.31690000  0.04960000  1.0 -0.0870795339
C  C303  1  0.90490000  0.45450000  0.88760000  1.0 -0.0870795339
C  C304  1  0.26730000  0.65490000  0.95040000  1.0 -0.0870795339
C  C305  1  0.64820000  0.73530000  0.40910000  1.0 -0.0089374785
C  C306  1  0.48910000  0.39820000  0.41290000  1.0 -0.0089374785
C  C307  1  0.32620000  0.23910000  0.59090000  1.0 -0.0089374785
C  C308  1  0.98530000  0.07620000  0.58710000  1.0 -0.0089374785
C  C309  1  0.60180000  0.01470000  0.09090000  1.0 -0.0089374785
C  C310  1  0.76090000  0.35180000  0.08710000  1.0 -0.0089374785
C  C311  1  0.92380000  0.51090000  0.90910000  1.0 -0.0089374785
C  C312  1  0.26470000  0.67380000  0.91290000  1.0 -0.0089374785
C  C313  1  0.59540000  0.68650000  0.44790000  1.0 -0.1509932182
C  C314  1  0.39750000  0.34540000  0.40890000  1.0 -0.1509932182
C  C315  1  0.23860000  0.14750000  0.55210000  1.0 -0.1509932182
C  C316  1  0.93650000  0.98860000  0.59110000  1.0 -0.1509932182
C  C317  1  0.65460000  0.06350000  0.05210000  1.0 -0.1509932182
C  C318  1  0.85250000  0.40460000  0.09110000  1.0 -0.1509932182
C  C319  1  0.01140000  0.60250000  0.94790000  1.0 -0.1509932182
C  C320  1  0.31350000  0.76140000  0.90890000  1.0 -0.1509932182
C  C321  1  0.60150000  0.65190000  0.46120000  1.0 0.0705025216
C  C322  1  0.39030000  0.35150000  0.44960000  1.0 0.0705025216
C  C323  1  0.19070000  0.14030000  0.53880000  1.0 0.0705025216
C  C324  1  0.90190000  0.94070000  0.55040000  1.0 0.0705025216
C  C325  1  0.64850000  0.09810000  0.03880000  1.0 0.0705025216
C  C326  1  0.85970000  0.39850000  0.05040000  1.0 0.0705025216
C  C327  1  0.05930000  0.60970000  0.96120000  1.0 0.0705025216
C  C328  1  0.34810000  0.80930000  0.94960000  1.0 0.0705025216
C  C329  1  0.65730000  0.67230000  0.40160000  1.0 0.1492360711
C  C330  1  0.50570000  0.40730000  0.48500000  1.0 0.1492360711
C  C331  1  0.27070000  0.25570000  0.59840000  1.0 0.1492360711
C  C332  1  0.92230000  0.02070000  0.51500000  1.0 0.1492360711
C  C333  1  0.59270000  0.07770000  0.09840000  1.0 0.1492360711
C  C334  1  0.74430000  0.34270000  0.01500000  1.0 0.1492360711
C  C335  1  0.97930000  0.49430000  0.90160000  1.0 0.1492360711
C  C336  1  0.32770000  0.72930000  0.98500000  1.0 0.1492360711
C  C337  1  0.67440000  0.65140000  0.37720000  1.0 0.1202814328
C  C338  1  0.54720000  0.42440000  0.52300000  1.0 0.1202814328
C  C339  1  0.27420000  0.29720000  0.62280000  1.0 0.1202814328
C  C340  1  0.90140000  0.02420000  0.47700000  1.0 0.1202814328
C  C341  1  0.57560000  0.09860000  0.12280000  1.0 0.1202814328
C  C342  1  0.70280000  0.32560000  0.97700000  1.0 0.1202814328
C  C343  1  0.97580000  0.45280000  0.87720000  1.0 0.1202814328
C  C344  1  0.34860000  0.72580000  0.02300000  1.0 0.1202814328
C  C345  1  0.74300000  0.65030000  0.36830000  1.0 0.0136404146
C  C346  1  0.62470000  0.49300000  0.59270000  1.0 0.0136404146
C  C347  1  0.28200000  0.37470000  0.63170000  1.0 0.0136404146
C  C348  1  0.90030000  0.03200000  0.40730000  1.0 0.0136404146
C  C349  1  0.50700000  0.09970000  0.13170000  1.0 0.0136404146
C  C350  1  0.62530000  0.25700000  0.90730000  1.0 0.0136404146
C  C351  1  0.96800000  0.37530000  0.86830000  1.0 0.0136404146
C  C352  1  0.34970000  0.71800000  0.09270000  1.0 0.0136404146
C  C353  1  0.68050000  0.58210000  0.33260000  1.0 -0.1426567549
C  C354  1  0.59790000  0.43050000  0.59840000  1.0 -0.1426567549
C  C355  1  0.24950000  0.34790000  0.66740000  1.0 -0.1426567549
C  C356  1  0.83210000  0.99950000  0.40160000  1.0 -0.1426567549
C  C357  1  0.56950000  0.16790000  0.16740000  1.0 -0.1426567549
C  C358  1  0.65210000  0.31950000  0.90160000  1.0 -0.1426567549
C  C359  1  0.00050000  0.40210000  0.83260000  1.0 -0.1426567549
C  C360  1  0.41790000  0.75050000  0.09840000  1.0 -0.1426567549
C  C361  1  0.61240000  0.54980000  0.31840000  1.0 -0.1085712031
C  C362  1  0.54400000  0.36240000  0.56260000  1.0 -0.1085712031
C  C363  1  0.23140000  0.29400000  0.68160000  1.0 -0.1085712031
C  C364  1  0.79980000  0.98140000  0.43740000  1.0 -0.1085712031
C  C365  1  0.63760000  0.20020000  0.18160000  1.0 -0.1085712031
C  C366  1  0.70600000  0.38760000  0.93740000  1.0 -0.1085712031
C  C367  1  0.01860000  0.45600000  0.81840000  1.0 -0.1085712031
C  C368  1  0.45020000  0.76860000  0.06260000  1.0 -0.1085712031
C  C369  1  0.60140000  0.57700000  0.33960000  1.0 -0.0870795339
C  C370  1  0.51180000  0.35140000  0.52440000  1.0 -0.0795081302
C  C371  1  0.23740000  0.26180000  0.66040000  1.0 -0.0870795339
C  C372  1  0.82700000  0.98740000  0.47560000  1.0 -0.0870795339
C  C373  1  0.64860000  0.17300000  0.16040000  1.0 -0.0795081302
C  C374  1  0.73820000  0.39860000  0.97560000  1.0 -0.0870795339
C  C375  1  0.01260000  0.48820000  0.83960000  1.0 -0.0870795339
C  C376  1  0.42300000  0.76260000  0.02440000  1.0 -0.0795081302
C  C377  1  0.51040000  0.52090000  0.32010000  1.0 0.5501017401
C  C378  1  0.44030000  0.26040000  0.48950000  1.0 0.5501017401
C  C379  1  0.20080000  0.19030000  0.67990000  1.0 0.5501017401
C  C380  1  0.77090000  0.95080000  0.51050000  1.0 0.5501017401
C  C381  1  0.73960000  0.22910000  0.17990000  1.0 0.5501017401
C  C382  1  0.80970000  0.48960000  0.01050000  1.0 0.5501017401
C  C383  1  0.04920000  0.55970000  0.82010000  1.0 0.5501017401
C  C384  1  0.47910000  0.79920000  0.98950000  1.0 0.5501017401
N  N1  1  0.05590000  0.27770000  0.39160000  1.0 -0.2486302801
N  N2  1  0.91430000  0.80590000  0.27820000  1.0 -0.2486302801
N  N3  1  0.88610000  0.66430000  0.60840000  1.0 -0.2486302801
N  N4  1  0.52770000  0.63610000  0.72180000  1.0 -0.2486302801
N  N5  1  0.19410000  0.47230000  0.10840000  1.0 -0.2486302801
N  N6  1  0.33570000  0.94410000  0.22180000  1.0 -0.2486302801
N  N7  1  0.36390000  0.08570000  0.89160000  1.0 -0.2486302801
N  N8  1  0.72230000  0.11390000  0.77820000  1.0 -0.2486302801
N  N9  1  0.04430000  0.30320000  0.31670000  1.0 -0.2486302801
N  N10  1  0.97760000  0.79430000  0.24110000  1.0 -0.2486302801
N  N11  1  0.98650000  0.72760000  0.68330000  1.0 -0.2486302801
N  N12  1  0.55320000  0.73650000  0.75890000  1.0 -0.2486302801
N  N13  1  0.20570000  0.44680000  0.18330000  1.0 -0.2486302801
N  N14  1  0.27240000  0.95570000  0.25890000  1.0 -0.2486302801
N  N15  1  0.26350000  0.02240000  0.81670000  1.0 -0.2486302801
N  N16  1  0.69680000  0.01350000  0.74110000  1.0 -0.2486302801
N  N17  1  0.40470000  0.60380000  0.14330000  1.0 -0.267090204
N  N18  1  0.51140000  0.15470000  0.30090000  1.0 -0.267090204
N  N19  1  0.46050000  0.26140000  0.85670000  1.0 -0.267090204
N  N20  1  0.85380000  0.21050000  0.69910000  1.0 -0.267090204
N  N21  1  0.84530000  0.14620000  0.35670000  1.0 -0.267090204
N  N22  1  0.73860000  0.59530000  0.19910000  1.0 -0.267090204
N  N23  1  0.78950000  0.48860000  0.64330000  1.0 -0.267090204
N  N24  1  0.39620000  0.53950000  0.80090000  1.0 -0.267090204
N  N25  1  0.22990000  0.38110000  0.13680000  1.0 -0.258641884
N  N26  1  0.34310000  0.97990000  0.34880000  1.0 -0.258641884
N  N27  1  0.24430000  0.09310000  0.86320000  1.0 -0.258641884
N  N28  1  0.63110000  0.99430000  0.65120000  1.0 -0.258641884
N  N29  1  0.02010000  0.36890000  0.36320000  1.0 -0.258641884
N  N30  1  0.90690000  0.77010000  0.15120000  1.0 -0.258641884
N  N31  1  0.00570000  0.65690000  0.63680000  1.0 -0.258641884
N  N32  1  0.61890000  0.75570000  0.84880000  1.0 -0.258641884
N  N33  1  0.86000000  0.79970000  0.19250000  1.0 -0.2486302801
N  N34  1  0.91750000  0.61000000  0.56030000  1.0 -0.2486302801
N  N35  1  0.60720000  0.66750000  0.80750000  1.0 -0.2486302801
N  N36  1  0.04970000  0.35720000  0.43970000  1.0 -0.2486302801
N  N37  1  0.39000000  0.95030000  0.30750000  1.0 -0.244043084
N  N38  1  0.33250000  0.14000000  0.93970000  1.0 -0.2486302801
N  N39  1  0.64280000  0.08250000  0.69250000  1.0 -0.2486302801
N  N40  1  0.20030000  0.39280000  0.06030000  1.0 -0.2486302801
N  N41  1  0.08840000  0.99120000  0.22560000  1.0 -0.258641884
N  N42  1  0.11280000  0.83840000  0.59720000  1.0 -0.258641884
N  N43  1  0.76560000  0.86280000  0.77440000  1.0 -0.258641884
N  N44  1  0.24120000  0.51560000  0.40280000  1.0 -0.258641884
N  N45  1  0.16160000  0.75880000  0.27440000  1.0 -0.258641884
N  N46  1  0.13720000  0.91160000  0.90280000  1.0 -0.258641884
N  N47  1  0.48440000  0.88720000  0.72560000  1.0 -0.258641884
N  N48  1  0.00880000  0.23440000  0.09720000  1.0 -0.258641884
N  N49  1  0.75820000  0.69880000  0.39460000  1.0 -0.267090204
N  N50  1  0.61360000  0.50820000  0.55940000  1.0 -0.267090204
N  N51  1  0.30420000  0.36360000  0.60540000  1.0 -0.267090204
N  N52  1  0.94880000  0.05420000  0.44060000  1.0 -0.267090204
N  N53  1  0.49180000  0.05120000  0.10540000  1.0 -0.258641884
N  N54  1  0.63640000  0.24180000  0.94060000  1.0 -0.267090204
N  N55  1  0.94580000  0.38640000  0.89460000  1.0 -0.267090204
N  N56  1  0.30120000  0.69580000  0.05940000  1.0 -0.267090204
N  N57  1  0.63150000  0.64580000  0.44070000  1.0 -0.267090204
N  N58  1  0.44080000  0.38150000  0.48570000  1.0 -0.267090204
N  N59  1  0.20510000  0.19080000  0.55930000  1.0 -0.267090204
N  N60  1  0.89580000  0.95510000  0.51430000  1.0 -0.267090204
N  N61  1  0.61850000  0.10420000  0.05930000  1.0 -0.267090204
N  N62  1  0.80920000  0.36850000  0.01430000  1.0 -0.267090204
N  N63  1  0.04490000  0.55920000  0.94070000  1.0 -0.267090204
N  N64  1  0.35420000  0.79490000  0.98570000  1.0 -0.267090204
O  O1  1  0.03052000  0.08844000  0.17336000  1.0 -0.5681121731
O  O2  1  0.10716000  0.78052000  0.44208000  1.0 -0.5681121731
O  O3  1  0.91508000  0.85716000  0.82664000  1.0 -0.5681121731
O  O4  1  0.33844000  0.66508000  0.55792000  1.0 -0.5578620287
O  O5  1  0.21948000  0.66156000  0.32664000  1.0 -0.5681121731
O  O6  1  0.14284000  0.96948000  0.05792000  1.0 -0.5578620287
O  O7  1  0.33492000  0.89284000  0.67336000  1.0 -0.5681121731
O  O8  1  0.91156000  0.08492000  0.94208000  1.0 -0.5681121731
O  O9  1  0.16543000  0.16452000  0.17135000  1.0 -0.5898170603
O  O10  1  0.24408000  0.91543000  0.50091000  1.0 -0.5898170603
O  O11  1  0.99317000  0.99408000  0.82865000  1.0 -0.5898170603
O  O12  1  0.41452000  0.74317000  0.49909000  1.0 -0.5898170603
O  O13  1  0.08457000  0.58548000  0.32865000  1.0 -0.5898170603
O  O14  1  0.00592000  0.83457000  0.99909000  1.0 -0.5898170603
O  O15  1  0.25683000  0.75592000  0.67135000  1.0 -0.5898170603
O  O16  1  0.83548000  0.00683000  0.00091000  1.0 -0.5898170603
O  O17  1  0.98909000  0.01463000  0.25792000  1.0 -0.6952761059
O  O18  1  0.98117000  0.73909000  0.47446000  1.0 -0.6952761059
O  O19  1  0.75671000  0.73117000  0.74208000  1.0 -0.6952761059
O  O20  1  0.26463000  0.50671000  0.52554000  1.0 -0.6952761059
O  O21  1  0.26091000  0.73537000  0.24208000  1.0 -0.6952761059
O  O22  1  0.26883000  0.01091000  0.02554000  1.0 -0.6952761059
O  O23  1  0.49329000  0.01883000  0.75792000  1.0 -0.6952761059
O  O24  1  0.98537000  0.24329000  0.97446000  1.0 -0.6952761059
O  O25  1  0.19053000  0.22373000  0.27326000  1.0 -0.6770249402
O  O26  1  0.16727000  0.94053000  0.46680000  1.0 -0.6770249402
O  O27  1  0.95047000  0.91727000  0.72674000  1.0 -0.6770249402
O  O28  1  0.47373000  0.70047000  0.53320000  1.0 -0.6770249402
O  O29  1  0.05947000  0.52627000  0.22674000  1.0 -0.6770249402
O  O30  1  0.08273000  0.80947000  0.03320000  1.0 -0.6770249402
O  O31  1  0.29953000  0.83273000  0.77326000  1.0 -0.6770249402
O  O32  1  0.77627000  0.04953000  0.96680000  1.0 -0.6770249402
O  O33  1  0.22615000  0.32449000  0.32764000  1.0 -0.622422049
O  O34  1  0.14851000  0.97615000  0.40166000  1.0 -0.622422049
O  O35  1  0.99685000  0.89851000  0.67236000  1.0 -0.622422049
O  O36  1  0.57449000  0.74685000  0.59834000  1.0 -0.622422049
O  O37  1  0.02385000  0.42551000  0.17236000  1.0 -0.622422049
O  O38  1  0.10149000  0.77385000  0.09834000  1.0 -0.622422049
O  O39  1  0.25315000  0.85149000  0.82764000  1.0 -0.622422049
O  O40  1  0.67551000  0.00315000  0.90166000  1.0 -0.622422049
O  O41  1  0.24470000  0.40160000  0.30030000  1.0 -0.5898170603
O  O42  1  0.19440000  0.99470000  0.34310000  1.0 -0.5898170603
O  O43  1  0.10130000  0.94440000  0.69970000  1.0 -0.5898170603
O  O44  1  0.65160000  0.85130000  0.65690000  1.0 -0.5898170603
O  O45  1  0.00530000  0.34840000  0.19970000  1.0 -0.5898170603
O  O46  1  0.05560000  0.75530000  0.15690000  1.0 -0.5898170603
O  O47  1  0.14870000  0.80560000  0.80030000  1.0 -0.5898170603
O  O48  1  0.59840000  0.89870000  0.84310000  1.0 -0.5898170603
O  O49  1  0.84634000  0.00199000  0.30653000  1.0 -0.6093584133
O  O50  1  0.78981000  0.59634000  0.34435000  1.0 -0.6093584133
O  O51  1  0.69546000  0.53981000  0.69347000  1.0 -0.6093584133
O  O52  1  0.25199000  0.44546000  0.65565000  1.0 -0.6093584133
O  O53  1  0.40366000  0.74801000  0.19347000  1.0 -0.6093584133
O  O54  1  0.46019000  0.15366000  0.15565000  1.0 -0.6093584133
O  O55  1  0.55454000  0.21019000  0.80653000  1.0 -0.6093584133
O  O56  1  0.99801000  0.30454000  0.84435000  1.0 -0.6093584133
O  O57  1  0.97641000  0.10563000  0.26444000  1.0 -0.622422049
O  O58  1  0.96197000  0.72641000  0.37078000  1.0 -0.622422049
O  O59  1  0.84119000  0.71197000  0.73556000  1.0 -0.622422049
O  O60  1  0.35563000  0.59119000  0.62922000  1.0 -0.622422049
O  O61  1  0.27359000  0.64437000  0.23556000  1.0 -0.622422049
O  O62  1  0.28803000  0.02359000  0.12922000  1.0 -0.622422049
O  O63  1  0.40881000  0.03803000  0.76444000  1.0 -0.622422049
O  O64  1  0.89437000  0.15881000  0.87078000  1.0 -0.622422049
O  O65  1  0.61400000  0.70386000  0.15006000  1.0 -0.5997348783
O  O66  1  0.71394000  0.36400000  0.41014000  1.0 -0.5997348783
O  O67  1  0.55380000  0.46394000  0.84994000  1.0 -0.5997348783
O  O68  1  0.95386000  0.30380000  0.58986000  1.0 -0.5997348783
O  O69  1  0.63600000  0.04614000  0.34994000  1.0 -0.5997348783
O  O70  1  0.53606000  0.38600000  0.08986000  1.0 -0.5997348783
O  O71  1  0.69620000  0.28606000  0.65006000  1.0 -0.5997348783
O  O72  1  0.29614000  0.44620000  0.91014000  1.0 -0.5997348783
O  O73  1  0.54440000  0.58330000  0.17830000  1.0 -0.5578620287
O  O74  1  0.61610000  0.29440000  0.46110000  1.0 -0.5545355847
O  O75  1  0.40500000  0.36610000  0.82170000  1.0 -0.5578620287
O  O76  1  0.83330000  0.15500000  0.53890000  1.0 -0.5578620287
O  O77  1  0.70560000  0.16670000  0.32170000  1.0 -0.5578620287
O  O78  1  0.63390000  0.45560000  0.03890000  1.0 -0.5578620287
O  O79  1  0.84500000  0.38390000  0.67830000  1.0 -0.5578620287
O  O80  1  0.41670000  0.59500000  0.96110000  1.0 -0.5578620287
O  O81  1  0.64453000  0.76147000  0.25400000  1.0 -0.648231039
O  O82  1  0.64053000  0.39453000  0.38306000  1.0 -0.648231039
O  O83  1  0.50747000  0.39053000  0.74600000  1.0 -0.648231039
O  O84  1  0.01147000  0.25747000  0.61694000  1.0 -0.648231039
O  O85  1  0.60547000  0.98853000  0.24600000  1.0 -0.648231039
O  O86  1  0.60947000  0.35547000  0.11694000  1.0 -0.648231039
O  O87  1  0.74253000  0.35947000  0.75400000  1.0 -0.648231039
O  O88  1  0.23853000  0.49253000  0.88306000  1.0 -0.648231039
O  O89  1  0.44406000  0.55441000  0.23527000  1.0 -0.7119956708
O  O90  1  0.45879000  0.19406000  0.38965000  1.0 -0.7119956708
O  O91  1  0.31914000  0.20879000  0.76473000  1.0 -0.7119956708
O  O92  1  0.80441000  0.06914000  0.61035000  1.0 -0.7119956708
O  O93  1  0.80594000  0.19559000  0.26473000  1.0 -0.7119956708
O  O94  1  0.79121000  0.55594000  0.11035000  1.0 -0.7119956708
O  O95  1  0.93086000  0.54121000  0.73527000  1.0 -0.7119956708
O  O96  1  0.44559000  0.68086000  0.88965000  1.0 -0.7119956708
O  O97  1  0.53110000  0.55510000  0.28760000  1.0 -0.5997348783
O  O98  1  0.49350000  0.28110000  0.47600000  1.0 -0.5997348783
O  O99  1  0.26750000  0.24350000  0.71240000  1.0 -0.5997348783
O  O100  1  0.80510000  0.01750000  0.52400000  1.0 -0.5997348783
O  O101  1  0.71890000  0.19490000  0.21240000  1.0 -0.5997348783
O  O102  1  0.75650000  0.46890000  0.02400000  1.0 -0.5997348783
O  O103  1  0.98250000  0.50650000  0.78760000  1.0 -0.5997348783
O  O104  1  0.44490000  0.73250000  0.97600000  1.0 -0.5997348783
O  O105  1  0.41580000  0.44020000  0.33460000  1.0 -0.5681121731
O  O106  1  0.33120000  0.16580000  0.47560000  1.0 -0.5681121731
O  O107  1  0.10560000  0.08120000  0.66540000  1.0 -0.5681121731
O  O108  1  0.69020000  0.85560000  0.52440000  1.0 -0.5681121731
O  O109  1  0.83420000  0.30980000  0.16540000  1.0 -0.5681121731
O  O110  1  0.91880000  0.58420000  0.02440000  1.0 -0.5681121731
O  O111  1  0.14440000  0.66880000  0.83460000  1.0 -0.5681121731
O  O112  1  0.55980000  0.89440000  0.97560000  1.0 -0.5681121731
O  O113  1  0.72630000  0.81290000  0.33220000  1.0 -0.5578620287
O  O114  1  0.64410000  0.47630000  0.41340000  1.0 -0.5578620287
O  O115  1  0.48070000  0.39410000  0.66780000  1.0 -0.5578620287
O  O116  1  0.06290000  0.23070000  0.58660000  1.0 -0.5578620287
O  O117  1  0.52370000  0.93710000  0.16780000  1.0 -0.5578620287
O  O118  1  0.60590000  0.27370000  0.08660000  1.0 -0.5578620287
O  O119  1  0.76930000  0.35590000  0.83220000  1.0 -0.5578620287
O  O120  1  0.18710000  0.51930000  0.91340000  1.0 -0.5578620287
O  O121  1  0.82250000  0.84580000  0.33830000  1.0 -0.6093584133
O  O122  1  0.73420000  0.57250000  0.47670000  1.0 -0.6093584133
O  O123  1  0.50750000  0.48420000  0.66170000  1.0 -0.6093584133
O  O124  1  0.09580000  0.25750000  0.52330000  1.0 -0.6093584133
O  O125  1  0.42750000  0.90420000  0.16170000  1.0 -0.6093584133
O  O126  1  0.51580000  0.17750000  0.02330000  1.0 -0.6093584133
O  O127  1  0.74250000  0.26580000  0.83830000  1.0 -0.6093584133
O  O128  1  0.15420000  0.49250000  0.97670000  1.0 -0.6093584133
